MODEL        1
REMARK 921   NORMALIZED FREE ENERGY PREDICTED BY IDOCK:   -9.82 KCAL/MOL
REMARK 922        TOTAL FREE ENERGY PREDICTED BY IDOCK:  -15.11 KCAL/MOL
REMARK 923 INTER-LIGAND FREE ENERGY PREDICTED BY IDOCK:  -13.83 KCAL/MOL
REMARK 924 INTRA-LIGAND FREE ENERGY PREDICTED BY IDOCK:   -1.28 KCAL/MOL
REMARK 927      BINDING AFFINITY PREDICTED BY RF-SCORE:    0.00 PKD
ROOT
HETATM    1  C   UNL     1     -12.473  16.201  74.050  1.00  0.00    -0.595 C  
HETATM    2  O   UNL     1     -13.103  16.088  72.778  1.00  0.00    -0.465 OA 
ENDROOT
BRANCH   2   3
HETATM    3  C   UNL     1     -12.897  14.901  72.126  1.00  0.00    -0.325 A  
HETATM    4  C   UNL     1     -13.574  13.807  72.678  1.00  0.00    -0.617 A  
HETATM    5  C   UNL     1     -13.435  12.529  72.143  1.00  0.00    -0.523 A  
HETATM    6  C   UNL     1     -12.631  12.312  71.007  1.00  0.00    -0.352 A  
HETATM    7  C   UNL     1     -11.995  13.417  70.421  1.00  0.00    -0.358 A  
HETATM    8  H   UNL     1     -10.987  15.613  69.575  1.00  0.00     0.000 HD 
HETATM    9  O   UNL     1     -11.504  15.748  70.361  1.00  0.00    -0.304 OA 
HETATM   10  C   UNL     1     -12.136  14.703  70.971  1.00  0.00    -0.329 A  
BRANCH   6  11
HETATM   11  C   UNL     1     -12.346  10.889  70.553  1.00  0.00    -0.374 C  
HETATM   12  C   UNL     1     -12.452   9.969  71.757  1.00  0.00    -0.475 C  
HETATM   13  O   UNL     1     -13.002   7.665  71.690  1.00  0.00    -0.334 OA 
HETATM   14  C   UNL     1     -12.280   8.563  71.262  1.00  0.00    -0.277 C  
HETATM   15  C   UNL     1     -11.214   8.363  70.263  1.00  0.00    -0.175 A  
HETATM   16  C   UNL     1     -10.655   9.502  69.676  1.00  0.00    -0.228 A  
HETATM   17  C   UNL     1      -9.611   9.374  68.750  1.00  0.00    -0.156 A  
HETATM   18  O   UNL     1     -11.040  10.795  69.960  1.00  0.00    -0.279 OA 
HETATM   19  C   UNL     1      -9.104   8.111  68.423  1.00  0.00    -0.136 A  
HETATM   20  O   UNL     1     -11.224   5.971  70.503  1.00  0.00    -0.323 OA 
HETATM   21  C   UNL     1      -9.678   6.974  68.999  1.00  0.00    -0.145 A  
HETATM   22  H   UNL     1     -10.888   5.113  70.271  1.00  0.00     0.000 HD 
HETATM   23  C   UNL     1     -10.718   7.098  69.920  1.00  0.00    -0.239 A  
BRANCH  19  24
HETATM   24  O   UNL     1      -8.084   7.860  67.539  1.00  0.00    -0.120 OA 
BRANCH  24  25
HETATM   25  C   UNL     1      -7.908   8.799  66.471  1.00  0.00    -0.103 C  
HETATM   26  C   UNL     1      -9.047  10.423  65.157  1.00  0.00    -0.198 C  
HETATM   27  O   UNL     1      -9.187   9.317  66.065  1.00  0.00    -0.173 OA 
HETATM   28  C   UNL     1      -8.373   9.952  63.859  1.00  0.00    -0.172 C  
HETATM   29  H   UNL     1      -5.670   8.250  63.182  1.00  0.00     0.000 HD 
HETATM   30  O   UNL     1      -5.982   7.541  65.590  1.00  0.00    -0.037 OA 
HETATM   31  C   UNL     1      -7.053   9.236  64.180  1.00  0.00    -0.098 C  
HETATM   32  O   UNL     1      -8.073  11.019  62.947  1.00  0.00    -0.381 OA 
HETATM   33  H   UNL     1      -5.572   7.135  64.835  1.00  0.00     0.000 HD 
HETATM   34  H   UNL     1      -7.656  10.728  62.145  1.00  0.00     0.000 HD 
HETATM   35  O   UNL     1      -6.486   8.694  62.983  1.00  0.00    -0.090 OA 
HETATM   36  C   UNL     1      -7.241   8.139  65.242  1.00  0.00    -0.068 C  
BRANCH  26  37
HETATM   37  C   UNL     1     -10.431  11.020  64.875  1.00  0.00    -0.303 C  
BRANCH  37  38
HETATM   38  O   UNL     1     -10.303  11.977  63.824  1.00  0.00    -0.352 OA 
BRANCH  38  39
HETATM   39  C   UNL     1     -10.474  13.320  64.289  1.00  0.00    -0.352 C  
HETATM   40  O   UNL     1      -9.956  13.407  65.617  1.00  0.00    -0.285 OA 
HETATM   41  C   UNL     1     -10.150  14.660  66.276  1.00  0.00    -0.294 C  
HETATM   42  C   UNL     1     -11.632  15.084  66.282  1.00  0.00    -0.160 C  
HETATM   43  C   UNL     1      -9.183  15.715  65.744  1.00  0.00    -0.247 C  
HETATM   44  O   UNL     1     -12.373  14.196  67.136  1.00  0.00    -0.562 OA 
HETATM   45  C   UNL     1     -12.271  15.014  64.893  1.00  0.00    -0.148 C  
HETATM   46  O   UNL     1     -11.880  16.118  64.060  1.00  0.00    -1.227 OA 
HETATM   47  H   UNL     1     -13.286  14.458  67.140  1.00  0.00     0.000 HD 
HETATM   48  C   UNL     1     -11.976  13.671  64.211  1.00  0.00    -0.445 C  
HETATM   49  H   UNL     1     -12.276  16.075  63.198  1.00  0.00     0.000 HD 
HETATM   50  O   UNL     1     -12.418  13.724  62.842  1.00  0.00    -1.009 OA 
HETATM   51  H   UNL     1     -13.342  13.939  62.795  1.00  0.00     0.000 HD 
ENDBRANCH  38  39
ENDBRANCH  37  38
ENDBRANCH  26  37
ENDBRANCH  24  25
ENDBRANCH  19  24
ENDBRANCH   6  11
ENDBRANCH   2   3
TORSDOF 7
ENDMDL
MODEL        2
REMARK 921   NORMALIZED FREE ENERGY PREDICTED BY IDOCK:   -9.69 KCAL/MOL
REMARK 922        TOTAL FREE ENERGY PREDICTED BY IDOCK:  -14.94 KCAL/MOL
REMARK 923 INTER-LIGAND FREE ENERGY PREDICTED BY IDOCK:  -12.57 KCAL/MOL
REMARK 924 INTRA-LIGAND FREE ENERGY PREDICTED BY IDOCK:   -2.37 KCAL/MOL
REMARK 927      BINDING AFFINITY PREDICTED BY RF-SCORE:    0.00 PKD
ROOT
HETATM    1  C   UNL     1      -6.382  17.847  66.193  1.00  0.00    -0.244 C  
HETATM    2  O   UNL     1      -7.660  17.703  65.581  1.00  0.00    -0.521 OA 
ENDROOT
BRANCH   2   3
HETATM    3  C   UNL     1      -8.649  17.221  66.395  1.00  0.00    -0.259 A  
HETATM    4  C   UNL     1      -8.236  16.224  67.288  1.00  0.00    -0.197 A  
HETATM    5  C   UNL     1      -9.138  15.615  68.156  1.00  0.00    -0.181 A  
HETATM    6  C   UNL     1     -10.489  16.013  68.179  1.00  0.00    -0.269 A  
HETATM    7  C   UNL     1     -10.893  17.048  67.322  1.00  0.00    -0.123 A  
HETATM    8  H   UNL     1     -11.317  18.958  65.670  1.00  0.00     0.000 HD 
HETATM    9  O   UNL     1     -10.414  18.663  65.636  1.00  0.00    -0.603 OA 
HETATM   10  C   UNL     1      -9.977  17.654  66.445  1.00  0.00    -0.334 A  
BRANCH   6  11
HETATM   11  C   UNL     1     -11.491  15.212  68.997  1.00  0.00    -0.309 C  
HETATM   12  C   UNL     1     -11.650  15.880  70.352  1.00  0.00    -0.387 C  
HETATM   13  O   UNL     1     -13.571  15.758  71.734  1.00  0.00    -0.459 OA 
HETATM   14  C   UNL     1     -12.725  15.139  71.092  1.00  0.00    -0.385 C  
HETATM   15  C   UNL     1     -12.676  13.670  70.987  1.00  0.00    -0.408 A  
HETATM   16  C   UNL     1     -11.832  13.117  70.020  1.00  0.00    -0.290 A  
HETATM   17  C   UNL     1     -11.715  11.725  69.902  1.00  0.00    -0.399 A  
HETATM   18  O   UNL     1     -11.050  13.853  69.154  1.00  0.00    -0.248 OA 
HETATM   19  C   UNL     1     -12.422  10.879  70.763  1.00  0.00    -0.394 A  
HETATM   20  O   UNL     1     -14.206  13.334  72.811  1.00  0.00    -0.692 OA 
HETATM   21  C   UNL     1     -13.279  11.435  71.717  1.00  0.00    -0.472 A  
HETATM   22  H   UNL     1     -14.696  12.758  73.387  1.00  0.00     0.000 HD 
HETATM   23  C   UNL     1     -13.398  12.820  71.836  1.00  0.00    -0.413 A  
BRANCH  19  24
HETATM   24  O   UNL     1     -12.384   9.507  70.750  1.00  0.00    -0.258 OA 
BRANCH  24  25
HETATM   25  C   UNL     1     -11.136   8.891  71.092  1.00  0.00    -0.285 C  
HETATM   26  C   UNL     1      -9.083   8.112  70.176  1.00  0.00    -0.147 C  
HETATM   27  O   UNL     1     -10.430   8.526  69.893  1.00  0.00    -0.210 OA 
HETATM   28  C   UNL     1      -9.095   6.841  71.040  1.00  0.00    -0.156 C  
HETATM   29  H   UNL     1     -10.600   5.980  73.806  1.00  0.00     0.000 HD 
HETATM   30  O   UNL     1     -12.107   7.894  73.125  1.00  0.00    -0.655 OA 
HETATM   31  C   UNL     1      -9.957   7.063  72.290  1.00  0.00    -0.171 C  
HETATM   32  O   UNL     1      -7.792   6.433  71.481  1.00  0.00    -0.099 OA 
HETATM   33  H   UNL     1     -12.238   7.109  73.644  1.00  0.00     0.000 HD 
HETATM   34  H   UNL     1      -7.799   5.648  72.014  1.00  0.00     0.000 HD 
HETATM   35  O   UNL     1     -10.066   5.843  73.032  1.00  0.00    -0.172 OA 
HETATM   36  C   UNL     1     -11.349   7.613  71.937  1.00  0.00    -0.266 C  
BRANCH  26  37
HETATM   37  C   UNL     1      -8.342   7.876  68.855  1.00  0.00    -0.127 C  
BRANCH  37  38
HETATM   38  O   UNL     1      -9.211   8.232  67.780  1.00  0.00    -0.134 OA 
BRANCH  38  39
HETATM   39  C   UNL     1      -8.796   9.433  67.122  1.00  0.00    -0.127 C  
HETATM   40  O   UNL     1      -8.996  10.530  68.015  1.00  0.00    -0.131 OA 
HETATM   41  C   UNL     1      -8.735  11.825  67.472  1.00  0.00    -0.159 C  
HETATM   42  C   UNL     1      -9.530  12.077  66.175  1.00  0.00    -0.232 C  
HETATM   43  C   UNL     1      -7.235  12.083  67.365  1.00  0.00    -0.144 C  
HETATM   44  O   UNL     1     -10.929  12.178  66.491  1.00  0.00    -0.258 OA 
HETATM   45  C   UNL     1      -9.376  10.942  65.159  1.00  0.00    -0.218 C  
HETATM   46  O   UNL     1      -8.109  10.989  64.483  1.00  0.00    -0.357 OA 
HETATM   47  H   UNL     1     -11.418  12.333  65.691  1.00  0.00     0.000 HD 
HETATM   48  C   UNL     1      -9.606   9.573  65.815  1.00  0.00    -0.270 C  
HETATM   49  H   UNL     1      -8.012  10.285  63.853  1.00  0.00     0.000 HD 
HETATM   50  O   UNL     1      -9.256   8.534  64.883  1.00  0.00    -0.402 OA 
HETATM   51  H   UNL     1      -9.755   8.620  64.079  1.00  0.00     0.000 HD 
ENDBRANCH  38  39
ENDBRANCH  37  38
ENDBRANCH  26  37
ENDBRANCH  24  25
ENDBRANCH  19  24
ENDBRANCH   6  11
ENDBRANCH   2   3
TORSDOF 7
ENDMDL
MODEL        3
REMARK 921   NORMALIZED FREE ENERGY PREDICTED BY IDOCK:   -9.60 KCAL/MOL
REMARK 922        TOTAL FREE ENERGY PREDICTED BY IDOCK:  -14.81 KCAL/MOL
REMARK 923 INTER-LIGAND FREE ENERGY PREDICTED BY IDOCK:  -12.93 KCAL/MOL
REMARK 924 INTRA-LIGAND FREE ENERGY PREDICTED BY IDOCK:   -1.87 KCAL/MOL
REMARK 927      BINDING AFFINITY PREDICTED BY RF-SCORE:    0.00 PKD
ROOT
HETATM    1  C   UNL     1     -10.574   1.695  73.207  1.00  0.00    -0.118 C  
HETATM    2  O   UNL     1      -9.502   2.585  72.915  1.00  0.00    -0.087 OA 
ENDROOT
BRANCH   2   3
HETATM    3  C   UNL     1      -9.742   3.480  71.907  1.00  0.00    -0.164 A  
HETATM    4  C   UNL     1      -9.383   3.030  70.630  1.00  0.00    -0.221 A  
HETATM    5  C   UNL     1      -9.537   3.842  69.510  1.00  0.00    -0.248 A  
HETATM    6  C   UNL     1     -10.090   5.132  69.631  1.00  0.00    -0.332 A  
HETATM    7  C   UNL     1     -10.498   5.564  70.902  1.00  0.00    -0.319 A  
HETATM    8  H   UNL     1     -11.158   6.057  73.327  1.00  0.00     0.000 HD 
HETATM    9  O   UNL     1     -10.754   5.200  73.244  1.00  0.00    -0.215 OA 
HETATM   10  C   UNL     1     -10.334   4.740  72.029  1.00  0.00    -0.179 A  
BRANCH   6  11
HETATM   11  C   UNL     1     -10.077   6.068  68.433  1.00  0.00    -0.164 C  
HETATM   12  C   UNL     1      -8.663   6.124  67.880  1.00  0.00    -0.113 C  
HETATM   13  O   UNL     1      -8.075   6.611  65.637  1.00  0.00    -0.112 OA 
HETATM   14  C   UNL     1      -8.702   6.960  66.635  1.00  0.00    -0.128 C  
HETATM   15  C   UNL     1      -9.520   8.184  66.713  1.00  0.00    -0.256 A  
HETATM   16  C   UNL     1     -10.382   8.319  67.805  1.00  0.00    -0.234 A  
HETATM   17  C   UNL     1     -11.154   9.479  67.951  1.00  0.00    -0.053 A  
HETATM   18  O   UNL     1     -10.524   7.382  68.807  1.00  0.00    -0.203 OA 
HETATM   19  C   UNL     1     -11.054  10.520  67.021  1.00  0.00    -0.110 A  
HETATM   20  O   UNL     1      -8.577   9.127  64.712  1.00  0.00    -0.169 OA 
HETATM   21  C   UNL     1     -10.204  10.374  65.920  1.00  0.00    -0.302 A  
HETATM   22  H   UNL     1      -8.519   9.829  64.074  1.00  0.00     0.000 HD 
HETATM   23  C   UNL     1      -9.435   9.219  65.772  1.00  0.00    -0.262 A  
BRANCH  19  24
HETATM   24  O   UNL     1     -11.750  11.702  67.061  1.00  0.00    -0.564 OA 
BRANCH  24  25
HETATM   25  C   UNL     1     -11.327  12.733  66.160  1.00  0.00    -0.328 C  
HETATM   26  C   UNL     1     -10.123  14.782  66.043  1.00  0.00    -0.308 C  
HETATM   27  O   UNL     1     -10.763  13.827  66.906  1.00  0.00    -0.277 OA 
HETATM   28  C   UNL     1     -11.160  15.422  65.109  1.00  0.00    -0.394 C  
HETATM   29  H   UNL     1     -13.472  14.250  63.123  1.00  0.00     0.000 HD 
HETATM   30  O   UNL     1     -13.163  12.220  64.601  1.00  0.00    -0.763 OA 
HETATM   31  C   UNL     1     -11.942  14.332  64.363  1.00  0.00    -0.456 C  
HETATM   32  O   UNL     1     -10.586  16.292  64.122  1.00  0.00    -0.548 OA 
HETATM   33  H   UNL     1     -13.890  12.552  64.087  1.00  0.00     0.000 HD 
HETATM   34  H   UNL     1     -11.227  16.689  63.544  1.00  0.00     0.000 HD 
HETATM   35  O   UNL     1     -12.988  14.925  63.585  1.00  0.00    -0.399 OA 
HETATM   36  C   UNL     1     -12.510  13.274  65.325  1.00  0.00    -0.489 C  
BRANCH  26  37
HETATM   37  C   UNL     1      -9.421  15.842  66.900  1.00  0.00    -0.228 C  
BRANCH  37  38
HETATM   38  O   UNL     1      -8.790  16.781  66.029  1.00  0.00    -0.447 OA 
BRANCH  38  39
HETATM   39  C   UNL     1      -8.739  18.095  66.594  1.00  0.00    -0.264 C  
HETATM   40  O   UNL     1      -8.116  18.011  67.876  1.00  0.00    -0.233 OA 
HETATM   41  C   UNL     1      -8.086  19.224  68.630  1.00  0.00    -0.370 C  
HETATM   42  C   UNL     1      -9.491  19.840  68.789  1.00  0.00    -0.267 C  
HETATM   43  C   UNL     1      -7.025  20.179  68.089  1.00  0.00    -0.326 C  
HETATM   44  O   UNL     1     -10.281  18.995  69.642  1.00  0.00    -0.362 OA 
HETATM   45  C   UNL     1     -10.234  19.961  67.456  1.00  0.00    -0.422 C  
HETATM   46  O   UNL     1      -9.757  21.064  66.668  1.00  0.00    -0.557 OA 
HETATM   47  H   UNL     1     -11.147  19.375  69.740  1.00  0.00     0.000 HD 
HETATM   48  C   UNL     1     -10.179  18.647  66.665  1.00  0.00    -0.404 C  
HETATM   49  H   UNL     1     -10.218  21.140  65.841  1.00  0.00     0.000 HD 
HETATM   50  O   UNL     1     -10.711  18.862  65.345  1.00  0.00    -0.536 OA 
HETATM   51  H   UNL     1     -11.597  19.201  65.390  1.00  0.00     0.000 HD 
ENDBRANCH  38  39
ENDBRANCH  37  38
ENDBRANCH  26  37
ENDBRANCH  24  25
ENDBRANCH  19  24
ENDBRANCH   6  11
ENDBRANCH   2   3
TORSDOF 7
ENDMDL
MODEL        4
REMARK 921   NORMALIZED FREE ENERGY PREDICTED BY IDOCK:   -9.45 KCAL/MOL
REMARK 922        TOTAL FREE ENERGY PREDICTED BY IDOCK:  -14.60 KCAL/MOL
REMARK 923 INTER-LIGAND FREE ENERGY PREDICTED BY IDOCK:  -13.06 KCAL/MOL
REMARK 924 INTRA-LIGAND FREE ENERGY PREDICTED BY IDOCK:   -1.53 KCAL/MOL
REMARK 927      BINDING AFFINITY PREDICTED BY RF-SCORE:    0.00 PKD
ROOT
HETATM    1  C   UNL     1      -6.112   5.037  65.632  1.00  0.00    -0.033 C  
HETATM    2  O   UNL     1      -6.700   5.525  64.431  1.00  0.00    -0.044 OA 
ENDROOT
BRANCH   2   3
HETATM    3  C   UNL     1      -7.398   6.697  64.554  1.00  0.00    -0.086 A  
HETATM    4  C   UNL     1      -8.021   6.878  65.795  1.00  0.00    -0.116 A  
HETATM    5  C   UNL     1      -8.794   8.006  66.056  1.00  0.00    -0.196 A  
HETATM    6  C   UNL     1      -8.940   9.014  65.083  1.00  0.00    -0.216 A  
HETATM    7  C   UNL     1      -8.273   8.858  63.858  1.00  0.00    -0.171 A  
HETATM    8  H   UNL     1      -6.932   8.303  61.749  1.00  0.00     0.000 HD 
HETATM    9  O   UNL     1      -6.863   7.611  62.398  1.00  0.00    -0.074 OA 
HETATM   10  C   UNL     1      -7.500   7.713  63.600  1.00  0.00    -0.101 A  
BRANCH   6  11
HETATM   11  C   UNL     1      -9.933  10.141  65.318  1.00  0.00    -0.311 C  
HETATM   12  C   UNL     1     -10.166  10.861  64.000  1.00  0.00    -0.422 C  
HETATM   13  O   UNL     1     -12.124  12.056  63.406  1.00  0.00    -0.507 OA 
HETATM   14  C   UNL     1     -11.231  11.891  64.235  1.00  0.00    -0.357 C  
HETATM   15  C   UNL     1     -11.115  12.655  65.490  1.00  0.00    -0.329 A  
HETATM   16  C   UNL     1     -10.216  12.187  66.453  1.00  0.00    -0.220 A  
HETATM   17  C   UNL     1     -10.035  12.896  67.648  1.00  0.00    -0.218 A  
HETATM   18  O   UNL     1      -9.439  11.056  66.311  1.00  0.00    -0.182 OA 
HETATM   19  C   UNL     1     -10.733  14.087  67.879  1.00  0.00    -0.240 A  
HETATM   20  O   UNL     1     -12.689  14.335  64.794  1.00  0.00    -0.646 OA 
HETATM   21  C   UNL     1     -11.645  14.542  66.922  1.00  0.00    -0.399 A  
HETATM   22  H   UNL     1     -13.172  15.137  64.957  1.00  0.00     0.000 HD 
HETATM   23  C   UNL     1     -11.827  13.838  65.732  1.00  0.00    -0.372 A  
BRANCH  19  24
HETATM   24  O   UNL     1     -10.635  14.869  69.003  1.00  0.00    -0.231 OA 
BRANCH  24  25
HETATM   25  C   UNL     1     -11.317  14.405  70.176  1.00  0.00    -0.165 C  
HETATM   26  C   UNL     1     -12.465  12.535  71.094  1.00  0.00    -0.223 C  
HETATM   27  O   UNL     1     -11.960  13.149  69.897  1.00  0.00    -0.317 OA 
HETATM   28  C   UNL     1     -13.558  13.419  71.716  1.00  0.00    -0.326 C  
HETATM   29  H   UNL     1     -13.754  16.579  72.512  1.00  0.00     0.000 HD 
HETATM   30  O   UNL     1     -11.833  16.711  70.872  1.00  0.00    -0.444 OA 
HETATM   31  C   UNL     1     -13.029  14.845  71.920  1.00  0.00    -0.333 C  
HETATM   32  O   UNL     1     -14.025  12.947  72.988  1.00  0.00    -0.512 OA 
HETATM   33  H   UNL     1     -12.496  17.329  71.155  1.00  0.00     0.000 HD 
HETATM   34  H   UNL     1     -14.701  13.492  73.372  1.00  0.00     0.000 HD 
HETATM   35  O   UNL     1     -14.082  15.696  72.386  1.00  0.00    -0.543 OA 
HETATM   36  C   UNL     1     -12.397  15.411  70.636  1.00  0.00    -0.403 C  
BRANCH  26  37
HETATM   37  C   UNL     1     -13.008  11.142  70.755  1.00  0.00    -0.137 C  
BRANCH  37  38
HETATM   38  O   UNL     1     -13.275  10.452  71.976  1.00  0.00    -0.456 OA 
BRANCH  38  39
HETATM   39  C   UNL     1     -12.457   9.288  72.131  1.00  0.00    -0.351 C  
HETATM   40  O   UNL     1     -11.215   9.517  71.465  1.00  0.00    -0.372 OA 
HETATM   41  C   UNL     1     -10.319   8.405  71.427  1.00  0.00    -0.222 C  
HETATM   42  C   UNL     1     -10.986   7.147  70.834  1.00  0.00    -0.251 C  
HETATM   43  C   UNL     1      -9.646   8.196  72.781  1.00  0.00    -0.353 C  
HETATM   44  O   UNL     1     -11.234   7.361  69.434  1.00  0.00    -0.444 OA 
HETATM   45  C   UNL     1     -12.333   6.831  71.490  1.00  0.00    -0.358 C  
HETATM   46  O   UNL     1     -12.177   6.230  72.786  1.00  0.00    -0.498 OA 
HETATM   47  H   UNL     1     -11.645   6.586  69.069  1.00  0.00     0.000 HD 
HETATM   48  C   UNL     1     -13.226   8.077  71.558  1.00  0.00    -0.290 C  
HETATM   49  H   UNL     1     -13.012   6.034  73.193  1.00  0.00     0.000 HD 
HETATM   50  O   UNL     1     -14.389   7.787  72.355  1.00  0.00    -0.595 OA 
HETATM   51  H   UNL     1     -14.862   7.043  72.002  1.00  0.00     0.000 HD 
ENDBRANCH  38  39
ENDBRANCH  37  38
ENDBRANCH  26  37
ENDBRANCH  24  25
ENDBRANCH  19  24
ENDBRANCH   6  11
ENDBRANCH   2   3
TORSDOF 7
ENDMDL
MODEL        5
REMARK 921   NORMALIZED FREE ENERGY PREDICTED BY IDOCK:   -9.44 KCAL/MOL
REMARK 922        TOTAL FREE ENERGY PREDICTED BY IDOCK:  -14.58 KCAL/MOL
REMARK 923 INTER-LIGAND FREE ENERGY PREDICTED BY IDOCK:  -12.23 KCAL/MOL
REMARK 924 INTRA-LIGAND FREE ENERGY PREDICTED BY IDOCK:   -2.35 KCAL/MOL
REMARK 927      BINDING AFFINITY PREDICTED BY RF-SCORE:    0.00 PKD
ROOT
HETATM    1  C   UNL     1      -6.525  18.178  65.831  1.00  0.00    -0.269 C  
HETATM    2  O   UNL     1      -7.928  18.282  65.615  1.00  0.00    -0.494 OA 
ENDROOT
BRANCH   2   3
HETATM    3  C   UNL     1      -8.713  17.670  66.556  1.00  0.00    -0.263 A  
HETATM    4  C   UNL     1      -8.904  16.297  66.352  1.00  0.00    -0.346 A  
HETATM    5  C   UNL     1      -9.706  15.547  67.208  1.00  0.00    -0.218 A  
HETATM    6  C   UNL     1     -10.322  16.148  68.323  1.00  0.00    -0.266 A  
HETATM    7  C   UNL     1     -10.089  17.512  68.557  1.00  0.00    -0.363 A  
HETATM    8  H   UNL     1      -9.464  19.989  68.728  1.00  0.00     0.000 HD 
HETATM    9  O   UNL     1      -9.078  19.585  67.959  1.00  0.00    -0.311 OA 
HETATM   10  C   UNL     1      -9.282  18.264  67.685  1.00  0.00    -0.267 A  
BRANCH   6  11
HETATM   11  C   UNL     1     -11.337  15.358  69.133  1.00  0.00    -0.315 C  
HETATM   12  C   UNL     1     -11.431  15.972  70.520  1.00  0.00    -0.409 C  
HETATM   13  O   UNL     1     -13.318  15.874  71.949  1.00  0.00    -0.432 OA 
HETATM   14  C   UNL     1     -12.518  15.247  71.257  1.00  0.00    -0.370 C  
HETATM   15  C   UNL     1     -12.538  13.783  71.089  1.00  0.00    -0.452 A  
HETATM   16  C   UNL     1     -11.745  13.237  70.076  1.00  0.00    -0.225 A  
HETATM   17  C   UNL     1     -11.694  11.848  69.896  1.00  0.00    -0.383 A  
HETATM   18  O   UNL     1     -10.954  13.975  69.220  1.00  0.00    -0.250 OA 
HETATM   19  C   UNL     1     -12.415  10.996  70.740  1.00  0.00    -0.396 A  
HETATM   20  O   UNL     1     -14.033  13.436  72.940  1.00  0.00    -0.621 OA 
HETATM   21  C   UNL     1     -13.222  11.547  71.740  1.00  0.00    -0.456 A  
HETATM   22  H   UNL     1     -14.533  12.857  73.504  1.00  0.00     0.000 HD 
HETATM   23  C   UNL     1     -13.275  12.930  71.921  1.00  0.00    -0.423 A  
BRANCH  19  24
HETATM   24  O   UNL     1     -12.440   9.626  70.667  1.00  0.00    -0.212 OA 
BRANCH  24  25
HETATM   25  C   UNL     1     -11.316   8.928  71.219  1.00  0.00    -0.300 C  
HETATM   26  C   UNL     1      -9.262   7.874  70.646  1.00  0.00    -0.157 C  
HETATM   27  O   UNL     1     -10.512   8.386  70.156  1.00  0.00    -0.217 OA 
HETATM   28  C   UNL     1      -9.514   6.698  71.601  1.00  0.00    -0.159 C  
HETATM   29  H   UNL     1     -11.428   6.250  74.209  1.00  0.00     0.000 HD 
HETATM   30  O   UNL     1     -12.628   8.225  73.182  1.00  0.00    -0.627 OA 
HETATM   31  C   UNL     1     -10.493   7.118  72.706  1.00  0.00    -0.244 C  
HETATM   32  O   UNL     1      -8.326   6.211  72.241  1.00  0.00    -0.113 OA 
HETATM   33  H   UNL     1     -12.905   7.509  73.742  1.00  0.00     0.000 HD 
HETATM   34  H   UNL     1      -8.481   5.483  72.832  1.00  0.00     0.000 HD 
HETATM   35  O   UNL     1     -10.822   5.990  73.525  1.00  0.00    -0.261 OA 
HETATM   36  C   UNL     1     -11.766   7.763  72.130  1.00  0.00    -0.320 C  
BRANCH  26  37
HETATM   37  C   UNL     1      -8.394   7.444  69.457  1.00  0.00    -0.132 C  
BRANCH  37  38
HETATM   38  O   UNL     1      -7.392   8.438  69.247  1.00  0.00    -0.068 OA 
BRANCH  38  39
HETATM   39  C   UNL     1      -7.908   9.598  68.586  1.00  0.00    -0.081 C  
HETATM   40  O   UNL     1      -7.917   9.350  67.180  1.00  0.00    -0.102 OA 
HETATM   41  C   UNL     1      -8.301  10.454  66.358  1.00  0.00    -0.139 C  
HETATM   42  C   UNL     1      -7.451  11.708  66.645  1.00  0.00    -0.037 C  
HETATM   43  C   UNL     1      -9.810  10.677  66.409  1.00  0.00    -0.259 C  
HETATM   44  O   UNL     1      -6.104  11.477  66.199  1.00  0.00    -0.368 OA 
HETATM   45  C   UNL     1      -7.383  12.045  68.137  1.00  0.00    -0.094 C  
HETATM   46  O   UNL     1      -8.592  12.663  68.609  1.00  0.00    -0.345 OA 
HETATM   47  H   UNL     1      -5.580  12.250  66.376  1.00  0.00     0.000 HD 
HETATM   48  C   UNL     1      -7.028  10.807  68.972  1.00  0.00    -0.085 C  
HETATM   49  H   UNL     1      -8.550  12.872  69.534  1.00  0.00     0.000 HD 
HETATM   50  O   UNL     1      -7.171  11.118  70.370  1.00  0.00    -0.379 OA 
HETATM   51  H   UNL     1      -6.629  11.861  70.607  1.00  0.00     0.000 HD 
ENDBRANCH  38  39
ENDBRANCH  37  38
ENDBRANCH  26  37
ENDBRANCH  24  25
ENDBRANCH  19  24
ENDBRANCH   6  11
ENDBRANCH   2   3
TORSDOF 7
ENDMDL
MODEL        6
REMARK 921   NORMALIZED FREE ENERGY PREDICTED BY IDOCK:   -9.21 KCAL/MOL
REMARK 922        TOTAL FREE ENERGY PREDICTED BY IDOCK:  -14.26 KCAL/MOL
REMARK 923 INTER-LIGAND FREE ENERGY PREDICTED BY IDOCK:  -11.86 KCAL/MOL
REMARK 924 INTRA-LIGAND FREE ENERGY PREDICTED BY IDOCK:   -2.40 KCAL/MOL
REMARK 927      BINDING AFFINITY PREDICTED BY RF-SCORE:    0.00 PKD
ROOT
HETATM    1  C   UNL     1     -12.839  15.618  72.754  1.00  0.00    -0.452 C  
HETATM    2  O   UNL     1     -11.901  16.385  72.006  1.00  0.00    -0.511 OA 
ENDROOT
BRANCH   2   3
HETATM    3  C   UNL     1     -11.643  15.925  70.742  1.00  0.00    -0.410 A  
HETATM    4  C   UNL     1     -12.252  14.702  70.430  1.00  0.00    -0.391 A  
HETATM    5  C   UNL     1     -12.054  14.093  69.194  1.00  0.00    -0.362 A  
HETATM    6  C   UNL     1     -11.259  14.712  68.210  1.00  0.00    -0.301 A  
HETATM    7  C   UNL     1     -10.692  15.962  68.502  1.00  0.00    -0.274 A  
HETATM    8  H   UNL     1      -9.816  18.226  69.318  1.00  0.00     0.000 HD 
HETATM    9  O   UNL     1     -10.327  17.788  69.989  1.00  0.00     0.338 OA 
HETATM   10  C   UNL     1     -10.891  16.568  69.755  1.00  0.00    -0.302 A  
BRANCH   6  11
HETATM   11  C   UNL     1     -10.906  13.948  66.944  1.00  0.00    -0.286 C  
HETATM   12  C   UNL     1     -12.184  13.693  66.163  1.00  0.00    -0.490 C  
HETATM   13  O   UNL     1     -12.332  13.387  63.818  1.00  0.00    -0.644 OA 
HETATM   14  C   UNL     1     -11.795  13.042  64.868  1.00  0.00    -0.361 C  
HETATM   15  C   UNL     1     -10.760  11.996  64.965  1.00  0.00    -0.341 A  
HETATM   16  C   UNL     1     -10.054  11.893  66.167  1.00  0.00    -0.228 A  
HETATM   17  C   UNL     1      -9.087  10.891  66.330  1.00  0.00    -0.192 A  
HETATM   18  O   UNL     1     -10.254  12.707  67.262  1.00  0.00    -0.222 OA 
HETATM   19  C   UNL     1      -8.836   9.975  65.303  1.00  0.00    -0.178 A  
HETATM   20  O   UNL     1     -11.191  11.147  62.757  1.00  0.00    -0.703 OA 
HETATM   21  C   UNL     1      -9.531  10.092  64.096  1.00  0.00    -0.353 A  
HETATM   22  H   UNL     1     -11.011  10.532  62.056  1.00  0.00     0.000 HD 
HETATM   23  C   UNL     1     -10.494  11.089  63.931  1.00  0.00    -0.354 A  
BRANCH  19  24
HETATM   24  O   UNL     1      -7.922   8.951  65.347  1.00  0.00    -0.101 OA 
BRANCH  24  25
HETATM   25  C   UNL     1      -8.254   7.822  66.165  1.00  0.00    -0.123 C  
HETATM   26  C   UNL     1      -7.994   6.911  68.347  1.00  0.00    -0.122 C  
HETATM   27  O   UNL     1      -7.530   7.893  67.405  1.00  0.00    -0.090 OA 
HETATM   28  C   UNL     1      -7.729   5.498  67.805  1.00  0.00    -0.092 C  
HETATM   29  H   UNL     1      -8.352   3.987  64.979  1.00  0.00     0.000 HD 
HETATM   30  O   UNL     1      -8.532   6.382  64.185  1.00  0.00    -0.333 OA 
HETATM   31  C   UNL     1      -8.330   5.351  66.400  1.00  0.00    -0.110 C  
HETATM   32  O   UNL     1      -8.281   4.456  68.622  1.00  0.00    -0.080 OA 
HETATM   33  H   UNL     1      -8.308   5.564  63.756  1.00  0.00     0.000 HD 
HETATM   34  H   UNL     1      -8.117   3.582  68.287  1.00  0.00     0.000 HD 
HETATM   35  O   UNL     1      -7.979   4.078  65.848  1.00  0.00    -0.093 OA 
HETATM   36  C   UNL     1      -7.890   6.492  65.466  1.00  0.00    -0.104 C  
BRANCH  26  37
HETATM   37  C   UNL     1      -7.288   7.130  69.691  1.00  0.00    -0.085 C  
BRANCH  37  38
HETATM   38  O   UNL     1      -8.126   6.619  70.728  1.00  0.00    -0.115 OA 
BRANCH  38  39
HETATM   39  C   UNL     1      -9.437   7.192  70.697  1.00  0.00    -0.161 C  
HETATM   40  O   UNL     1      -9.424   8.391  71.472  1.00  0.00    -0.165 OA 
HETATM   41  C   UNL     1     -10.690   9.033  71.640  1.00  0.00    -0.371 C  
HETATM   42  C   UNL     1     -11.752   8.073  72.211  1.00  0.00    -0.371 C  
HETATM   43  C   UNL     1     -11.105   9.766  70.367  1.00  0.00    -0.367 C  
HETATM   44  O   UNL     1     -11.415   7.751  73.571  1.00  0.00    -0.548 OA 
HETATM   45  C   UNL     1     -11.829   6.753  71.439  1.00  0.00    -0.338 C  
HETATM   46  O   UNL     1     -12.521   6.897  70.187  1.00  0.00    -0.602 OA 
HETATM   47  H   UNL     1     -12.070   7.159  73.922  1.00  0.00     0.000 HD 
HETATM   48  C   UNL     1     -10.435   6.144  71.237  1.00  0.00    -0.224 C  
HETATM   49  H   UNL     1     -12.569   6.079  69.708  1.00  0.00     0.000 HD 
HETATM   50  O   UNL     1     -10.531   5.021  70.342  1.00  0.00    -0.249 OA 
HETATM   51  H   UNL     1     -11.144   4.376  70.674  1.00  0.00     0.000 HD 
ENDBRANCH  38  39
ENDBRANCH  37  38
ENDBRANCH  26  37
ENDBRANCH  24  25
ENDBRANCH  19  24
ENDBRANCH   6  11
ENDBRANCH   2   3
TORSDOF 7
ENDMDL
MODEL        7
REMARK 921   NORMALIZED FREE ENERGY PREDICTED BY IDOCK:   -9.19 KCAL/MOL
REMARK 922        TOTAL FREE ENERGY PREDICTED BY IDOCK:  -14.23 KCAL/MOL
REMARK 923 INTER-LIGAND FREE ENERGY PREDICTED BY IDOCK:  -12.07 KCAL/MOL
REMARK 924 INTRA-LIGAND FREE ENERGY PREDICTED BY IDOCK:   -2.16 KCAL/MOL
REMARK 927      BINDING AFFINITY PREDICTED BY RF-SCORE:    0.00 PKD
ROOT
HETATM    1  C   UNL     1     -12.776  16.300  73.553  1.00  0.00    -0.500 C  
HETATM    2  O   UNL     1     -13.110  16.081  72.186  1.00  0.00    -0.429 OA 
ENDROOT
BRANCH   2   3
HETATM    3  C   UNL     1     -12.953  14.794  71.744  1.00  0.00    -0.332 A  
HETATM    4  C   UNL     1     -13.608  13.827  72.517  1.00  0.00    -0.680 A  
HETATM    5  C   UNL     1     -13.513  12.473  72.210  1.00  0.00    -0.490 A  
HETATM    6  C   UNL     1     -12.777  12.043  71.088  1.00  0.00    -0.365 A  
HETATM    7  C   UNL     1     -12.165  13.015  70.282  1.00  0.00    -0.368 A  
HETATM    8  H   UNL     1     -11.185  15.008  69.007  1.00  0.00     0.000 HD 
HETATM    9  O   UNL     1     -11.656  15.289  69.783  1.00  0.00    -0.270 OA 
HETATM   10  C   UNL     1     -12.261  14.380  70.603  1.00  0.00    -0.344 A  
BRANCH   6  11
HETATM   11  C   UNL     1     -12.532  10.557  70.878  1.00  0.00    -0.390 C  
HETATM   12  C   UNL     1     -13.094   9.803  72.072  1.00  0.00    -0.546 C  
HETATM   13  O   UNL     1     -13.855   7.559  72.053  1.00  0.00    -0.255 OA 
HETATM   14  C   UNL     1     -12.942   8.338  71.786  1.00  0.00    -0.344 C  
HETATM   15  C   UNL     1     -11.657   7.933  71.187  1.00  0.00    -0.302 A  
HETATM   16  C   UNL     1     -10.825   8.943  70.697  1.00  0.00    -0.239 A  
HETATM   17  C   UNL     1      -9.574   8.620  70.153  1.00  0.00    -0.181 A  
HETATM   18  O   UNL     1     -11.128  10.288  70.728  1.00  0.00    -0.326 OA 
HETATM   19  C   UNL     1      -9.139   7.291  70.117  1.00  0.00    -0.148 A  
HETATM   20  O   UNL     1     -12.008   5.597  71.634  1.00  0.00     0.141 OA 
HETATM   21  C   UNL     1      -9.982   6.282  70.592  1.00  0.00    -0.221 A  
HETATM   22  H   UNL     1     -11.717   4.693  71.597  1.00  0.00     0.000 HD 
HETATM   23  C   UNL     1     -11.228   6.600  71.133  1.00  0.00    -0.292 A  
BRANCH  19  24
HETATM   24  O   UNL     1      -7.937   6.853  69.618  1.00  0.00    -0.119 OA 
BRANCH  24  25
HETATM   25  C   UNL     1      -7.783   6.874  68.193  1.00  0.00    -0.113 C  
HETATM   26  C   UNL     1      -8.055   8.246  66.269  1.00  0.00    -0.109 C  
HETATM   27  O   UNL     1      -8.379   8.069  67.658  1.00  0.00    -0.125 OA 
HETATM   28  C   UNL     1      -8.647   7.094  65.442  1.00  0.00    -0.032 C  
HETATM   29  H   UNL     1      -8.570   3.839  65.684  1.00  0.00     0.000 HD 
HETATM   30  O   UNL     1      -7.962   4.420  68.069  1.00  0.00    -0.080 OA 
HETATM   31  C   UNL     1      -8.199   5.745  66.021  1.00  0.00    -0.114 C  
HETATM   32  O   UNL     1      -8.261   7.121  64.060  1.00  0.00    -0.320 OA 
HETATM   33  H   UNL     1      -8.382   3.670  67.664  1.00  0.00     0.000 HD 
HETATM   34  H   UNL     1      -8.627   6.409  63.548  1.00  0.00     0.000 HD 
HETATM   35  O   UNL     1      -8.847   4.675  65.325  1.00  0.00    -0.134 OA 
HETATM   36  C   UNL     1      -8.466   5.654  67.533  1.00  0.00    -0.102 C  
BRANCH  26  37
HETATM   37  C   UNL     1      -8.595   9.601  65.796  1.00  0.00    -0.136 C  
BRANCH  37  38
HETATM   38  O   UNL     1      -9.979   9.449  65.478  1.00  0.00    -0.281 OA 
BRANCH  38  39
HETATM   39  C   UNL     1     -10.646  10.708  65.346  1.00  0.00    -0.115 C  
HETATM   40  O   UNL     1      -9.942  11.494  64.384  1.00  0.00    -0.246 OA 
HETATM   41  C   UNL     1     -10.413  12.831  64.213  1.00  0.00    -0.399 C  
HETATM   42  C   UNL     1     -10.469  13.598  65.549  1.00  0.00    -0.306 C  
HETATM   43  C   UNL     1     -11.708  12.858  63.404  1.00  0.00    -0.526 C  
HETATM   44  O   UNL     1      -9.129  13.827  66.018  1.00  0.00    -0.484 OA 
HETATM   45  C   UNL     1     -11.205  12.821  66.644  1.00  0.00    -0.301 C  
HETATM   46  O   UNL     1     -12.632  12.864  66.472  1.00  0.00    -0.294 OA 
HETATM   47  H   UNL     1      -9.164  14.300  66.842  1.00  0.00     0.000 HD 
HETATM   48  C   UNL     1     -10.699  11.375  66.737  1.00  0.00    -0.271 C  
HETATM   49  H   UNL     1     -13.089  12.382  67.151  1.00  0.00     0.000 HD 
HETATM   50  O   UNL     1     -11.547  10.630  67.630  1.00  0.00    -0.578 OA 
HETATM   51  H   UNL     1     -11.578  11.040  68.486  1.00  0.00     0.000 HD 
ENDBRANCH  38  39
ENDBRANCH  37  38
ENDBRANCH  26  37
ENDBRANCH  24  25
ENDBRANCH  19  24
ENDBRANCH   6  11
ENDBRANCH   2   3
TORSDOF 7
ENDMDL
MODEL        8
REMARK 921   NORMALIZED FREE ENERGY PREDICTED BY IDOCK:   -9.00 KCAL/MOL
REMARK 922        TOTAL FREE ENERGY PREDICTED BY IDOCK:  -13.96 KCAL/MOL
REMARK 923 INTER-LIGAND FREE ENERGY PREDICTED BY IDOCK:  -11.80 KCAL/MOL
REMARK 924 INTRA-LIGAND FREE ENERGY PREDICTED BY IDOCK:   -2.16 KCAL/MOL
REMARK 927      BINDING AFFINITY PREDICTED BY RF-SCORE:    0.00 PKD
ROOT
HETATM    1  C   UNL     1      -7.447   1.821  70.700  1.00  0.00    -0.033 C  
HETATM    2  O   UNL     1      -8.870   1.861  70.733  1.00  0.00    -0.053 OA 
ENDROOT
BRANCH   2   3
HETATM    3  C   UNL     1      -9.416   3.082  71.028  1.00  0.00    -0.158 A  
HETATM    4  C   UNL     1      -9.598   3.922  69.921  1.00  0.00    -0.270 A  
HETATM    5  C   UNL     1     -10.111   5.207  70.069  1.00  0.00    -0.345 A  
HETATM    6  C   UNL     1     -10.493   5.684  71.339  1.00  0.00    -0.300 A  
HETATM    7  C   UNL     1     -10.361   4.824  72.440  1.00  0.00    -0.261 A  
HETATM    8  H   UNL     1     -10.020   3.032  74.236  1.00  0.00     0.000 HD 
HETATM    9  O   UNL     1      -9.734   2.727  73.382  1.00  0.00    -0.094 OA 
HETATM   10  C   UNL     1      -9.836   3.530  72.283  1.00  0.00    -0.163 A  
BRANCH   6  11
HETATM   11  C   UNL     1     -10.875   7.147  71.505  1.00  0.00    -0.225 C  
HETATM   12  C   UNL     1     -12.332   7.219  71.930  1.00  0.00    -0.346 C  
HETATM   13  O   UNL     1     -13.321   8.975  73.177  1.00  0.00    -0.214 OA 
HETATM   14  C   UNL     1     -12.649   8.661  72.197  1.00  0.00    -0.391 C  
HETATM   15  C   UNL     1     -12.109   9.625  71.221  1.00  0.00    -0.457 A  
HETATM   16  C   UNL     1     -11.151   9.161  70.315  1.00  0.00    -0.239 A  
HETATM   17  C   UNL     1     -10.633  10.023  69.338  1.00  0.00    -0.256 A  
HETATM   18  O   UNL     1     -10.672   7.869  70.278  1.00  0.00    -0.229 OA 
HETATM   19  C   UNL     1     -11.084  11.345  69.247  1.00  0.00    -0.254 A  
HETATM   20  O   UNL     1     -13.505  11.424  71.993  1.00  0.00    -0.443 OA 
HETATM   21  C   UNL     1     -12.029  11.810  70.167  1.00  0.00    -0.421 A  
HETATM   22  H   UNL     1     -13.801  12.326  71.938  1.00  0.00     0.000 HD 
HETATM   23  C   UNL     1     -12.546  10.954  71.140  1.00  0.00    -0.428 A  
BRANCH  19  24
HETATM   24  O   UNL     1     -10.658  12.277  68.334  1.00  0.00    -0.221 OA 
BRANCH  24  25
HETATM   25  C   UNL     1     -11.226  12.202  67.020  1.00  0.00    -0.314 C  
HETATM   26  C   UNL     1     -10.879  11.301  64.846  1.00  0.00    -0.229 C  
HETATM   27  O   UNL     1     -10.280  11.603  66.117  1.00  0.00    -0.213 OA 
HETATM   28  C   UNL     1     -11.330  12.598  64.157  1.00  0.00    -0.383 C  
HETATM   29  H   UNL     1     -13.114  15.170  65.084  1.00  0.00     0.000 HD 
HETATM   30  O   UNL     1     -12.487  14.289  67.371  1.00  0.00    -0.588 OA 
HETATM   31  C   UNL     1     -12.234  13.407  65.097  1.00  0.00    -0.434 C  
HETATM   32  O   UNL     1     -12.059  12.380  62.940  1.00  0.00    -0.602 OA 
HETATM   33  H   UNL     1     -12.711  15.150  67.039  1.00  0.00     0.000 HD 
HETATM   34  H   UNL     1     -12.338  13.181  62.514  1.00  0.00     0.000 HD 
HETATM   35  O   UNL     1     -12.555  14.669  64.502  1.00  0.00    -0.626 OA 
HETATM   36  C   UNL     1     -11.591  13.604  66.481  1.00  0.00    -0.366 C  
BRANCH  26  37
HETATM   37  C   UNL     1      -9.867  10.539  63.982  1.00  0.00    -0.324 C  
BRANCH  37  38
HETATM   38  O   UNL     1      -8.873   9.980  64.840  1.00  0.00    -0.163 OA 
BRANCH  38  39
HETATM   39  C   UNL     1      -9.178   8.634  65.220  1.00  0.00     0.037 C  
HETATM   40  O   UNL     1      -9.275   8.578  66.644  1.00  0.00    -0.154 OA 
HETATM   41  C   UNL     1      -9.466   7.276  67.200  1.00  0.00    -0.145 C  
HETATM   42  C   UNL     1      -8.385   6.283  66.727  1.00  0.00    -0.110 C  
HETATM   43  C   UNL     1     -10.903   6.801  67.004  1.00  0.00    -0.453 C  
HETATM   44  O   UNL     1      -7.120   6.654  67.300  1.00  0.00    -0.075 OA 
HETATM   45  C   UNL     1      -8.211   6.283  65.205  1.00  0.00    -0.138 C  
HETATM   46  O   UNL     1      -9.266   5.570  64.539  1.00  0.00    -0.352 OA 
HETATM   47  H   UNL     1      -6.454   6.042  67.008  1.00  0.00     0.000 HD 
HETATM   48  C   UNL     1      -8.074   7.711  64.660  1.00  0.00    -0.112 C  
HETATM   49  H   UNL     1      -9.159   5.570  63.596  1.00  0.00     0.000 HD 
HETATM   50  O   UNL     1      -8.115   7.678  63.222  1.00  0.00    -0.253 OA 
HETATM   51  H   UNL     1      -7.435   7.111  62.878  1.00  0.00     0.000 HD 
ENDBRANCH  38  39
ENDBRANCH  37  38
ENDBRANCH  26  37
ENDBRANCH  24  25
ENDBRANCH  19  24
ENDBRANCH   6  11
ENDBRANCH   2   3
TORSDOF 7
ENDMDL
MODEL        9
REMARK 921   NORMALIZED FREE ENERGY PREDICTED BY IDOCK:   -8.97 KCAL/MOL
REMARK 922        TOTAL FREE ENERGY PREDICTED BY IDOCK:  -13.92 KCAL/MOL
REMARK 923 INTER-LIGAND FREE ENERGY PREDICTED BY IDOCK:  -13.51 KCAL/MOL
REMARK 924 INTRA-LIGAND FREE ENERGY PREDICTED BY IDOCK:   -0.41 KCAL/MOL
REMARK 927      BINDING AFFINITY PREDICTED BY RF-SCORE:    0.00 PKD
ROOT
HETATM    1  C   UNL     1      -8.837   2.531  71.956  1.00  0.00    -0.074 C  
HETATM    2  O   UNL     1     -10.117   2.961  72.409  1.00  0.00    -0.156 OA 
ENDROOT
BRANCH   2   3
HETATM    3  C   UNL     1     -10.382   4.294  72.236  1.00  0.00    -0.143 A  
HETATM    4  C   UNL     1     -10.301   4.737  70.910  1.00  0.00    -0.187 A  
HETATM    5  C   UNL     1     -10.512   6.074  70.583  1.00  0.00    -0.305 A  
HETATM    6  C   UNL     1     -10.847   7.011  71.581  1.00  0.00    -0.249 A  
HETATM    7  C   UNL     1     -10.980   6.557  72.902  1.00  0.00    -0.282 A  
HETATM    8  H   UNL     1     -11.166   5.431  75.195  1.00  0.00     0.000 HD 
HETATM    9  O   UNL     1     -10.910   4.811  74.522  1.00  0.00    -0.347 OA 
HETATM   10  C   UNL     1     -10.759   5.206  73.225  1.00  0.00    -0.266 A  
BRANCH   6  11
HETATM   11  C   UNL     1     -10.890   8.491  71.234  1.00  0.00    -0.251 C  
HETATM   12  C   UNL     1     -12.329   8.968  71.339  1.00  0.00    -0.380 C  
HETATM   13  O   UNL     1     -13.016  11.188  71.805  1.00  0.00    -0.451 OA 
HETATM   14  C   UNL     1     -12.325  10.450  71.104  1.00  0.00    -0.400 C  
HETATM   15  C   UNL     1     -11.463  10.921  70.005  1.00  0.00    -0.411 A  
HETATM   16  C   UNL     1     -10.541  10.016  69.472  1.00  0.00    -0.244 A  
HETATM   17  C   UNL     1      -9.723  10.397  68.399  1.00  0.00    -0.167 A  
HETATM   18  O   UNL     1     -10.379   8.718  69.909  1.00  0.00    -0.195 OA 
HETATM   19  C   UNL     1      -9.836  11.674  67.839  1.00  0.00    -0.184 A  
HETATM   20  O   UNL     1     -12.476  13.101  69.937  1.00  0.00    -0.173 OA 
HETATM   21  C   UNL     1     -10.746  12.583  68.387  1.00  0.00    -0.259 A  
HETATM   22  H   UNL     1     -12.544  13.973  69.565  1.00  0.00     0.000 HD 
HETATM   23  C   UNL     1     -11.562  12.207  69.456  1.00  0.00    -0.315 A  
BRANCH  19  24
HETATM   24  O   UNL     1      -9.098  12.158  66.788  1.00  0.00    -0.196 OA 
BRANCH  24  25
HETATM   25  C   UNL     1      -9.807  12.898  65.786  1.00  0.00    -0.209 C  
HETATM   26  C   UNL     1     -10.796  15.013  65.326  1.00  0.00    -0.386 C  
HETATM   27  O   UNL     1     -10.277  14.139  66.343  1.00  0.00    -0.276 OA 
HETATM   28  C   UNL     1     -12.027  14.376  64.665  1.00  0.00    -0.464 C  
HETATM   29  H   UNL     1     -12.650  11.455  63.345  1.00  0.00     0.000 HD 
HETATM   30  O   UNL     1     -10.639  10.827  64.745  1.00  0.00    -0.310 OA 
HETATM   31  C   UNL     1     -11.685  12.966  64.163  1.00  0.00    -0.406 C  
HETATM   32  O   UNL     1     -12.531  15.121  63.547  1.00  0.00    -0.851 OA 
HETATM   33  H   UNL     1     -11.390  10.342  64.421  1.00  0.00     0.000 HD 
HETATM   34  H   UNL     1     -13.292  14.728  63.138  1.00  0.00     0.000 HD 
HETATM   35  O   UNL     1     -12.862  12.328  63.656  1.00  0.00    -0.753 OA 
HETATM   36  C   UNL     1     -11.029  12.110  65.260  1.00  0.00    -0.304 C  
BRANCH  26  37
HETATM   37  C   UNL     1     -11.145  16.366  65.958  1.00  0.00     0.157 C  
BRANCH  37  38
HETATM   38  O   UNL     1     -10.378  17.379  65.306  1.00  0.00    -0.616 OA 
BRANCH  38  39
HETATM   39  C   UNL     1      -9.542  18.098  66.220  1.00  0.00    -0.239 C  
HETATM   40  O   UNL     1      -9.514  17.389  67.459  1.00  0.00    -0.245 OA 
HETATM   41  C   UNL     1      -8.811  18.032  68.524  1.00  0.00    -0.295 C  
HETATM   42  C   UNL     1      -9.326  19.465  68.771  1.00  0.00    -0.387 C  
HETATM   43  C   UNL     1      -7.301  17.918  68.332  1.00  0.00    -0.259 C  
HETATM   44  O   UNL     1     -10.658  19.401  69.308  1.00  0.00    -0.385 OA 
HETATM   45  C   UNL     1      -9.394  20.296  67.488  1.00  0.00    -0.383 C  
HETATM   46  O   UNL     1      -8.097  20.753  67.069  1.00  0.00    -0.534 OA 
HETATM   47  H   UNL     1     -10.975  20.284  69.461  1.00  0.00     0.000 HD 
HETATM   48  C   UNL     1     -10.104  19.529  66.364  1.00  0.00    -0.455 C  
HETATM   49  H   UNL     1      -8.139  21.269  66.272  1.00  0.00     0.000 HD 
HETATM   50  O   UNL     1      -9.969  20.258  65.130  1.00  0.00    -0.272 OA 
HETATM   51  H   UNL     1     -10.315  21.138  65.219  1.00  0.00     0.000 HD 
ENDBRANCH  38  39
ENDBRANCH  37  38
ENDBRANCH  26  37
ENDBRANCH  24  25
ENDBRANCH  19  24
ENDBRANCH   6  11
ENDBRANCH   2   3
TORSDOF 7
ENDMDL
MODEL       10
REMARK 921   NORMALIZED FREE ENERGY PREDICTED BY IDOCK:   -8.92 KCAL/MOL
REMARK 922        TOTAL FREE ENERGY PREDICTED BY IDOCK:  -13.84 KCAL/MOL
REMARK 923 INTER-LIGAND FREE ENERGY PREDICTED BY IDOCK:  -13.46 KCAL/MOL
REMARK 924 INTRA-LIGAND FREE ENERGY PREDICTED BY IDOCK:   -0.38 KCAL/MOL
REMARK 927      BINDING AFFINITY PREDICTED BY RF-SCORE:    0.00 PKD
ROOT
HETATM    1  C   UNL     1      -9.777   3.309  74.369  1.00  0.00    -0.112 C  
HETATM    2  O   UNL     1     -10.792   3.601  73.413  1.00  0.00    -0.190 OA 
ENDROOT
BRANCH   2   3
HETATM    3  C   UNL     1     -10.652   4.795  72.757  1.00  0.00    -0.211 A  
HETATM    4  C   UNL     1     -11.013   5.920  73.509  1.00  0.00    -0.172 A  
HETATM    5  C   UNL     1     -10.957   7.200  72.964  1.00  0.00    -0.357 A  
HETATM    6  C   UNL     1     -10.501   7.397  71.646  1.00  0.00    -0.219 A  
HETATM    7  C   UNL     1     -10.088   6.276  70.910  1.00  0.00    -0.227 A  
HETATM    8  H   UNL     1      -9.395   4.058  69.835  1.00  0.00     0.000 HD 
HETATM    9  O   UNL     1      -9.734   3.928  70.713  1.00  0.00    -0.181 OA 
HETATM   10  C   UNL     1     -10.154   4.986  71.465  1.00  0.00    -0.196 A  
BRANCH   6  11
HETATM   11  C   UNL     1     -10.622   8.773  71.011  1.00  0.00    -0.230 C  
HETATM   12  C   UNL     1     -11.972   9.360  71.386  1.00  0.00    -0.446 C  
HETATM   13  O   UNL     1     -12.483  11.670  71.525  1.00  0.00    -0.253 OA 
HETATM   14  C   UNL     1     -12.018  10.759  70.843  1.00  0.00    -0.333 C  
HETATM   15  C   UNL     1     -11.483  10.933  69.481  1.00  0.00    -0.372 A  
HETATM   16  C   UNL     1     -10.751   9.877  68.933  1.00  0.00    -0.221 A  
HETATM   17  C   UNL     1     -10.252   9.972  67.626  1.00  0.00    -0.249 A  
HETATM   18  O   UNL     1     -10.489   8.688  69.582  1.00  0.00    -0.214 OA 
HETATM   19  C   UNL     1     -10.500  11.112  66.853  1.00  0.00    -0.246 A  
HETATM   20  O   UNL     1     -12.454  13.117  69.213  1.00  0.00    -0.071 OA 
HETATM   21  C   UNL     1     -11.217  12.174  67.412  1.00  0.00    -0.362 A  
HETATM   22  H   UNL     1     -12.611  13.896  68.692  1.00  0.00     0.000 HD 
HETATM   23  C   UNL     1     -11.714  12.082  68.713  1.00  0.00    -0.321 A  
BRANCH  19  24
HETATM   24  O   UNL     1     -10.072  11.317  65.565  1.00  0.00    -0.234 OA 
BRANCH  24  25
HETATM   25  C   UNL     1     -10.284  12.623  65.014  1.00  0.00    -0.273 C  
HETATM   26  C   UNL     1      -9.812  14.930  65.349  1.00  0.00    -0.268 C  
HETATM   27  O   UNL     1      -9.829  13.621  65.944  1.00  0.00    -0.289 OA 
HETATM   28  C   UNL     1     -11.239  15.353  64.970  1.00  0.00    -0.387 C  
HETATM   29  H   UNL     1     -13.664  13.946  63.296  1.00  0.00     0.000 HD 
HETATM   30  O   UNL     1     -12.321  11.875  63.847  1.00  0.00    -0.417 OA 
HETATM   31  C   UNL     1     -11.892  14.276  64.092  1.00  0.00    -0.312 C  
HETATM   32  O   UNL     1     -11.300  16.592  64.249  1.00  0.00    -1.304 OA 
HETATM   33  H   UNL     1     -13.241  12.031  63.669  1.00  0.00     0.000 HD 
HETATM   34  H   UNL     1     -12.183  16.854  64.015  1.00  0.00     0.000 HD 
HETATM   35  O   UNL     1     -13.260  14.613  63.840  1.00  0.00     0.152 OA 
HETATM   36  C   UNL     1     -11.781  12.877  64.723  1.00  0.00    -0.346 C  
BRANCH  26  37
HETATM   37  C   UNL     1      -9.185  15.922  66.337  1.00  0.00    -0.309 C  
BRANCH  37  38
HETATM   38  O   UNL     1      -8.775  17.081  65.611  1.00  0.00    -0.468 OA 
BRANCH  38  39
HETATM   39  C   UNL     1      -8.707  18.245  66.442  1.00  0.00    -0.241 C  
HETATM   40  O   UNL     1      -8.129  17.873  67.694  1.00  0.00    -0.219 OA 
HETATM   41  C   UNL     1      -8.091  18.899  68.687  1.00  0.00    -0.347 C  
HETATM   42  C   UNL     1      -9.484  19.513  68.936  1.00  0.00    -0.364 C  
HETATM   43  C   UNL     1      -6.988  19.911  68.388  1.00  0.00    -0.335 C  
HETATM   44  O   UNL     1     -10.324  18.534  69.570  1.00  0.00    -0.347 OA 
HETATM   45  C   UNL     1     -10.180  19.936  67.639  1.00  0.00    -0.425 C  
HETATM   46  O   UNL     1      -9.648  21.164  67.115  1.00  0.00    -0.680 OA 
HETATM   47  H   UNL     1     -11.182  18.913  69.723  1.00  0.00     0.000 HD 
HETATM   48  C   UNL     1     -10.134  18.816  66.591  1.00  0.00    -0.378 C  
HETATM   49  H   UNL     1     -10.080  21.427  66.311  1.00  0.00     0.000 HD 
HETATM   50  O   UNL     1     -10.616  19.322  65.332  1.00  0.00    -0.492 OA 
HETATM   51  H   UNL     1     -11.494  19.673  65.424  1.00  0.00     0.000 HD 
ENDBRANCH  38  39
ENDBRANCH  37  38
ENDBRANCH  26  37
ENDBRANCH  24  25
ENDBRANCH  19  24
ENDBRANCH   6  11
ENDBRANCH   2   3
TORSDOF 7
ENDMDL
MODEL       11
REMARK 921   NORMALIZED FREE ENERGY PREDICTED BY IDOCK:   -8.91 KCAL/MOL
REMARK 922        TOTAL FREE ENERGY PREDICTED BY IDOCK:  -13.84 KCAL/MOL
REMARK 923 INTER-LIGAND FREE ENERGY PREDICTED BY IDOCK:  -12.41 KCAL/MOL
REMARK 924 INTRA-LIGAND FREE ENERGY PREDICTED BY IDOCK:   -1.42 KCAL/MOL
REMARK 927      BINDING AFFINITY PREDICTED BY RF-SCORE:    0.00 PKD
ROOT
HETATM    1  C   UNL     1      -6.733  18.872  66.118  1.00  0.00    -0.227 C  
HETATM    2  O   UNL     1      -7.659  17.952  65.549  1.00  0.00    -0.518 OA 
ENDROOT
BRANCH   2   3
HETATM    3  C   UNL     1      -8.637  17.506  66.398  1.00  0.00    -0.240 A  
HETATM    4  C   UNL     1      -8.216  16.534  67.314  1.00  0.00    -0.196 A  
HETATM    5  C   UNL     1      -9.107  15.962  68.218  1.00  0.00    -0.185 A  
HETATM    6  C   UNL     1     -10.454  16.373  68.253  1.00  0.00    -0.302 A  
HETATM    7  C   UNL     1     -10.864  17.383  67.371  1.00  0.00    -0.165 A  
HETATM    8  H   UNL     1     -11.304  19.242  65.665  1.00  0.00     0.000 HD 
HETATM    9  O   UNL     1     -10.404  18.938  65.625  1.00  0.00    -0.545 OA 
HETATM   10  C   UNL     1      -9.960  17.952  66.457  1.00  0.00    -0.357 A  
BRANCH   6  11
HETATM   11  C   UNL     1     -11.447  15.608  69.114  1.00  0.00    -0.359 C  
HETATM   12  C   UNL     1     -11.481  16.247  70.493  1.00  0.00    -0.282 C  
HETATM   13  O   UNL     1     -13.315  16.195  71.993  1.00  0.00    -0.229 OA 
HETATM   14  C   UNL     1     -12.548  15.547  71.283  1.00  0.00    -0.447 C  
HETATM   15  C   UNL     1     -12.591  14.081  71.140  1.00  0.00    -0.445 A  
HETATM   16  C   UNL     1     -11.843  13.508  70.108  1.00  0.00    -0.278 A  
HETATM   17  C   UNL     1     -11.815  12.116  69.950  1.00  0.00    -0.392 A  
HETATM   18  O   UNL     1     -11.077  14.222  69.211  1.00  0.00    -0.257 OA 
HETATM   19  C   UNL     1     -12.514  11.287  70.835  1.00  0.00    -0.394 A  
HETATM   20  O   UNL     1     -14.020  13.783  73.051  1.00  0.00    -0.478 OA 
HETATM   21  C   UNL     1     -13.275  11.865  71.855  1.00  0.00    -0.467 A  
HETATM   22  H   UNL     1     -14.505  13.220  73.644  1.00  0.00     0.000 HD 
HETATM   23  C   UNL     1     -13.306  13.251  72.014  1.00  0.00    -0.489 A  
BRANCH  19  24
HETATM   24  O   UNL     1     -12.556   9.916  70.787  1.00  0.00    -0.295 OA 
BRANCH  24  25
HETATM   25  C   UNL     1     -11.587   9.211  71.573  1.00  0.00    -0.368 C  
HETATM   26  C   UNL     1      -9.294   8.580  71.649  1.00  0.00    -0.241 C  
HETATM   27  O   UNL     1     -10.364   9.078  70.827  1.00  0.00    -0.208 OA 
HETATM   28  C   UNL     1      -9.625   7.162  72.138  1.00  0.00    -0.142 C  
HETATM   29  H   UNL     1     -12.210   5.798  73.595  1.00  0.00     0.000 HD 
HETATM   30  O   UNL     1     -13.341   7.849  72.639  1.00  0.00    -0.466 OA 
HETATM   31  C   UNL     1     -10.999   7.148  72.823  1.00  0.00    -0.307 C  
HETATM   32  O   UNL     1      -8.671   6.638  73.074  1.00  0.00    -0.122 OA 
HETATM   33  H   UNL     1     -13.646   6.979  72.869  1.00  0.00     0.000 HD 
HETATM   34  H   UNL     1      -8.876   5.762  73.376  1.00  0.00     0.000 HD 
HETATM   35  O   UNL     1     -11.359   5.807  73.171  1.00  0.00    -0.246 OA 
HETATM   36  C   UNL     1     -12.084   7.795  71.945  1.00  0.00    -0.304 C  
BRANCH  26  37
HETATM   37  C   UNL     1      -7.991   8.596  70.842  1.00  0.00    -0.122 C  
BRANCH  37  38
HETATM   38  O   UNL     1      -8.309   8.875  69.478  1.00  0.00    -0.113 OA 
BRANCH  38  39
HETATM   39  C   UNL     1      -8.881   7.745  68.813  1.00  0.00    -0.134 C  
HETATM   40  O   UNL     1      -7.821   6.898  68.367  1.00  0.00    -0.116 OA 
HETATM   41  C   UNL     1      -8.216   5.773  67.581  1.00  0.00    -0.101 C  
HETATM   42  C   UNL     1      -9.073   6.190  66.368  1.00  0.00    -0.148 C  
HETATM   43  C   UNL     1      -8.828   4.681  68.454  1.00  0.00    -0.124 C  
HETATM   44  O   UNL     1      -8.252   6.914  65.437  1.00  0.00    -0.128 OA 
HETATM   45  C   UNL     1     -10.235   7.108  66.757  1.00  0.00    -0.219 C  
HETATM   46  O   UNL     1     -11.316   6.385  67.369  1.00  0.00    -0.662 OA 
HETATM   47  H   UNL     1      -8.781   7.171  64.690  1.00  0.00     0.000 HD 
HETATM   48  C   UNL     1      -9.759   8.261  67.652  1.00  0.00    -0.159 C  
HETATM   49  H   UNL     1     -12.037   6.954  67.611  1.00  0.00     0.000 HD 
HETATM   50  O   UNL     1     -10.902   8.977  68.154  1.00  0.00    -0.433 OA 
HETATM   51  H   UNL     1     -11.441   9.295  67.440  1.00  0.00     0.000 HD 
ENDBRANCH  38  39
ENDBRANCH  37  38
ENDBRANCH  26  37
ENDBRANCH  24  25
ENDBRANCH  19  24
ENDBRANCH   6  11
ENDBRANCH   2   3
TORSDOF 7
ENDMDL
MODEL       12
REMARK 921   NORMALIZED FREE ENERGY PREDICTED BY IDOCK:   -8.89 KCAL/MOL
REMARK 922        TOTAL FREE ENERGY PREDICTED BY IDOCK:  -13.81 KCAL/MOL
REMARK 923 INTER-LIGAND FREE ENERGY PREDICTED BY IDOCK:  -11.89 KCAL/MOL
REMARK 924 INTRA-LIGAND FREE ENERGY PREDICTED BY IDOCK:   -1.92 KCAL/MOL
REMARK 927      BINDING AFFINITY PREDICTED BY RF-SCORE:    0.00 PKD
ROOT
HETATM    1  C   UNL     1     -13.444  15.513  72.492  1.00  0.00    -0.526 C  
HETATM    2  O   UNL     1     -12.203  15.983  71.976  1.00  0.00    -0.451 OA 
ENDROOT
BRANCH   2   3
HETATM    3  C   UNL     1     -11.873  15.519  70.731  1.00  0.00    -0.367 A  
HETATM    4  C   UNL     1     -12.329  14.225  70.450  1.00  0.00    -0.419 A  
HETATM    5  C   UNL     1     -12.041  13.606  69.237  1.00  0.00    -0.360 A  
HETATM    6  C   UNL     1     -11.308  14.285  68.244  1.00  0.00    -0.314 A  
HETATM    7  C   UNL     1     -10.896  15.601  68.503  1.00  0.00    -0.282 A  
HETATM    8  H   UNL     1     -10.304  17.975  69.259  1.00  0.00     0.000 HD 
HETATM    9  O   UNL     1     -10.772  17.501  69.937  1.00  0.00     0.173 OA 
HETATM   10  C   UNL     1     -11.185  16.216  69.734  1.00  0.00    -0.343 A  
BRANCH   6  11
HETATM   11  C   UNL     1     -10.847  13.531  67.006  1.00  0.00    -0.282 C  
HETATM   12  C   UNL     1     -12.023  13.406  66.052  1.00  0.00    -0.460 C  
HETATM   13  O   UNL     1     -11.873  13.181  63.698  1.00  0.00    -0.472 OA 
HETATM   14  C   UNL     1     -11.513  12.762  64.797  1.00  0.00    -0.317 C  
HETATM   15  C   UNL     1     -10.588  11.631  64.989  1.00  0.00    -0.342 A  
HETATM   16  C   UNL     1     -10.064  11.434  66.270  1.00  0.00    -0.224 A  
HETATM   17  C   UNL     1      -9.211  10.350  66.520  1.00  0.00    -0.184 A  
HETATM   18  O   UNL     1     -10.346  12.230  67.360  1.00  0.00    -0.205 OA 
HETATM   19  C   UNL     1      -8.895   9.445  65.501  1.00  0.00    -0.184 A  
HETATM   20  O   UNL     1     -10.780  10.885  62.711  1.00  0.00    -0.772 OA 
HETATM   21  C   UNL     1      -9.407   9.656  64.217  1.00  0.00    -0.178 A  
HETATM   22  H   UNL     1     -10.555  10.277  62.016  1.00  0.00     0.000 HD 
HETATM   23  C   UNL     1     -10.256  10.734  63.964  1.00  0.00    -0.322 A  
BRANCH  19  24
HETATM   24  O   UNL     1      -8.080   8.348  65.626  1.00  0.00    -0.111 OA 
BRANCH  24  25
HETATM   25  C   UNL     1      -8.723   7.088  65.858  1.00  0.00    -0.126 C  
HETATM   26  C   UNL     1      -9.309   5.537  67.565  1.00  0.00    -0.111 C  
HETATM   27  O   UNL     1      -8.503   6.676  67.219  1.00  0.00    -0.119 OA 
HETATM   28  C   UNL     1      -8.906   4.329  66.706  1.00  0.00    -0.116 C  
HETATM   29  H   UNL     1      -8.495   3.843  63.504  1.00  0.00     0.000 HD 
HETATM   30  O   UNL     1      -8.299   6.365  63.542  1.00  0.00    -0.312 OA 
HETATM   31  C   UNL     1      -8.955   4.700  65.218  1.00  0.00    -0.148 C  
HETATM   32  O   UNL     1      -9.751   3.184  66.893  1.00  0.00    -0.408 OA 
HETATM   33  H   UNL     1      -7.958   5.690  62.967  1.00  0.00     0.000 HD 
HETATM   34  H   UNL     1      -9.502   2.436  66.362  1.00  0.00     0.000 HD 
HETATM   35  O   UNL     1      -8.465   3.613  64.426  1.00  0.00    -0.093 OA 
HETATM   36  C   UNL     1      -8.169   5.989  64.923  1.00  0.00    -0.130 C  
BRANCH  26  37
HETATM   37  C   UNL     1      -9.139   5.236  69.059  1.00  0.00    -0.115 C  
BRANCH  37  38
HETATM   38  O   UNL     1     -10.395   5.442  69.706  1.00  0.00    -0.258 OA 
BRANCH  38  39
HETATM   39  C   UNL     1     -10.353   6.531  70.635  1.00  0.00    -0.201 C  
HETATM   40  O   UNL     1     -10.742   6.043  71.920  1.00  0.00    -0.218 OA 
HETATM   41  C   UNL     1     -10.863   7.030  72.945  1.00  0.00    -0.301 C  
HETATM   42  C   UNL     1     -11.808   8.177  72.533  1.00  0.00    -0.376 C  
HETATM   43  C   UNL     1      -9.491   7.477  73.441  1.00  0.00    -0.306 C  
HETATM   44  O   UNL     1     -13.153   7.676  72.460  1.00  0.00    -0.488 OA 
HETATM   45  C   UNL     1     -11.465   8.757  71.158  1.00  0.00    -0.286 C  
HETATM   46  O   UNL     1     -10.315   9.618  71.205  1.00  0.00    -0.294 OA 
HETATM   47  H   UNL     1     -13.735   8.383  72.205  1.00  0.00     0.000 HD 
HETATM   48  C   UNL     1     -11.286   7.646  70.114  1.00  0.00    -0.180 C  
HETATM   49  H   UNL     1     -10.102   9.978  70.352  1.00  0.00     0.000 HD 
HETATM   50  O   UNL     1     -10.771   8.215  68.896  1.00  0.00    -0.367 OA 
HETATM   51  H   UNL     1     -11.345   8.901  68.576  1.00  0.00     0.000 HD 
ENDBRANCH  38  39
ENDBRANCH  37  38
ENDBRANCH  26  37
ENDBRANCH  24  25
ENDBRANCH  19  24
ENDBRANCH   6  11
ENDBRANCH   2   3
TORSDOF 7
ENDMDL
MODEL       13
REMARK 921   NORMALIZED FREE ENERGY PREDICTED BY IDOCK:   -8.89 KCAL/MOL
REMARK 922        TOTAL FREE ENERGY PREDICTED BY IDOCK:  -13.80 KCAL/MOL
REMARK 923 INTER-LIGAND FREE ENERGY PREDICTED BY IDOCK:  -12.36 KCAL/MOL
REMARK 924 INTRA-LIGAND FREE ENERGY PREDICTED BY IDOCK:   -1.44 KCAL/MOL
REMARK 927      BINDING AFFINITY PREDICTED BY RF-SCORE:    0.00 PKD
ROOT
HETATM    1  C   UNL     1      -6.493   9.041  62.647  1.00  0.00    -0.094 C  
HETATM    2  O   UNL     1      -7.064  10.172  63.297  1.00  0.00    -0.132 OA 
ENDROOT
BRANCH   2   3
HETATM    3  C   UNL     1      -7.484   9.958  64.583  1.00  0.00    -0.140 A  
HETATM    4  C   UNL     1      -8.624   9.152  64.698  1.00  0.00    -0.206 A  
HETATM    5  C   UNL     1      -9.188   8.874  65.940  1.00  0.00    -0.290 A  
HETATM    6  C   UNL     1      -8.602   9.374  67.120  1.00  0.00    -0.130 A  
HETATM    7  C   UNL     1      -7.431  10.137  67.009  1.00  0.00    -0.092 A  
HETATM    8  H   UNL     1      -5.307  11.471  66.489  1.00  0.00     0.000 HD 
HETATM    9  O   UNL     1      -5.725  11.158  65.694  1.00  0.00    -0.108 OA 
HETATM   10  C   UNL     1      -6.871  10.418  65.751  1.00  0.00    -0.132 A  
BRANCH   6  11
HETATM   11  C   UNL     1      -9.334   9.215  68.443  1.00  0.00    -0.135 C  
HETATM   12  C   UNL     1     -10.003   7.851  68.464  1.00  0.00    -0.200 C  
HETATM   13  O   UNL     1     -10.525   6.599  70.407  1.00  0.00    -0.201 OA 
HETATM   14  C   UNL     1     -10.619   7.676  69.821  1.00  0.00    -0.244 C  
HETATM   15  C   UNL     1     -11.317   8.855  70.363  1.00  0.00    -0.229 A  
HETATM   16  C   UNL     1     -11.120  10.078  69.716  1.00  0.00    -0.274 A  
HETATM   17  C   UNL     1     -11.790  11.225  70.163  1.00  0.00    -0.449 A  
HETATM   18  O   UNL     1     -10.311  10.257  68.614  1.00  0.00    -0.167 OA 
HETATM   19  C   UNL     1     -12.677  11.153  71.243  1.00  0.00    -0.426 A  
HETATM   20  O   UNL     1     -12.427   7.599  72.087  1.00  0.00    -0.403 OA 
HETATM   21  C   UNL     1     -12.858   9.931  71.898  1.00  0.00    -0.524 A  
HETATM   22  H   UNL     1     -13.020   7.553  72.828  1.00  0.00     0.000 HD 
HETATM   23  C   UNL     1     -12.192   8.788  71.456  1.00  0.00    -0.327 A  
BRANCH  19  24
HETATM   24  O   UNL     1     -13.394  12.201  71.765  1.00  0.00    -0.407 OA 
BRANCH  24  25
HETATM   25  C   UNL     1     -13.025  13.516  71.331  1.00  0.00    -0.339 C  
HETATM   26  C   UNL     1     -11.560  14.699  69.877  1.00  0.00    -0.285 C  
HETATM   27  O   UNL     1     -11.840  13.444  70.518  1.00  0.00    -0.278 OA 
HETATM   28  C   UNL     1     -11.260  15.773  70.934  1.00  0.00    -0.366 C  
HETATM   29  H   UNL     1     -12.770  16.788  73.645  1.00  0.00     0.000 HD 
HETATM   30  O   UNL     1     -13.858  14.515  73.423  1.00  0.00    -0.289 OA 
HETATM   31  C   UNL     1     -12.400  15.835  71.960  1.00  0.00    -0.456 C  
HETATM   32  O   UNL     1     -11.099  17.090  70.387  1.00  0.00    -0.343 OA 
HETATM   33  H   UNL     1     -13.680  15.087  74.160  1.00  0.00     0.000 HD 
HETATM   34  H   UNL     1     -10.913  17.754  71.040  1.00  0.00     0.000 HD 
HETATM   35  O   UNL     1     -12.064  16.749  73.010  1.00  0.00    -0.389 OA 
HETATM   36  C   UNL     1     -12.734  14.446  72.531  1.00  0.00    -0.326 C  
BRANCH  26  37
HETATM   37  C   UNL     1     -10.377  14.521  68.918  1.00  0.00    -0.237 C  
BRANCH  37  38
HETATM   38  O   UNL     1     -10.553  15.410  67.815  1.00  0.00    -0.261 OA 
BRANCH  38  39
HETATM   39  C   UNL     1     -10.747  14.710  66.581  1.00  0.00    -0.305 C  
HETATM   40  O   UNL     1     -12.129  14.368  66.469  1.00  0.00    -0.418 OA 
HETATM   41  C   UNL     1     -12.477  13.563  65.341  1.00  0.00    -0.497 C  
HETATM   42  C   UNL     1     -11.630  12.276  65.267  1.00  0.00    -0.355 C  
HETATM   43  C   UNL     1     -12.497  14.392  64.060  1.00  0.00    -0.136 C  
HETATM   44  O   UNL     1     -11.991  11.411  66.357  1.00  0.00    -0.214 OA 
HETATM   45  C   UNL     1     -10.129  12.553  65.386  1.00  0.00    -0.267 C  
HETATM   46  O   UNL     1      -9.576  13.077  64.168  1.00  0.00    -0.570 OA 
HETATM   47  H   UNL     1     -11.469  10.618  66.311  1.00  0.00     0.000 HD 
HETATM   48  C   UNL     1      -9.824  13.472  66.577  1.00  0.00    -0.291 C  
HETATM   49  H   UNL     1      -8.645  13.249  64.241  1.00  0.00     0.000 HD 
HETATM   50  O   UNL     1      -8.441  13.866  66.533  1.00  0.00    -0.424 OA 
HETATM   51  H   UNL     1      -7.873  13.104  66.532  1.00  0.00     0.000 HD 
ENDBRANCH  38  39
ENDBRANCH  37  38
ENDBRANCH  26  37
ENDBRANCH  24  25
ENDBRANCH  19  24
ENDBRANCH   6  11
ENDBRANCH   2   3
TORSDOF 7
ENDMDL
MODEL       14
REMARK 921   NORMALIZED FREE ENERGY PREDICTED BY IDOCK:   -8.81 KCAL/MOL
REMARK 922        TOTAL FREE ENERGY PREDICTED BY IDOCK:  -13.70 KCAL/MOL
REMARK 923 INTER-LIGAND FREE ENERGY PREDICTED BY IDOCK:  -11.68 KCAL/MOL
REMARK 924 INTRA-LIGAND FREE ENERGY PREDICTED BY IDOCK:   -2.02 KCAL/MOL
REMARK 927      BINDING AFFINITY PREDICTED BY RF-SCORE:    0.00 PKD
ROOT
HETATM    1  C   UNL     1      -9.384   2.140  69.020  1.00  0.00    -0.132 C  
HETATM    2  O   UNL     1      -9.604   3.102  67.994  1.00  0.00    -0.185 OA 
ENDROOT
BRANCH   2   3
HETATM    3  C   UNL     1      -9.868   4.374  68.430  1.00  0.00    -0.061 A  
HETATM    4  C   UNL     1      -9.581   4.598  69.782  1.00  0.00    -0.258 A  
HETATM    5  C   UNL     1      -9.829   5.833  70.376  1.00  0.00    -0.241 A  
HETATM    6  C   UNL     1     -10.347   6.901  69.618  1.00  0.00    -0.224 A  
HETATM    7  C   UNL     1     -10.585   6.692  68.251  1.00  0.00    -0.291 A  
HETATM    8  H   UNL     1     -10.896   6.015  65.801  1.00  0.00     0.000 HD 
HETATM    9  O   UNL     1     -10.577   5.289  66.325  1.00  0.00    -0.283 OA 
HETATM   10  C   UNL     1     -10.338   5.441  67.660  1.00  0.00    -0.177 A  
BRANCH   6  11
HETATM   11  C   UNL     1     -10.782   8.177  70.322  1.00  0.00    -0.235 C  
HETATM   12  C   UNL     1     -12.179   7.965  70.881  1.00  0.00    -0.138 C  
HETATM   13  O   UNL     1     -13.101   9.088  72.753  1.00  0.00    -0.386 OA 
HETATM   14  C   UNL     1     -12.537   9.193  71.666  1.00  0.00    -0.360 C  
HETATM   15  C   UNL     1     -12.170  10.478  71.044  1.00  0.00    -0.505 A  
HETATM   16  C   UNL     1     -11.306  10.443  69.946  1.00  0.00    -0.302 A  
HETATM   17  C   UNL     1     -10.955  11.631  69.290  1.00  0.00    -0.246 A  
HETATM   18  O   UNL     1     -10.767   9.291  69.414  1.00  0.00    -0.225 OA 
HETATM   19  C   UNL     1     -11.483  12.857  69.712  1.00  0.00    -0.132 A  
HETATM   20  O   UNL     1     -13.555  11.768  72.527  1.00  0.00    -0.521 OA 
HETATM   21  C   UNL     1     -12.333  12.890  70.821  1.00  0.00    -0.385 A  
HETATM   22  H   UNL     1     -13.903  12.602  72.821  1.00  0.00     0.000 HD 
HETATM   23  C   UNL     1     -12.683  11.709  71.477  1.00  0.00    -0.318 A  
BRANCH  19  24
HETATM   24  O   UNL     1     -11.220  14.080  69.148  1.00  0.00    -0.251 OA 
BRANCH  24  25
HETATM   25  C   UNL     1     -11.596  14.254  67.776  1.00  0.00    -0.354 C  
HETATM   26  C   UNL     1     -11.808  13.109  65.701  1.00  0.00    -0.387 C  
HETATM   27  O   UNL     1     -11.252  13.075  67.026  1.00  0.00    -0.269 OA 
HETATM   28  C   UNL     1     -11.206  14.280  64.910  1.00  0.00    -0.379 C  
HETATM   29  H   UNL     1     -10.818  17.468  65.498  1.00  0.00     0.000 HD 
HETATM   30  O   UNL     1     -11.118  16.668  67.879  1.00  0.00    -0.315 OA 
HETATM   31  C   UNL     1     -11.378  15.589  65.693  1.00  0.00    -0.063 C  
HETATM   32  O   UNL     1     -11.803  14.469  63.618  1.00  0.00    -0.738 OA 
HETATM   33  H   UNL     1     -10.672  17.411  67.488  1.00  0.00     0.000 HD 
HETATM   34  H   UNL     1     -11.431  15.193  63.129  1.00  0.00     0.000 HD 
HETATM   35  O   UNL     1     -10.712  16.658  65.013  1.00  0.00    -0.677 OA 
HETATM   36  C   UNL     1     -10.870  15.462  67.140  1.00  0.00    -0.321 C  
BRANCH  26  37
HETATM   37  C   UNL     1     -11.530  11.771  65.005  1.00  0.00    -0.188 C  
BRANCH  37  38
HETATM   38  O   UNL     1     -10.929  10.887  65.952  1.00  0.00    -0.128 OA 
BRANCH  38  39
HETATM   39  C   UNL     1      -9.645  10.423  65.521  1.00  0.00    -0.234 C  
HETATM   40  O   UNL     1      -9.648   8.996  65.549  1.00  0.00    -0.224 OA 
HETATM   41  C   UNL     1      -8.399   8.368  65.254  1.00  0.00    -0.160 C  
HETATM   42  C   UNL     1      -7.264   8.890  66.158  1.00  0.00    -0.090 C  
HETATM   43  C   UNL     1      -8.100   8.418  63.758  1.00  0.00    -0.142 C  
HETATM   44  O   UNL     1      -7.493   8.445  67.506  1.00  0.00    -0.091 OA 
HETATM   45  C   UNL     1      -7.192  10.419  66.191  1.00  0.00    -0.131 C  
HETATM   46  O   UNL     1      -6.595  10.959  65.000  1.00  0.00    -0.362 OA 
HETATM   47  H   UNL     1      -6.793   8.767  68.063  1.00  0.00     0.000 HD 
HETATM   48  C   UNL     1      -8.573  11.036  66.450  1.00  0.00    -0.165 C  
HETATM   49  H   UNL     1      -6.551  11.907  65.020  1.00  0.00     0.000 HD 
HETATM   50  O   UNL     1      -8.499  12.462  66.274  1.00  0.00    -0.403 OA 
HETATM   51  H   UNL     1      -7.841  12.838  66.846  1.00  0.00     0.000 HD 
ENDBRANCH  38  39
ENDBRANCH  37  38
ENDBRANCH  26  37
ENDBRANCH  24  25
ENDBRANCH  19  24
ENDBRANCH   6  11
ENDBRANCH   2   3
TORSDOF 7
ENDMDL
MODEL       15
REMARK 921   NORMALIZED FREE ENERGY PREDICTED BY IDOCK:   -8.70 KCAL/MOL
REMARK 922        TOTAL FREE ENERGY PREDICTED BY IDOCK:  -13.54 KCAL/MOL
REMARK 923 INTER-LIGAND FREE ENERGY PREDICTED BY IDOCK:  -11.46 KCAL/MOL
REMARK 924 INTRA-LIGAND FREE ENERGY PREDICTED BY IDOCK:   -2.09 KCAL/MOL
REMARK 927      BINDING AFFINITY PREDICTED BY RF-SCORE:    0.00 PKD
ROOT
HETATM    1  C   UNL     1     -11.138   5.179  73.123  1.00  0.00    -0.326 C  
HETATM    2  O   UNL     1     -11.710   5.544  71.871  1.00  0.00    -0.055 OA 
ENDROOT
BRANCH   2   3
HETATM    3  C   UNL     1     -11.887   6.888  71.677  1.00  0.00    -0.324 A  
HETATM    4  C   UNL     1     -10.701   7.613  71.505  1.00  0.00    -0.249 A  
HETATM    5  C   UNL     1     -10.721   8.994  71.332  1.00  0.00    -0.401 A  
HETATM    6  C   UNL     1     -11.943   9.694  71.292  1.00  0.00    -0.462 A  
HETATM    7  C   UNL     1     -13.133   8.961  71.411  1.00  0.00    -0.315 A  
HETATM    8  H   UNL     1     -15.118   7.359  71.636  1.00  0.00     0.000 HD 
HETATM    9  O   UNL     1     -14.289   6.897  71.695  1.00  0.00    -0.327 OA 
HETATM   10  C   UNL     1     -13.105   7.567  71.592  1.00  0.00    -0.358 A  
BRANCH   6  11
HETATM   11  C   UNL     1     -11.934  11.215  71.289  1.00  0.00     0.054 C  
HETATM   12  C   UNL     1     -13.249  11.706  71.873  1.00  0.00    -0.475 C  
HETATM   13  O   UNL     1     -13.585  13.783  72.962  1.00  0.00    -0.606 OA 
HETATM   14  C   UNL     1     -13.167  13.201  71.963  1.00  0.00    -0.446 C  
HETATM   15  C   UNL     1     -12.570  13.880  70.798  1.00  0.00    -0.424 A  
HETATM   16  C   UNL     1     -11.902  13.088  69.860  1.00  0.00    -0.307 A  
HETATM   17  C   UNL     1     -11.350  13.675  68.713  1.00  0.00    -0.326 A  
HETATM   18  O   UNL     1     -11.756  11.720  69.954  1.00  0.00    -0.310 OA 
HETATM   19  C   UNL     1     -11.481  15.049  68.485  1.00  0.00    -0.317 A  
HETATM   20  O   UNL     1     -13.360  16.051  71.464  1.00  0.00    -0.467 OA 
HETATM   21  C   UNL     1     -12.134  15.840  69.435  1.00  0.00    -0.245 A  
HETATM   22  H   UNL     1     -13.438  16.986  71.315  1.00  0.00     0.000 HD 
HETATM   23  C   UNL     1     -12.684  15.259  70.579  1.00  0.00    -0.390 A  
BRANCH  19  24
HETATM   24  O   UNL     1     -10.992  15.734  67.401  1.00  0.00    -0.320 OA 
BRANCH  24  25
HETATM   25  C   UNL     1      -9.568  15.864  67.307  1.00  0.00    -0.217 C  
HETATM   26  C   UNL     1      -7.530  14.649  67.484  1.00  0.00    -0.195 C  
HETATM   27  O   UNL     1      -8.939  14.654  67.767  1.00  0.00    -0.172 OA 
HETATM   28  C   UNL     1      -6.836  15.782  68.255  1.00  0.00    -0.118 C  
HETATM   29  H   UNL     1      -7.386  18.983  68.587  1.00  0.00     0.000 HD 
HETATM   30  O   UNL     1      -9.685  18.273  67.806  1.00  0.00    -0.282 OA 
HETATM   31  C   UNL     1      -7.527  17.120  67.960  1.00  0.00    -0.195 C  
HETATM   32  O   UNL     1      -5.447  15.933  67.928  1.00  0.00    -0.118 OA 
HETATM   33  H   UNL     1      -9.367  18.995  68.336  1.00  0.00     0.000 HD 
HETATM   34  H   UNL     1      -5.017  16.634  68.404  1.00  0.00     0.000 HD 
HETATM   35  O   UNL     1      -6.958  18.155  68.769  1.00  0.00    -0.253 OA 
HETATM   36  C   UNL     1      -9.049  17.037  68.170  1.00  0.00    -0.237 C  
BRANCH  26  37
HETATM   37  C   UNL     1      -6.947  13.283  67.865  1.00  0.00    -0.137 C  
BRANCH  37  38
HETATM   38  O   UNL     1      -7.986  12.495  68.446  1.00  0.00    -0.145 OA 
BRANCH  38  39
HETATM   39  C   UNL     1      -8.288  11.334  67.665  1.00  0.00    -0.123 C  
HETATM   40  O   UNL     1      -9.480  11.589  66.920  1.00  0.00    -0.177 OA 
HETATM   41  C   UNL     1      -9.987  10.486  66.168  1.00  0.00    -0.229 C  
HETATM   42  C   UNL     1     -10.198   9.237  67.047  1.00  0.00    -0.262 C  
HETATM   43  C   UNL     1      -9.156  10.252  64.910  1.00  0.00    -0.250 C  
HETATM   44  O   UNL     1     -11.281   9.480  67.960  1.00  0.00    -0.522 OA 
HETATM   45  C   UNL     1      -8.965   8.894  67.887  1.00  0.00    -0.139 C  
HETATM   46  O   UNL     1      -7.935   8.265  67.107  1.00  0.00    -0.103 OA 
HETATM   47  H   UNL     1     -11.410   8.710  68.502  1.00  0.00     0.000 HD 
HETATM   48  C   UNL     1      -8.429  10.131  68.622  1.00  0.00    -0.122 C  
HETATM   49  H   UNL     1      -7.170   8.052  67.628  1.00  0.00     0.000 HD 
HETATM   50  O   UNL     1      -7.166   9.812  69.233  1.00  0.00    -0.064 OA 
HETATM   51  H   UNL     1      -7.253   9.072  69.822  1.00  0.00     0.000 HD 
ENDBRANCH  38  39
ENDBRANCH  37  38
ENDBRANCH  26  37
ENDBRANCH  24  25
ENDBRANCH  19  24
ENDBRANCH   6  11
ENDBRANCH   2   3
TORSDOF 7
ENDMDL
MODEL       16
REMARK 921   NORMALIZED FREE ENERGY PREDICTED BY IDOCK:   -8.70 KCAL/MOL
REMARK 922        TOTAL FREE ENERGY PREDICTED BY IDOCK:  -13.53 KCAL/MOL
REMARK 923 INTER-LIGAND FREE ENERGY PREDICTED BY IDOCK:  -11.08 KCAL/MOL
REMARK 924 INTRA-LIGAND FREE ENERGY PREDICTED BY IDOCK:   -2.45 KCAL/MOL
REMARK 927      BINDING AFFINITY PREDICTED BY RF-SCORE:    0.00 PKD
ROOT
HETATM    1  C   UNL     1      -9.470   3.888  68.627  1.00  0.00    -0.150 C  
HETATM    2  O   UNL     1      -9.475   5.063  67.823  1.00  0.00    -0.122 OA 
ENDROOT
BRANCH   2   3
HETATM    3  C   UNL     1      -9.694   6.235  68.499  1.00  0.00    -0.129 A  
HETATM    4  C   UNL     1     -10.883   6.269  69.237  1.00  0.00    -0.406 A  
HETATM    5  C   UNL     1     -11.257   7.406  69.948  1.00  0.00    -0.155 A  
HETATM    6  C   UNL     1     -10.426   8.543  69.968  1.00  0.00    -0.226 A  
HETATM    7  C   UNL     1      -9.209   8.490  69.272  1.00  0.00    -0.153 A  
HETATM    8  H   UNL     1      -7.065   8.086  67.932  1.00  0.00     0.000 HD 
HETATM    9  O   UNL     1      -7.644   7.334  67.896  1.00  0.00    -0.105 OA 
HETATM   10  C   UNL     1      -8.842   7.341  68.551  1.00  0.00    -0.129 A  
BRANCH   6  11
HETATM   11  C   UNL     1     -10.937   9.832  70.594  1.00  0.00    -0.331 C  
HETATM   12  C   UNL     1     -12.418   9.670  70.890  1.00  0.00    -0.320 C  
HETATM   13  O   UNL     1     -13.623  10.820  72.575  1.00  0.00    -0.000 OA 
HETATM   14  C   UNL     1     -12.868  10.908  71.609  1.00  0.00    -0.449 C  
HETATM   15  C   UNL     1     -12.351  12.180  71.074  1.00  0.00    -0.331 A  
HETATM   16  C   UNL     1     -11.304  12.117  70.151  1.00  0.00     0.187 A  
HETATM   17  C   UNL     1     -10.799  13.293  69.579  1.00  0.00     0.107 A  
HETATM   18  O   UNL     1     -10.718  10.947  69.713  1.00  0.00    -0.225 OA 
HETATM   19  C   UNL     1     -11.351  14.536  69.910  1.00  0.00    -0.241 A  
HETATM   20  O   UNL     1     -13.935  13.515  72.295  1.00  0.00    -0.538 OA 
HETATM   21  C   UNL     1     -12.386  14.597  70.848  1.00  0.00    -0.406 A  
HETATM   22  H   UNL     1     -14.301  14.361  72.528  1.00  0.00     0.000 HD 
HETATM   23  C   UNL     1     -12.890  13.427  71.419  1.00  0.00    -0.333 A  
BRANCH  19  24
HETATM   24  O   UNL     1     -10.948  15.751  69.413  1.00  0.00    -0.252 OA 
BRANCH  24  25
HETATM   25  C   UNL     1     -11.290  16.039  68.052  1.00  0.00    -0.266 C  
HETATM   26  C   UNL     1     -11.760  15.024  65.952  1.00  0.00    -0.098 C  
HETATM   27  O   UNL     1     -11.212  14.835  67.268  1.00  0.00    -0.324 OA 
HETATM   28  C   UNL     1     -10.930  16.062  65.182  1.00  0.00    -0.348 C  
HETATM   29  H   UNL     1      -9.866  19.077  65.846  1.00  0.00     0.000 HD 
HETATM   30  O   UNL     1     -10.308  18.292  68.210  1.00  0.00    -0.367 OA 
HETATM   31  C   UNL     1     -10.812  17.355  66.001  1.00  0.00     0.016 C  
HETATM   32  O   UNL     1     -11.485  16.410  63.905  1.00  0.00    -1.569 OA 
HETATM   33  H   UNL     1      -9.718  18.933  67.831  1.00  0.00     0.000 HD 
HETATM   34  H   UNL     1     -10.972  17.051  63.429  1.00  0.00     0.000 HD 
HETATM   35  O   UNL     1      -9.939  18.276  65.338  1.00  0.00    -0.208 OA 
HETATM   36  C   UNL     1     -10.329  17.082  67.437  1.00  0.00    -0.319 C  
BRANCH  26  37
HETATM   37  C   UNL     1     -11.781  13.677  65.218  1.00  0.00    -0.334 C  
BRANCH  37  38
HETATM   38  O   UNL     1     -10.600  13.581  64.422  1.00  0.00    -0.419 OA 
BRANCH  38  39
HETATM   39  C   UNL     1      -9.841  12.403  64.718  1.00  0.00    -0.079 C  
HETATM   40  O   UNL     1     -10.596  11.264  64.303  1.00  0.00    -0.321 OA 
HETATM   41  C   UNL     1     -10.029   9.994  64.630  1.00  0.00    -0.136 C  
HETATM   42  C   UNL     1      -9.715   9.873  66.135  1.00  0.00    -0.236 C  
HETATM   43  C   UNL     1      -8.863   9.659  63.703  1.00  0.00    -0.256 C  
HETATM   44  O   UNL     1     -10.948   9.831  66.872  1.00  0.00    -0.117 OA 
HETATM   45  C   UNL     1      -8.910  11.062  66.666  1.00  0.00    -0.164 C  
HETATM   46  O   UNL     1      -7.524  10.987  66.293  1.00  0.00    -0.165 OA 
HETATM   47  H   UNL     1     -10.755   9.756  67.799  1.00  0.00     0.000 HD 
HETATM   48  C   UNL     1      -9.532  12.395  66.231  1.00  0.00    -0.220 C  
HETATM   49  H   UNL     1      -7.024  11.724  66.622  1.00  0.00     0.000 HD 
HETATM   50  O   UNL     1      -8.642  13.472  66.577  1.00  0.00    -0.438 OA 
HETATM   51  H   UNL     1      -8.453  13.467  67.507  1.00  0.00     0.000 HD 
ENDBRANCH  38  39
ENDBRANCH  37  38
ENDBRANCH  26  37
ENDBRANCH  24  25
ENDBRANCH  19  24
ENDBRANCH   6  11
ENDBRANCH   2   3
TORSDOF 7
ENDMDL
MODEL       17
REMARK 921   NORMALIZED FREE ENERGY PREDICTED BY IDOCK:   -8.69 KCAL/MOL
REMARK 922        TOTAL FREE ENERGY PREDICTED BY IDOCK:  -13.53 KCAL/MOL
REMARK 923 INTER-LIGAND FREE ENERGY PREDICTED BY IDOCK:  -11.74 KCAL/MOL
REMARK 924 INTRA-LIGAND FREE ENERGY PREDICTED BY IDOCK:   -1.79 KCAL/MOL
REMARK 927      BINDING AFFINITY PREDICTED BY RF-SCORE:    0.00 PKD
ROOT
HETATM    1  C   UNL     1     -10.498   1.556  63.282  1.00  0.00    -0.137 C  
HETATM    2  O   UNL     1      -9.134   1.874  63.535  1.00  0.00    -0.088 OA 
ENDROOT
BRANCH   2   3
HETATM    3  C   UNL     1      -8.921   3.053  64.199  1.00  0.00    -0.104 A  
HETATM    4  C   UNL     1      -9.228   3.017  65.565  1.00  0.00    -0.135 A  
HETATM    5  C   UNL     1      -9.094   4.149  66.364  1.00  0.00    -0.136 A  
HETATM    6  C   UNL     1      -8.612   5.356  65.820  1.00  0.00    -0.139 A  
HETATM    7  C   UNL     1      -8.254   5.379  64.464  1.00  0.00    -0.133 A  
HETATM    8  H   UNL     1      -7.672   5.103  61.985  1.00  0.00     0.000 HD 
HETATM    9  O   UNL     1      -8.028   4.301  62.351  1.00  0.00    -0.063 OA 
HETATM   10  C   UNL     1      -8.398   4.233  63.662  1.00  0.00    -0.100 A  
BRANCH   6  11
HETATM   11  C   UNL     1      -8.650   6.623  66.661  1.00  0.00    -0.123 C  
HETATM   12  C   UNL     1      -8.615   6.229  68.128  1.00  0.00    -0.116 C  
HETATM   13  O   UNL     1      -7.784   7.568  69.897  1.00  0.00    -0.094 OA 
HETATM   14  C   UNL     1      -8.538   7.496  68.929  1.00  0.00    -0.129 C  
HETATM   15  C   UNL     1      -9.408   8.594  68.473  1.00  0.00    -0.138 A  
HETATM   16  C   UNL     1     -10.007   8.468  67.216  1.00  0.00    -0.225 A  
HETATM   17  C   UNL     1     -10.876   9.463  66.749  1.00  0.00    -0.012 A  
HETATM   18  O   UNL     1      -9.831   7.391  66.373  1.00  0.00    -0.165 OA 
HETATM   19  C   UNL     1     -11.169  10.578  67.542  1.00  0.00    -0.224 A  
HETATM   20  O   UNL     1      -9.141   9.854  70.504  1.00  0.00    -0.331 OA 
HETATM   21  C   UNL     1     -10.554  10.710  68.791  1.00  0.00    -0.234 A  
HETATM   22  H   UNL     1      -9.331  10.618  71.036  1.00  0.00     0.000 HD 
HETATM   23  C   UNL     1      -9.688   9.721  69.258  1.00  0.00    -0.196 A  
BRANCH  19  24
HETATM   24  O   UNL     1     -12.006  11.610  67.197  1.00  0.00    -0.614 OA 
BRANCH  24  25
HETATM   25  C   UNL     1     -11.482  12.595  66.297  1.00  0.00    -0.364 C  
HETATM   26  C   UNL     1     -10.181  14.584  66.199  1.00  0.00    -0.305 C  
HETATM   27  O   UNL     1     -10.915  13.684  67.046  1.00  0.00    -0.284 OA 
HETATM   28  C   UNL     1     -11.130  15.242  65.186  1.00  0.00    -0.404 C  
HETATM   29  H   UNL     1     -13.368  14.113  63.094  1.00  0.00     0.000 HD 
HETATM   30  O   UNL     1     -13.243  12.116  64.641  1.00  0.00    -0.659 OA 
HETATM   31  C   UNL     1     -11.914  14.165  64.423  1.00  0.00    -0.457 C  
HETATM   32  O   UNL     1     -10.458  16.056  64.214  1.00  0.00    -0.492 OA 
HETATM   33  H   UNL     1     -13.921  12.465  64.075  1.00  0.00     0.000 HD 
HETATM   34  H   UNL     1     -11.044  16.463  63.587  1.00  0.00     0.000 HD 
HETATM   35  O   UNL     1     -12.883  14.780  63.566  1.00  0.00    -0.486 OA 
HETATM   36  C   UNL     1     -12.587  13.162  65.376  1.00  0.00    -0.454 C  
BRANCH  26  37
HETATM   37  C   UNL     1      -9.485  15.637  67.069  1.00  0.00    -0.224 C  
BRANCH  37  38
HETATM   38  O   UNL     1      -8.784  16.538  66.212  1.00  0.00    -0.288 OA 
BRANCH  38  39
HETATM   39  C   UNL     1      -8.706  17.858  66.761  1.00  0.00    -0.254 C  
HETATM   40  O   UNL     1      -8.083  17.777  68.044  1.00  0.00    -0.229 OA 
HETATM   41  C   UNL     1      -8.027  18.999  68.782  1.00  0.00    -0.333 C  
HETATM   42  C   UNL     1      -9.419  19.644  68.935  1.00  0.00    -0.314 C  
HETATM   43  C   UNL     1      -6.948  19.926  68.229  1.00  0.00    -0.332 C  
HETATM   44  O   UNL     1     -10.226  18.826  69.800  1.00  0.00    -0.192 OA 
HETATM   45  C   UNL     1     -10.162  19.765  67.602  1.00  0.00    -0.434 C  
HETATM   46  O   UNL     1      -9.664  20.848  66.800  1.00  0.00    -0.646 OA 
HETATM   47  H   UNL     1     -11.084  19.224  69.894  1.00  0.00     0.000 HD 
HETATM   48  C   UNL     1     -10.135  18.440  66.827  1.00  0.00    -0.373 C  
HETATM   49  H   UNL     1     -10.125  20.923  65.973  1.00  0.00     0.000 HD 
HETATM   50  O   UNL     1     -10.663  18.650  65.505  1.00  0.00    -0.577 OA 
HETATM   51  H   UNL     1     -11.542  19.007  65.547  1.00  0.00     0.000 HD 
ENDBRANCH  38  39
ENDBRANCH  37  38
ENDBRANCH  26  37
ENDBRANCH  24  25
ENDBRANCH  19  24
ENDBRANCH   6  11
ENDBRANCH   2   3
TORSDOF 7
ENDMDL
MODEL       18
REMARK 921   NORMALIZED FREE ENERGY PREDICTED BY IDOCK:   -8.65 KCAL/MOL
REMARK 922        TOTAL FREE ENERGY PREDICTED BY IDOCK:  -13.47 KCAL/MOL
REMARK 923 INTER-LIGAND FREE ENERGY PREDICTED BY IDOCK:  -11.94 KCAL/MOL
REMARK 924 INTRA-LIGAND FREE ENERGY PREDICTED BY IDOCK:   -1.53 KCAL/MOL
REMARK 927      BINDING AFFINITY PREDICTED BY RF-SCORE:    0.00 PKD
ROOT
HETATM    1  C   UNL     1     -10.720  16.675  68.125  1.00  0.00    -0.349 C  
HETATM    2  O   UNL     1     -11.878  16.337  68.881  1.00  0.00    -0.284 OA 
ENDROOT
BRANCH   2   3
HETATM    3  C   UNL     1     -11.930  15.043  69.326  1.00  0.00    -0.289 A  
HETATM    4  C   UNL     1     -11.456  14.093  68.413  1.00  0.00    -0.334 A  
HETATM    5  C   UNL     1     -11.479  12.733  68.712  1.00  0.00    -0.347 A  
HETATM    6  C   UNL     1     -11.951  12.282  69.960  1.00  0.00    -0.379 A  
HETATM    7  C   UNL     1     -12.376  13.237  70.895  1.00  0.00    -0.413 A  
HETATM    8  H   UNL     1     -13.061  15.204  72.385  1.00  0.00     0.000 HD 
HETATM    9  O   UNL     1     -12.771  15.500  71.530  1.00  0.00    -0.371 OA 
HETATM   10  C   UNL     1     -12.356  14.608  70.584  1.00  0.00    -0.331 A  
BRANCH   6  11
HETATM   11  C   UNL     1     -12.140  10.791  70.194  1.00  0.00    -0.346 C  
HETATM   12  C   UNL     1     -12.786  10.595  71.555  1.00  0.00    -0.549 C  
HETATM   13  O   UNL     1     -14.130   8.751  72.192  1.00  0.00    -0.431 OA 
HETATM   14  C   UNL     1     -13.064   9.129  71.711  1.00  0.00    -0.392 C  
HETATM   15  C   UNL     1     -11.993   8.224  71.257  1.00  0.00    -0.317 A  
HETATM   16  C   UNL     1     -10.959   8.774  70.495  1.00  0.00    -0.239 A  
HETATM   17  C   UNL     1      -9.894   7.968  70.070  1.00  0.00    -0.185 A  
HETATM   18  O   UNL     1     -10.879  10.102  70.131  1.00  0.00    -0.273 OA 
HETATM   19  C   UNL     1      -9.842   6.616  70.425  1.00  0.00    -0.175 A  
HETATM   20  O   UNL     1     -12.931   6.307  72.367  1.00  0.00    -0.533 OA 
HETATM   21  C   UNL     1     -10.887   6.065  71.173  1.00  0.00    -0.338 A  
HETATM   22  H   UNL     1     -12.902   5.386  72.596  1.00  0.00     0.000 HD 
HETATM   23  C   UNL     1     -11.950   6.864  71.595  1.00  0.00    -0.339 A  
BRANCH  19  24
HETATM   24  O   UNL     1      -8.851   5.732  70.076  1.00  0.00    -0.132 OA 
BRANCH  24  25
HETATM   25  C   UNL     1      -8.548   5.618  68.680  1.00  0.00    -0.104 C  
HETATM   26  C   UNL     1      -8.066   6.889  66.728  1.00  0.00    -0.109 C  
HETATM   27  O   UNL     1      -8.581   6.920  68.070  1.00  0.00    -0.123 OA 
HETATM   28  C   UNL     1      -8.959   6.005  65.844  1.00  0.00    -0.133 C  
HETATM   29  H   UNL     1     -10.156   2.980  66.116  1.00  0.00     0.000 HD 
HETATM   30  O   UNL     1      -9.635   3.411  68.553  1.00  0.00    -0.164 OA 
HETATM   31  C   UNL     1      -9.125   4.619  66.482  1.00  0.00    -0.123 C  
HETATM   32  O   UNL     1      -8.444   5.811  64.518  1.00  0.00    -0.239 OA 
HETATM   33  H   UNL     1     -10.262   2.856  68.105  1.00  0.00     0.000 HD 
HETATM   34  H   UNL     1      -8.996   5.265  63.971  1.00  0.00     0.000 HD 
HETATM   35  O   UNL     1     -10.053   3.838  65.721  1.00  0.00    -0.092 OA 
HETATM   36  C   UNL     1      -9.569   4.714  67.952  1.00  0.00    -0.157 C  
BRANCH  26  37
HETATM   37  C   UNL     1      -7.993   8.321  66.184  1.00  0.00    -0.100 C  
BRANCH  37  38
HETATM   38  O   UNL     1      -9.199   8.593  65.470  1.00  0.00    -0.180 OA 
BRANCH  38  39
HETATM   39  C   UNL     1      -9.218   9.916  64.924  1.00  0.00    -0.246 C  
HETATM   40  O   UNL     1     -10.339  10.614  65.469  1.00  0.00    -0.266 OA 
HETATM   41  C   UNL     1     -10.571  11.920  64.940  1.00  0.00    -0.287 C  
HETATM   42  C   UNL     1     -10.683  11.908  63.402  1.00  0.00    -0.413 C  
HETATM   43  C   UNL     1      -9.570  12.926  65.502  1.00  0.00     0.012 C  
HETATM   44  O   UNL     1     -11.892  11.228  63.023  1.00  0.00    -0.864 OA 
HETATM   45  C   UNL     1      -9.520  11.171  62.733  1.00  0.00    -0.329 C  
HETATM   46  O   UNL     1      -8.318  11.959  62.716  1.00  0.00    -0.365 OA 
HETATM   47  H   UNL     1     -11.960  11.221  62.075  1.00  0.00     0.000 HD 
HETATM   48  C   UNL     1      -9.279   9.802  63.385  1.00  0.00    -0.176 C  
HETATM   49  H   UNL     1      -7.596  11.502  62.301  1.00  0.00     0.000 HD 
HETATM   50  O   UNL     1      -8.062   9.235  62.866  1.00  0.00    -0.137 OA 
HETATM   51  H   UNL     1      -8.100   9.165  61.920  1.00  0.00     0.000 HD 
ENDBRANCH  38  39
ENDBRANCH  37  38
ENDBRANCH  26  37
ENDBRANCH  24  25
ENDBRANCH  19  24
ENDBRANCH   6  11
ENDBRANCH   2   3
TORSDOF 7
ENDMDL
MODEL       19
REMARK 921   NORMALIZED FREE ENERGY PREDICTED BY IDOCK:   -8.65 KCAL/MOL
REMARK 922        TOTAL FREE ENERGY PREDICTED BY IDOCK:  -13.47 KCAL/MOL
REMARK 923 INTER-LIGAND FREE ENERGY PREDICTED BY IDOCK:  -11.47 KCAL/MOL
REMARK 924 INTRA-LIGAND FREE ENERGY PREDICTED BY IDOCK:   -2.00 KCAL/MOL
REMARK 927      BINDING AFFINITY PREDICTED BY RF-SCORE:    0.00 PKD
ROOT
HETATM    1  C   UNL     1      -7.575  19.908  68.682  1.00  0.00    -0.216 C  
HETATM    2  O   UNL     1      -8.830  19.309  68.991  1.00  0.00    -0.336 OA 
ENDROOT
BRANCH   2   3
HETATM    3  C   UNL     1      -9.264  18.364  68.099  1.00  0.00    -0.312 A  
HETATM    4  C   UNL     1      -8.890  17.051  68.411  1.00  0.00    -0.247 A  
HETATM    5  C   UNL     1      -9.230  15.988  67.579  1.00  0.00    -0.214 A  
HETATM    6  C   UNL     1      -9.991  16.206  66.414  1.00  0.00    -0.315 A  
HETATM    7  C   UNL     1     -10.411  17.514  66.129  1.00  0.00    -0.288 A  
HETATM    8  H   UNL     1     -11.039  19.985  65.889  1.00  0.00     0.000 HD 
HETATM    9  O   UNL     1     -10.498  19.836  66.656  1.00  0.00    -0.444 OA 
HETATM   10  C   UNL     1     -10.059  18.583  66.971  1.00  0.00    -0.360 A  
BRANCH   6  11
HETATM   11  C   UNL     1     -10.193  15.066  65.428  1.00  0.00    -0.381 C  
HETATM   12  C   UNL     1     -11.680  14.774  65.326  1.00  0.00    -0.311 C  
HETATM   13  O   UNL     1     -12.775  13.823  63.452  1.00  0.00    -0.795 OA 
HETATM   14  C   UNL     1     -11.858  13.727  64.265  1.00  0.00    -0.417 C  
HETATM   15  C   UNL     1     -10.882  12.623  64.287  1.00  0.00    -0.411 A  
HETATM   16  C   UNL     1      -9.748  12.777  65.089  1.00  0.00     0.025 A  
HETATM   17  C   UNL     1      -8.806  11.743  65.179  1.00  0.00     0.387 A  
HETATM   18  O   UNL     1      -9.477  13.893  65.852  1.00  0.00    -0.189 OA 
HETATM   19  C   UNL     1      -9.003  10.542  64.489  1.00  0.00    -0.209 A  
HETATM   20  O   UNL     1     -12.185  11.238  62.815  1.00  0.00    -0.812 OA 
HETATM   21  C   UNL     1     -10.130  10.399  63.674  1.00  0.00    -0.088 A  
HETATM   22  H   UNL     1     -12.311  10.427  62.336  1.00  0.00     0.000 HD 
HETATM   23  C   UNL     1     -11.069  11.427  63.581  1.00  0.00    -0.325 A  
BRANCH  19  24
HETATM   24  O   UNL     1      -8.159   9.459  64.504  1.00  0.00    -0.121 OA 
BRANCH  24  25
HETATM   25  C   UNL     1      -8.510   8.377  65.376  1.00  0.00    -0.176 C  
HETATM   26  C   UNL     1      -8.413   7.649  67.639  1.00  0.00    -0.117 C  
HETATM   27  O   UNL     1      -7.911   8.583  66.668  1.00  0.00    -0.098 OA 
HETATM   28  C   UNL     1      -8.027   6.217  67.237  1.00  0.00    -0.109 C  
HETATM   29  H   UNL     1      -8.302   4.465  64.496  1.00  0.00     0.000 HD 
HETATM   30  O   UNL     1      -8.526   6.780  63.501  1.00  0.00    -0.344 OA 
HETATM   31  C   UNL     1      -8.484   5.931  65.800  1.00  0.00    -0.148 C  
HETATM   32  O   UNL     1      -8.601   5.208  68.082  1.00  0.00    -0.103 OA 
HETATM   33  H   UNL     1      -8.222   5.947  63.160  1.00  0.00     0.000 HD 
HETATM   34  H   UNL     1      -8.363   4.323  67.834  1.00  0.00     0.000 HD 
HETATM   35  O   UNL     1      -8.019   4.642  65.386  1.00  0.00    -0.096 OA 
HETATM   36  C   UNL     1      -8.016   7.022  64.822  1.00  0.00    -0.122 C  
BRANCH  26  37
HETATM   37  C   UNL     1      -7.849   8.007  69.019  1.00  0.00    -0.109 C  
BRANCH  37  38
HETATM   38  O   UNL     1      -8.487   7.183  69.994  1.00  0.00    -0.136 OA 
BRANCH  38  39
HETATM   39  C   UNL     1      -9.805   7.641  70.313  1.00  0.00    -0.180 C  
HETATM   40  O   UNL     1      -9.696   8.718  71.244  1.00  0.00    -0.214 OA 
HETATM   41  C   UNL     1     -10.931   9.222  71.755  1.00  0.00    -0.313 C  
HETATM   42  C   UNL     1     -11.796   8.105  72.374  1.00  0.00    -0.388 C  
HETATM   43  C   UNL     1     -11.644  10.084  70.718  1.00  0.00    -0.444 C  
HETATM   44  O   UNL     1     -11.164   7.629  73.574  1.00  0.00    -0.586 OA 
HETATM   45  C   UNL     1     -11.961   6.902  71.441  1.00  0.00    -0.349 C  
HETATM   46  O   UNL     1     -12.907   7.158  70.390  1.00  0.00    -0.525 OA 
HETATM   47  H   UNL     1     -11.698   6.941  73.955  1.00  0.00     0.000 HD 
HETATM   48  C   UNL     1     -10.609   6.447  70.875  1.00  0.00    -0.236 C  
HETATM   49  H   UNL     1     -13.009   6.412  69.811  1.00  0.00     0.000 HD 
HETATM   50  O   UNL     1     -10.828   5.454  69.857  1.00  0.00    -0.298 OA 
HETATM   51  H   UNL     1     -11.322   4.720  70.202  1.00  0.00     0.000 HD 
ENDBRANCH  38  39
ENDBRANCH  37  38
ENDBRANCH  26  37
ENDBRANCH  24  25
ENDBRANCH  19  24
ENDBRANCH   6  11
ENDBRANCH   2   3
TORSDOF 7
ENDMDL
MODEL       20
REMARK 921   NORMALIZED FREE ENERGY PREDICTED BY IDOCK:   -8.64 KCAL/MOL
REMARK 922        TOTAL FREE ENERGY PREDICTED BY IDOCK:  -13.45 KCAL/MOL
REMARK 923 INTER-LIGAND FREE ENERGY PREDICTED BY IDOCK:  -11.53 KCAL/MOL
REMARK 924 INTRA-LIGAND FREE ENERGY PREDICTED BY IDOCK:   -1.93 KCAL/MOL
REMARK 927      BINDING AFFINITY PREDICTED BY RF-SCORE:    0.00 PKD
ROOT
HETATM    1  C   UNL     1     -12.105   7.516  72.064  1.00  0.00    -0.291 C  
HETATM    2  O   UNL     1     -10.901   8.209  71.751  1.00  0.00    -0.232 OA 
ENDROOT
BRANCH   2   3
HETATM    3  C   UNL     1     -10.996   9.120  70.733  1.00  0.00    -0.270 A  
HETATM    4  C   UNL     1     -11.564  10.347  71.100  1.00  0.00    -0.315 A  
HETATM    5  C   UNL     1     -11.756  11.360  70.165  1.00  0.00    -0.414 A  
HETATM    6  C   UNL     1     -11.352  11.185  68.827  1.00  0.00    -0.342 A  
HETATM    7  C   UNL     1     -10.735   9.976  68.471  1.00  0.00    -0.264 A  
HETATM    8  H   UNL     1      -9.632   7.690  68.134  1.00  0.00     0.000 HD 
HETATM    9  O   UNL     1      -9.937   7.801  69.028  1.00  0.00    -0.173 OA 
HETATM   10  C   UNL     1     -10.550   8.956  69.420  1.00  0.00    -0.217 A  
BRANCH   6  11
HETATM   11  C   UNL     1     -11.738  12.225  67.787  1.00  0.00    -0.337 C  
HETATM   12  C   UNL     1     -11.503  11.636  66.406  1.00  0.00    -0.238 C  
HETATM   13  O   UNL     1     -12.642  12.263  64.425  1.00  0.00    -0.474 OA 
HETATM   14  C   UNL     1     -11.997  12.637  65.403  1.00  0.00    -0.446 C  
HETATM   15  C   UNL     1     -11.654  14.043  65.681  1.00  0.00    -0.332 A  
HETATM   16  C   UNL     1     -11.154  14.349  66.949  1.00  0.00    -0.323 A  
HETATM   17  C   UNL     1     -10.774  15.663  67.256  1.00  0.00    -0.305 A  
HETATM   18  O   UNL     1     -10.969  13.428  67.959  1.00  0.00    -0.232 OA 
HETATM   19  C   UNL     1     -10.869  16.672  66.292  1.00  0.00    -0.015 A  
HETATM   20  O   UNL     1     -12.223  14.781  63.464  1.00  0.00    -0.952 OA 
HETATM   21  C   UNL     1     -11.387  16.366  65.030  1.00  0.00    -0.025 A  
HETATM   22  H   UNL     1     -12.300  15.470  62.814  1.00  0.00     0.000 HD 
HETATM   23  C   UNL     1     -11.767  15.059  64.722  1.00  0.00    -0.370 A  
BRANCH  19  24
HETATM   24  O   UNL     1     -10.523  17.989  66.471  1.00  0.00    -0.368 OA 
BRANCH  24  25
HETATM   25  C   UNL     1      -9.126  18.276  66.616  1.00  0.00    -0.288 C  
HETATM   26  C   UNL     1      -7.149  17.589  67.748  1.00  0.00    -0.180 C  
HETATM   27  O   UNL     1      -8.584  17.508  67.705  1.00  0.00    -0.216 OA 
HETATM   28  C   UNL     1      -6.714  19.038  68.019  1.00  0.00    -0.231 C  
HETATM   29  H   UNL     1      -7.457  21.927  66.692  1.00  0.00     0.000 HD 
HETATM   30  O   UNL     1      -9.460  20.607  65.891  1.00  0.00    -0.593 OA 
HETATM   31  C   UNL     1      -7.363  19.983  66.998  1.00  0.00    -0.254 C  
HETATM   32  O   UNL     1      -5.294  19.235  67.946  1.00  0.00    -0.173 OA 
HETATM   33  H   UNL     1      -9.312  21.527  66.073  1.00  0.00     0.000 HD 
HETATM   34  H   UNL     1      -5.025  20.130  68.114  1.00  0.00     0.000 HD 
HETATM   35  O   UNL     1      -7.054  21.342  67.324  1.00  0.00    -0.565 OA 
HETATM   36  C   UNL     1      -8.885  19.774  66.912  1.00  0.00    -0.335 C  
BRANCH  26  37
HETATM   37  C   UNL     1      -6.624  16.642  68.833  1.00  0.00    -0.178 C  
BRANCH  37  38
HETATM   38  O   UNL     1      -5.448  16.000  68.341  1.00  0.00    -0.096 OA 
BRANCH  38  39
HETATM   39  C   UNL     1      -5.492  14.580  68.515  1.00  0.00    -0.099 C  
HETATM   40  O   UNL     1      -6.252  14.017  67.445  1.00  0.00    -0.336 OA 
HETATM   41  C   UNL     1      -6.490  12.610  67.528  1.00  0.00    -0.158 C  
HETATM   42  C   UNL     1      -7.137  12.214  68.870  1.00  0.00    -0.098 C  
HETATM   43  C   UNL     1      -5.237  11.819  67.162  1.00  0.00    -0.109 C  
HETATM   44  O   UNL     1      -8.477  12.732  68.919  1.00  0.00    -0.350 OA 
HETATM   45  C   UNL     1      -6.386  12.784  70.077  1.00  0.00     0.013 C  
HETATM   46  O   UNL     1      -5.179  12.056  70.357  1.00  0.00    -0.090 OA 
HETATM   47  H   UNL     1      -8.875  12.488  69.747  1.00  0.00     0.000 HD 
HETATM   48  C   UNL     1      -6.105  14.282  69.901  1.00  0.00    -0.141 C  
HETATM   49  H   UNL     1      -4.713  12.409  71.105  1.00  0.00     0.000 HD 
HETATM   50  O   UNL     1      -5.231  14.730  70.953  1.00  0.00    -0.120 OA 
HETATM   51  H   UNL     1      -5.608  14.547  71.806  1.00  0.00     0.000 HD 
ENDBRANCH  38  39
ENDBRANCH  37  38
ENDBRANCH  26  37
ENDBRANCH  24  25
ENDBRANCH  19  24
ENDBRANCH   6  11
ENDBRANCH   2   3
TORSDOF 7
ENDMDL
MODEL       21
REMARK 921   NORMALIZED FREE ENERGY PREDICTED BY IDOCK:   -8.53 KCAL/MOL
REMARK 922        TOTAL FREE ENERGY PREDICTED BY IDOCK:  -13.30 KCAL/MOL
REMARK 923 INTER-LIGAND FREE ENERGY PREDICTED BY IDOCK:  -11.70 KCAL/MOL
REMARK 924 INTRA-LIGAND FREE ENERGY PREDICTED BY IDOCK:   -1.61 KCAL/MOL
REMARK 927      BINDING AFFINITY PREDICTED BY RF-SCORE:    0.00 PKD
ROOT
HETATM    1  C   UNL     1      -6.749  20.921  66.622  1.00  0.00    -0.271 C  
HETATM    2  O   UNL     1      -7.973  21.095  67.327  1.00  0.00    -0.255 OA 
ENDROOT
BRANCH   2   3
HETATM    3  C   UNL     1      -8.766  19.981  67.408  1.00  0.00    -0.345 A  
HETATM    4  C   UNL     1      -8.493  19.149  68.501  1.00  0.00    -0.399 A  
HETATM    5  C   UNL     1      -9.195  17.963  68.696  1.00  0.00    -0.269 A  
HETATM    6  C   UNL     1     -10.225  17.586  67.812  1.00  0.00    -0.349 A  
HETATM    7  C   UNL     1     -10.535  18.446  66.748  1.00  0.00    -0.415 A  
HETATM    8  H   UNL     1     -10.877  20.215  64.928  1.00  0.00     0.000 HD 
HETATM    9  O   UNL     1     -10.161  20.448  65.509  1.00  0.00    -0.233 OA 
HETATM   10  C   UNL     1      -9.817  19.639  66.554  1.00  0.00    -0.420 A  
BRANCH   6  11
HETATM   11  C   UNL     1     -10.849  16.205  67.935  1.00  0.00    -0.332 C  
HETATM   12  C   UNL     1     -10.619  15.697  69.349  1.00  0.00    -0.253 C  
HETATM   13  O   UNL     1     -11.983  14.133  70.493  1.00  0.00    -0.302 OA 
HETATM   14  C   UNL     1     -11.341  14.388  69.476  1.00  0.00    -0.276 C  
HETATM   15  C   UNL     1     -11.216  13.474  68.326  1.00  0.00    -0.305 A  
HETATM   16  C   UNL     1     -10.684  13.993  67.142  1.00  0.00    -0.283 A  
HETATM   17  C   UNL     1     -10.505  13.160  66.029  1.00  0.00    -0.291 A  
HETATM   18  O   UNL     1     -10.279  15.300  66.975  1.00  0.00    -0.252 OA 
HETATM   19  C   UNL     1     -10.833  11.802  66.099  1.00  0.00    -0.291 A  
HETATM   20  O   UNL     1     -12.054  11.578  69.543  1.00  0.00    -0.308 OA 
HETATM   21  C   UNL     1     -11.381  11.291  67.279  1.00  0.00    -0.329 A  
HETATM   22  H   UNL     1     -12.288  10.658  69.586  1.00  0.00     0.000 HD 
HETATM   23  C   UNL     1     -11.562  12.118  68.388  1.00  0.00    -0.327 A  
BRANCH  19  24
HETATM   24  O   UNL     1     -10.696  10.889  65.082  1.00  0.00    -0.240 OA 
BRANCH  24  25
HETATM   25  C   UNL     1      -9.909   9.724  65.360  1.00  0.00    -0.295 C  
HETATM   26  C   UNL     1      -9.867   7.716  66.635  1.00  0.00    -0.213 C  
HETATM   27  O   UNL     1     -10.485   9.003  66.463  1.00  0.00    -0.234 OA 
HETATM   28  C   UNL     1      -8.384   7.891  66.997  1.00  0.00    -0.117 C  
HETATM   29  H   UNL     1      -5.912   9.599  65.719  1.00  0.00     0.000 HD 
HETATM   30  O   UNL     1      -7.838  10.881  64.696  1.00  0.00    -0.357 OA 
HETATM   31  C   UNL     1      -7.690   8.785  65.959  1.00  0.00    -0.097 C  
HETATM   32  O   UNL     1      -7.657   6.656  67.057  1.00  0.00    -0.092 OA 
HETATM   33  H   UNL     1      -6.945  11.111  64.924  1.00  0.00     0.000 HD 
HETATM   34  H   UNL     1      -6.740   6.764  67.281  1.00  0.00     0.000 HD 
HETATM   35  O   UNL     1      -6.341   9.046  66.362  1.00  0.00    -0.063 OA 
HETATM   36  C   UNL     1      -8.457  10.099  65.731  1.00  0.00    -0.147 C  
BRANCH  26  37
HETATM   37  C   UNL     1     -10.615   6.941  67.727  1.00  0.00    -0.244 C  
BRANCH  37  38
HETATM   38  O   UNL     1      -9.701   6.661  68.787  1.00  0.00    -0.131 OA 
BRANCH  38  39
HETATM   39  C   UNL     1     -10.262   6.940  70.074  1.00  0.00    -0.196 C  
HETATM   40  O   UNL     1     -11.633   6.540  70.065  1.00  0.00    -0.407 OA 
HETATM   41  C   UNL     1     -12.376   6.853  71.244  1.00  0.00    -0.375 C  
HETATM   42  C   UNL     1     -12.289   8.352  71.600  1.00  0.00    -0.320 C  
HETATM   43  C   UNL     1     -12.023   5.903  72.385  1.00  0.00    -0.206 C  
HETATM   44  O   UNL     1     -12.996   9.113  70.607  1.00  0.00    -0.493 OA 
HETATM   45  C   UNL     1     -10.847   8.867  71.625  1.00  0.00    -0.349 C  
HETATM   46  O   UNL     1     -10.150   8.466  72.816  1.00  0.00    -0.286 OA 
HETATM   47  H   UNL     1     -12.942  10.036  70.826  1.00  0.00     0.000 HD 
HETATM   48  C   UNL     1     -10.083   8.447  70.363  1.00  0.00    -0.187 C  
HETATM   49  H   UNL     1      -9.256   8.786  72.832  1.00  0.00     0.000 HD 
HETATM   50  O   UNL     1      -8.690   8.775  70.518  1.00  0.00    -0.144 OA 
HETATM   51  H   UNL     1      -8.580   9.702  70.695  1.00  0.00     0.000 HD 
ENDBRANCH  38  39
ENDBRANCH  37  38
ENDBRANCH  26  37
ENDBRANCH  24  25
ENDBRANCH  19  24
ENDBRANCH   6  11
ENDBRANCH   2   3
TORSDOF 7
ENDMDL
MODEL       22
REMARK 921   NORMALIZED FREE ENERGY PREDICTED BY IDOCK:   -8.38 KCAL/MOL
REMARK 922        TOTAL FREE ENERGY PREDICTED BY IDOCK:  -13.09 KCAL/MOL
REMARK 923 INTER-LIGAND FREE ENERGY PREDICTED BY IDOCK:  -12.10 KCAL/MOL
REMARK 924 INTRA-LIGAND FREE ENERGY PREDICTED BY IDOCK:   -0.99 KCAL/MOL
REMARK 927      BINDING AFFINITY PREDICTED BY RF-SCORE:    0.00 PKD
ROOT
HETATM    1  C   UNL     1     -10.077   4.690  74.490  1.00  0.00    -0.231 C  
HETATM    2  O   UNL     1     -11.132   5.543  74.058  1.00  0.00    -0.109 OA 
ENDROOT
BRANCH   2   3
HETATM    3  C   UNL     1     -11.099   5.891  72.734  1.00  0.00    -0.281 A  
HETATM    4  C   UNL     1     -10.580   4.906  71.885  1.00  0.00    -0.186 A  
HETATM    5  C   UNL     1     -10.453   5.128  70.516  1.00  0.00    -0.278 A  
HETATM    6  C   UNL     1     -10.876   6.345  69.946  1.00  0.00    -0.370 A  
HETATM    7  C   UNL     1     -11.445   7.311  70.789  1.00  0.00    -0.328 A  
HETATM    8  H   UNL     1     -12.450   8.859  72.565  1.00  0.00     0.000 HD 
HETATM    9  O   UNL     1     -12.133   8.049  72.948  1.00  0.00    -0.247 OA 
HETATM   10  C   UNL     1     -11.565   7.082  72.171  1.00  0.00    -0.282 A  
BRANCH   6  11
HETATM   11  C   UNL     1     -10.559   6.638  68.488  1.00  0.00    -0.233 C  
HETATM   12  C   UNL     1      -9.645   5.543  67.964  1.00  0.00    -0.147 C  
HETATM   13  O   UNL     1      -9.468   4.858  65.702  1.00  0.00    -0.158 OA 
HETATM   14  C   UNL     1      -9.442   5.795  66.499  1.00  0.00    -0.153 C  
HETATM   15  C   UNL     1      -9.216   7.200  66.117  1.00  0.00    -0.126 A  
HETATM   16  C   UNL     1      -9.473   8.182  67.077  1.00  0.00    -0.177 A  
HETATM   17  C   UNL     1      -9.238   9.532  66.783  1.00  0.00    -0.184 A  
HETATM   18  O   UNL     1      -9.933   7.925  68.352  1.00  0.00    -0.169 OA 
HETATM   19  C   UNL     1      -8.722   9.906  65.537  1.00  0.00    -0.151 A  
HETATM   20  O   UNL     1      -8.426   6.637  63.916  1.00  0.00    -0.336 OA 
HETATM   21  C   UNL     1      -8.483   8.923  64.572  1.00  0.00    -0.178 A  
HETATM   22  H   UNL     1      -8.088   6.893  63.066  1.00  0.00     0.000 HD 
HETATM   23  C   UNL     1      -8.717   7.579  64.863  1.00  0.00     0.253 A  
BRANCH  19  24
HETATM   24  O   UNL     1      -8.444  11.190  65.136  1.00  0.00    -0.038 OA 
BRANCH  24  25
HETATM   25  C   UNL     1      -9.560  12.076  64.984  1.00  0.00    -0.046 C  
HETATM   26  C   UNL     1     -11.013  13.530  66.182  1.00  0.00    -0.284 C  
HETATM   27  O   UNL     1     -10.045  12.472  66.279  1.00  0.00    -0.240 OA 
HETATM   28  C   UNL     1     -12.253  13.037  65.421  1.00  0.00    -0.471 C  
HETATM   29  H   UNL     1     -12.722  11.507  62.574  1.00  0.00     0.000 HD 
HETATM   30  O   UNL     1     -10.289  10.917  62.936  1.00  0.00    -0.725 OA 
HETATM   31  C   UNL     1     -11.839  12.442  64.067  1.00  0.00    -0.439 C  
HETATM   32  O   UNL     1     -13.217  14.068  65.161  1.00  0.00    -0.768 OA 
HETATM   33  H   UNL     1     -11.002  10.500  62.465  1.00  0.00     0.000 HD 
HETATM   34  H   UNL     1     -13.984  13.764  64.691  1.00  0.00     0.000 HD 
HETATM   35  O   UNL     1     -12.979  11.875  63.412  1.00  0.00    -0.730 OA 
HETATM   36  C   UNL     1     -10.720  11.397  64.219  1.00  0.00    -0.356 C  
BRANCH  26  37
HETATM   37  C   UNL     1     -11.383  14.004  67.592  1.00  0.00    -0.312 C  
BRANCH  37  38
HETATM   38  O   UNL     1     -11.558  15.421  67.560  1.00  0.00    -0.294 OA 
BRANCH  38  39
HETATM   39  C   UNL     1     -10.310  16.120  67.493  1.00  0.00    -0.286 C  
HETATM   40  O   UNL     1      -9.938  16.505  68.817  1.00  0.00    -0.232 OA 
HETATM   41  C   UNL     1      -8.765  17.315  68.918  1.00  0.00    -0.172 C  
HETATM   42  C   UNL     1      -8.855  18.573  68.031  1.00  0.00    -0.298 C  
HETATM   43  C   UNL     1      -7.503  16.481  68.721  1.00  0.00    -0.216 C  
HETATM   44  O   UNL     1      -9.857  19.456  68.564  1.00  0.00    -0.373 OA 
HETATM   45  C   UNL     1      -9.257  18.250  66.590  1.00  0.00    -0.295 C  
HETATM   46  O   UNL     1      -8.165  17.701  65.833  1.00  0.00    -0.534 OA 
HETATM   47  H   UNL     1      -9.912  20.231  68.017  1.00  0.00     0.000 HD 
HETATM   48  C   UNL     1     -10.483  17.327  66.547  1.00  0.00    -0.260 C  
HETATM   49  H   UNL     1      -8.414  17.500  64.939  1.00  0.00     0.000 HD 
HETATM   50  O   UNL     1     -10.702  16.889  65.193  1.00  0.00    -0.663 OA 
HETATM   51  H   UNL     1     -10.809  17.632  64.612  1.00  0.00     0.000 HD 
ENDBRANCH  38  39
ENDBRANCH  37  38
ENDBRANCH  26  37
ENDBRANCH  24  25
ENDBRANCH  19  24
ENDBRANCH   6  11
ENDBRANCH   2   3
TORSDOF 7
ENDMDL
MODEL       23
REMARK 921   NORMALIZED FREE ENERGY PREDICTED BY IDOCK:   -8.37 KCAL/MOL
REMARK 922        TOTAL FREE ENERGY PREDICTED BY IDOCK:  -13.07 KCAL/MOL
REMARK 923 INTER-LIGAND FREE ENERGY PREDICTED BY IDOCK:  -11.02 KCAL/MOL
REMARK 924 INTRA-LIGAND FREE ENERGY PREDICTED BY IDOCK:   -2.05 KCAL/MOL
REMARK 927      BINDING AFFINITY PREDICTED BY RF-SCORE:    0.00 PKD
ROOT
HETATM    1  C   UNL     1      -5.766   4.382  67.027  1.00  0.00    -0.022 C  
HETATM    2  O   UNL     1      -6.461   5.443  66.380  1.00  0.00    -0.041 OA 
ENDROOT
BRANCH   2   3
HETATM    3  C   UNL     1      -7.407   6.075  67.143  1.00  0.00    -0.076 A  
HETATM    4  C   UNL     1      -6.911   6.683  68.303  1.00  0.00    -0.074 A  
HETATM    5  C   UNL     1      -7.759   7.334  69.194  1.00  0.00    -0.108 A  
HETATM    6  C   UNL     1      -9.140   7.425  68.931  1.00  0.00    -0.136 A  
HETATM    7  C   UNL     1      -9.630   6.862  67.743  1.00  0.00    -0.134 A  
HETATM    8  H   UNL     1     -10.215   5.763  65.506  1.00  0.00     0.000 HD 
HETATM    9  O   UNL     1      -9.289   5.677  65.704  1.00  0.00    -0.120 OA 
HETATM   10  C   UNL     1      -8.768   6.201  66.851  1.00  0.00    -0.109 A  
BRANCH   6  11
HETATM   11  C   UNL     1     -10.071   7.975  70.001  1.00  0.00    -0.196 C  
HETATM   12  C   UNL     1     -11.283   7.064  70.100  1.00  0.00    -0.325 C  
HETATM   13  O   UNL     1     -12.634   6.767  72.024  1.00  0.00    -0.308 OA 
HETATM   14  C   UNL     1     -12.125   7.563  71.237  1.00  0.00    -0.323 C  
HETATM   15  C   UNL     1     -12.284   9.026  71.320  1.00  0.00    -0.373 A  
HETATM   16  C   UNL     1     -11.445   9.815  70.529  1.00  0.00    -0.300 A  
HETATM   17  C   UNL     1     -11.579  11.210  70.538  1.00  0.00    -0.287 A  
HETATM   18  O   UNL     1     -10.474   9.318  69.685  1.00  0.00    -0.208 OA 
HETATM   19  C   UNL     1     -12.565  11.823  71.319  1.00  0.00    -0.296 A  
HETATM   20  O   UNL     1     -14.114   8.893  72.875  1.00  0.00    -0.991 OA 
HETATM   21  C   UNL     1     -13.391  11.032  72.123  1.00  0.00    -0.285 A  
HETATM   22  H   UNL     1     -14.776   9.311  73.414  1.00  0.00     0.000 HD 
HETATM   23  C   UNL     1     -13.260   9.642  72.116  1.00  0.00    -0.444 A  
BRANCH  19  24
HETATM   24  O   UNL     1     -12.797  13.173  71.405  1.00  0.00    -0.365 OA 
BRANCH  24  25
HETATM   25  C   UNL     1     -12.604  13.940  70.209  1.00  0.00    -0.264 C  
HETATM   26  C   UNL     1     -11.944  13.777  67.930  1.00  0.00    -0.356 C  
HETATM   27  O   UNL     1     -11.956  13.130  69.213  1.00  0.00    -0.311 OA 
HETATM   28  C   UNL     1     -11.115  15.068  68.002  1.00  0.00    -0.300 C  
HETATM   29  H   UNL     1     -11.090  17.653  69.996  1.00  0.00     0.000 HD 
HETATM   30  O   UNL     1     -12.282  16.010  71.506  1.00  0.00    -0.460 OA 
HETATM   31  C   UNL     1     -11.623  15.957  69.145  1.00  0.00    -0.379 C  
HETATM   32  O   UNL     1     -11.159  15.848  66.797  1.00  0.00    -0.217 OA 
HETATM   33  H   UNL     1     -11.741  16.774  71.666  1.00  0.00     0.000 HD 
HETATM   34  H   UNL     1     -10.646  16.646  66.841  1.00  0.00     0.000 HD 
HETATM   35  O   UNL     1     -10.776  17.103  69.288  1.00  0.00    -0.300 OA 
HETATM   36  C   UNL     1     -11.724  15.183  70.471  1.00  0.00    -0.302 C  
BRANCH  26  37
HETATM   37  C   UNL     1     -11.372  12.810  66.885  1.00  0.00    -0.321 C  
BRANCH  37  38
HETATM   38  O   UNL     1     -10.208  13.405  66.310  1.00  0.00    -0.283 OA 
BRANCH  38  39
HETATM   39  C   UNL     1      -9.049  12.578  66.456  1.00  0.00    -0.177 C  
HETATM   40  O   UNL     1      -9.473  11.269  66.839  1.00  0.00    -0.173 OA 
HETATM   41  C   UNL     1      -8.427  10.343  67.137  1.00  0.00    -0.126 C  
HETATM   42  C   UNL     1      -7.456  10.892  68.202  1.00  0.00    -0.091 C  
HETATM   43  C   UNL     1      -7.760   9.839  65.860  1.00  0.00    -0.105 C  
HETATM   44  O   UNL     1      -8.137  10.968  69.466  1.00  0.00    -0.371 OA 
HETATM   45  C   UNL     1      -6.955  12.300  67.871  1.00  0.00    -0.104 C  
HETATM   46  O   UNL     1      -5.947  12.290  66.847  1.00  0.00    -0.362 OA 
HETATM   47  H   UNL     1      -7.539  11.307  70.122  1.00  0.00     0.000 HD 
HETATM   48  C   UNL     1      -8.117  13.232  67.499  1.00  0.00    -0.186 C  
HETATM   49  H   UNL     1      -5.636  13.163  66.642  1.00  0.00     0.000 HD 
HETATM   50  O   UNL     1      -7.590  14.477  67.005  1.00  0.00    -0.313 OA 
HETATM   51  H   UNL     1      -7.017  14.879  67.647  1.00  0.00     0.000 HD 
ENDBRANCH  38  39
ENDBRANCH  37  38
ENDBRANCH  26  37
ENDBRANCH  24  25
ENDBRANCH  19  24
ENDBRANCH   6  11
ENDBRANCH   2   3
TORSDOF 7
ENDMDL
MODEL       24
REMARK 921   NORMALIZED FREE ENERGY PREDICTED BY IDOCK:   -8.35 KCAL/MOL
REMARK 922        TOTAL FREE ENERGY PREDICTED BY IDOCK:  -13.04 KCAL/MOL
REMARK 923 INTER-LIGAND FREE ENERGY PREDICTED BY IDOCK:  -11.16 KCAL/MOL
REMARK 924 INTRA-LIGAND FREE ENERGY PREDICTED BY IDOCK:   -1.88 KCAL/MOL
REMARK 927      BINDING AFFINITY PREDICTED BY RF-SCORE:    0.00 PKD
ROOT
HETATM    1  C   UNL     1      -5.834  18.720  65.133  1.00  0.00    -0.256 C  
HETATM    2  O   UNL     1      -7.199  18.434  65.417  1.00  0.00    -0.534 OA 
ENDROOT
BRANCH   2   3
HETATM    3  C   UNL     1      -7.415  17.340  66.213  1.00  0.00    -0.319 A  
HETATM    4  C   UNL     1      -6.319  16.966  67.000  1.00  0.00    -0.229 A  
HETATM    5  C   UNL     1      -6.378  15.853  67.834  1.00  0.00    -0.154 A  
HETATM    6  C   UNL     1      -7.560  15.093  67.932  1.00  0.00    -0.151 A  
HETATM    7  C   UNL     1      -8.675  15.498  67.184  1.00  0.00    -0.234 A  
HETATM    8  H   UNL     1     -10.530  16.491  65.723  1.00  0.00     0.000 HD 
HETATM    9  O   UNL     1      -9.720  16.981  65.638  1.00  0.00    -0.543 OA 
HETATM   10  C   UNL     1      -8.606  16.620  66.339  1.00  0.00    -0.310 A  
BRANCH   6  11
HETATM   11  C   UNL     1      -7.545  13.781  68.702  1.00  0.00    -0.125 C  
HETATM   12  C   UNL     1      -6.101  13.338  68.870  1.00  0.00    -0.083 C  
HETATM   13  O   UNL     1      -5.272  11.970  70.619  1.00  0.00    -0.109 OA 
HETATM   14  C   UNL     1      -6.109  12.107  69.728  1.00  0.00    -0.143 C  
HETATM   15  C   UNL     1      -7.159  11.120  69.421  1.00  0.00    -0.110 A  
HETATM   16  C   UNL     1      -8.194  11.520  68.571  1.00  0.00    -0.148 A  
HETATM   17  C   UNL     1      -9.199  10.611  68.212  1.00  0.00    -0.153 A  
HETATM   18  O   UNL     1      -8.303  12.775  68.009  1.00  0.00    -0.153 OA 
HETATM   19  C   UNL     1      -9.163   9.293  68.681  1.00  0.00    -0.135 A  
HETATM   20  O   UNL     1      -6.118   9.379  70.712  1.00  0.00    -0.052 OA 
HETATM   21  C   UNL     1      -8.137   8.902  69.546  1.00  0.00    -0.101 A  
HETATM   22  H   UNL     1      -6.102   8.488  71.041  1.00  0.00     0.000 HD 
HETATM   23  C   UNL     1      -7.136   9.805  69.905  1.00  0.00    -0.108 A  
BRANCH  19  24
HETATM   24  O   UNL     1     -10.082   8.314  68.395  1.00  0.00    -0.189 OA 
BRANCH  24  25
HETATM   25  C   UNL     1     -11.114   8.092  69.364  1.00  0.00     0.104 C  
HETATM   26  C   UNL     1     -12.477   9.188  70.977  1.00  0.00    -0.181 C  
HETATM   27  O   UNL     1     -11.307   9.283  70.147  1.00  0.00    -0.240 OA 
HETATM   28  C   UNL     1     -12.303   8.056  72.001  1.00  0.00    -0.326 C  
HETATM   29  H   UNL     1     -11.430   4.916  71.800  1.00  0.00     0.000 HD 
HETATM   30  O   UNL     1     -10.480   5.724  69.600  1.00  0.00    -0.236 OA 
HETATM   31  C   UNL     1     -11.937   6.749  71.284  1.00  0.00    -0.365 C  
HETATM   32  O   UNL     1     -13.478   7.803  72.785  1.00  0.00    -0.225 OA 
HETATM   33  H   UNL     1     -10.256   5.013  70.189  1.00  0.00     0.000 HD 
HETATM   34  H   UNL     1     -13.371   7.103  73.418  1.00  0.00     0.000 HD 
HETATM   35  O   UNL     1     -11.657   5.725  72.244  1.00  0.00    -0.293 OA 
HETATM   36  C   UNL     1     -10.750   6.935  70.323  1.00  0.00    -0.242 C  
BRANCH  26  37
HETATM   37  C   UNL     1     -12.709  10.533  71.675  1.00  0.00    -0.445 C  
BRANCH  37  38
HETATM   38  O   UNL     1     -12.766  11.554  70.679  1.00  0.00    -0.260 OA 
BRANCH  38  39
HETATM   39  C   UNL     1     -12.427  12.843  71.203  1.00  0.00    -0.249 C  
HETATM   40  O   UNL     1     -13.482  13.271  72.065  1.00  0.00    -0.451 OA 
HETATM   41  C   UNL     1     -13.355  14.594  72.587  1.00  0.00    -0.482 C  
HETATM   42  C   UNL     1     -13.160  15.639  71.470  1.00  0.00    -0.485 C  
HETATM   43  C   UNL     1     -12.314  14.647  73.703  1.00  0.00    -0.349 C  
HETATM   44  O   UNL     1     -14.375  15.749  70.709  1.00  0.00    -0.657 OA 
HETATM   45  C   UNL     1     -12.046  15.254  70.492  1.00  0.00    -0.354 C  
HETATM   46  O   UNL     1     -10.739  15.485  71.042  1.00  0.00    -0.357 OA 
HETATM   47  H   UNL     1     -14.254  16.392  70.021  1.00  0.00     0.000 HD 
HETATM   48  C   UNL     1     -12.201  13.803  70.015  1.00  0.00    -0.342 C  
HETATM   49  H   UNL     1     -10.048  15.246  70.435  1.00  0.00     0.000 HD 
HETATM   50  O   UNL     1     -11.034  13.422  69.264  1.00  0.00    -0.387 OA 
HETATM   51  H   UNL     1     -10.896  14.012  68.533  1.00  0.00     0.000 HD 
ENDBRANCH  38  39
ENDBRANCH  37  38
ENDBRANCH  26  37
ENDBRANCH  24  25
ENDBRANCH  19  24
ENDBRANCH   6  11
ENDBRANCH   2   3
TORSDOF 7
ENDMDL
MODEL       25
REMARK 921   NORMALIZED FREE ENERGY PREDICTED BY IDOCK:   -8.34 KCAL/MOL
REMARK 922        TOTAL FREE ENERGY PREDICTED BY IDOCK:  -13.03 KCAL/MOL
REMARK 923 INTER-LIGAND FREE ENERGY PREDICTED BY IDOCK:  -11.72 KCAL/MOL
REMARK 924 INTRA-LIGAND FREE ENERGY PREDICTED BY IDOCK:   -1.31 KCAL/MOL
REMARK 927      BINDING AFFINITY PREDICTED BY RF-SCORE:    0.00 PKD
ROOT
HETATM    1  C   UNL     1      -8.537   2.080  66.250  1.00  0.00    -0.112 C  
HETATM    2  O   UNL     1      -7.722   3.246  66.297  1.00  0.00    -0.076 OA 
ENDROOT
BRANCH   2   3
HETATM    3  C   UNL     1      -8.138   4.217  67.170  1.00  0.00    -0.100 A  
HETATM    4  C   UNL     1      -9.012   3.768  68.168  1.00  0.00    -0.165 A  
HETATM    5  C   UNL     1      -9.545   4.646  69.107  1.00  0.00    -0.245 A  
HETATM    6  C   UNL     1      -9.189   6.009  69.095  1.00  0.00    -0.131 A  
HETATM    7  C   UNL     1      -8.273   6.449  68.129  1.00  0.00    -0.116 A  
HETATM    8  H   UNL     1      -6.580   6.942  66.271  1.00  0.00     0.000 HD 
HETATM    9  O   UNL     1      -6.848   6.030  66.265  1.00  0.00    -0.058 OA 
HETATM   10  C   UNL     1      -7.744   5.557  67.180  1.00  0.00    -0.100 A  
BRANCH   6  11
HETATM   11  C   UNL     1      -9.921   6.981  70.007  1.00  0.00    -0.181 C  
HETATM   12  C   UNL     1     -11.140   6.278  70.582  1.00  0.00    -0.389 C  
HETATM   13  O   UNL     1     -12.190   6.798  72.642  1.00  0.00     0.008 OA 
HETATM   14  C   UNL     1     -11.777   7.219  71.563  1.00  0.00    -0.289 C  
HETATM   15  C   UNL     1     -11.862   8.627  71.135  1.00  0.00    -0.331 A  
HETATM   16  C   UNL     1     -11.123   9.008  70.012  1.00  0.00    -0.182 A  
HETATM   17  C   UNL     1     -11.197  10.325  69.537  1.00  0.00    -0.314 A  
HETATM   18  O   UNL     1     -10.314   8.161  69.285  1.00  0.00    -0.211 OA 
HETATM   19  C   UNL     1     -12.026  11.260  70.166  1.00  0.00    -0.369 A  
HETATM   20  O   UNL     1     -13.435   9.215  72.856  1.00  0.00    -0.763 OA 
HETATM   21  C   UNL     1     -12.750  10.880  71.300  1.00  0.00    -0.542 A  
HETATM   22  H   UNL     1     -13.988   9.854  73.291  1.00  0.00     0.000 HD 
HETATM   23  C   UNL     1     -12.677   9.570  71.776  1.00  0.00    -0.404 A  
BRANCH  19  24
HETATM   24  O   UNL     1     -12.187  12.571  69.790  1.00  0.00    -0.234 OA 
BRANCH  24  25
HETATM   25  C   UNL     1     -11.216  13.108  68.884  1.00  0.00    -0.277 C  
HETATM   26  C   UNL     1      -9.775  14.966  68.521  1.00  0.00    -0.215 C  
HETATM   27  O   UNL     1     -10.902  14.462  69.257  1.00  0.00    -0.254 OA 
HETATM   28  C   UNL     1     -10.111  15.027  67.023  1.00  0.00    -0.244 C  
HETATM   29  H   UNL     1     -11.349  12.902  64.876  1.00  0.00     0.000 HD 
HETATM   30  O   UNL     1     -12.136  11.799  67.012  1.00  0.00    -0.575 OA 
HETATM   31  C   UNL     1     -10.612  13.660  66.539  1.00  0.00    -0.282 C  
HETATM   32  O   UNL     1      -8.996  15.395  66.198  1.00  0.00    -0.341 OA 
HETATM   33  H   UNL     1     -12.459  11.803  66.118  1.00  0.00     0.000 HD 
HETATM   34  H   UNL     1      -9.203  15.433  65.272  1.00  0.00     0.000 HD 
HETATM   35  O   UNL     1     -11.038  13.749  65.176  1.00  0.00    -0.307 OA 
HETATM   36  C   UNL     1     -11.742  13.115  67.430  1.00  0.00    -0.370 C  
BRANCH  26  37
HETATM   37  C   UNL     1      -9.401  16.352  69.061  1.00  0.00    -0.248 C  
BRANCH  37  38
HETATM   38  O   UNL     1      -8.093  16.680  68.594  1.00  0.00    -0.214 OA 
BRANCH  38  39
HETATM   39  C   UNL     1      -8.001  18.037  68.147  1.00  0.00    -0.267 C  
HETATM   40  O   UNL     1      -8.800  18.180  66.972  1.00  0.00    -0.250 OA 
HETATM   41  C   UNL     1      -8.731  19.453  66.328  1.00  0.00    -0.346 C  
HETATM   42  C   UNL     1      -7.279  19.857  66.003  1.00  0.00    -0.298 C  
HETATM   43  C   UNL     1      -9.531  20.501  67.096  1.00  0.00    -0.544 C  
HETATM   44  O   UNL     1      -6.767  18.990  64.977  1.00  0.00    -0.486 OA 
HETATM   45  C   UNL     1      -6.348  19.727  67.212  1.00  0.00    -0.189 C  
HETATM   46  O   UNL     1      -6.519  20.805  68.146  1.00  0.00    -0.303 OA 
HETATM   47  H   UNL     1      -5.872  19.239  64.777  1.00  0.00     0.000 HD 
HETATM   48  C   UNL     1      -6.512  18.364  67.898  1.00  0.00    -0.200 C  
HETATM   49  H   UNL     1      -5.942  20.725  68.896  1.00  0.00     0.000 HD 
HETATM   50  O   UNL     1      -5.775  18.360  69.134  1.00  0.00    -0.202 OA 
HETATM   51  H   UNL     1      -4.859  18.561  68.981  1.00  0.00     0.000 HD 
ENDBRANCH  38  39
ENDBRANCH  37  38
ENDBRANCH  26  37
ENDBRANCH  24  25
ENDBRANCH  19  24
ENDBRANCH   6  11
ENDBRANCH   2   3
TORSDOF 7
ENDMDL
MODEL       26
REMARK 921   NORMALIZED FREE ENERGY PREDICTED BY IDOCK:   -8.32 KCAL/MOL
REMARK 922        TOTAL FREE ENERGY PREDICTED BY IDOCK:  -13.01 KCAL/MOL
REMARK 923 INTER-LIGAND FREE ENERGY PREDICTED BY IDOCK:  -11.79 KCAL/MOL
REMARK 924 INTRA-LIGAND FREE ENERGY PREDICTED BY IDOCK:   -1.21 KCAL/MOL
REMARK 927      BINDING AFFINITY PREDICTED BY RF-SCORE:    0.00 PKD
ROOT
HETATM    1  C   UNL     1      -8.272   2.850  65.931  1.00  0.00    -0.089 C  
HETATM    2  O   UNL     1      -7.875   4.204  66.124  1.00  0.00    -0.093 OA 
ENDROOT
BRANCH   2   3
HETATM    3  C   UNL     1      -8.451   4.838  67.193  1.00  0.00    -0.105 A  
HETATM    4  C   UNL     1      -9.827   5.063  67.065  1.00  0.00    -0.205 A  
HETATM    5  C   UNL     1     -10.544   5.727  68.057  1.00  0.00    -0.295 A  
HETATM    6  C   UNL     1      -9.903   6.160  69.234  1.00  0.00    -0.182 A  
HETATM    7  C   UNL     1      -8.535   5.888  69.386  1.00  0.00    -0.113 A  
HETATM    8  H   UNL     1      -6.059   5.234  69.380  1.00  0.00     0.000 HD 
HETATM    9  O   UNL     1      -6.490   4.973  68.574  1.00  0.00    -0.035 OA 
HETATM   10  C   UNL     1      -7.817   5.223  68.377  1.00  0.00    -0.087 A  
BRANCH   6  11
HETATM   11  C   UNL     1     -10.659   7.042  70.216  1.00  0.00    -0.226 C  
HETATM   12  C   UNL     1     -12.019   6.417  70.477  1.00  0.00    -0.217 C  
HETATM   13  O   UNL     1     -13.312   6.694  72.443  1.00  0.00     0.117 OA 
HETATM   14  C   UNL     1     -12.696   7.242  71.532  1.00  0.00    -0.384 C  
HETATM   15  C   UNL     1     -12.564   8.702  71.382  1.00  0.00    -0.325 A  
HETATM   16  C   UNL     1     -11.624   9.177  70.463  1.00  0.00    -0.197 A  
HETATM   17  C   UNL     1     -11.484  10.556  70.251  1.00  0.00    -0.416 A  
HETATM   18  O   UNL     1     -10.808   8.374  69.695  1.00  0.00    -0.224 OA 
HETATM   19  C   UNL     1     -12.296  11.465  70.938  1.00  0.00    -0.381 A  
HETATM   20  O   UNL     1     -14.311   9.177  72.965  1.00  0.00    -1.075 OA 
HETATM   21  C   UNL     1     -13.222  10.987  71.870  1.00  0.00    -0.503 A  
HETATM   22  H   UNL     1     -14.854   9.796  73.440  1.00  0.00     0.000 HD 
HETATM   23  C   UNL     1     -13.363   9.616  72.084  1.00  0.00    -0.454 A  
BRANCH  19  24
HETATM   24  O   UNL     1     -12.257  12.832  70.810  1.00  0.00    -0.367 OA 
BRANCH  24  25
HETATM   25  C   UNL     1     -12.079  13.353  69.487  1.00  0.00    -0.278 C  
HETATM   26  C   UNL     1     -10.981  12.951  67.415  1.00  0.00    -0.260 C  
HETATM   27  O   UNL     1     -11.042  12.618  68.812  1.00  0.00    -0.240 OA 
HETATM   28  C   UNL     1     -10.602  14.430  67.245  1.00  0.00    -0.279 C  
HETATM   29  H   UNL     1     -11.725  17.228  68.497  1.00  0.00     0.000 HD 
HETATM   30  O   UNL     1     -12.637  15.632  70.235  1.00  0.00    -0.490 OA 
HETATM   31  C   UNL     1     -11.559  15.315  68.057  1.00  0.00    -0.312 C  
HETATM   32  O   UNL     1     -10.648  14.882  65.884  1.00  0.00    -0.297 OA 
HETATM   33  H   UNL     1     -12.389  16.549  70.254  1.00  0.00     0.000 HD 
HETATM   34  H   UNL     1     -10.414  15.797  65.778  1.00  0.00     0.000 HD 
HETATM   35  O   UNL     1     -11.134  16.681  67.995  1.00  0.00    -0.343 OA 
HETATM   36  C   UNL     1     -11.674  14.844  69.517  1.00  0.00    -0.320 C  
BRANCH  26  37
HETATM   37  C   UNL     1      -9.961  12.037  66.725  1.00  0.00    -0.201 C  
BRANCH  37  38
HETATM   38  O   UNL     1     -10.579  10.772  66.485  1.00  0.00    -0.247 OA 
BRANCH  38  39
HETATM   39  C   UNL     1      -9.893  10.015  65.482  1.00  0.00    -0.303 C  
HETATM   40  O   UNL     1      -8.632   9.603  66.011  1.00  0.00    -0.128 OA 
HETATM   41  C   UNL     1      -7.768   8.928  65.095  1.00  0.00    -0.102 C  
HETATM   42  C   UNL     1      -7.534   9.750  63.811  1.00  0.00    -0.128 C  
HETATM   43  C   UNL     1      -8.230   7.492  64.862  1.00  0.00    -0.086 C  
HETATM   44  O   UNL     1      -6.754  10.914  64.133  1.00  0.00    -0.305 OA 
HETATM   45  C   UNL     1      -8.840  10.239  63.179  1.00  0.00    -0.223 C  
HETATM   46  O   UNL     1      -9.526   9.191  62.475  1.00  0.00    -0.536 OA 
HETATM   47  H   UNL     1      -6.610  11.420  63.341  1.00  0.00     0.000 HD 
HETATM   48  C   UNL     1      -9.752  10.898  64.223  1.00  0.00    -0.294 C  
HETATM   49  H   UNL     1     -10.336   9.494  62.083  1.00  0.00     0.000 HD 
HETATM   50  O   UNL     1     -11.039  11.159  63.634  1.00  0.00    -0.568 OA 
HETATM   51  H   UNL     1     -10.951  11.703  62.860  1.00  0.00     0.000 HD 
ENDBRANCH  38  39
ENDBRANCH  37  38
ENDBRANCH  26  37
ENDBRANCH  24  25
ENDBRANCH  19  24
ENDBRANCH   6  11
ENDBRANCH   2   3
TORSDOF 7
ENDMDL
MODEL       27
REMARK 921   NORMALIZED FREE ENERGY PREDICTED BY IDOCK:   -8.32 KCAL/MOL
REMARK 922        TOTAL FREE ENERGY PREDICTED BY IDOCK:  -13.01 KCAL/MOL
REMARK 923 INTER-LIGAND FREE ENERGY PREDICTED BY IDOCK:  -11.19 KCAL/MOL
REMARK 924 INTRA-LIGAND FREE ENERGY PREDICTED BY IDOCK:   -1.82 KCAL/MOL
REMARK 927      BINDING AFFINITY PREDICTED BY RF-SCORE:    0.00 PKD
ROOT
HETATM    1  C   UNL     1     -11.090   2.805  73.507  1.00  0.00    -0.213 C  
HETATM    2  O   UNL     1     -11.116   4.218  73.684  1.00  0.00    -0.264 OA 
ENDROOT
BRANCH   2   3
HETATM    3  C   UNL     1     -10.867   4.954  72.556  1.00  0.00    -0.170 A  
HETATM    4  C   UNL     1      -9.654   4.659  71.922  1.00  0.00    -0.210 A  
HETATM    5  C   UNL     1      -9.249   5.350  70.784  1.00  0.00    -0.183 A  
HETATM    6  C   UNL     1     -10.071   6.345  70.220  1.00  0.00    -0.216 A  
HETATM    7  C   UNL     1     -11.311   6.605  70.824  1.00  0.00    -0.389 A  
HETATM    8  H   UNL     1     -13.502   6.836  72.130  1.00  0.00     0.000 HD 
HETATM    9  O   UNL     1     -12.928   6.188  72.524  1.00  0.00     0.090 OA 
HETATM   10  C   UNL     1     -11.710   5.907  71.977  1.00  0.00    -0.193 A  
BRANCH   6  11
HETATM   11  C   UNL     1      -9.532   7.212  69.093  1.00  0.00    -0.147 C  
HETATM   12  C   UNL     1      -8.124   7.653  69.456  1.00  0.00    -0.127 C  
HETATM   13  O   UNL     1      -6.416   8.224  67.916  1.00  0.00    -0.054 OA 
HETATM   14  C   UNL     1      -7.575   8.408  68.281  1.00  0.00    -0.098 C  
HETATM   15  C   UNL     1      -8.507   9.349  67.634  1.00  0.00    -0.119 A  
HETATM   16  C   UNL     1      -9.859   9.264  67.981  1.00  0.00    -0.163 A  
HETATM   17  C   UNL     1     -10.784  10.159  67.427  1.00  0.00    -0.336 A  
HETATM   18  O   UNL     1     -10.378   8.354  68.878  1.00  0.00    -0.214 OA 
HETATM   19  C   UNL     1     -10.362  11.159  66.544  1.00  0.00    -0.243 A  
HETATM   20  O   UNL     1      -6.770  10.465  66.403  1.00  0.00    -0.092 OA 
HETATM   21  C   UNL     1      -9.013  11.230  66.186  1.00  0.00    -0.210 A  
HETATM   22  H   UNL     1      -6.486  11.136  65.792  1.00  0.00     0.000 HD 
HETATM   23  C   UNL     1      -8.089  10.339  66.734  1.00  0.00    -0.121 A  
BRANCH  19  24
HETATM   24  O   UNL     1     -11.169  12.094  65.945  1.00  0.00    -0.312 OA 
BRANCH  24  25
HETATM   25  C   UNL     1     -10.643  13.422  65.826  1.00  0.00    -0.282 C  
HETATM   26  C   UNL     1      -9.837  15.270  67.089  1.00  0.00    -0.224 C  
HETATM   27  O   UNL     1     -10.563  14.030  67.127  1.00  0.00    -0.272 OA 
HETATM   28  C   UNL     1     -10.582  16.288  66.212  1.00  0.00    -0.255 C  
HETATM   29  H   UNL     1     -11.836  16.214  63.199  1.00  0.00     0.000 HD 
HETATM   30  O   UNL     1     -11.716  13.724  63.630  1.00  0.00    -0.660 OA 
HETATM   31  C   UNL     1     -10.864  15.685  64.829  1.00  0.00    -0.355 C  
HETATM   32  O   UNL     1      -9.860  17.511  66.011  1.00  0.00    -0.467 OA 
HETATM   33  H   UNL     1     -12.267  14.268  63.079  1.00  0.00     0.000 HD 
HETATM   34  H   UNL     1     -10.320  18.141  65.469  1.00  0.00     0.000 HD 
HETATM   35  O   UNL     1     -11.662  16.587  64.055  1.00  0.00    -1.111 OA 
HETATM   36  C   UNL     1     -11.540  14.307  64.931  1.00  0.00    -0.384 C  
BRANCH  26  37
HETATM   37  C   UNL     1      -9.662  15.795  68.519  1.00  0.00    -0.206 C  
BRANCH  37  38
HETATM   38  O   UNL     1     -10.032  14.757  69.428  1.00  0.00    -0.182 OA 
BRANCH  38  39
HETATM   39  C   UNL     1     -11.119  15.141  70.276  1.00  0.00    -0.262 C  
HETATM   40  O   UNL     1     -10.709  14.984  71.635  1.00  0.00     0.055 OA 
HETATM   41  C   UNL     1     -11.720  15.218  72.617  1.00  0.00    -0.415 C  
HETATM   42  C   UNL     1     -12.978  14.363  72.366  1.00  0.00    -0.395 C  
HETATM   43  C   UNL     1     -11.984  16.712  72.787  1.00  0.00    -0.340 C  
HETATM   44  O   UNL     1     -12.664  12.981  72.606  1.00  0.00    -0.033 OA 
HETATM   45  C   UNL     1     -13.484  14.469  70.924  1.00  0.00    -0.214 C  
HETATM   46  O   UNL     1     -14.181  15.702  70.685  1.00  0.00    -0.749 OA 
HETATM   47  H   UNL     1     -13.439  12.454  72.451  1.00  0.00     0.000 HD 
HETATM   48  C   UNL     1     -12.343  14.270  69.918  1.00  0.00    -0.324 C  
HETATM   49  H   UNL     1     -14.495  15.769  69.791  1.00  0.00     0.000 HD 
HETATM   50  O   UNL     1     -12.817  14.575  68.593  1.00  0.00    -0.124 OA 
HETATM   51  H   UNL     1     -13.569  14.038  68.373  1.00  0.00     0.000 HD 
ENDBRANCH  38  39
ENDBRANCH  37  38
ENDBRANCH  26  37
ENDBRANCH  24  25
ENDBRANCH  19  24
ENDBRANCH   6  11
ENDBRANCH   2   3
TORSDOF 7
ENDMDL
MODEL       28
REMARK 921   NORMALIZED FREE ENERGY PREDICTED BY IDOCK:   -8.31 KCAL/MOL
REMARK 922        TOTAL FREE ENERGY PREDICTED BY IDOCK:  -12.99 KCAL/MOL
REMARK 923 INTER-LIGAND FREE ENERGY PREDICTED BY IDOCK:  -11.49 KCAL/MOL
REMARK 924 INTRA-LIGAND FREE ENERGY PREDICTED BY IDOCK:   -1.50 KCAL/MOL
REMARK 927      BINDING AFFINITY PREDICTED BY RF-SCORE:    0.00 PKD
ROOT
HETATM    1  C   UNL     1     -11.512   5.363  72.799  1.00  0.00    -0.268 C  
HETATM    2  O   UNL     1     -10.359   6.119  72.444  1.00  0.00    -0.187 OA 
ENDROOT
BRANCH   2   3
HETATM    3  C   UNL     1     -10.421   6.746  71.228  1.00  0.00    -0.213 A  
HETATM    4  C   UNL     1     -10.307   5.891  70.125  1.00  0.00    -0.305 A  
HETATM    5  C   UNL     1     -10.318   6.389  68.824  1.00  0.00    -0.232 A  
HETATM    6  C   UNL     1     -10.479   7.768  68.587  1.00  0.00    -0.199 A  
HETATM    7  C   UNL     1     -10.647   8.618  69.690  1.00  0.00    -0.219 A  
HETATM    8  H   UNL     1     -10.945   9.901  71.885  1.00  0.00     0.000 HD 
HETATM    9  O   UNL     1     -10.804   8.974  72.041  1.00  0.00    -0.352 OA 
HETATM   10  C   UNL     1     -10.628   8.109  71.000  1.00  0.00    -0.210 A  
BRANCH   6  11
HETATM   11  C   UNL     1     -10.303   8.309  67.176  1.00  0.00    -0.317 C  
HETATM   12  C   UNL     1      -8.869   8.059  66.740  1.00  0.00    -0.157 C  
HETATM   13  O   UNL     1      -8.130   7.812  64.502  1.00  0.00    -0.143 OA 
HETATM   14  C   UNL     1      -8.755   8.498  65.309  1.00  0.00    -0.140 C  
HETATM   15  C   UNL     1      -9.424   9.767  64.975  1.00  0.00    -0.337 A  
HETATM   16  C   UNL     1     -10.310  10.300  65.915  1.00  0.00    -0.171 A  
HETATM   17  C   UNL     1     -10.945  11.525  65.668  1.00  0.00    -0.296 A  
HETATM   18  O   UNL     1     -10.606   9.714  67.128  1.00  0.00    -0.256 OA 
HETATM   19  C   UNL     1     -10.681  12.235  64.491  1.00  0.00    -0.319 A  
HETATM   20  O   UNL     1      -8.290   9.989  62.866  1.00  0.00    -0.143 OA 
HETATM   21  C   UNL     1      -9.808  11.691  63.545  1.00  0.00    -0.391 A  
HETATM   22  H   UNL     1      -8.121  10.466  62.062  1.00  0.00     0.000 HD 
HETATM   23  C   UNL     1      -9.176  10.471  63.788  1.00  0.00    -0.263 A  
BRANCH  19  24
HETATM   24  O   UNL     1     -11.234  13.442  64.142  1.00  0.00    -0.380 OA 
BRANCH  24  25
HETATM   25  C   UNL     1     -11.072  14.521  65.071  1.00  0.00    -0.387 C  
HETATM   26  C   UNL     1      -9.443  15.913  66.106  1.00  0.00    -0.340 C  
HETATM   27  O   UNL     1      -9.674  14.706  65.360  1.00  0.00    -0.295 OA 
HETATM   28  C   UNL     1     -10.129  15.820  67.478  1.00  0.00    -0.245 C  
HETATM   29  H   UNL     1     -13.142  15.048  68.471  1.00  0.00     0.000 HD 
HETATM   30  O   UNL     1     -13.203  13.978  66.179  1.00  0.00    -0.415 OA 
HETATM   31  C   UNL     1     -11.613  15.469  67.301  1.00  0.00    -0.011 C  
HETATM   32  O   UNL     1     -10.061  17.036  68.238  1.00  0.00    -0.274 OA 
HETATM   33  H   UNL     1     -13.656  13.804  66.997  1.00  0.00     0.000 HD 
HETATM   34  H   UNL     1     -10.485  16.979  69.086  1.00  0.00     0.000 HD 
HETATM   35  O   UNL     1     -12.223  15.265  68.580  1.00  0.00    -0.182 OA 
HETATM   36  C   UNL     1     -11.808  14.237  66.400  1.00  0.00    -0.411 C  
BRANCH  26  37
HETATM   37  C   UNL     1      -7.932  16.128  66.258  1.00  0.00    -0.103 C  
BRANCH  37  38
HETATM   38  O   UNL     1      -7.588  17.363  65.631  1.00  0.00    -0.434 OA 
BRANCH  38  39
HETATM   39  C   UNL     1      -7.184  18.358  66.579  1.00  0.00    -0.229 C  
HETATM   40  O   UNL     1      -7.244  17.786  67.886  1.00  0.00    -0.201 OA 
HETATM   41  C   UNL     1      -6.978  18.683  68.966  1.00  0.00    -0.281 C  
HETATM   42  C   UNL     1      -7.885  19.929  68.916  1.00  0.00    -0.110 C  
HETATM   43  C   UNL     1      -5.486  18.980  69.077  1.00  0.00    -0.209 C  
HETATM   44  O   UNL     1      -9.239  19.539  69.198  1.00  0.00    -0.328 OA 
HETATM   45  C   UNL     1      -7.884  20.604  67.542  1.00  0.00    -0.255 C  
HETATM   46  O   UNL     1      -6.690  21.370  67.315  1.00  0.00    -0.551 OA 
HETATM   47  H   UNL     1      -9.798  20.307  69.168  1.00  0.00     0.000 HD 
HETATM   48  C   UNL     1      -8.112  19.582  66.420  1.00  0.00    -0.320 C  
HETATM   49  H   UNL     1      -6.689  21.788  66.462  1.00  0.00     0.000 HD 
HETATM   50  O   UNL     1      -7.905  20.219  65.146  1.00  0.00    -0.409 OA 
HETATM   51  H   UNL     1      -8.477  20.971  65.048  1.00  0.00     0.000 HD 
ENDBRANCH  38  39
ENDBRANCH  37  38
ENDBRANCH  26  37
ENDBRANCH  24  25
ENDBRANCH  19  24
ENDBRANCH   6  11
ENDBRANCH   2   3
TORSDOF 7
ENDMDL
MODEL       29
REMARK 921   NORMALIZED FREE ENERGY PREDICTED BY IDOCK:   -8.26 KCAL/MOL
REMARK 922        TOTAL FREE ENERGY PREDICTED BY IDOCK:  -12.92 KCAL/MOL
REMARK 923 INTER-LIGAND FREE ENERGY PREDICTED BY IDOCK:  -10.91 KCAL/MOL
REMARK 924 INTRA-LIGAND FREE ENERGY PREDICTED BY IDOCK:   -2.01 KCAL/MOL
REMARK 927      BINDING AFFINITY PREDICTED BY RF-SCORE:    0.00 PKD
ROOT
HETATM    1  C   UNL     1      -6.008  20.917  64.906  1.00  0.00    -0.263 C  
HETATM    2  O   UNL     1      -6.967  20.849  65.956  1.00  0.00    -0.133 OA 
ENDROOT
BRANCH   2   3
HETATM    3  C   UNL     1      -7.588  19.637  66.105  1.00  0.00    -0.316 A  
HETATM    4  C   UNL     1      -6.733  18.531  66.034  1.00  0.00    -0.293 A  
HETATM    5  C   UNL     1      -7.224  17.232  66.133  1.00  0.00    -0.304 A  
HETATM    6  C   UNL     1      -8.598  17.001  66.343  1.00  0.00    -0.311 A  
HETATM    7  C   UNL     1      -9.448  18.110  66.467  1.00  0.00    -0.307 A  
HETATM    8  H   UNL     1     -10.732  20.317  66.669  1.00  0.00     0.000 HD 
HETATM    9  O   UNL     1      -9.809  20.466  66.496  1.00  0.00    -0.415 OA 
HETATM   10  C   UNL     1      -8.945  19.419  66.359  1.00  0.00    -0.363 A  
BRANCH   6  11
HETATM   11  C   UNL     1      -9.139  15.582  66.263  1.00  0.00    -0.334 C  
HETATM   12  C   UNL     1     -10.542  15.567  66.847  1.00  0.00    -0.307 C  
HETATM   13  O   UNL     1     -12.255  14.030  66.285  1.00  0.00    -0.433 OA 
HETATM   14  C   UNL     1     -11.092  14.185  66.652  1.00  0.00    -0.312 C  
HETATM   15  C   UNL     1     -10.157  13.080  66.932  1.00  0.00    -0.243 A  
HETATM   16  C   UNL     1      -8.805  13.398  67.082  1.00  0.00    -0.222 A  
HETATM   17  C   UNL     1      -7.877  12.393  67.388  1.00  0.00    -0.174 A  
HETATM   18  O   UNL     1      -8.286  14.671  66.978  1.00  0.00    -0.209 OA 
HETATM   19  C   UNL     1      -8.297  11.070  67.569  1.00  0.00    -0.118 A  
HETATM   20  O   UNL     1     -11.895  11.418  66.983  1.00  0.00    -0.530 OA 
HETATM   21  C   UNL     1      -9.648  10.753  67.399  1.00  0.00    -0.179 A  
HETATM   22  H   UNL     1     -12.178  10.517  67.093  1.00  0.00     0.000 HD 
HETATM   23  C   UNL     1     -10.574  11.751  67.094  1.00  0.00    -0.231 A  
BRANCH  19  24
HETATM   24  O   UNL     1      -7.487  10.005  67.876  1.00  0.00    -0.088 OA 
BRANCH  24  25
HETATM   25  C   UNL     1      -8.132   8.820  68.359  1.00  0.00    -0.117 C  
HETATM   26  C   UNL     1      -8.471   7.497  70.307  1.00  0.00    -0.138 C  
HETATM   27  O   UNL     1      -7.691   8.540  69.699  1.00  0.00    -0.089 OA 
HETATM   28  C   UNL     1      -8.281   6.182  69.536  1.00  0.00    -0.116 C  
HETATM   29  H   UNL     1      -8.469   5.338  66.388  1.00  0.00     0.000 HD 
HETATM   30  O   UNL     1      -8.160   7.832  66.102  1.00  0.00    -0.103 OA 
HETATM   31  C   UNL     1      -8.578   6.398  68.046  1.00  0.00    -0.117 C  
HETATM   32  O   UNL     1      -9.128   5.118  69.995  1.00  0.00    -0.117 OA 
HETATM   33  H   UNL     1      -7.957   7.080  65.558  1.00  0.00     0.000 HD 
HETATM   34  H   UNL     1      -9.010   4.305  69.519  1.00  0.00     0.000 HD 
HETATM   35  O   UNL     1      -8.285   5.205  67.310  1.00  0.00    -0.107 OA 
HETATM   36  C   UNL     1      -7.802   7.597  67.474  1.00  0.00    -0.119 C  
BRANCH  26  37
HETATM   37  C   UNL     1      -8.050   7.344  71.774  1.00  0.00    -0.102 C  
BRANCH  37  38
HETATM   38  O   UNL     1      -9.215   7.455  72.591  1.00  0.00    -0.136 OA 
BRANCH  38  39
HETATM   39  C   UNL     1     -10.366   7.861  71.842  1.00  0.00    -0.215 C  
HETATM   40  O   UNL     1     -10.685   9.207  72.199  1.00  0.00    -0.288 OA 
HETATM   41  C   UNL     1     -11.881   9.733  71.623  1.00  0.00    -0.354 C  
HETATM   42  C   UNL     1     -13.101   8.833  71.905  1.00  0.00    -0.378 C  
HETATM   43  C   UNL     1     -11.673  10.087  70.153  1.00  0.00    -0.285 C  
HETATM   44  O   UNL     1     -13.413   8.887  73.307  1.00  0.00    -0.972 OA 
HETATM   45  C   UNL     1     -12.843   7.365  71.555  1.00  0.00    -0.375 C  
HETATM   46  O   UNL     1     -12.899   7.127  70.139  1.00  0.00    -0.231 OA 
HETATM   47  H   UNL     1     -14.165   8.332  73.481  1.00  0.00     0.000 HD 
HETATM   48  C   UNL     1     -11.515   6.876  72.149  1.00  0.00    -0.279 C  
HETATM   49  H   UNL     1     -12.739   6.217  69.921  1.00  0.00     0.000 HD 
HETATM   50  O   UNL     1     -11.216   5.566  71.633  1.00  0.00    -0.190 OA 
HETATM   51  H   UNL     1     -11.922   4.960  71.822  1.00  0.00     0.000 HD 
ENDBRANCH  38  39
ENDBRANCH  37  38
ENDBRANCH  26  37
ENDBRANCH  24  25
ENDBRANCH  19  24
ENDBRANCH   6  11
ENDBRANCH   2   3
TORSDOF 7
ENDMDL
MODEL       30
REMARK 921   NORMALIZED FREE ENERGY PREDICTED BY IDOCK:   -8.25 KCAL/MOL
REMARK 922        TOTAL FREE ENERGY PREDICTED BY IDOCK:  -12.91 KCAL/MOL
REMARK 923 INTER-LIGAND FREE ENERGY PREDICTED BY IDOCK:  -11.46 KCAL/MOL
REMARK 924 INTRA-LIGAND FREE ENERGY PREDICTED BY IDOCK:   -1.45 KCAL/MOL
REMARK 927      BINDING AFFINITY PREDICTED BY RF-SCORE:    0.00 PKD
ROOT
HETATM    1  C   UNL     1      -7.238   2.437  69.134  1.00  0.00    -0.044 C  
HETATM    2  O   UNL     1      -6.574   3.126  68.080  1.00  0.00    -0.036 OA 
ENDROOT
BRANCH   2   3
HETATM    3  C   UNL     1      -7.261   4.184  67.547  1.00  0.00    -0.068 A  
HETATM    4  C   UNL     1      -7.067   5.401  68.212  1.00  0.00    -0.066 A  
HETATM    5  C   UNL     1      -7.726   6.558  67.806  1.00  0.00    -0.107 A  
HETATM    6  C   UNL     1      -8.583   6.538  66.688  1.00  0.00    -0.118 A  
HETATM    7  C   UNL     1      -8.736   5.332  65.989  1.00  0.00    -0.137 A  
HETATM    8  H   UNL     1      -8.798   3.006  64.917  1.00  0.00     0.000 HD 
HETATM    9  O   UNL     1      -8.246   3.018  65.691  1.00  0.00    -0.086 OA 
HETATM   10  C   UNL     1      -8.072   4.166  66.409  1.00  0.00    -0.098 A  
BRANCH   6  11
HETATM   11  C   UNL     1      -9.432   7.760  66.375  1.00  0.00    -0.180 C  
HETATM   12  C   UNL     1      -8.694   8.611  65.355  1.00  0.00    -0.208 C  
HETATM   13  O   UNL     1      -9.702  10.092  63.804  1.00  0.00    -0.291 OA 
HETATM   14  C   UNL     1      -9.601   9.746  64.979  1.00  0.00    -0.264 C  
HETATM   15  C   UNL     1     -10.324  10.381  66.095  1.00  0.00    -0.269 A  
HETATM   16  C   UNL     1     -10.320   9.723  67.328  1.00  0.00    -0.248 A  
HETATM   17  C   UNL     1     -10.958  10.301  68.435  1.00  0.00    -0.308 A  
HETATM   18  O   UNL     1      -9.694   8.518  67.568  1.00  0.00    -0.148 OA 
HETATM   19  C   UNL     1     -11.583  11.548  68.322  1.00  0.00    -0.308 A  
HETATM   20  O   UNL     1     -10.959  12.301  64.794  1.00  0.00    -0.284 OA 
HETATM   21  C   UNL     1     -11.601  12.194  67.083  1.00  0.00    -0.405 A  
HETATM   22  H   UNL     1     -11.395  13.142  64.715  1.00  0.00     0.000 HD 
HETATM   23  C   UNL     1     -10.967  11.621  65.980  1.00  0.00    -0.286 A  
BRANCH  19  24
HETATM   24  O   UNL     1     -12.231  12.215  69.332  1.00  0.00    -0.207 OA 
BRANCH  24  25
HETATM   25  C   UNL     1     -12.049  13.635  69.390  1.00  0.00    -0.314 C  
HETATM   26  C   UNL     1     -10.571  15.391  68.763  1.00  0.00    -0.235 C  
HETATM   27  O   UNL     1     -10.726  13.972  68.936  1.00  0.00    -0.249 OA 
HETATM   28  C   UNL     1     -10.728  16.104  70.115  1.00  0.00    -0.289 C  
HETATM   29  H   UNL     1     -12.962  16.012  72.495  1.00  0.00     0.000 HD 
HETATM   30  O   UNL     1     -13.498  13.809  71.375  1.00  0.00    -0.306 OA 
HETATM   31  C   UNL     1     -12.052  15.696  70.776  1.00  0.00    -0.412 C  
HETATM   32  O   UNL     1     -10.720  17.536  70.015  1.00  0.00    -0.162 OA 
HETATM   33  H   UNL     1     -13.602  14.136  72.261  1.00  0.00     0.000 HD 
HETATM   34  H   UNL     1     -10.817  17.977  70.850  1.00  0.00     0.000 HD 
HETATM   35  O   UNL     1     -12.142  16.265  72.086  1.00  0.00    -0.496 OA 
HETATM   36  C   UNL     1     -12.217  14.167  70.832  1.00  0.00    -0.363 C  
BRANCH  26  37
HETATM   37  C   UNL     1      -9.197  15.675  68.145  1.00  0.00    -0.185 C  
BRANCH  37  38
HETATM   38  O   UNL     1      -9.391  16.137  66.808  1.00  0.00    -0.214 OA 
BRANCH  38  39
HETATM   39  C   UNL     1      -9.152  17.542  66.680  1.00  0.00    -0.269 C  
HETATM   40  O   UNL     1      -8.591  18.018  67.904  1.00  0.00    -0.247 OA 
HETATM   41  C   UNL     1      -8.394  19.431  67.986  1.00  0.00    -0.319 C  
HETATM   42  C   UNL     1      -9.689  20.212  67.686  1.00  0.00    -0.415 C  
HETATM   43  C   UNL     1      -7.180  19.864  67.169  1.00  0.00    -0.272 C  
HETATM   44  O   UNL     1     -10.629  19.993  68.751  1.00  0.00    -0.515 OA 
HETATM   45  C   UNL     1     -10.362  19.759  66.388  1.00  0.00    -0.508 C  
HETATM   46  O   UNL     1      -9.693  20.271  65.223  1.00  0.00    -0.368 OA 
HETATM   47  H   UNL     1     -11.427  20.475  68.566  1.00  0.00     0.000 HD 
HETATM   48  C   UNL     1     -10.489  18.230  66.330  1.00  0.00    -0.376 C  
HETATM   49  H   UNL     1     -10.110  19.990  64.418  1.00  0.00     0.000 HD 
HETATM   50  O   UNL     1     -10.938  17.839  65.020  1.00  0.00    -0.784 OA 
HETATM   51  H   UNL     1     -11.761  18.262  64.805  1.00  0.00     0.000 HD 
ENDBRANCH  38  39
ENDBRANCH  37  38
ENDBRANCH  26  37
ENDBRANCH  24  25
ENDBRANCH  19  24
ENDBRANCH   6  11
ENDBRANCH   2   3
TORSDOF 7
ENDMDL
MODEL       31
REMARK 921   NORMALIZED FREE ENERGY PREDICTED BY IDOCK:   -8.22 KCAL/MOL
REMARK 922        TOTAL FREE ENERGY PREDICTED BY IDOCK:  -12.86 KCAL/MOL
REMARK 923 INTER-LIGAND FREE ENERGY PREDICTED BY IDOCK:  -10.74 KCAL/MOL
REMARK 924 INTRA-LIGAND FREE ENERGY PREDICTED BY IDOCK:   -2.12 KCAL/MOL
REMARK 927      BINDING AFFINITY PREDICTED BY RF-SCORE:    0.00 PKD
ROOT
HETATM    1  C   UNL     1     -14.349   7.543  71.590  1.00  0.00    -0.477 C  
HETATM    2  O   UNL     1     -13.053   6.988  71.788  1.00  0.00    -0.361 OA 
ENDROOT
BRANCH   2   3
HETATM    3  C   UNL     1     -12.055   7.545  71.032  1.00  0.00    -0.277 A  
HETATM    4  C   UNL     1     -11.978   8.941  71.105  1.00  0.00    -0.344 A  
HETATM    5  C   UNL     1     -11.036   9.651  70.366  1.00  0.00    -0.356 A  
HETATM    6  C   UNL     1     -10.111   8.973  69.547  1.00  0.00    -0.199 A  
HETATM    7  C   UNL     1     -10.154   7.572  69.514  1.00  0.00    -0.189 A  
HETATM    8  H   UNL     1     -10.466   5.035  69.676  1.00  0.00     0.000 HD 
HETATM    9  O   UNL     1     -11.108   5.499  70.202  1.00  0.00    -0.248 OA 
HETATM   10  C   UNL     1     -11.112   6.863  70.259  1.00  0.00    -0.297 A  
BRANCH   6  11
HETATM   11  C   UNL     1      -9.217   9.771  68.610  1.00  0.00    -0.137 C  
HETATM   12  C   UNL     1      -8.134   8.848  68.075  1.00  0.00    -0.106 C  
HETATM   13  O   UNL     1      -6.999   9.103  66.011  1.00  0.00    -0.083 OA 
HETATM   14  C   UNL     1      -7.340   9.628  67.070  1.00  0.00    -0.087 C  
HETATM   15  C   UNL     1      -7.016  11.015  67.448  1.00  0.00    -0.086 A  
HETATM   16  C   UNL     1      -7.685  11.560  68.547  1.00  0.00    -0.134 A  
HETATM   17  C   UNL     1      -7.388  12.861  68.976  1.00  0.00     0.057 A  
HETATM   18  O   UNL     1      -8.632  10.891  69.295  1.00  0.00    -0.103 OA 
HETATM   19  C   UNL     1      -6.407  13.616  68.325  1.00  0.00    -0.107 A  
HETATM   20  O   UNL     1      -5.355  11.261  65.726  1.00  0.00    -0.305 OA 
HETATM   21  C   UNL     1      -5.753  13.075  67.214  1.00  0.00     0.113 A  
HETATM   22  H   UNL     1      -4.697  11.779  65.277  1.00  0.00     0.000 HD 
HETATM   23  C   UNL     1      -6.047  11.780  66.784  1.00  0.00    -0.102 A  
BRANCH  19  24
HETATM   24  O   UNL     1      -6.025  14.893  68.655  1.00  0.00    -0.083 OA 
BRANCH  24  25
HETATM   25  C   UNL     1      -6.875  15.958  68.210  1.00  0.00    -0.117 C  
HETATM   26  C   UNL     1      -8.654  16.475  66.718  1.00  0.00    -0.230 C  
HETATM   27  O   UNL     1      -7.630  15.528  67.063  1.00  0.00    -0.215 OA 
HETATM   28  C   UNL     1      -8.016  17.810  66.304  1.00  0.00    -0.247 C  
HETATM   29  H   UNL     1      -5.779  19.778  67.639  1.00  0.00     0.000 HD 
HETATM   30  O   UNL     1      -5.224  17.653  68.894  1.00  0.00    -0.154 OA 
HETATM   31  C   UNL     1      -7.057  18.297  67.399  1.00  0.00    -0.200 C  
HETATM   32  O   UNL     1      -8.970  18.856  66.070  1.00  0.00    -0.470 OA 
HETATM   33  H   UNL     1      -4.720  18.420  68.648  1.00  0.00     0.000 HD 
HETATM   34  H   UNL     1      -8.576  19.681  65.814  1.00  0.00     0.000 HD 
HETATM   35  O   UNL     1      -6.373  19.476  66.961  1.00  0.00    -0.186 OA 
HETATM   36  C   UNL     1      -6.054  17.205  67.810  1.00  0.00    -0.134 C  
BRANCH  26  37
HETATM   37  C   UNL     1      -9.512  15.897  65.586  1.00  0.00    -0.182 C  
BRANCH  37  38
HETATM   38  O   UNL     1     -10.839  15.708  66.078  1.00  0.00    -0.318 OA 
BRANCH  38  39
HETATM   39  C   UNL     1     -11.292  14.360  65.909  1.00  0.00    -0.332 C  
HETATM   40  O   UNL     1     -10.352  13.486  66.535  1.00  0.00    -0.272 OA 
HETATM   41  C   UNL     1     -10.596  12.089  66.363  1.00  0.00    -0.243 C  
HETATM   42  C   UNL     1     -10.729  11.707  64.875  1.00  0.00    -0.296 C  
HETATM   43  C   UNL     1     -11.746  11.620  67.251  1.00  0.00    -0.255 C  
HETATM   44  O   UNL     1      -9.451  11.853  64.235  1.00  0.00    -0.445 OA 
HETATM   45  C   UNL     1     -11.718  12.602  64.123  1.00  0.00    -0.400 C  
HETATM   46  O   UNL     1     -13.084  12.262  64.411  1.00  0.00    -0.780 OA 
HETATM   47  H   UNL     1      -9.533  11.617  63.318  1.00  0.00     0.000 HD 
HETATM   48  C   UNL     1     -11.444  14.087  64.397  1.00  0.00    -0.344 C  
HETATM   49  H   UNL     1     -13.697  12.817  63.945  1.00  0.00     0.000 HD 
HETATM   50  O   UNL     1     -12.509  14.879  63.839  1.00  0.00    -1.009 OA 
HETATM   51  H   UNL     1     -12.602  14.711  62.908  1.00  0.00     0.000 HD 
ENDBRANCH  38  39
ENDBRANCH  37  38
ENDBRANCH  26  37
ENDBRANCH  24  25
ENDBRANCH  19  24
ENDBRANCH   6  11
ENDBRANCH   2   3
TORSDOF 7
ENDMDL
MODEL       32
REMARK 921   NORMALIZED FREE ENERGY PREDICTED BY IDOCK:   -8.18 KCAL/MOL
REMARK 922        TOTAL FREE ENERGY PREDICTED BY IDOCK:  -12.80 KCAL/MOL
REMARK 923 INTER-LIGAND FREE ENERGY PREDICTED BY IDOCK:  -11.02 KCAL/MOL
REMARK 924 INTRA-LIGAND FREE ENERGY PREDICTED BY IDOCK:   -1.78 KCAL/MOL
REMARK 927      BINDING AFFINITY PREDICTED BY RF-SCORE:    0.00 PKD
ROOT
HETATM    1  C   UNL     1      -9.759   1.470  71.360  1.00  0.00    -0.136 C  
HETATM    2  O   UNL     1      -9.484   2.215  70.178  1.00  0.00    -0.119 OA 
ENDROOT
BRANCH   2   3
HETATM    3  C   UNL     1      -9.704   3.564  70.271  1.00  0.00    -0.095 A  
HETATM    4  C   UNL     1      -9.809   4.049  71.581  1.00  0.00    -0.253 A  
HETATM    5  C   UNL     1     -10.065   5.394  71.832  1.00  0.00    -0.246 A  
HETATM    6  C   UNL     1     -10.194   6.309  70.769  1.00  0.00    -0.238 A  
HETATM    7  C   UNL     1     -10.036   5.833  69.459  1.00  0.00    -0.278 A  
HETATM    8  H   UNL     1      -9.682   4.677  67.201  1.00  0.00     0.000 HD 
HETATM    9  O   UNL     1      -9.629   4.059  67.921  1.00  0.00    -0.174 OA 
HETATM   10  C   UNL     1      -9.783   4.473  69.213  1.00  0.00    -0.190 A  
BRANCH   6  11
HETATM   11  C   UNL     1     -10.656   7.730  71.056  1.00  0.00    -0.213 C  
HETATM   12  C   UNL     1     -12.098   7.680  71.532  1.00  0.00    -0.338 C  
HETATM   13  O   UNL     1     -13.143   9.276  72.938  1.00  0.00    -0.257 OA 
HETATM   14  C   UNL     1     -12.490   9.077  71.915  1.00  0.00    -0.384 C  
HETATM   15  C   UNL     1     -12.044  10.141  70.997  1.00  0.00    -0.476 A  
HETATM   16  C   UNL     1     -11.094   9.805  70.029  1.00  0.00    -0.267 A  
HETATM   17  C   UNL     1     -10.664  10.766  69.104  1.00  0.00    -0.265 A  
HETATM   18  O   UNL     1     -10.541   8.550  69.881  1.00  0.00    -0.223 OA 
HETATM   19  C   UNL     1     -11.196  12.060  69.126  1.00  0.00    -0.246 A  
HETATM   20  O   UNL     1     -13.516  11.789  71.946  1.00  0.00    -0.371 OA 
HETATM   21  C   UNL     1     -12.133  12.397  70.108  1.00  0.00    -0.366 A  
HETATM   22  H   UNL     1     -13.867  12.672  71.969  1.00  0.00     0.000 HD 
HETATM   23  C   UNL     1     -12.562  11.443  71.030  1.00  0.00    -0.386 A  
BRANCH  19  24
HETATM   24  O   UNL     1     -10.861  13.081  68.272  1.00  0.00    -0.229 OA 
BRANCH  24  25
HETATM   25  C   UNL     1     -11.342  12.982  66.926  1.00  0.00    -0.311 C  
HETATM   26  C   UNL     1     -10.876  12.013  64.804  1.00  0.00    -0.306 C  
HETATM   27  O   UNL     1     -10.354  12.337  66.104  1.00  0.00    -0.233 OA 
HETATM   28  C   UNL     1     -11.247  13.301  64.053  1.00  0.00    -0.339 C  
HETATM   29  H   UNL     1     -13.022  15.940  64.792  1.00  0.00     0.000 HD 
HETATM   30  O   UNL     1     -12.570  15.107  67.137  1.00  0.00     0.032 OA 
HETATM   31  C   UNL     1     -12.189  14.158  64.909  1.00  0.00    -0.438 C  
HETATM   32  O   UNL     1     -11.900  13.067  62.796  1.00  0.00    -0.698 OA 
HETATM   33  H   UNL     1     -12.750  15.965  66.769  1.00  0.00     0.000 HD 
HETATM   34  H   UNL     1     -12.129  13.862  62.332  1.00  0.00     0.000 HD 
HETATM   35  O   UNL     1     -12.438  15.410  64.261  1.00  0.00    -0.502 OA 
HETATM   36  C   UNL     1     -11.634  14.377  66.327  1.00  0.00    -0.372 C  
BRANCH  26  37
HETATM   37  C   UNL     1      -9.829  11.204  64.029  1.00  0.00    -0.302 C  
BRANCH  37  38
HETATM   38  O   UNL     1      -9.905   9.844  64.457  1.00  0.00    -0.261 OA 
BRANCH  38  39
HETATM   39  C   UNL     1      -8.619   9.305  64.780  1.00  0.00    -0.184 C  
HETATM   40  O   UNL     1      -7.919  10.257  65.582  1.00  0.00    -0.138 OA 
HETATM   41  C   UNL     1      -6.567   9.922  65.902  1.00  0.00    -0.091 C  
HETATM   42  C   UNL     1      -5.736   9.615  64.639  1.00  0.00    -0.076 C  
HETATM   43  C   UNL     1      -6.509   8.848  66.984  1.00  0.00    -0.061 C  
HETATM   44  O   UNL     1      -5.558  10.826  63.886  1.00  0.00    -0.329 OA 
HETATM   45  C   UNL     1      -6.419   8.603  63.716  1.00  0.00    -0.080 C  
HETATM   46  O   UNL     1      -6.307   7.258  64.210  1.00  0.00    -0.040 OA 
HETATM   47  H   UNL     1      -5.046  10.637  63.108  1.00  0.00     0.000 HD 
HETATM   48  C   UNL     1      -7.884   8.982  63.461  1.00  0.00    -0.140 C  
HETATM   49  H   UNL     1      -6.730   6.630  63.638  1.00  0.00     0.000 HD 
HETATM   50  O   UNL     1      -8.539   7.909  62.760  1.00  0.00    -0.401 OA 
HETATM   51  H   UNL     1      -8.087   7.711  61.949  1.00  0.00     0.000 HD 
ENDBRANCH  38  39
ENDBRANCH  37  38
ENDBRANCH  26  37
ENDBRANCH  24  25
ENDBRANCH  19  24
ENDBRANCH   6  11
ENDBRANCH   2   3
TORSDOF 7
ENDMDL
MODEL       33
REMARK 921   NORMALIZED FREE ENERGY PREDICTED BY IDOCK:   -8.08 KCAL/MOL
REMARK 922        TOTAL FREE ENERGY PREDICTED BY IDOCK:  -12.66 KCAL/MOL
REMARK 923 INTER-LIGAND FREE ENERGY PREDICTED BY IDOCK:  -10.72 KCAL/MOL
REMARK 924 INTRA-LIGAND FREE ENERGY PREDICTED BY IDOCK:   -1.94 KCAL/MOL
REMARK 927      BINDING AFFINITY PREDICTED BY RF-SCORE:    0.00 PKD
ROOT
HETATM    1  C   UNL     1      -7.406  20.180  68.656  1.00  0.00    -0.125 C  
HETATM    2  O   UNL     1      -8.673  19.595  68.939  1.00  0.00    -0.317 OA 
ENDROOT
BRANCH   2   3
HETATM    3  C   UNL     1      -9.103  18.661  68.034  1.00  0.00    -0.305 A  
HETATM    4  C   UNL     1      -9.058  17.339  68.494  1.00  0.00    -0.269 A  
HETATM    5  C   UNL     1      -9.432  16.278  67.673  1.00  0.00    -0.221 A  
HETATM    6  C   UNL     1      -9.898  16.514  66.365  1.00  0.00    -0.311 A  
HETATM    7  C   UNL     1      -9.993  17.842  65.923  1.00  0.00    -0.121 A  
HETATM    8  H   UNL     1     -10.071  20.351  65.413  1.00  0.00     0.000 HD 
HETATM    9  O   UNL     1      -9.727  20.183  66.283  1.00  0.00    -0.412 OA 
HETATM   10  C   UNL     1      -9.608  18.908  66.755  1.00  0.00    -0.324 A  
BRANCH   6  11
HETATM   11  C   UNL     1     -10.123  15.338  65.427  1.00  0.00    -0.362 C  
HETATM   12  C   UNL     1     -11.620  15.109  65.293  1.00  0.00    -0.206 C  
HETATM   13  O   UNL     1     -12.703  14.120  63.432  1.00  0.00    -0.767 OA 
HETATM   14  C   UNL     1     -11.815  14.022  64.277  1.00  0.00    -0.410 C  
HETATM   15  C   UNL     1     -10.893  12.877  64.381  1.00  0.00    -0.404 A  
HETATM   16  C   UNL     1      -9.777  13.018  65.210  1.00  0.00     0.023 A  
HETATM   17  C   UNL     1      -8.887  11.948  65.378  1.00  0.00     0.342 A  
HETATM   18  O   UNL     1      -9.476  14.156  65.928  1.00  0.00    -0.219 OA 
HETATM   19  C   UNL     1      -9.120  10.725  64.738  1.00  0.00    -0.200 A  
HETATM   20  O   UNL     1     -12.215  11.483  62.935  1.00  0.00    -0.942 OA 
HETATM   21  C   UNL     1     -10.228  10.594  63.896  1.00  0.00    -0.306 A  
HETATM   22  H   UNL     1     -12.366  10.657  62.491  1.00  0.00     0.000 HD 
HETATM   23  C   UNL     1     -11.115  11.658  63.726  1.00  0.00    -0.420 A  
BRANCH  19  24
HETATM   24  O   UNL     1      -8.328   9.607  64.830  1.00  0.00    -0.131 OA 
BRANCH  24  25
HETATM   25  C   UNL     1      -8.851   8.505  65.582  1.00  0.00    -0.173 C  
HETATM   26  C   UNL     1      -9.361   7.779  67.790  1.00  0.00    -0.143 C  
HETATM   27  O   UNL     1      -8.658   8.743  66.988  1.00  0.00    -0.114 OA 
HETATM   28  C   UNL     1      -8.794   6.374  67.537  1.00  0.00    -0.111 C  
HETATM   29  H   UNL     1      -8.174   4.614  64.858  1.00  0.00     0.000 HD 
HETATM   30  O   UNL     1      -8.238   6.913  63.806  1.00  0.00    -0.309 OA 
HETATM   31  C   UNL     1      -8.805   6.064  66.034  1.00  0.00    -0.153 C  
HETATM   32  O   UNL     1      -9.526   5.331  68.198  1.00  0.00    -0.114 OA 
HETATM   33  H   UNL     1      -7.802   6.100  63.579  1.00  0.00     0.000 HD 
HETATM   34  H   UNL     1      -9.176   4.462  68.043  1.00  0.00     0.000 HD 
HETATM   35  O   UNL     1      -8.167   4.806  65.789  1.00  0.00    -0.109 OA 
HETATM   36  C   UNL     1      -8.141   7.182  65.213  1.00  0.00    -0.134 C  
BRANCH  26  37
HETATM   37  C   UNL     1      -9.237   8.169  69.268  1.00  0.00    -0.151 C  
BRANCH  37  38
HETATM   38  O   UNL     1      -8.702   9.490  69.342  1.00  0.00    -0.143 OA 
BRANCH  38  39
HETATM   39  C   UNL     1      -9.715  10.473  69.580  1.00  0.00    -0.056 C  
HETATM   40  O   UNL     1     -10.991   9.856  69.406  1.00  0.00    -0.231 OA 
HETATM   41  C   UNL     1     -12.118  10.730  69.497  1.00  0.00    -0.272 C  
HETATM   42  C   UNL     1     -11.998  11.928  68.533  1.00  0.00    -0.212 C  
HETATM   43  C   UNL     1     -12.407  11.102  70.949  1.00  0.00    -0.500 C  
HETATM   44  O   UNL     1     -12.113  11.457  67.180  1.00  0.00    -0.390 OA 
HETATM   45  C   UNL     1     -10.651  12.646  68.650  1.00  0.00    -0.222 C  
HETATM   46  O   UNL     1     -10.582  13.481  69.818  1.00  0.00    -0.306 OA 
HETATM   47  H   UNL     1     -12.039  12.195  66.586  1.00  0.00     0.000 HD 
HETATM   48  C   UNL     1      -9.484  11.650  68.608  1.00  0.00    -0.123 C  
HETATM   49  H   UNL     1      -9.747  13.926  69.891  1.00  0.00     0.000 HD 
HETATM   50  O   UNL     1      -8.259  12.339  68.921  1.00  0.00    -0.344 OA 
HETATM   51  H   UNL     1      -8.117  13.062  68.323  1.00  0.00     0.000 HD 
ENDBRANCH  38  39
ENDBRANCH  37  38
ENDBRANCH  26  37
ENDBRANCH  24  25
ENDBRANCH  19  24
ENDBRANCH   6  11
ENDBRANCH   2   3
TORSDOF 7
ENDMDL
MODEL       34
REMARK 921   NORMALIZED FREE ENERGY PREDICTED BY IDOCK:   -8.06 KCAL/MOL
REMARK 922        TOTAL FREE ENERGY PREDICTED BY IDOCK:  -12.64 KCAL/MOL
REMARK 923 INTER-LIGAND FREE ENERGY PREDICTED BY IDOCK:  -11.64 KCAL/MOL
REMARK 924 INTRA-LIGAND FREE ENERGY PREDICTED BY IDOCK:   -1.00 KCAL/MOL
REMARK 927      BINDING AFFINITY PREDICTED BY RF-SCORE:    0.00 PKD
ROOT
HETATM    1  C   UNL     1      -5.251   4.649  64.905  1.00  0.00    -0.013 C  
HETATM    2  O   UNL     1      -5.480   5.557  63.832  1.00  0.00    -0.013 OA 
ENDROOT
BRANCH   2   3
HETATM    3  C   UNL     1      -6.311   6.607  64.120  1.00  0.00    -0.035 A  
HETATM    4  C   UNL     1      -7.293   6.328  65.078  1.00  0.00    -0.078 A  
HETATM    5  C   UNL     1      -8.232   7.287  65.449  1.00  0.00    -0.137 A  
HETATM    6  C   UNL     1      -8.194   8.579  64.888  1.00  0.00    -0.166 A  
HETATM    7  C   UNL     1      -7.179   8.875  63.967  1.00  0.00    -0.095 A  
HETATM    8  H   UNL     1      -5.213   9.117  62.343  1.00  0.00     0.000 HD 
HETATM    9  O   UNL     1      -5.263   8.238  62.701  1.00  0.00    -0.065 OA 
HETATM   10  C   UNL     1      -6.238   7.899  63.594  1.00  0.00    -0.063 A  
BRANCH   6  11
HETATM   11  C   UNL     1      -9.333   9.548  65.165  1.00  0.00    -0.252 C  
HETATM   12  C   UNL     1      -9.071  10.833  64.397  1.00  0.00    -0.217 C  
HETATM   13  O   UNL     1     -10.724  12.356  63.649  1.00  0.00    -0.417 OA 
HETATM   14  C   UNL     1     -10.262  11.723  64.596  1.00  0.00    -0.284 C  
HETATM   15  C   UNL     1     -10.801  11.772  65.967  1.00  0.00    -0.343 A  
HETATM   16  C   UNL     1     -10.350  10.811  66.875  1.00  0.00    -0.241 A  
HETATM   17  C   UNL     1     -10.798  10.834  68.203  1.00  0.00    -0.284 A  
HETATM   18  O   UNL     1      -9.443   9.817  66.573  1.00  0.00    -0.160 OA 
HETATM   19  C   UNL     1     -11.681  11.829  68.636  1.00  0.00    -0.330 A  
HETATM   20  O   UNL     1     -12.132  13.729  65.539  1.00  0.00    -0.364 OA 
HETATM   21  C   UNL     1     -12.144  12.779  67.721  1.00  0.00    -0.191 A  
HETATM   22  H   UNL     1     -12.742  14.397  65.831  1.00  0.00     0.000 HD 
HETATM   23  C   UNL     1     -11.700  12.758  66.398  1.00  0.00    -0.403 A  
BRANCH  19  24
HETATM   24  O   UNL     1     -12.182  11.960  69.908  1.00  0.00    -0.265 OA 
BRANCH  24  25
HETATM   25  C   UNL     1     -12.334  13.293  70.410  1.00  0.00    -0.295 C  
HETATM   26  C   UNL     1     -11.378  15.471  70.346  1.00  0.00    -0.342 C  
HETATM   27  O   UNL     1     -11.178  14.076  70.064  1.00  0.00    -0.156 OA 
HETATM   28  C   UNL     1     -11.568  15.678  71.856  1.00  0.00    -0.461 C  
HETATM   29  H   UNL     1     -13.479  14.308  74.122  1.00  0.00     0.000 HD 
HETATM   30  O   UNL     1     -13.587  12.486  72.371  1.00  0.00    -0.600 OA 
HETATM   31  C   UNL     1     -12.690  14.768  72.376  1.00  0.00    -0.349 C  
HETATM   32  O   UNL     1     -11.907  17.026  72.214  1.00  0.00    -0.392 OA 
HETATM   33  H   UNL     1     -13.679  12.493  73.317  1.00  0.00     0.000 HD 
HETATM   34  H   UNL     1     -12.024  17.154  73.148  1.00  0.00     0.000 HD 
HETATM   35  O   UNL     1     -12.785  14.872  73.801  1.00  0.00    -0.517 OA 
HETATM   36  C   UNL     1     -12.484  13.304  71.948  1.00  0.00     0.096 C  
BRANCH  26  37
HETATM   37  C   UNL     1     -10.175  16.267  69.826  1.00  0.00    -0.169 C  
BRANCH  37  38
HETATM   38  O   UNL     1     -10.516  16.819  68.554  1.00  0.00    -0.293 OA 
BRANCH  38  39
HETATM   39  C   UNL     1      -9.471  17.640  68.022  1.00  0.00    -0.282 C  
HETATM   40  O   UNL     1      -9.230  18.711  68.936  1.00  0.00    -0.302 OA 
HETATM   41  C   UNL     1      -8.288  19.694  68.502  1.00  0.00    -0.294 C  
HETATM   42  C   UNL     1      -8.659  20.279  67.124  1.00  0.00    -0.338 C  
HETATM   43  C   UNL     1      -6.859  19.170  68.612  1.00  0.00    -0.320 C  
HETATM   44  O   UNL     1      -9.854  21.067  67.253  1.00  0.00    -0.578 OA 
HETATM   45  C   UNL     1      -8.942  19.194  66.081  1.00  0.00    -0.219 C  
HETATM   46  O   UNL     1      -7.735  18.592  65.585  1.00  0.00    -0.509 OA 
HETATM   47  H   UNL     1     -10.082  21.428  66.404  1.00  0.00     0.000 HD 
HETATM   48  C   UNL     1      -9.910  18.135  66.626  1.00  0.00    -0.350 C  
HETATM   49  H   UNL     1      -7.910  17.919  64.938  1.00  0.00     0.000 HD 
HETATM   50  O   UNL     1      -9.990  17.039  65.697  1.00  0.00    -0.554 OA 
HETATM   51  H   UNL     1     -10.260  17.344  64.839  1.00  0.00     0.000 HD 
ENDBRANCH  38  39
ENDBRANCH  37  38
ENDBRANCH  26  37
ENDBRANCH  24  25
ENDBRANCH  19  24
ENDBRANCH   6  11
ENDBRANCH   2   3
TORSDOF 7
ENDMDL
MODEL       35
REMARK 921   NORMALIZED FREE ENERGY PREDICTED BY IDOCK:   -8.04 KCAL/MOL
REMARK 922        TOTAL FREE ENERGY PREDICTED BY IDOCK:  -12.61 KCAL/MOL
REMARK 923 INTER-LIGAND FREE ENERGY PREDICTED BY IDOCK:  -10.75 KCAL/MOL
REMARK 924 INTRA-LIGAND FREE ENERGY PREDICTED BY IDOCK:   -1.86 KCAL/MOL
REMARK 927      BINDING AFFINITY PREDICTED BY RF-SCORE:    0.00 PKD
ROOT
HETATM    1  C   UNL     1     -12.848  16.205  73.806  1.00  0.00    -0.531 C  
HETATM    2  O   UNL     1     -13.535  15.929  72.590  1.00  0.00    -0.508 OA 
ENDROOT
BRANCH   2   3
HETATM    3  C   UNL     1     -13.239  14.724  72.010  1.00  0.00    -0.351 A  
HETATM    4  C   UNL     1     -13.761  13.610  72.680  1.00  0.00    -0.551 A  
HETATM    5  C   UNL     1     -13.515  12.317  72.229  1.00  0.00    -0.365 A  
HETATM    6  C   UNL     1     -12.758  12.098  71.061  1.00  0.00    -0.322 A  
HETATM    7  C   UNL     1     -12.279  13.215  70.360  1.00  0.00    -0.389 A  
HETATM    8  H   UNL     1     -11.563  15.433  69.299  1.00  0.00     0.000 HD 
HETATM    9  O   UNL     1     -12.047  15.573  70.105  1.00  0.00    -0.340 OA 
HETATM   10  C   UNL     1     -12.526  14.518  70.826  1.00  0.00    -0.351 A  
BRANCH   6  11
HETATM   11  C   UNL     1     -12.346  10.681  70.691  1.00  0.00    -0.369 C  
HETATM   12  C   UNL     1     -12.830   9.739  71.779  1.00  0.00    -0.530 C  
HETATM   13  O   UNL     1     -13.336   7.441  71.492  1.00  0.00    -0.370 OA 
HETATM   14  C   UNL     1     -12.513   8.341  71.334  1.00  0.00    -0.292 C  
HETATM   15  C   UNL     1     -11.186   8.152  70.722  1.00  0.00    -0.275 A  
HETATM   16  C   UNL     1     -10.467   9.297  70.366  1.00  0.00    -0.245 A  
HETATM   17  C   UNL     1      -9.183   9.178  69.817  1.00  0.00    -0.179 A  
HETATM   18  O   UNL     1     -10.919  10.588  70.542  1.00  0.00    -0.271 OA 
HETATM   19  C   UNL     1      -8.601   7.918  69.641  1.00  0.00    -0.133 A  
HETATM   20  O   UNL     1     -11.277   5.755  70.894  1.00  0.00    -0.245 OA 
HETATM   21  C   UNL     1      -9.330   6.774  69.980  1.00  0.00    -0.158 A  
HETATM   22  H   UNL     1     -10.886   4.899  70.763  1.00  0.00     0.000 HD 
HETATM   23  C   UNL     1     -10.609   6.890  70.527  1.00  0.00    -0.220 A  
BRANCH  19  24
HETATM   24  O   UNL     1      -7.353   7.675  69.122  1.00  0.00    -0.084 OA 
BRANCH  24  25
HETATM   25  C   UNL     1      -7.020   8.346  67.900  1.00  0.00    -0.078 C  
HETATM   26  C   UNL     1      -6.444  10.467  66.990  1.00  0.00    -0.074 C  
HETATM   27  O   UNL     1      -6.990   9.767  68.120  1.00  0.00    -0.075 OA 
HETATM   28  C   UNL     1      -7.347  10.267  65.763  1.00  0.00    -0.140 C  
HETATM   29  H   UNL     1      -8.659   7.660  64.299  1.00  0.00     0.000 HD 
HETATM   30  O   UNL     1      -8.183   6.635  66.563  1.00  0.00    -0.108 OA 
HETATM   31  C   UNL     1      -7.579   8.769  65.518  1.00  0.00    -0.087 C  
HETATM   32  O   UNL     1      -6.807  10.822  64.554  1.00  0.00    -0.352 OA 
HETATM   33  H   UNL     1      -8.819   6.452  65.881  1.00  0.00     0.000 HD 
HETATM   34  H   UNL     1      -7.365  10.699  63.796  1.00  0.00     0.000 HD 
HETATM   35  O   UNL     1      -8.515   8.587  64.451  1.00  0.00    -0.154 OA 
HETATM   36  C   UNL     1      -8.055   8.048  66.791  1.00  0.00    -0.107 C  
BRANCH  26  37
HETATM   37  C   UNL     1      -6.306  11.954  67.338  1.00  0.00    -0.128 C  
BRANCH  37  38
HETATM   38  O   UNL     1      -7.529  12.610  67.004  1.00  0.00    -0.089 OA 
BRANCH  38  39
HETATM   39  C   UNL     1      -7.513  13.998  67.354  1.00  0.00    -0.127 C  
HETATM   40  O   UNL     1      -7.014  14.122  68.687  1.00  0.00    -0.093 OA 
HETATM   41  C   UNL     1      -7.038  15.440  69.236  1.00  0.00    -0.179 C  
HETATM   42  C   UNL     1      -8.443  16.071  69.161  1.00  0.00    -0.247 C  
HETATM   43  C   UNL     1      -5.918  16.298  68.652  1.00  0.00    -0.109 C  
HETATM   44  O   UNL     1      -9.321  15.373  70.060  1.00  0.00    -0.390 OA 
HETATM   45  C   UNL     1      -9.057  15.976  67.762  1.00  0.00    -0.196 C  
HETATM   46  O   UNL     1      -8.494  16.939  66.857  1.00  0.00    -0.189 OA 
HETATM   47  H   UNL     1     -10.187  15.762  70.014  1.00  0.00     0.000 HD 
HETATM   48  C   UNL     1      -8.946  14.552  67.201  1.00  0.00    -0.230 C  
HETATM   49  H   UNL     1      -8.874  16.881  65.989  1.00  0.00     0.000 HD 
HETATM   50  O   UNL     1      -9.349  14.552  65.819  1.00  0.00    -0.520 OA 
HETATM   51  H   UNL     1     -10.231  14.892  65.725  1.00  0.00     0.000 HD 
ENDBRANCH  38  39
ENDBRANCH  37  38
ENDBRANCH  26  37
ENDBRANCH  24  25
ENDBRANCH  19  24
ENDBRANCH   6  11
ENDBRANCH   2   3
TORSDOF 7
ENDMDL
MODEL       36
REMARK 921   NORMALIZED FREE ENERGY PREDICTED BY IDOCK:   -8.04 KCAL/MOL
REMARK 922        TOTAL FREE ENERGY PREDICTED BY IDOCK:  -12.61 KCAL/MOL
REMARK 923 INTER-LIGAND FREE ENERGY PREDICTED BY IDOCK:  -10.54 KCAL/MOL
REMARK 924 INTRA-LIGAND FREE ENERGY PREDICTED BY IDOCK:   -2.07 KCAL/MOL
REMARK 927      BINDING AFFINITY PREDICTED BY RF-SCORE:    0.00 PKD
ROOT
HETATM    1  C   UNL     1     -12.436  16.311  72.791  1.00  0.00    -0.387 C  
HETATM    2  O   UNL     1     -12.794  15.885  71.481  1.00  0.00    -0.465 OA 
ENDROOT
BRANCH   2   3
HETATM    3  C   UNL     1     -12.702  14.537  71.256  1.00  0.00    -0.342 A  
HETATM    4  C   UNL     1     -13.348  13.742  72.211  1.00  0.00    -0.617 A  
HETATM    5  C   UNL     1     -13.313  12.352  72.135  1.00  0.00    -0.508 A  
HETATM    6  C   UNL     1     -12.650  11.711  71.070  1.00  0.00    -0.431 A  
HETATM    7  C   UNL     1     -12.049  12.508  70.084  1.00  0.00    -0.368 A  
HETATM    8  H   UNL     1     -11.071  14.216  68.446  1.00  0.00     0.000 HD 
HETATM    9  O   UNL     1     -11.492  14.643  69.184  1.00  0.00    -0.262 OA 
HETATM   10  C   UNL     1     -12.083  13.910  70.172  1.00  0.00    -0.349 A  
BRANCH   6  11
HETATM   11  C   UNL     1     -12.465  10.202  71.104  1.00  0.00    -0.387 C  
HETATM   12  C   UNL     1     -13.482   9.613  72.067  1.00  0.00    -0.514 C  
HETATM   13  O   UNL     1     -14.361   7.415  71.974  1.00  0.00    -0.337 OA 
HETATM   14  C   UNL     1     -13.354   8.120  71.995  1.00  0.00    -0.282 C  
HETATM   15  C   UNL     1     -11.976   7.598  71.957  1.00  0.00    -0.341 A  
HETATM   16  C   UNL     1     -10.944   8.511  71.721  1.00  0.00    -0.306 A  
HETATM   17  C   UNL     1      -9.611   8.077  71.714  1.00  0.00    -0.231 A  
HETATM   18  O   UNL     1     -11.129   9.861  71.512  1.00  0.00    -0.275 OA 
HETATM   19  C   UNL     1      -9.300   6.736  71.965  1.00  0.00    -0.141 A  
HETATM   20  O   UNL     1     -12.651   5.345  72.455  1.00  0.00    -0.132 OA 
HETATM   21  C   UNL     1     -10.336   5.823  72.183  1.00  0.00    -0.249 A  
HETATM   22  H   UNL     1     -12.440   4.432  72.613  1.00  0.00     0.000 HD 
HETATM   23  C   UNL     1     -11.664   6.252  72.190  1.00  0.00    -0.319 A  
BRANCH  19  24
HETATM   24  O   UNL     1      -8.038   6.196  71.991  1.00  0.00    -0.109 OA 
BRANCH  24  25
HETATM   25  C   UNL     1      -7.540   5.658  70.760  1.00  0.00    -0.091 C  
HETATM   26  C   UNL     1      -7.659   5.889  68.395  1.00  0.00    -0.090 C  
HETATM   27  O   UNL     1      -8.267   6.223  69.654  1.00  0.00    -0.120 OA 
HETATM   28  C   UNL     1      -7.708   4.369  68.176  1.00  0.00    -0.079 C  
HETATM   29  H   UNL     1      -6.863   1.779  69.974  1.00  0.00     0.000 HD 
HETATM   30  O   UNL     1      -7.047   3.493  71.826  1.00  0.00    -0.033 OA 
HETATM   31  C   UNL     1      -7.091   3.644  69.379  1.00  0.00    -0.045 C  
HETATM   32  O   UNL     1      -7.005   3.935  67.003  1.00  0.00    -0.056 OA 
HETATM   33  H   UNL     1      -7.145   2.548  71.795  1.00  0.00     0.000 HD 
HETATM   34  H   UNL     1      -7.035   2.995  66.867  1.00  0.00     0.000 HD 
HETATM   35  O   UNL     1      -7.245   2.228  69.229  1.00  0.00    -0.043 OA 
HETATM   36  C   UNL     1      -7.698   4.121  70.710  1.00  0.00    -0.052 C  
BRANCH  26  37
HETATM   37  C   UNL     1      -8.391   6.634  67.271  1.00  0.00    -0.120 C  
BRANCH  37  38
HETATM   38  O   UNL     1      -7.533   7.664  66.780  1.00  0.00    -0.089 OA 
BRANCH  38  39
HETATM   39  C   UNL     1      -8.149   8.955  66.836  1.00  0.00    -0.109 C  
HETATM   40  O   UNL     1      -8.464   9.247  68.197  1.00  0.00    -0.119 OA 
HETATM   41  C   UNL     1      -9.190  10.457  68.419  1.00  0.00    -0.147 C  
HETATM   42  C   UNL     1     -10.481  10.517  67.577  1.00  0.00    -0.239 C  
HETATM   43  C   UNL     1      -8.280  11.675  68.285  1.00  0.00    -0.156 C  
HETATM   44  O   UNL     1     -11.409   9.535  68.067  1.00  0.00    -0.514 OA 
HETATM   45  C   UNL     1     -10.234  10.209  66.098  1.00  0.00    -0.215 C  
HETATM   46  O   UNL     1      -9.639  11.319  65.405  1.00  0.00    -0.216 OA 
HETATM   47  H   UNL     1     -12.204   9.572  67.548  1.00  0.00     0.000 HD 
HETATM   48  C   UNL     1      -9.397   8.934  65.926  1.00  0.00    -0.236 C  
HETATM   49  H   UNL     1      -9.486  11.129  64.488  1.00  0.00     0.000 HD 
HETATM   50  O   UNL     1      -9.021   8.793  64.544  1.00  0.00    -0.422 OA 
HETATM   51  H   UNL     1      -9.788   8.779  63.985  1.00  0.00     0.000 HD 
ENDBRANCH  38  39
ENDBRANCH  37  38
ENDBRANCH  26  37
ENDBRANCH  24  25
ENDBRANCH  19  24
ENDBRANCH   6  11
ENDBRANCH   2   3
TORSDOF 7
ENDMDL
MODEL       37
REMARK 921   NORMALIZED FREE ENERGY PREDICTED BY IDOCK:   -8.04 KCAL/MOL
REMARK 922        TOTAL FREE ENERGY PREDICTED BY IDOCK:  -12.61 KCAL/MOL
REMARK 923 INTER-LIGAND FREE ENERGY PREDICTED BY IDOCK:  -10.32 KCAL/MOL
REMARK 924 INTRA-LIGAND FREE ENERGY PREDICTED BY IDOCK:   -2.29 KCAL/MOL
REMARK 927      BINDING AFFINITY PREDICTED BY RF-SCORE:    0.00 PKD
ROOT
HETATM    1  C   UNL     1     -10.258  16.847  68.435  1.00  0.00    -0.322 C  
HETATM    2  O   UNL     1     -11.599  16.446  68.699  1.00  0.00    -0.311 OA 
ENDROOT
BRANCH   2   3
HETATM    3  C   UNL     1     -11.746  15.168  69.171  1.00  0.00    -0.325 A  
HETATM    4  C   UNL     1     -10.936  14.216  68.539  1.00  0.00    -0.271 A  
HETATM    5  C   UNL     1     -11.000  12.870  68.889  1.00  0.00    -0.271 A  
HETATM    6  C   UNL     1     -11.862  12.437  69.915  1.00  0.00    -0.376 A  
HETATM    7  C   UNL     1     -12.634  13.398  70.585  1.00  0.00    -0.325 A  
HETATM    8  H   UNL     1     -13.892  15.372  71.623  1.00  0.00     0.000 HD 
HETATM    9  O   UNL     1     -13.333  15.654  70.908  1.00  0.00    -0.556 OA 
HETATM   10  C   UNL     1     -12.569  14.755  70.222  1.00  0.00    -0.315 A  
BRANCH   6  11
HETATM   11  C   UNL     1     -12.053  10.947  70.154  1.00  0.00    -0.349 C  
HETATM   12  C   UNL     1     -12.997  10.764  71.330  1.00  0.00    -0.535 C  
HETATM   13  O   UNL     1     -14.394   8.886  71.700  1.00  0.00    -0.337 OA 
HETATM   14  C   UNL     1     -13.256   9.293  71.470  1.00  0.00    -0.367 C  
HETATM   15  C   UNL     1     -12.079   8.419  71.317  1.00  0.00    -0.315 A  
HETATM   16  C   UNL     1     -10.913   8.989  70.800  1.00  0.00    -0.258 A  
HETATM   17  C   UNL     1      -9.751   8.215  70.670  1.00  0.00    -0.184 A  
HETATM   18  O   UNL     1     -10.792  10.308  70.416  1.00  0.00    -0.294 OA 
HETATM   19  C   UNL     1      -9.742   6.876  71.077  1.00  0.00    -0.174 A  
HETATM   20  O   UNL     1     -13.192   6.500  72.245  1.00  0.00    -0.539 OA 
HETATM   21  C   UNL     1     -10.916   6.305  71.577  1.00  0.00    -0.322 A  
HETATM   22  H   UNL     1     -13.188   5.587  72.509  1.00  0.00     0.000 HD 
HETATM   23  C   UNL     1     -12.074   7.073  71.706  1.00  0.00    -0.336 A  
BRANCH  19  24
HETATM   24  O   UNL     1      -8.669   6.023  71.006  1.00  0.00    -0.130 OA 
BRANCH  24  25
HETATM   25  C   UNL     1      -8.566   5.209  69.830  1.00  0.00    -0.100 C  
HETATM   26  C   UNL     1      -8.941   5.203  67.481  1.00  0.00    -0.109 C  
HETATM   27  O   UNL     1      -9.210   5.869  68.726  1.00  0.00    -0.115 OA 
HETATM   28  C   UNL     1      -9.534   3.786  67.506  1.00  0.00    -0.191 C  
HETATM   29  H   UNL     1      -9.368   1.282  69.594  1.00  0.00     0.000 HD 
HETATM   30  O   UNL     1      -8.689   3.144  71.167  1.00  0.00    -0.069 OA 
HETATM   31  C   UNL     1      -9.032   3.027  68.742  1.00  0.00    -0.135 C  
HETATM   32  O   UNL     1      -9.198   3.001  66.352  1.00  0.00    -0.192 OA 
HETATM   33  H   UNL     1      -9.105   2.298  71.292  1.00  0.00     0.000 HD 
HETATM   34  H   UNL     1      -9.564   2.125  66.367  1.00  0.00     0.000 HD 
HETATM   35  O   UNL     1      -9.678   1.752  68.829  1.00  0.00    -0.125 OA 
HETATM   36  C   UNL     1      -9.242   3.834  70.035  1.00  0.00    -0.150 C  
BRANCH  26  37
HETATM   37  C   UNL     1      -9.531   6.029  66.332  1.00  0.00    -0.150 C  
BRANCH  37  38
HETATM   38  O   UNL     1      -8.504   6.873  65.811  1.00  0.00    -0.141 OA 
BRANCH  38  39
HETATM   39  C   UNL     1      -8.668   8.238  66.212  1.00  0.00    -0.151 C  
HETATM   40  O   UNL     1      -8.923   9.024  65.048  1.00  0.00    -0.202 OA 
HETATM   41  C   UNL     1      -9.001  10.435  65.258  1.00  0.00    -0.187 C  
HETATM   42  C   UNL     1      -7.748  10.981  65.973  1.00  0.00    -0.059 C  
HETATM   43  C   UNL     1     -10.328  10.820  65.906  1.00  0.00    -0.302 C  
HETATM   44  O   UNL     1      -6.621  10.887  65.086  1.00  0.00    -0.363 OA 
HETATM   45  C   UNL     1      -7.398  10.188  67.235  1.00  0.00    -0.090 C  
HETATM   46  O   UNL     1      -8.262  10.514  68.337  1.00  0.00    -0.111 OA 
HETATM   47  H   UNL     1      -5.849  11.224  65.527  1.00  0.00     0.000 HD 
HETATM   48  C   UNL     1      -7.391   8.678  66.961  1.00  0.00    -0.080 C  
HETATM   49  H   UNL     1      -8.045  10.022  69.120  1.00  0.00     0.000 HD 
HETATM   50  O   UNL     1      -7.258   7.968  68.206  1.00  0.00    -0.088 OA 
HETATM   51  H   UNL     1      -6.473   8.238  68.666  1.00  0.00     0.000 HD 
ENDBRANCH  38  39
ENDBRANCH  37  38
ENDBRANCH  26  37
ENDBRANCH  24  25
ENDBRANCH  19  24
ENDBRANCH   6  11
ENDBRANCH   2   3
TORSDOF 7
ENDMDL
MODEL       38
REMARK 921   NORMALIZED FREE ENERGY PREDICTED BY IDOCK:   -8.02 KCAL/MOL
REMARK 922        TOTAL FREE ENERGY PREDICTED BY IDOCK:  -12.58 KCAL/MOL
REMARK 923 INTER-LIGAND FREE ENERGY PREDICTED BY IDOCK:  -10.23 KCAL/MOL
REMARK 924 INTRA-LIGAND FREE ENERGY PREDICTED BY IDOCK:   -2.36 KCAL/MOL
REMARK 927      BINDING AFFINITY PREDICTED BY RF-SCORE:    0.00 PKD
ROOT
HETATM    1  C   UNL     1     -12.105  13.075  63.335  1.00  0.00    -0.515 C  
HETATM    2  O   UNL     1     -11.442  13.721  64.417  1.00  0.00    -0.372 OA 
ENDROOT
BRANCH   2   3
HETATM    3  C   UNL     1     -11.364  12.994  65.575  1.00  0.00    -0.300 A  
HETATM    4  C   UNL     1     -10.723  11.755  65.444  1.00  0.00    -0.333 A  
HETATM    5  C   UNL     1     -10.599  10.891  66.528  1.00  0.00    -0.295 A  
HETATM    6  C   UNL     1     -11.087  11.258  67.797  1.00  0.00    -0.328 A  
HETATM    7  C   UNL     1     -11.681  12.521  67.941  1.00  0.00    -0.416 A  
HETATM    8  H   UNL     1     -12.689  14.875  67.892  1.00  0.00     0.000 HD 
HETATM    9  O   UNL     1     -12.387  14.608  67.031  1.00  0.00    -0.225 OA 
HETATM   10  C   UNL     1     -11.809  13.386  66.840  1.00  0.00    -0.403 A  
BRANCH   6  11
HETATM   11  C   UNL     1     -11.107  10.230  68.918  1.00  0.00    -0.231 C  
HETATM   12  C   UNL     1     -12.185  10.625  69.914  1.00  0.00    -0.346 C  
HETATM   13  O   UNL     1     -13.354   9.139  71.344  1.00  0.00    -0.345 OA 
HETATM   14  C   UNL     1     -12.261   9.536  70.944  1.00  0.00    -0.254 C  
HETATM   15  C   UNL     1     -10.966   9.012  71.416  1.00  0.00    -0.394 A  
HETATM   16  C   UNL     1      -9.823   9.363  70.693  1.00  0.00    -0.276 A  
HETATM   17  C   UNL     1      -8.561   8.926  71.119  1.00  0.00    -0.263 A  
HETATM   18  O   UNL     1      -9.826  10.157  69.565  1.00  0.00    -0.215 OA 
HETATM   19  C   UNL     1      -8.432   8.157  72.280  1.00  0.00    -0.170 A  
HETATM   20  O   UNL     1     -11.935   7.895  73.313  1.00  0.00    -0.629 OA 
HETATM   21  C   UNL     1      -9.579   7.793  72.991  1.00  0.00    -0.320 A  
HETATM   22  H   UNL     1     -11.847   7.362  74.094  1.00  0.00     0.000 HD 
HETATM   23  C   UNL     1     -10.837   8.226  72.569  1.00  0.00    -0.351 A  
BRANCH  19  24
HETATM   24  O   UNL     1      -7.254   7.678  72.799  1.00  0.00    -0.069 OA 
BRANCH  24  25
HETATM   25  C   UNL     1      -6.813   6.398  72.329  1.00  0.00    -0.069 C  
HETATM   26  C   UNL     1      -6.322   5.160  70.358  1.00  0.00    -0.030 C  
HETATM   27  O   UNL     1      -6.956   6.331  70.899  1.00  0.00    -0.064 OA 
HETATM   28  C   UNL     1      -7.013   3.896  70.892  1.00  0.00    -0.033 C  
HETATM   29  H   UNL     1      -7.837   2.832  73.867  1.00  0.00     0.000 HD 
HETATM   30  O   UNL     1      -7.597   5.296  74.388  1.00  0.00    -0.089 OA 
HETATM   31  C   UNL     1      -7.059   3.929  72.425  1.00  0.00    -0.051 C  
HETATM   32  O   UNL     1      -6.360   2.678  70.506  1.00  0.00    -0.023 OA 
HETATM   33  H   UNL     1      -8.106   4.591  74.772  1.00  0.00     0.000 HD 
HETATM   34  H   UNL     1      -6.787   1.896  70.836  1.00  0.00     0.000 HD 
HETATM   35  O   UNL     1      -7.808   2.812  72.917  1.00  0.00    -0.049 OA 
HETATM   36  C   UNL     1      -7.642   5.252  72.953  1.00  0.00    -0.097 C  
BRANCH  26  37
HETATM   37  C   UNL     1      -6.383   5.219  68.827  1.00  0.00    -0.035 C  
BRANCH  37  38
HETATM   38  O   UNL     1      -7.493   4.435  68.389  1.00  0.00    -0.063 OA 
BRANCH  38  39
HETATM   39  C   UNL     1      -8.358   5.163  67.511  1.00  0.00    -0.106 C  
HETATM   40  O   UNL     1      -8.459   6.505  67.988  1.00  0.00    -0.119 OA 
HETATM   41  C   UNL     1      -9.380   7.343  67.286  1.00  0.00    -0.133 C  
HETATM   42  C   UNL     1     -10.790   6.722  67.219  1.00  0.00    -0.373 C  
HETATM   43  C   UNL     1      -8.807   7.779  65.940  1.00  0.00    -0.176 C  
HETATM   44  O   UNL     1     -11.363   6.712  68.538  1.00  0.00    -0.553 OA 
HETATM   45  C   UNL     1     -10.772   5.274  66.722  1.00  0.00    -0.164 C  
HETATM   46  O   UNL     1     -10.586   5.192  65.299  1.00  0.00    -0.402 OA 
HETATM   47  H   UNL     1     -12.232   6.329  68.496  1.00  0.00     0.000 HD 
HETATM   48  C   UNL     1      -9.722   4.440  67.469  1.00  0.00    -0.163 C  
HETATM   49  H   UNL     1     -10.575   4.294  64.990  1.00  0.00     0.000 HD 
HETATM   50  O   UNL     1      -9.600   3.152  66.839  1.00  0.00    -0.382 OA 
HETATM   51  H   UNL     1     -10.439   2.708  66.814  1.00  0.00     0.000 HD 
ENDBRANCH  38  39
ENDBRANCH  37  38
ENDBRANCH  26  37
ENDBRANCH  24  25
ENDBRANCH  19  24
ENDBRANCH   6  11
ENDBRANCH   2   3
TORSDOF 7
ENDMDL
MODEL       39
REMARK 921   NORMALIZED FREE ENERGY PREDICTED BY IDOCK:   -8.01 KCAL/MOL
REMARK 922        TOTAL FREE ENERGY PREDICTED BY IDOCK:  -12.56 KCAL/MOL
REMARK 923 INTER-LIGAND FREE ENERGY PREDICTED BY IDOCK:   -9.71 KCAL/MOL
REMARK 924 INTRA-LIGAND FREE ENERGY PREDICTED BY IDOCK:   -2.85 KCAL/MOL
REMARK 927      BINDING AFFINITY PREDICTED BY RF-SCORE:    0.00 PKD
ROOT
HETATM    1  C   UNL     1     -10.245  16.745  66.000  1.00  0.00    -0.346 C  
HETATM    2  O   UNL     1     -10.083  15.431  65.475  1.00  0.00    -0.341 OA 
ENDROOT
BRANCH   2   3
HETATM    3  C   UNL     1     -10.507  14.417  66.292  1.00  0.00    -0.290 A  
HETATM    4  C   UNL     1      -9.828  14.330  67.514  1.00  0.00    -0.231 A  
HETATM    5  C   UNL     1     -10.127  13.329  68.434  1.00  0.00    -0.237 A  
HETATM    6  C   UNL     1     -11.146  12.394  68.169  1.00  0.00    -0.288 A  
HETATM    7  C   UNL     1     -11.862  12.512  66.968  1.00  0.00    -0.394 A  
HETATM    8  H   UNL     1     -12.991  12.995  64.721  1.00  0.00     0.000 HD 
HETATM    9  O   UNL     1     -12.280  13.603  64.891  1.00  0.00    -0.380 OA 
HETATM   10  C   UNL     1     -11.550  13.523  66.041  1.00  0.00    -0.338 A  
BRANCH   6  11
HETATM   11  C   UNL     1     -11.329  11.203  69.097  1.00  0.00    -0.273 C  
HETATM   12  C   UNL     1     -12.073  11.669  70.338  1.00  0.00    -0.462 C  
HETATM   13  O   UNL     1     -13.433  10.311  71.724  1.00  0.00    -0.358 OA 
HETATM   14  C   UNL     1     -12.340  10.457  71.181  1.00  0.00    -0.400 C  
HETATM   15  C   UNL     1     -11.224   9.501  71.297  1.00  0.00    -0.452 A  
HETATM   16  C   UNL     1     -10.144   9.657  70.423  1.00  0.00    -0.276 A  
HETATM   17  C   UNL     1      -9.037   8.802  70.515  1.00  0.00    -0.205 A  
HETATM   18  O   UNL     1     -10.058  10.636  69.456  1.00  0.00    -0.209 OA 
HETATM   19  C   UNL     1      -8.992   7.803  71.493  1.00  0.00    -0.133 A  
HETATM   20  O   UNL     1     -12.213   8.334  73.151  1.00  0.00    -0.595 OA 
HETATM   21  C   UNL     1     -10.082   7.638  72.354  1.00  0.00    -0.265 A  
HETATM   22  H   UNL     1     -12.188   7.646  73.807  1.00  0.00     0.000 HD 
HETATM   23  C   UNL     1     -11.185   8.488  72.264  1.00  0.00    -0.362 A  
BRANCH  19  24
HETATM   24  O   UNL     1      -7.965   6.913  71.685  1.00  0.00    -0.100 OA 
BRANCH  24  25
HETATM   25  C   UNL     1      -7.710   5.980  70.627  1.00  0.00    -0.101 C  
HETATM   26  C   UNL     1      -6.938   5.813  68.383  1.00  0.00    -0.068 C  
HETATM   27  O   UNL     1      -7.418   6.694  69.412  1.00  0.00    -0.089 OA 
HETATM   28  C   UNL     1      -8.033   4.803  68.005  1.00  0.00    -0.085 C  
HETATM   29  H   UNL     1      -9.953   2.780  69.703  1.00  0.00     0.000 HD 
HETATM   30  O   UNL     1      -9.321   4.370  71.566  1.00  0.00    -0.129 OA 
HETATM   31  C   UNL     1      -8.539   4.079  69.261  1.00  0.00    -0.078 C  
HETATM   32  O   UNL     1      -7.594   3.799  67.077  1.00  0.00    -0.078 OA 
HETATM   33  H   UNL     1     -10.072   3.809  71.409  1.00  0.00     0.000 HD 
HETATM   34  H   UNL     1      -8.270   3.175  66.843  1.00  0.00     0.000 HD 
HETATM   35  O   UNL     1      -9.639   3.228  68.925  1.00  0.00    -0.159 OA 
HETATM   36  C   UNL     1      -8.932   5.068  70.372  1.00  0.00    -0.124 C  
BRANCH  26  37
HETATM   37  C   UNL     1      -6.511   6.645  67.168  1.00  0.00    -0.042 C  
BRANCH  37  38
HETATM   38  O   UNL     1      -7.480   6.466  66.136  1.00  0.00    -0.079 OA 
BRANCH  38  39
HETATM   39  C   UNL     1      -7.968   7.713  65.629  1.00  0.00    -0.116 C  
HETATM   40  O   UNL     1      -6.893   8.653  65.630  1.00  0.00    -0.069 OA 
HETATM   41  C   UNL     1      -7.238   9.988  65.257  1.00  0.00    -0.137 C  
HETATM   42  C   UNL     1      -8.397  10.544  66.109  1.00  0.00    -0.155 C  
HETATM   43  C   UNL     1      -7.440  10.101  63.748  1.00  0.00    -0.126 C  
HETATM   44  O   UNL     1      -7.940  10.735  67.458  1.00  0.00    -0.109 OA 
HETATM   45  C   UNL     1      -9.594   9.592  66.166  1.00  0.00    -0.239 C  
HETATM   46  O   UNL     1     -10.369   9.622  64.956  1.00  0.00    -0.157 OA 
HETATM   47  H   UNL     1      -8.654  11.078  67.983  1.00  0.00     0.000 HD 
HETATM   48  C   UNL     1      -9.154   8.162  66.510  1.00  0.00    -0.176 C  
HETATM   49  H   UNL     1     -11.112   9.031  64.991  1.00  0.00     0.000 HD 
HETATM   50  O   UNL     1     -10.272   7.269  66.357  1.00  0.00    -0.464 OA 
HETATM   51  H   UNL     1     -11.001   7.546  66.900  1.00  0.00     0.000 HD 
ENDBRANCH  38  39
ENDBRANCH  37  38
ENDBRANCH  26  37
ENDBRANCH  24  25
ENDBRANCH  19  24
ENDBRANCH   6  11
ENDBRANCH   2   3
TORSDOF 7
ENDMDL
MODEL       40
REMARK 921   NORMALIZED FREE ENERGY PREDICTED BY IDOCK:   -7.99 KCAL/MOL
REMARK 922        TOTAL FREE ENERGY PREDICTED BY IDOCK:  -12.53 KCAL/MOL
REMARK 923 INTER-LIGAND FREE ENERGY PREDICTED BY IDOCK:  -10.12 KCAL/MOL
REMARK 924 INTRA-LIGAND FREE ENERGY PREDICTED BY IDOCK:   -2.41 KCAL/MOL
REMARK 927      BINDING AFFINITY PREDICTED BY RF-SCORE:    0.00 PKD
ROOT
HETATM    1  C   UNL     1     -10.269   5.236  66.962  1.00  0.00    -0.234 C  
HETATM    2  O   UNL     1      -9.154   6.123  66.976  1.00  0.00    -0.116 OA 
ENDROOT
BRANCH   2   3
HETATM    3  C   UNL     1      -9.436   7.425  66.658  1.00  0.00    -0.187 A  
HETATM    4  C   UNL     1     -10.290   8.073  67.560  1.00  0.00    -0.330 A  
HETATM    5  C   UNL     1     -10.693   9.389  67.351  1.00  0.00    -0.280 A  
HETATM    6  C   UNL     1     -10.223  10.114  66.238  1.00  0.00    -0.288 A  
HETATM    7  C   UNL     1      -9.327   9.482  65.363  1.00  0.00    -0.324 A  
HETATM    8  H   UNL     1      -7.703   8.075  63.969  1.00  0.00     0.000 HD 
HETATM    9  O   UNL     1      -8.048   7.581  64.704  1.00  0.00    -0.138 OA 
HETATM   10  C   UNL     1      -8.929   8.150  65.578  1.00  0.00    -0.032 A  
BRANCH   6  11
HETATM   11  C   UNL     1     -10.818  11.479  65.928  1.00  0.00    -0.260 C  
HETATM   12  C   UNL     1     -10.744  11.708  64.428  1.00  0.00    -0.387 C  
HETATM   13  O   UNL     1     -12.190  13.102  63.171  1.00  0.00    -0.631 OA 
HETATM   14  C   UNL     1     -11.438  13.006  64.139  1.00  0.00    -0.402 C  
HETATM   15  C   UNL     1     -11.150  14.107  65.076  1.00  0.00    -0.372 A  
HETATM   16  C   UNL     1     -10.495  13.788  66.269  1.00  0.00    -0.291 A  
HETATM   17  C   UNL     1     -10.160  14.800  67.179  1.00  0.00    -0.240 A  
HETATM   18  O   UNL     1     -10.111  12.514  66.632  1.00  0.00    -0.224 OA 
HETATM   19  C   UNL     1     -10.455  16.137  66.892  1.00  0.00    -0.300 A  
HETATM   20  O   UNL     1     -12.072  15.789  63.626  1.00  0.00    -1.126 OA 
HETATM   21  C   UNL     1     -11.126  16.451  65.706  1.00  0.00     0.102 A  
HETATM   22  H   UNL     1     -12.284  16.696  63.438  1.00  0.00     0.000 HD 
HETATM   23  C   UNL     1     -11.462  15.445  64.799  1.00  0.00    -0.336 A  
BRANCH  19  24
HETATM   24  O   UNL     1     -10.172  17.212  67.698  1.00  0.00    -0.304 OA 
BRANCH  24  25
HETATM   25  C   UNL     1      -8.803  17.385  68.088  1.00  0.00    -0.253 C  
HETATM   26  C   UNL     1      -7.036  16.382  69.323  1.00  0.00    -0.223 C  
HETATM   27  O   UNL     1      -8.450  16.394  69.068  1.00  0.00    -0.239 OA 
HETATM   28  C   UNL     1      -6.602  17.724  69.932  1.00  0.00     0.159 C  
HETATM   29  H   UNL     1      -7.055  20.852  69.113  1.00  0.00     0.000 HD 
HETATM   30  O   UNL     1      -8.958  19.827  67.799  1.00  0.00    -0.313 OA 
HETATM   31  C   UNL     1      -7.066  18.882  69.039  1.00  0.00    -0.306 C  
HETATM   32  O   UNL     1      -5.181  17.849  70.097  1.00  0.00    -0.197 OA 
HETATM   33  H   UNL     1      -8.811  20.686  68.177  1.00  0.00     0.000 HD 
HETATM   34  H   UNL     1      -4.913  18.678  70.474  1.00  0.00     0.000 HD 
HETATM   35  O   UNL     1      -6.768  20.134  69.666  1.00  0.00    -0.299 OA 
HETATM   36  C   UNL     1      -8.564  18.783  68.704  1.00  0.00    -0.323 C  
BRANCH  26  37
HETATM   37  C   UNL     1      -6.704  15.216  70.262  1.00  0.00    -0.000 C  
BRANCH  37  38
HETATM   38  O   UNL     1      -5.485  14.617  69.824  1.00  0.00    -0.093 OA 
BRANCH  38  39
HETATM   39  C   UNL     1      -5.683  13.292  69.317  1.00  0.00    -0.083 C  
HETATM   40  O   UNL     1      -6.537  13.369  68.175  1.00  0.00    -0.090 OA 
HETATM   41  C   UNL     1      -6.929  12.117  67.610  1.00  0.00    -0.121 C  
HETATM   42  C   UNL     1      -7.571  11.187  68.660  1.00  0.00    -0.127 C  
HETATM   43  C   UNL     1      -5.787  11.493  66.813  1.00  0.00    -0.143 C  
HETATM   44  O   UNL     1      -8.841  11.730  69.057  1.00  0.00    -0.376 OA 
HETATM   45  C   UNL     1      -6.719  11.052  69.925  1.00  0.00    -0.125 C  
HETATM   46  O   UNL     1      -5.593  10.181  69.731  1.00  0.00    -0.037 OA 
HETATM   47  H   UNL     1      -9.236  11.157  69.704  1.00  0.00     0.000 HD 
HETATM   48  C   UNL     1      -6.277  12.426  70.448  1.00  0.00     0.116 C  
HETATM   49  H   UNL     1      -5.065  10.098  70.515  1.00  0.00     0.000 HD 
HETATM   50  O   UNL     1      -5.323  12.247  71.510  1.00  0.00    -0.349 OA 
HETATM   51  H   UNL     1      -5.689  11.714  72.206  1.00  0.00     0.000 HD 
ENDBRANCH  38  39
ENDBRANCH  37  38
ENDBRANCH  26  37
ENDBRANCH  24  25
ENDBRANCH  19  24
ENDBRANCH   6  11
ENDBRANCH   2   3
TORSDOF 7
ENDMDL
MODEL       41
REMARK 921   NORMALIZED FREE ENERGY PREDICTED BY IDOCK:   -7.93 KCAL/MOL
REMARK 922        TOTAL FREE ENERGY PREDICTED BY IDOCK:  -12.46 KCAL/MOL
REMARK 923 INTER-LIGAND FREE ENERGY PREDICTED BY IDOCK:  -11.08 KCAL/MOL
REMARK 924 INTRA-LIGAND FREE ENERGY PREDICTED BY IDOCK:   -1.38 KCAL/MOL
REMARK 927      BINDING AFFINITY PREDICTED BY RF-SCORE:    0.00 PKD
ROOT
HETATM    1  C   UNL     1     -11.337   3.932  73.693  1.00  0.00    -0.151 C  
HETATM    2  O   UNL     1     -10.114   4.598  73.395  1.00  0.00    -0.148 OA 
ENDROOT
BRANCH   2   3
HETATM    3  C   UNL     1     -10.189   5.552  72.415  1.00  0.00    -0.196 A  
HETATM    4  C   UNL     1      -9.927   5.081  71.122  1.00  0.00    -0.276 A  
HETATM    5  C   UNL     1      -9.934   5.941  70.028  1.00  0.00    -0.239 A  
HETATM    6  C   UNL     1     -10.238   7.307  70.192  1.00  0.00    -0.209 A  
HETATM    7  C   UNL     1     -10.553   7.768  71.479  1.00  0.00    -0.247 A  
HETATM    8  H   UNL     1     -11.097   8.301  73.924  1.00  0.00     0.000 HD 
HETATM    9  O   UNL     1     -10.859   7.388  73.812  1.00  0.00    -0.321 OA 
HETATM   10  C   UNL     1     -10.538   6.894  72.581  1.00  0.00    -0.233 A  
BRANCH   6  11
HETATM   11  C   UNL     1     -10.059   8.260  69.020  1.00  0.00    -0.202 C  
HETATM   12  C   UNL     1      -8.585   8.614  68.909  1.00  0.00    -0.130 C  
HETATM   13  O   UNL     1      -7.471   9.272  66.924  1.00  0.00    -0.090 OA 
HETATM   14  C   UNL     1      -8.421   9.460  67.680  1.00  0.00    -0.119 C  
HETATM   15  C   UNL     1      -9.453  10.492  67.473  1.00  0.00    -0.166 A  
HETATM   16  C   UNL     1     -10.608  10.420  68.257  1.00  0.00    -0.212 A  
HETATM   17  C   UNL     1     -11.604  11.398  68.130  1.00  0.00    -0.364 A  
HETATM   18  O   UNL     1     -10.850   9.446  69.203  1.00  0.00    -0.220 OA 
HETATM   19  C   UNL     1     -11.444  12.463  67.238  1.00  0.00    -0.354 A  
HETATM   20  O   UNL     1      -8.169  11.661  65.810  1.00  0.00    -0.371 OA 
HETATM   21  C   UNL     1     -10.295  12.522  66.442  1.00  0.00    -0.261 A  
HETATM   22  H   UNL     1      -8.066  12.378  65.194  1.00  0.00     0.000 HD 
HETATM   23  C   UNL     1      -9.302  11.550  66.566  1.00  0.00    -0.197 A  
BRANCH  19  24
HETATM   24  O   UNL     1     -12.342  13.480  67.032  1.00  0.00    -0.335 OA 
BRANCH  24  25
HETATM   25  C   UNL     1     -12.028  14.750  67.618  1.00  0.00    -0.213 C  
HETATM   26  C   UNL     1     -10.650  16.673  67.368  1.00  0.00    -0.295 C  
HETATM   27  O   UNL     1     -10.870  15.308  66.973  1.00  0.00    -0.312 OA 
HETATM   28  C   UNL     1     -10.346  16.740  68.872  1.00  0.00    -0.317 C  
HETATM   29  H   UNL     1     -11.793  15.550  71.546  1.00  0.00     0.000 HD 
HETATM   30  O   UNL     1     -12.820  14.003  69.828  1.00  0.00    -0.360 OA 
HETATM   31  C   UNL     1     -11.452  16.031  69.665  1.00  0.00    -0.326 C  
HETATM   32  O   UNL     1     -10.244  18.080  69.378  1.00  0.00    -0.341 OA 
HETATM   33  H   UNL     1     -12.634  13.921  70.756  1.00  0.00     0.000 HD 
HETATM   34  H   UNL     1     -10.056  18.122  70.308  1.00  0.00     0.000 HD 
HETATM   35  O   UNL     1     -11.109  15.990  71.055  1.00  0.00    -0.319 OA 
HETATM   36  C   UNL     1     -11.725  14.615  69.128  1.00  0.00    -0.309 C  
BRANCH  26  37
HETATM   37  C   UNL     1      -9.495  17.254  66.543  1.00  0.00    -0.269 C  
BRANCH  37  38
HETATM   38  O   UNL     1      -9.390  18.648  66.835  1.00  0.00    -0.286 OA 
BRANCH  38  39
HETATM   39  C   UNL     1      -8.064  19.147  66.628  1.00  0.00    -0.279 C  
HETATM   40  O   UNL     1      -7.560  18.598  65.410  1.00  0.00    -0.433 OA 
HETATM   41  C   UNL     1      -6.198  18.907  65.109  1.00  0.00    -0.278 C  
HETATM   42  C   UNL     1      -5.251  18.526  66.265  1.00  0.00    -0.142 C  
HETATM   43  C   UNL     1      -6.059  20.344  64.613  1.00  0.00    -0.325 C  
HETATM   44  O   UNL     1      -5.199  17.094  66.379  1.00  0.00    -0.268 OA 
HETATM   45  C   UNL     1      -5.722  19.072  67.616  1.00  0.00    -0.181 C  
HETATM   46  O   UNL     1      -5.453  20.476  67.756  1.00  0.00    -0.187 OA 
HETATM   47  H   UNL     1      -4.616  16.860  67.092  1.00  0.00     0.000 HD 
HETATM   48  C   UNL     1      -7.207  18.763  67.854  1.00  0.00    -0.239 C  
HETATM   49  H   UNL     1      -5.745  20.815  68.594  1.00  0.00     0.000 HD 
HETATM   50  O   UNL     1      -7.656  19.461  69.030  1.00  0.00    -0.360 OA 
HETATM   51  H   UNL     1      -7.129  19.224  69.784  1.00  0.00     0.000 HD 
ENDBRANCH  38  39
ENDBRANCH  37  38
ENDBRANCH  26  37
ENDBRANCH  24  25
ENDBRANCH  19  24
ENDBRANCH   6  11
ENDBRANCH   2   3
TORSDOF 7
ENDMDL
MODEL       42
REMARK 921   NORMALIZED FREE ENERGY PREDICTED BY IDOCK:   -7.92 KCAL/MOL
REMARK 922        TOTAL FREE ENERGY PREDICTED BY IDOCK:  -12.44 KCAL/MOL
REMARK 923 INTER-LIGAND FREE ENERGY PREDICTED BY IDOCK:  -10.94 KCAL/MOL
REMARK 924 INTRA-LIGAND FREE ENERGY PREDICTED BY IDOCK:   -1.50 KCAL/MOL
REMARK 927      BINDING AFFINITY PREDICTED BY RF-SCORE:    0.00 PKD
ROOT
HETATM    1  C   UNL     1      -6.583  18.501  66.384  1.00  0.00    -0.201 C  
HETATM    2  O   UNL     1      -7.702  17.935  65.711  1.00  0.00    -0.538 OA 
ENDROOT
BRANCH   2   3
HETATM    3  C   UNL     1      -8.690  17.447  66.525  1.00  0.00    -0.260 A  
HETATM    4  C   UNL     1      -8.245  16.567  67.519  1.00  0.00    -0.170 A  
HETATM    5  C   UNL     1      -9.138  15.964  68.400  1.00  0.00    -0.189 A  
HETATM    6  C   UNL     1     -10.515  16.253  68.333  1.00  0.00    -0.282 A  
HETATM    7  C   UNL     1     -10.955  17.174  67.371  1.00  0.00    -0.057 A  
HETATM    8  H   UNL     1     -11.446  18.894  65.538  1.00  0.00     0.000 HD 
HETATM    9  O   UNL     1     -10.522  18.671  65.568  1.00  0.00    -0.585 OA 
HETATM   10  C   UNL     1     -10.048  17.774  66.480  1.00  0.00    -0.358 A  
BRANCH   6  11
HETATM   11  C   UNL     1     -11.491  15.447  69.177  1.00  0.00    -0.333 C  
HETATM   12  C   UNL     1     -11.468  15.996  70.594  1.00  0.00    -0.427 C  
HETATM   13  O   UNL     1     -13.251  15.873  72.150  1.00  0.00    -0.451 OA 
HETATM   14  C   UNL     1     -12.519  15.262  71.374  1.00  0.00    -0.361 C  
HETATM   15  C   UNL     1     -12.590  13.808  71.139  1.00  0.00    -0.452 A  
HETATM   16  C   UNL     1     -11.886  13.293  70.047  1.00  0.00    -0.295 A  
HETATM   17  C   UNL     1     -11.886  11.914  69.799  1.00  0.00    -0.411 A  
HETATM   18  O   UNL     1     -11.140  14.053  69.171  1.00  0.00    -0.253 OA 
HETATM   19  C   UNL     1     -12.567  11.040  70.652  1.00  0.00    -0.338 A  
HETATM   20  O   UNL     1     -13.958  13.406  73.075  1.00  0.00    -0.477 OA 
HETATM   21  C   UNL     1     -13.285  11.560  71.733  1.00  0.00    -0.456 A  
HETATM   22  H   UNL     1     -14.432  12.813  73.647  1.00  0.00     0.000 HD 
HETATM   23  C   UNL     1     -13.288  12.933  71.982  1.00  0.00    -0.482 A  
BRANCH  19  24
HETATM   24  O   UNL     1     -12.633   9.675  70.518  1.00  0.00    -0.117 OA 
BRANCH  24  25
HETATM   25  C   UNL     1     -11.498   8.925  70.968  1.00  0.00    -0.294 C  
HETATM   26  C   UNL     1      -9.420   8.009  70.259  1.00  0.00    -0.167 C  
HETATM   27  O   UNL     1     -10.679   8.564  69.842  1.00  0.00    -0.228 OA 
HETATM   28  C   UNL     1      -9.654   6.698  71.026  1.00  0.00    -0.171 C  
HETATM   29  H   UNL     1     -11.570   5.826  73.521  1.00  0.00     0.000 HD 
HETATM   30  O   UNL     1     -12.806   7.910  72.792  1.00  0.00    -0.507 OA 
HETATM   31  C   UNL     1     -10.646   6.928  72.173  1.00  0.00    -0.213 C  
HETATM   32  O   UNL     1      -8.458   6.143  71.594  1.00  0.00    -0.128 OA 
HETATM   33  H   UNL     1     -13.070   7.113  73.237  1.00  0.00     0.000 HD 
HETATM   34  H   UNL     1      -8.602   5.333  72.068  1.00  0.00     0.000 HD 
HETATM   35  O   UNL     1     -10.955   5.684  72.811  1.00  0.00    -0.240 OA 
HETATM   36  C   UNL     1     -11.929   7.628  71.690  1.00  0.00    -0.299 C  
BRANCH  26  37
HETATM   37  C   UNL     1      -8.539   7.779  69.026  1.00  0.00    -0.135 C  
BRANCH  37  38
HETATM   38  O   UNL     1      -9.303   7.067  68.052  1.00  0.00    -0.129 OA 
BRANCH  38  39
HETATM   39  C   UNL     1      -8.652   5.866  67.624  1.00  0.00    -0.102 C  
HETATM   40  O   UNL     1      -7.765   5.439  68.659  1.00  0.00    -0.082 OA 
HETATM   41  C   UNL     1      -6.948   4.310  68.346  1.00  0.00    -0.051 C  
HETATM   42  C   UNL     1      -6.145   4.521  67.047  1.00  0.00    -0.031 C  
HETATM   43  C   UNL     1      -7.758   3.017  68.397  1.00  0.00    -0.055 C  
HETATM   44  O   UNL     1      -5.153   5.537  67.267  1.00  0.00    -0.004 OA 
HETATM   45  C   UNL     1      -7.022   4.987  65.882  1.00  0.00    -0.066 C  
HETATM   46  O   UNL     1      -7.793   3.913  65.321  1.00  0.00    -0.087 OA 
HETATM   47  H   UNL     1      -4.658   5.667  66.466  1.00  0.00     0.000 HD 
HETATM   48  C   UNL     1      -7.920   6.161  66.296  1.00  0.00    -0.106 C  
HETATM   49  H   UNL     1      -8.337   4.202  64.598  1.00  0.00     0.000 HD 
HETATM   50  O   UNL     1      -8.862   6.434  65.243  1.00  0.00    -0.348 OA 
HETATM   51  H   UNL     1      -8.412   6.616  64.426  1.00  0.00     0.000 HD 
ENDBRANCH  38  39
ENDBRANCH  37  38
ENDBRANCH  26  37
ENDBRANCH  24  25
ENDBRANCH  19  24
ENDBRANCH   6  11
ENDBRANCH   2   3
TORSDOF 7
ENDMDL
MODEL       43
REMARK 921   NORMALIZED FREE ENERGY PREDICTED BY IDOCK:   -7.91 KCAL/MOL
REMARK 922        TOTAL FREE ENERGY PREDICTED BY IDOCK:  -12.42 KCAL/MOL
REMARK 923 INTER-LIGAND FREE ENERGY PREDICTED BY IDOCK:  -10.63 KCAL/MOL
REMARK 924 INTRA-LIGAND FREE ENERGY PREDICTED BY IDOCK:   -1.79 KCAL/MOL
REMARK 927      BINDING AFFINITY PREDICTED BY RF-SCORE:    0.00 PKD
ROOT
HETATM    1  C   UNL     1      -6.158  20.251  67.881  1.00  0.00    -0.232 C  
HETATM    2  O   UNL     1      -7.385  20.302  67.160  1.00  0.00    -0.258 OA 
ENDROOT
BRANCH   2   3
HETATM    3  C   UNL     1      -8.253  19.271  67.408  1.00  0.00    -0.282 A  
HETATM    4  C   UNL     1      -9.181  19.523  68.426  1.00  0.00    -0.412 A  
HETATM    5  C   UNL     1     -10.105  18.556  68.812  1.00  0.00    -0.394 A  
HETATM    6  C   UNL     1     -10.149  17.307  68.162  1.00  0.00    -0.325 A  
HETATM    7  C   UNL     1      -9.254  17.074  67.108  1.00  0.00    -0.242 A  
HETATM    8  H   UNL     1      -7.522  16.955  65.226  1.00  0.00     0.000 HD 
HETATM    9  O   UNL     1      -7.476  17.783  65.689  1.00  0.00    -0.533 OA 
HETATM   10  C   UNL     1      -8.320  18.053  66.727  1.00  0.00    -0.253 A  
BRANCH   6  11
HETATM   11  C   UNL     1     -11.036  16.204  68.720  1.00  0.00    -0.354 C  
HETATM   12  C   UNL     1     -11.162  16.400  70.222  1.00  0.00    -0.259 C  
HETATM   13  O   UNL     1     -12.981  15.680  71.560  1.00  0.00    -0.442 OA 
HETATM   14  C   UNL     1     -12.131  15.371  70.727  1.00  0.00    -0.366 C  
HETATM   15  C   UNL     1     -11.977  14.018  70.163  1.00  0.00    -0.399 A  
HETATM   16  C   UNL     1     -11.154  13.873  69.043  1.00  0.00    -0.268 A  
HETATM   17  C   UNL     1     -10.939  12.603  68.489  1.00  0.00    -0.292 A  
HETATM   18  O   UNL     1     -10.485  14.909  68.426  1.00  0.00    -0.234 OA 
HETATM   19  C   UNL     1     -11.526  11.471  69.064  1.00  0.00    -0.291 A  
HETATM   20  O   UNL     1     -13.363  12.994  71.840  1.00  0.00    -0.446 OA 
HETATM   21  C   UNL     1     -12.363  11.622  70.173  1.00  0.00    -0.297 A  
HETATM   22  H   UNL     1     -13.772  12.226  72.222  1.00  0.00     0.000 HD 
HETATM   23  C   UNL     1     -12.579  12.885  70.726  1.00  0.00    -0.232 A  
BRANCH  19  24
HETATM   24  O   UNL     1     -11.385  10.180  68.617  1.00  0.00    -0.206 OA 
BRANCH  24  25
HETATM   25  C   UNL     1     -10.395   9.374  69.270  1.00  0.00    -0.208 C  
HETATM   26  C   UNL     1      -8.278   8.335  68.955  1.00  0.00    -0.119 C  
HETATM   27  O   UNL     1      -9.406   8.953  68.313  1.00  0.00    -0.142 OA 
HETATM   28  C   UNL     1      -8.721   7.050  69.670  1.00  0.00    -0.141 C  
HETATM   29  H   UNL     1     -11.106   6.320  71.777  1.00  0.00     0.000 HD 
HETATM   30  O   UNL     1     -12.068   8.459  70.829  1.00  0.00    -0.467 OA 
HETATM   31  C   UNL     1      -9.891   7.350  70.617  1.00  0.00    -0.179 C  
HETATM   32  O   UNL     1      -7.683   6.438  70.449  1.00  0.00    -0.094 OA 
HETATM   33  H   UNL     1     -12.454   7.683  71.220  1.00  0.00     0.000 HD 
HETATM   34  H   UNL     1      -7.956   5.643  70.892  1.00  0.00     0.000 HD 
HETATM   35  O   UNL     1     -10.381   6.134  71.192  1.00  0.00    -0.196 OA 
HETATM   36  C   UNL     1     -11.023   8.113  69.906  1.00  0.00    -0.168 C  
BRANCH  26  37
HETATM   37  C   UNL     1      -7.202   8.040  67.904  1.00  0.00    -0.091 C  
BRANCH  37  38
HETATM   38  O   UNL     1      -7.025   9.206  67.100  1.00  0.00    -0.079 OA 
BRANCH  38  39
HETATM   39  C   UNL     1      -7.459   9.006  65.751  1.00  0.00    -0.090 C  
HETATM   40  O   UNL     1      -6.312   8.739  64.943  1.00  0.00    -0.064 OA 
HETATM   41  C   UNL     1      -6.556   8.625  63.540  1.00  0.00    -0.088 C  
HETATM   42  C   UNL     1      -7.293   9.860  62.981  1.00  0.00    -0.124 C  
HETATM   43  C   UNL     1      -7.204   7.285  63.203  1.00  0.00    -0.078 C  
HETATM   44  O   UNL     1      -6.412  10.994  63.024  1.00  0.00    -0.352 OA 
HETATM   45  C   UNL     1      -8.538  10.221  63.796  1.00  0.00    -0.187 C  
HETATM   46  O   UNL     1      -9.641   9.342  63.518  1.00  0.00    -0.416 OA 
HETATM   47  H   UNL     1      -6.866  11.755  62.680  1.00  0.00     0.000 HD 
HETATM   48  C   UNL     1      -8.227  10.267  65.298  1.00  0.00    -0.161 C  
HETATM   49  H   UNL     1     -10.413   9.566  64.023  1.00  0.00     0.000 HD 
HETATM   50  O   UNL     1      -9.455  10.410  66.035  1.00  0.00    -0.170 OA 
HETATM   51  H   UNL     1      -9.927  11.186  65.756  1.00  0.00     0.000 HD 
ENDBRANCH  38  39
ENDBRANCH  37  38
ENDBRANCH  26  37
ENDBRANCH  24  25
ENDBRANCH  19  24
ENDBRANCH   6  11
ENDBRANCH   2   3
TORSDOF 7
ENDMDL
MODEL       44
REMARK 921   NORMALIZED FREE ENERGY PREDICTED BY IDOCK:   -7.90 KCAL/MOL
REMARK 922        TOTAL FREE ENERGY PREDICTED BY IDOCK:  -12.41 KCAL/MOL
REMARK 923 INTER-LIGAND FREE ENERGY PREDICTED BY IDOCK:  -10.31 KCAL/MOL
REMARK 924 INTRA-LIGAND FREE ENERGY PREDICTED BY IDOCK:   -2.10 KCAL/MOL
REMARK 927      BINDING AFFINITY PREDICTED BY RF-SCORE:    0.00 PKD
ROOT
HETATM    1  C   UNL     1      -7.488   1.485  70.130  1.00  0.00    -0.036 C  
HETATM    2  O   UNL     1      -7.878   2.441  69.149  1.00  0.00    -0.043 OA 
ENDROOT
BRANCH   2   3
HETATM    3  C   UNL     1      -8.268   3.659  69.640  1.00  0.00    -0.052 A  
HETATM    4  C   UNL     1      -9.637   3.763  69.919  1.00  0.00    -0.255 A  
HETATM    5  C   UNL     1     -10.187   4.951  70.391  1.00  0.00    -0.292 A  
HETATM    6  C   UNL     1      -9.369   6.073  70.633  1.00  0.00    -0.176 A  
HETATM    7  C   UNL     1      -7.990   5.952  70.404  1.00  0.00    -0.106 A  
HETATM    8  H   UNL     1      -5.533   5.422  69.914  1.00  0.00     0.000 HD 
HETATM    9  O   UNL     1      -6.095   4.679  69.722  1.00  0.00    -0.017 OA 
HETATM   10  C   UNL     1      -7.443   4.751  69.921  1.00  0.00    -0.055 A  
BRANCH   6  11
HETATM   11  C   UNL     1     -10.012   7.409  70.969  1.00  0.00    -0.183 C  
HETATM   12  C   UNL     1     -11.426   7.153  71.464  1.00  0.00    -0.298 C  
HETATM   13  O   UNL     1     -12.650   8.553  72.932  1.00  0.00    -0.266 OA 
HETATM   14  C   UNL     1     -11.995   8.472  71.895  1.00  0.00    -0.345 C  
HETATM   15  C   UNL     1     -11.713   9.612  71.003  1.00  0.00    -0.433 A  
HETATM   16  C   UNL     1     -10.744   9.434  70.012  1.00  0.00    -0.239 A  
HETATM   17  C   UNL     1     -10.463  10.470  69.111  1.00  0.00    -0.250 A  
HETATM   18  O   UNL     1     -10.030   8.271  69.818  1.00  0.00    -0.185 OA 
HETATM   19  C   UNL     1     -11.164  11.679  69.179  1.00  0.00    -0.263 A  
HETATM   20  O   UNL     1     -13.375  11.020  72.023  1.00  0.00    -0.499 OA 
HETATM   21  C   UNL     1     -12.120  11.860  70.184  1.00  0.00    -0.382 A  
HETATM   22  H   UNL     1     -13.841  11.846  72.077  1.00  0.00     0.000 HD 
HETATM   23  C   UNL     1     -12.400  10.831  71.083  1.00  0.00    -0.393 A  
BRANCH  19  24
HETATM   24  O   UNL     1     -10.984  12.760  68.352  1.00  0.00    -0.232 OA 
BRANCH  24  25
HETATM   25  C   UNL     1     -11.581  12.685  67.051  1.00  0.00    -0.365 C  
HETATM   26  C   UNL     1     -11.381  11.641  64.923  1.00  0.00    -0.184 C  
HETATM   27  O   UNL     1     -10.727  11.936  66.169  1.00  0.00    -0.258 OA 
HETATM   28  C   UNL     1     -11.691  12.946  64.173  1.00  0.00    -0.406 C  
HETATM   29  H   UNL     1     -13.148  15.752  64.987  1.00  0.00     0.000 HD 
HETATM   30  O   UNL     1     -12.586  14.919  67.308  1.00  0.00    -0.272 OA 
HETATM   31  C   UNL     1     -12.478  13.901  65.081  1.00  0.00    -0.453 C  
HETATM   32  O   UNL     1     -12.463  12.752  62.978  1.00  0.00    -0.681 OA 
HETATM   33  H   UNL     1     -12.715  15.784  66.935  1.00  0.00     0.000 HD 
HETATM   34  H   UNL     1     -12.655  13.559  62.514  1.00  0.00     0.000 HD 
HETATM   35  O   UNL     1     -12.662  15.160  64.424  1.00  0.00    -0.477 OA 
HETATM   36  C   UNL     1     -11.791  14.091  66.444  1.00  0.00    -0.418 C  
BRANCH  26  37
HETATM   37  C   UNL     1     -10.480  10.724  64.087  1.00  0.00    -0.239 C  
BRANCH  37  38
HETATM   38  O   UNL     1      -9.138  11.202  64.182  1.00  0.00    -0.150 OA 
BRANCH  38  39
HETATM   39  C   UNL     1      -8.215  10.161  64.521  1.00  0.00    -0.162 C  
HETATM   40  O   UNL     1      -8.542   9.001  63.755  1.00  0.00    -0.191 OA 
HETATM   41  C   UNL     1      -7.783   7.828  64.055  1.00  0.00    -0.126 C  
HETATM   42  C   UNL     1      -7.836   7.475  65.556  1.00  0.00    -0.114 C  
HETATM   43  C   UNL     1      -6.378   7.918  63.467  1.00  0.00    -0.063 C  
HETATM   44  O   UNL     1      -9.166   7.047  65.893  1.00  0.00    -0.351 OA 
HETATM   45  C   UNL     1      -7.503   8.670  66.453  1.00  0.00    -0.087 C  
HETATM   46  O   UNL     1      -6.093   8.944  66.489  1.00  0.00    -0.058 OA 
HETATM   47  H   UNL     1      -9.199   6.830  66.817  1.00  0.00     0.000 HD 
HETATM   48  C   UNL     1      -8.302   9.915  66.043  1.00  0.00    -0.122 C  
HETATM   49  H   UNL     1      -5.886   9.685  67.046  1.00  0.00     0.000 HD 
HETATM   50  O   UNL     1      -7.816  11.055  66.774  1.00  0.00    -0.135 OA 
HETATM   51  H   UNL     1      -7.870  10.904  67.710  1.00  0.00     0.000 HD 
ENDBRANCH  38  39
ENDBRANCH  37  38
ENDBRANCH  26  37
ENDBRANCH  24  25
ENDBRANCH  19  24
ENDBRANCH   6  11
ENDBRANCH   2   3
TORSDOF 7
ENDMDL
MODEL       45
REMARK 921   NORMALIZED FREE ENERGY PREDICTED BY IDOCK:   -7.83 KCAL/MOL
REMARK 922        TOTAL FREE ENERGY PREDICTED BY IDOCK:  -12.31 KCAL/MOL
REMARK 923 INTER-LIGAND FREE ENERGY PREDICTED BY IDOCK:  -10.68 KCAL/MOL
REMARK 924 INTRA-LIGAND FREE ENERGY PREDICTED BY IDOCK:   -1.63 KCAL/MOL
REMARK 927      BINDING AFFINITY PREDICTED BY RF-SCORE:    0.00 PKD
ROOT
HETATM    1  C   UNL     1     -10.166  20.710  68.194  1.00  0.00     0.101 C  
HETATM    2  O   UNL     1     -10.285  19.550  69.011  1.00  0.00    -0.401 OA 
ENDROOT
BRANCH   2   3
HETATM    3  C   UNL     1     -10.203  18.355  68.347  1.00  0.00    -0.378 A  
HETATM    4  C   UNL     1      -9.690  18.444  67.047  1.00  0.00    -0.316 A  
HETATM    5  C   UNL     1      -9.579  17.316  66.238  1.00  0.00    -0.268 A  
HETATM    6  C   UNL     1      -9.951  16.047  66.723  1.00  0.00    -0.265 A  
HETATM    7  C   UNL     1     -10.414  15.950  68.043  1.00  0.00    -0.274 A  
HETATM    8  H   UNL     1     -11.199  16.089  70.477  1.00  0.00     0.000 HD 
HETATM    9  O   UNL     1     -10.977  16.947  70.133  1.00  0.00    -0.163 OA 
HETATM   10  C   UNL     1     -10.530  17.094  68.852  1.00  0.00    -0.346 A  
BRANCH   6  11
HETATM   11  C   UNL     1      -9.997  14.865  65.768  1.00  0.00    -0.347 C  
HETATM   12  C   UNL     1     -11.443  14.625  65.367  1.00  0.00    -0.352 C  
HETATM   13  O   UNL     1     -12.167  13.618  63.348  1.00  0.00    -0.607 OA 
HETATM   14  C   UNL     1     -11.446  13.531  64.340  1.00  0.00    -0.394 C  
HETATM   15  C   UNL     1     -10.551  12.393  64.616  1.00  0.00    -0.339 A  
HETATM   16  C   UNL     1      -9.603  12.545  65.631  1.00  0.00    -0.088 A  
HETATM   17  C   UNL     1      -8.752  11.482  65.963  1.00  0.00    -0.095 A  
HETATM   18  O   UNL     1      -9.443  13.690  66.384  1.00  0.00    -0.273 OA 
HETATM   19  C   UNL     1      -8.859  10.255  65.300  1.00  0.00    -0.180 A  
HETATM   20  O   UNL     1     -11.583  10.982  62.964  1.00  0.00    -0.607 OA 
HETATM   21  C   UNL     1      -9.796  10.111  64.273  1.00  0.00    -0.270 A  
HETATM   22  H   UNL     1     -11.646  10.152  62.506  1.00  0.00     0.000 HD 
HETATM   23  C   UNL     1     -10.644  11.169  63.939  1.00  0.00    -0.364 A  
BRANCH  19  24
HETATM   24  O   UNL     1      -8.090   9.143  65.541  1.00  0.00    -0.108 OA 
BRANCH  24  25
HETATM   25  C   UNL     1      -8.754   7.873  65.486  1.00  0.00    -0.081 C  
HETATM   26  C   UNL     1     -10.037   6.340  66.774  1.00  0.00    -0.180 C  
HETATM   27  O   UNL     1      -9.175   7.489  66.806  1.00  0.00    -0.141 OA 
HETATM   28  C   UNL     1      -9.272   5.126  66.225  1.00  0.00    -0.146 C  
HETATM   29  H   UNL     1      -7.435   4.595  63.579  1.00  0.00     0.000 HD 
HETATM   30  O   UNL     1      -7.308   7.121  63.639  1.00  0.00    -0.071 OA 
HETATM   31  C   UNL     1      -8.639   5.471  64.870  1.00  0.00    -0.111 C  
HETATM   32  O   UNL     1     -10.095   3.966  66.034  1.00  0.00    -0.400 OA 
HETATM   33  H   UNL     1      -6.734   6.444  63.300  1.00  0.00     0.000 HD 
HETATM   34  H   UNL     1      -9.622   3.215  65.695  1.00  0.00     0.000 HD 
HETATM   35  O   UNL     1      -7.827   4.381  64.417  1.00  0.00    -0.082 OA 
HETATM   36  C   UNL     1      -7.820   6.772  64.935  1.00  0.00    -0.119 C  
BRANCH  26  37
HETATM   37  C   UNL     1     -10.566   6.067  68.187  1.00  0.00    -0.262 C  
BRANCH  37  38
HETATM   38  O   UNL     1      -9.514   6.324  69.118  1.00  0.00    -0.133 OA 
BRANCH  38  39
HETATM   39  C   UNL     1     -10.009   6.776  70.384  1.00  0.00    -0.179 C  
HETATM   40  O   UNL     1     -10.881   5.775  70.911  1.00  0.00    -0.268 OA 
HETATM   41  C   UNL     1     -11.553   6.117  72.124  1.00  0.00    -0.317 C  
HETATM   42  C   UNL     1     -12.325   7.447  72.001  1.00  0.00    -0.266 C  
HETATM   43  C   UNL     1     -10.606   6.034  73.318  1.00  0.00    -0.276 C  
HETATM   44  O   UNL     1     -13.433   7.267  71.103  1.00  0.00    -0.560 OA 
HETATM   45  C   UNL     1     -11.462   8.578  71.435  1.00  0.00    -0.287 C  
HETATM   46  O   UNL     1     -10.553   9.108  72.415  1.00  0.00    -0.053 OA 
HETATM   47  H   UNL     1     -13.908   8.087  71.027  1.00  0.00     0.000 HD 
HETATM   48  C   UNL     1     -10.717   8.131  70.169  1.00  0.00    -0.243 C  
HETATM   49  H   UNL     1     -10.017   9.809  72.064  1.00  0.00     0.000 HD 
HETATM   50  O   UNL     1      -9.772   9.148  69.789  1.00  0.00    -0.167 OA 
HETATM   51  H   UNL     1     -10.208   9.981  69.656  1.00  0.00     0.000 HD 
ENDBRANCH  38  39
ENDBRANCH  37  38
ENDBRANCH  26  37
ENDBRANCH  24  25
ENDBRANCH  19  24
ENDBRANCH   6  11
ENDBRANCH   2   3
TORSDOF 7
ENDMDL
MODEL       46
REMARK 921   NORMALIZED FREE ENERGY PREDICTED BY IDOCK:   -7.81 KCAL/MOL
REMARK 922        TOTAL FREE ENERGY PREDICTED BY IDOCK:  -12.28 KCAL/MOL
REMARK 923 INTER-LIGAND FREE ENERGY PREDICTED BY IDOCK:  -11.23 KCAL/MOL
REMARK 924 INTRA-LIGAND FREE ENERGY PREDICTED BY IDOCK:   -1.05 KCAL/MOL
REMARK 927      BINDING AFFINITY PREDICTED BY RF-SCORE:    0.00 PKD
ROOT
HETATM    1  C   UNL     1     -10.878   4.267  73.046  1.00  0.00    -0.183 C  
HETATM    2  O   UNL     1     -10.802   5.688  73.069  1.00  0.00    -0.234 OA 
ENDROOT
BRANCH   2   3
HETATM    3  C   UNL     1     -10.832   6.297  71.842  1.00  0.00    -0.242 A  
HETATM    4  C   UNL     1     -10.476   5.467  70.771  1.00  0.00    -0.330 A  
HETATM    5  C   UNL     1     -10.427   5.955  69.468  1.00  0.00    -0.346 A  
HETATM    6  C   UNL     1     -10.770   7.292  69.191  1.00  0.00    -0.201 A  
HETATM    7  C   UNL     1     -11.178   8.109  70.256  1.00  0.00    -0.182 A  
HETATM    8  H   UNL     1     -11.894   9.336  72.387  1.00  0.00     0.000 HD 
HETATM    9  O   UNL     1     -11.631   8.441  72.572  1.00  0.00    -0.384 OA 
HETATM   10  C   UNL     1     -11.218   7.611  71.570  1.00  0.00    -0.246 A  
BRANCH   6  11
HETATM   11  C   UNL     1     -10.533   7.852  67.796  1.00  0.00    -0.212 C  
HETATM   12  C   UNL     1      -9.106   7.533  67.385  1.00  0.00    -0.135 C  
HETATM   13  O   UNL     1      -8.332   7.291  65.159  1.00  0.00    -0.134 OA 
HETATM   14  C   UNL     1      -8.936   7.993  65.967  1.00  0.00    -0.163 C  
HETATM   15  C   UNL     1      -9.528   9.304  65.646  1.00  0.00    -0.324 A  
HETATM   16  C   UNL     1     -10.405   9.865  66.579  1.00  0.00    -0.188 A  
HETATM   17  C   UNL     1     -10.966  11.128  66.344  1.00  0.00    -0.248 A  
HETATM   18  O   UNL     1     -10.759   9.272  67.772  1.00  0.00    -0.259 OA 
HETATM   19  C   UNL     1     -10.638  11.846  65.189  1.00  0.00    -0.287 A  
HETATM   20  O   UNL     1      -8.336   9.506  63.567  1.00  0.00    -0.151 OA 
HETATM   21  C   UNL     1      -9.775  11.274  64.250  1.00  0.00    -0.295 A  
HETATM   22  H   UNL     1      -8.123   9.989  62.777  1.00  0.00     0.000 HD 
HETATM   23  C   UNL     1      -9.215  10.017  64.480  1.00  0.00    -0.262 A  
BRANCH  19  24
HETATM   24  O   UNL     1     -11.116  13.089  64.854  1.00  0.00    -0.286 OA 
BRANCH  24  25
HETATM   25  C   UNL     1     -10.820  14.161  65.758  1.00  0.00    -0.297 C  
HETATM   26  C   UNL     1      -9.043  15.241  66.913  1.00  0.00    -0.240 C  
HETATM   27  O   UNL     1      -9.451  14.069  66.187  1.00  0.00    -0.263 OA 
HETATM   28  C   UNL     1      -9.864  15.369  68.205  1.00  0.00    -0.213 C  
HETATM   29  H   UNL     1     -13.054  15.293  68.897  1.00  0.00     0.000 HD 
HETATM   30  O   UNL     1     -13.116  14.133  66.650  1.00  0.00    -0.237 OA 
HETATM   31  C   UNL     1     -11.364  15.324  67.884  1.00  0.00    -0.334 C  
HETATM   32  O   UNL     1      -9.615  16.585  68.927  1.00  0.00    -0.243 OA 
HETATM   33  H   UNL     1     -13.673  14.102  67.419  1.00  0.00     0.000 HD 
HETATM   34  H   UNL     1     -10.122  16.664  69.726  1.00  0.00     0.000 HD 
HETATM   35  O   UNL     1     -12.125  15.322  69.096  1.00  0.00    -0.304 OA 
HETATM   36  C   UNL     1     -11.726  14.110  67.010  1.00  0.00    -0.405 C  
BRANCH  26  37
HETATM   37  C   UNL     1      -7.543  15.147  67.218  1.00  0.00    -0.203 C  
BRANCH  37  38
HETATM   38  O   UNL     1      -6.885  16.243  66.582  1.00  0.00    -0.229 OA 
BRANCH  38  39
HETATM   39  C   UNL     1      -7.450  17.505  66.953  1.00  0.00    -0.202 C  
HETATM   40  O   UNL     1      -7.436  18.360  65.809  1.00  0.00    -0.484 OA 
HETATM   41  C   UNL     1      -7.865  19.703  66.037  1.00  0.00    -0.326 C  
HETATM   42  C   UNL     1      -7.077  20.375  67.180  1.00  0.00    -0.287 C  
HETATM   43  C   UNL     1      -9.383  19.779  66.174  1.00  0.00    -0.439 C  
HETATM   44  O   UNL     1      -5.718  20.577  66.760  1.00  0.00    -0.171 OA 
HETATM   45  C   UNL     1      -7.037  19.519  68.448  1.00  0.00    -0.314 C  
HETATM   46  O   UNL     1      -8.277  19.565  69.173  1.00  0.00    -0.308 OA 
HETATM   47  H   UNL     1      -5.232  20.991  67.464  1.00  0.00     0.000 HD 
HETATM   48  C   UNL     1      -6.631  18.073  68.132  1.00  0.00    -0.199 C  
HETATM   49  H   UNL     1      -8.252  19.034  69.960  1.00  0.00     0.000 HD 
HETATM   50  O   UNL     1      -6.799  17.262  69.310  1.00  0.00    -0.243 OA 
HETATM   51  H   UNL     1      -6.295  17.611  70.035  1.00  0.00     0.000 HD 
ENDBRANCH  38  39
ENDBRANCH  37  38
ENDBRANCH  26  37
ENDBRANCH  24  25
ENDBRANCH  19  24
ENDBRANCH   6  11
ENDBRANCH   2   3
TORSDOF 7
ENDMDL
MODEL       47
REMARK 921   NORMALIZED FREE ENERGY PREDICTED BY IDOCK:   -7.78 KCAL/MOL
REMARK 922        TOTAL FREE ENERGY PREDICTED BY IDOCK:  -12.25 KCAL/MOL
REMARK 923 INTER-LIGAND FREE ENERGY PREDICTED BY IDOCK:  -10.30 KCAL/MOL
REMARK 924 INTRA-LIGAND FREE ENERGY PREDICTED BY IDOCK:   -1.94 KCAL/MOL
REMARK 927      BINDING AFFINITY PREDICTED BY RF-SCORE:    0.00 PKD
ROOT
HETATM    1  C   UNL     1      -5.603   2.858  68.781  1.00  0.00    -0.021 C  
HETATM    2  O   UNL     1      -6.576   3.351  67.866  1.00  0.00    -0.036 OA 
ENDROOT
BRANCH   2   3
HETATM    3  C   UNL     1      -7.513   4.193  68.405  1.00  0.00    -0.059 A  
HETATM    4  C   UNL     1      -7.027   5.040  69.409  1.00  0.00    -0.055 A  
HETATM    5  C   UNL     1      -7.869   5.928  70.072  1.00  0.00    -0.100 A  
HETATM    6  C   UNL     1      -9.231   6.018  69.725  1.00  0.00    -0.153 A  
HETATM    7  C   UNL     1      -9.707   5.207  68.684  1.00  0.00    -0.210 A  
HETATM    8  H   UNL     1     -10.269   3.626  66.749  1.00  0.00     0.000 HD 
HETATM    9  O   UNL     1      -9.359   3.547  67.010  1.00  0.00    -0.179 OA 
HETATM   10  C   UNL     1      -8.852   4.309  68.022  1.00  0.00    -0.111 A  
BRANCH   6  11
HETATM   11  C   UNL     1     -10.169   6.854  70.582  1.00  0.00    -0.195 C  
HETATM   12  C   UNL     1     -11.523   6.166  70.627  1.00  0.00    -0.331 C  
HETATM   13  O   UNL     1     -13.114   6.364  72.372  1.00  0.00     0.041 OA 
HETATM   14  C   UNL     1     -12.390   6.949  71.569  1.00  0.00    -0.376 C  
HETATM   15  C   UNL     1     -12.303   8.416  71.448  1.00  0.00    -0.328 A  
HETATM   16  C   UNL     1     -11.256   8.942  70.686  1.00  0.00    -0.266 A  
HETATM   17  C   UNL     1     -11.148  10.327  70.504  1.00  0.00    -0.381 A  
HETATM   18  O   UNL     1     -10.296   8.183  70.050  1.00  0.00    -0.206 OA 
HETATM   19  C   UNL     1     -12.096  11.192  71.061  1.00  0.00    -0.275 A  
HETATM   20  O   UNL     1     -14.293   8.795  72.744  1.00  0.00    -0.920 OA 
HETATM   21  C   UNL     1     -13.131  10.664  71.837  1.00  0.00    -0.563 A  
HETATM   22  H   UNL     1     -14.929   9.384  73.133  1.00  0.00     0.000 HD 
HETATM   23  C   UNL     1     -13.241   9.285  72.021  1.00  0.00    -0.447 A  
BRANCH  19  24
HETATM   24  O   UNL     1     -12.099  12.561  70.946  1.00  0.00    -0.285 OA 
BRANCH  24  25
HETATM   25  C   UNL     1     -12.182  13.099  69.621  1.00  0.00    -0.181 C  
HETATM   26  C   UNL     1     -11.768  12.593  67.333  1.00  0.00    -0.369 C  
HETATM   27  O   UNL     1     -11.520  12.215  68.698  1.00  0.00    -0.246 OA 
HETATM   28  C   UNL     1     -11.175  13.983  67.058  1.00  0.00    -0.313 C  
HETATM   29  H   UNL     1     -11.373  16.882  68.547  1.00  0.00     0.000 HD 
HETATM   30  O   UNL     1     -12.079  15.406  70.476  1.00  0.00    -0.315 OA 
HETATM   31  C   UNL     1     -11.696  14.992  68.090  1.00  0.00    -0.312 C  
HETATM   32  O   UNL     1     -11.491  14.496  65.755  1.00  0.00    -0.336 OA 
HETATM   33  H   UNL     1     -11.665  16.260  70.421  1.00  0.00     0.000 HD 
HETATM   34  H   UNL     1     -11.124  15.356  65.585  1.00  0.00     0.000 HD 
HETATM   35  O   UNL     1     -11.051  16.257  67.907  1.00  0.00    -0.332 OA 
HETATM   36  C   UNL     1     -11.508  14.487  69.531  1.00  0.00    -0.288 C  
BRANCH  26  37
HETATM   37  C   UNL     1     -11.160  11.538  66.401  1.00  0.00    -0.269 C  
BRANCH  37  38
HETATM   38  O   UNL     1      -9.829  11.937  66.076  1.00  0.00    -0.224 OA 
BRANCH  38  39
HETATM   39  C   UNL     1      -8.911  10.839  66.108  1.00  0.00    -0.177 C  
HETATM   40  O   UNL     1      -9.087  10.069  64.918  1.00  0.00    -0.185 OA 
HETATM   41  C   UNL     1      -8.321   8.866  64.842  1.00  0.00    -0.172 C  
HETATM   42  C   UNL     1      -8.547   7.960  66.069  1.00  0.00    -0.150 C  
HETATM   43  C   UNL     1      -6.858   9.165  64.527  1.00  0.00    -0.086 C  
HETATM   44  O   UNL     1      -9.889   7.445  66.035  1.00  0.00    -0.427 OA 
HETATM   45  C   UNL     1      -8.383   8.710  67.393  1.00  0.00    -0.116 C  
HETATM   46  O   UNL     1      -7.002   8.938  67.719  1.00  0.00    -0.073 OA 
HETATM   47  H   UNL     1     -10.028   6.887  66.791  1.00  0.00     0.000 HD 
HETATM   48  C   UNL     1      -9.178  10.023  67.391  1.00  0.00    -0.137 C  
HETATM   49  H   UNL     1      -6.899   9.403  68.541  1.00  0.00     0.000 HD 
HETATM   50  O   UNL     1      -8.838  10.787  68.563  1.00  0.00    -0.135 OA 
HETATM   51  H   UNL     1      -9.003  10.285  69.352  1.00  0.00     0.000 HD 
ENDBRANCH  38  39
ENDBRANCH  37  38
ENDBRANCH  26  37
ENDBRANCH  24  25
ENDBRANCH  19  24
ENDBRANCH   6  11
ENDBRANCH   2   3
TORSDOF 7
ENDMDL
MODEL       48
REMARK 921   NORMALIZED FREE ENERGY PREDICTED BY IDOCK:   -7.78 KCAL/MOL
REMARK 922        TOTAL FREE ENERGY PREDICTED BY IDOCK:  -12.24 KCAL/MOL
REMARK 923 INTER-LIGAND FREE ENERGY PREDICTED BY IDOCK:  -10.54 KCAL/MOL
REMARK 924 INTRA-LIGAND FREE ENERGY PREDICTED BY IDOCK:   -1.70 KCAL/MOL
REMARK 927      BINDING AFFINITY PREDICTED BY RF-SCORE:    0.00 PKD
ROOT
HETATM    1  C   UNL     1      -6.353  20.040  65.047  1.00  0.00    -0.280 C  
HETATM    2  O   UNL     1      -7.487  20.195  65.894  1.00  0.00    -0.304 OA 
ENDROOT
BRANCH   2   3
HETATM    3  C   UNL     1      -8.179  19.045  66.163  1.00  0.00    -0.231 A  
HETATM    4  C   UNL     1      -7.388  17.891  66.234  1.00  0.00    -0.327 A  
HETATM    5  C   UNL     1      -7.956  16.641  66.467  1.00  0.00    -0.342 A  
HETATM    6  C   UNL     1      -9.344  16.513  66.671  1.00  0.00    -0.279 A  
HETATM    7  C   UNL     1     -10.130  17.675  66.653  1.00  0.00    -0.335 A  
HETATM    8  H   UNL     1     -11.286  19.959  66.582  1.00  0.00     0.000 HD 
HETATM    9  O   UNL     1     -10.354  20.035  66.412  1.00  0.00    -0.456 OA 
HETATM   10  C   UNL     1      -9.550  18.932  66.411  1.00  0.00    -0.351 A  
BRANCH   6  11
HETATM   11  C   UNL     1      -9.965  15.126  66.738  1.00  0.00    -0.239 C  
HETATM   12  C   UNL     1     -10.717  14.998  68.052  1.00  0.00    -0.262 C  
HETATM   13  O   UNL     1     -12.567  13.572  68.451  1.00  0.00     0.154 OA 
HETATM   14  C   UNL     1     -11.412  13.668  68.042  1.00  0.00    -0.310 C  
HETATM   15  C   UNL     1     -10.620  12.538  67.523  1.00  0.00    -0.238 A  
HETATM   16  C   UNL     1      -9.431  12.834  66.852  1.00  0.00    -0.235 A  
HETATM   17  C   UNL     1      -8.618  11.797  66.373  1.00  0.00    -0.113 A  
HETATM   18  O   UNL     1      -8.954  14.109  66.635  1.00  0.00    -0.238 OA 
HETATM   19  C   UNL     1      -8.977  10.461  66.581  1.00  0.00    -0.141 A  
HETATM   20  O   UNL     1     -12.130  10.881  68.394  1.00  0.00    -0.776 OA 
HETATM   21  C   UNL     1     -10.176  10.169  67.236  1.00  0.00    -0.273 A  
HETATM   22  H   UNL     1     -12.379   9.973  68.524  1.00  0.00     0.000 HD 
HETATM   23  C   UNL     1     -10.988  11.198  67.714  1.00  0.00    -0.262 A  
BRANCH  19  24
HETATM   24  O   UNL     1      -8.262   9.364  66.166  1.00  0.00    -0.109 OA 
BRANCH  24  25
HETATM   25  C   UNL     1      -8.845   8.079  66.419  1.00  0.00    -0.157 C  
HETATM   26  C   UNL     1      -9.237   6.470  68.127  1.00  0.00    -0.112 C  
HETATM   27  O   UNL     1      -8.497   7.642  67.745  1.00  0.00    -0.121 OA 
HETATM   28  C   UNL     1      -8.872   5.296  67.206  1.00  0.00    -0.105 C  
HETATM   29  H   UNL     1      -8.721   4.901  63.968  1.00  0.00     0.000 HD 
HETATM   30  O   UNL     1      -8.598   7.426  64.057  1.00  0.00    -0.347 OA 
HETATM   31  C   UNL     1      -9.059   5.701  65.737  1.00  0.00    -0.128 C  
HETATM   32  O   UNL     1      -9.663   4.120  67.433  1.00  0.00    -0.190 OA 
HETATM   33  H   UNL     1      -8.287   6.776  63.437  1.00  0.00     0.000 HD 
HETATM   34  H   UNL     1      -9.438   3.394  66.863  1.00  0.00     0.000 HD 
HETATM   35  O   UNL     1      -8.605   4.650  64.878  1.00  0.00    -0.128 OA 
HETATM   36  C   UNL     1      -8.340   7.022  65.411  1.00  0.00    -0.118 C  
BRANCH  26  37
HETATM   37  C   UNL     1      -8.930   6.139  69.593  1.00  0.00    -0.134 C  
BRANCH  37  38
HETATM   38  O   UNL     1     -10.024   5.390  70.123  1.00  0.00    -0.194 OA 
BRANCH  38  39
HETATM   39  C   UNL     1     -10.799   6.149  71.057  1.00  0.00    -0.279 C  
HETATM   40  O   UNL     1     -11.784   6.886  70.331  1.00  0.00    -0.342 OA 
HETATM   41  C   UNL     1     -12.576   7.789  71.105  1.00  0.00    -0.198 C  
HETATM   42  C   UNL     1     -11.705   8.770  71.915  1.00  0.00    -0.359 C  
HETATM   43  C   UNL     1     -13.624   7.038  71.921  1.00  0.00    -0.237 C  
HETATM   44  O   UNL     1     -11.047   9.673  71.011  1.00  0.00    -0.314 OA 
HETATM   45  C   UNL     1     -10.614   8.061  72.722  1.00  0.00    -0.351 C  
HETATM   46  O   UNL     1     -11.137   7.431  73.903  1.00  0.00    -0.488 OA 
HETATM   47  H   UNL     1     -10.510  10.278  71.510  1.00  0.00     0.000 HD 
HETATM   48  C   UNL     1      -9.840   7.061  71.853  1.00  0.00    -0.163 C  
HETATM   49  H   UNL     1     -10.460   6.991  74.404  1.00  0.00     0.000 HD 
HETATM   50  O   UNL     1      -8.968   6.278  72.689  1.00  0.00    -0.131 OA 
HETATM   51  H   UNL     1      -8.378   6.839  73.178  1.00  0.00     0.000 HD 
ENDBRANCH  38  39
ENDBRANCH  37  38
ENDBRANCH  26  37
ENDBRANCH  24  25
ENDBRANCH  19  24
ENDBRANCH   6  11
ENDBRANCH   2   3
TORSDOF 7
ENDMDL
MODEL       49
REMARK 921   NORMALIZED FREE ENERGY PREDICTED BY IDOCK:   -7.76 KCAL/MOL
REMARK 922        TOTAL FREE ENERGY PREDICTED BY IDOCK:  -12.22 KCAL/MOL
REMARK 923 INTER-LIGAND FREE ENERGY PREDICTED BY IDOCK:  -11.03 KCAL/MOL
REMARK 924 INTRA-LIGAND FREE ENERGY PREDICTED BY IDOCK:   -1.19 KCAL/MOL
REMARK 927      BINDING AFFINITY PREDICTED BY RF-SCORE:    0.00 PKD
ROOT
HETATM    1  C   UNL     1      -7.801   5.249  73.956  1.00  0.00    -0.097 C  
HETATM    2  O   UNL     1      -9.193   5.524  73.828  1.00  0.00    -0.127 OA 
ENDROOT
BRANCH   2   3
HETATM    3  C   UNL     1      -9.579   6.039  72.620  1.00  0.00    -0.149 A  
HETATM    4  C   UNL     1      -8.524   6.341  71.749  1.00  0.00    -0.129 A  
HETATM    5  C   UNL     1      -8.761   6.903  70.498  1.00  0.00    -0.150 A  
HETATM    6  C   UNL     1     -10.077   7.151  70.062  1.00  0.00    -0.194 A  
HETATM    7  C   UNL     1     -11.137   6.801  70.912  1.00  0.00    -0.322 A  
HETATM    8  H   UNL     1     -12.844   6.042  72.663  1.00  0.00     0.000 HD 
HETATM    9  O   UNL     1     -11.953   5.906  72.964  1.00  0.00     0.021 OA 
HETATM   10  C   UNL     1     -10.889   6.239  72.177  1.00  0.00    -0.242 A  
BRANCH   6  11
HETATM   11  C   UNL     1     -10.304   7.932  68.777  1.00  0.00    -0.203 C  
HETATM   12  C   UNL     1      -9.016   7.920  67.971  1.00  0.00    -0.127 C  
HETATM   13  O   UNL     1      -8.858   8.127  65.616  1.00  0.00    -0.168 OA 
HETATM   14  C   UNL     1      -9.301   8.596  66.663  1.00  0.00    -0.192 C  
HETATM   15  C   UNL     1     -10.120   9.820  66.740  1.00  0.00    -0.295 A  
HETATM   16  C   UNL     1     -10.771  10.088  67.947  1.00  0.00    -0.272 A  
HETATM   17  C   UNL     1     -11.530  11.257  68.091  1.00  0.00    -0.376 A  
HETATM   18  O   UNL     1     -10.706   9.282  69.065  1.00  0.00    -0.218 OA 
HETATM   19  C   UNL     1     -11.625  12.175  67.039  1.00  0.00    -0.337 A  
HETATM   20  O   UNL     1      -9.579  10.509  64.501  1.00  0.00    -0.247 OA 
HETATM   21  C   UNL     1     -10.987  11.895  65.827  1.00  0.00    -0.359 A  
HETATM   22  H   UNL     1      -9.654  11.127  63.783  1.00  0.00     0.000 HD 
HETATM   23  C   UNL     1     -10.231  10.731  65.681  1.00  0.00    -0.257 A  
BRANCH  19  24
HETATM   24  O   UNL     1     -12.330  13.353  67.063  1.00  0.00    -0.311 OA 
BRANCH  24  25
HETATM   25  C   UNL     1     -11.708  14.466  67.717  1.00  0.00    -0.376 C  
HETATM   26  C   UNL     1      -9.739  15.801  67.743  1.00  0.00    -0.216 C  
HETATM   27  O   UNL     1     -10.338  14.575  67.291  1.00  0.00    -0.257 OA 
HETATM   28  C   UNL     1      -9.687  15.825  69.278  1.00  0.00    -0.263 C  
HETATM   29  H   UNL     1     -11.878  15.302  71.641  1.00  0.00     0.000 HD 
HETATM   30  O   UNL     1     -13.064  14.121  69.744  1.00  0.00    -0.275 OA 
HETATM   31  C   UNL     1     -11.084  15.562  69.856  1.00  0.00    -0.310 C  
HETATM   32  O   UNL     1      -9.224  17.071  69.819  1.00  0.00     0.436 OA 
HETATM   33  H   UNL     1     -13.075  14.018  70.689  1.00  0.00     0.000 HD 
HETATM   34  H   UNL     1      -9.191  17.086  70.768  1.00  0.00     0.000 HD 
HETATM   35  O   UNL     1     -11.013  15.465  71.283  1.00  0.00    -0.340 OA 
HETATM   36  C   UNL     1     -11.725  14.300  69.254  1.00  0.00    -0.321 C  
BRANCH  26  37
HETATM   37  C   UNL     1      -8.334  15.926  67.140  1.00  0.00    -0.202 C  
BRANCH  37  38
HETATM   38  O   UNL     1      -8.436  16.630  65.902  1.00  0.00    -0.451 OA 
BRANCH  38  39
HETATM   39  C   UNL     1      -8.674  18.029  66.093  1.00  0.00    -0.088 C  
HETATM   40  O   UNL     1      -8.009  18.442  67.287  1.00  0.00    -0.231 OA 
HETATM   41  C   UNL     1      -8.238  19.794  67.688  1.00  0.00    -0.305 C  
HETATM   42  C   UNL     1      -9.742  20.111  67.811  1.00  0.00    -0.394 C  
HETATM   43  C   UNL     1      -7.447  20.766  66.816  1.00  0.00    -0.222 C  
HETATM   44  O   UNL     1     -10.286  19.388  68.928  1.00  0.00    -0.548 OA 
HETATM   45  C   UNL     1     -10.536  19.694  66.570  1.00  0.00    -0.503 C  
HETATM   46  O   UNL     1     -10.354  20.609  65.478  1.00  0.00    -0.322 OA 
HETATM   47  H   UNL     1     -11.213  19.584  69.004  1.00  0.00     0.000 HD 
HETATM   48  C   UNL     1     -10.201  18.255  66.153  1.00  0.00    -0.381 C  
HETATM   49  H   UNL     1     -10.847  20.350  64.708  1.00  0.00     0.000 HD 
HETATM   50  O   UNL     1     -10.809  17.975  64.879  1.00  0.00    -0.715 OA 
HETATM   51  H   UNL     1     -11.748  18.113  64.917  1.00  0.00     0.000 HD 
ENDBRANCH  38  39
ENDBRANCH  37  38
ENDBRANCH  26  37
ENDBRANCH  24  25
ENDBRANCH  19  24
ENDBRANCH   6  11
ENDBRANCH   2   3
TORSDOF 7
ENDMDL
MODEL       50
REMARK 921   NORMALIZED FREE ENERGY PREDICTED BY IDOCK:   -7.67 KCAL/MOL
REMARK 922        TOTAL FREE ENERGY PREDICTED BY IDOCK:  -12.09 KCAL/MOL
REMARK 923 INTER-LIGAND FREE ENERGY PREDICTED BY IDOCK:  -10.23 KCAL/MOL
REMARK 924 INTRA-LIGAND FREE ENERGY PREDICTED BY IDOCK:   -1.85 KCAL/MOL
REMARK 927      BINDING AFFINITY PREDICTED BY RF-SCORE:    0.00 PKD
ROOT
HETATM    1  C   UNL     1      -6.936  20.594  67.403  1.00  0.00    -0.344 C  
HETATM    2  O   UNL     1      -7.499  19.955  68.544  1.00  0.00    -0.316 OA 
ENDROOT
BRANCH   2   3
HETATM    3  C   UNL     1      -7.876  18.651  68.359  1.00  0.00    -0.319 A  
HETATM    4  C   UNL     1      -8.911  18.469  67.433  1.00  0.00    -0.276 A  
HETATM    5  C   UNL     1      -9.424  17.203  67.165  1.00  0.00    -0.249 A  
HETATM    6  C   UNL     1      -8.887  16.065  67.799  1.00  0.00    -0.177 A  
HETATM    7  C   UNL     1      -7.815  16.241  68.687  1.00  0.00    -0.202 A  
HETATM    8  H   UNL     1      -5.871  16.876  70.227  1.00  0.00     0.000 HD 
HETATM    9  O   UNL     1      -6.258  17.644  69.821  1.00  0.00    -0.244 OA 
HETATM   10  C   UNL     1      -7.308  17.524  68.957  1.00  0.00    -0.197 A  
BRANCH   6  11
HETATM   11  C   UNL     1      -9.580  14.721  67.635  1.00  0.00    -0.208 C  
HETATM   12  C   UNL     1     -10.512  14.511  68.816  1.00  0.00    -0.246 C  
HETATM   13  O   UNL     1     -12.468  13.174  68.811  1.00  0.00     0.020 OA 
HETATM   14  C   UNL     1     -11.264  13.236  68.571  1.00  0.00    -0.271 C  
HETATM   15  C   UNL     1     -10.466  12.115  68.044  1.00  0.00    -0.227 A  
HETATM   16  C   UNL     1      -9.182  12.399  67.572  1.00  0.00    -0.183 A  
HETATM   17  C   UNL     1      -8.363  11.365  67.097  1.00  0.00    -0.155 A  
HETATM   18  O   UNL     1      -8.616  13.657  67.558  1.00  0.00    -0.173 OA 
HETATM   19  C   UNL     1      -8.813  10.041  67.111  1.00  0.00    -0.135 A  
HETATM   20  O   UNL     1     -12.162  10.479  68.525  1.00  0.00    -0.806 OA 
HETATM   21  C   UNL     1     -10.105   9.762  67.567  1.00  0.00    -0.246 A  
HETATM   22  H   UNL     1     -12.472   9.581  68.523  1.00  0.00     0.000 HD 
HETATM   23  C   UNL     1     -10.923  10.790  68.040  1.00  0.00    -0.283 A  
BRANCH  19  24
HETATM   24  O   UNL     1      -8.104   8.947  66.680  1.00  0.00    -0.105 OA 
BRANCH  24  25
HETATM   25  C   UNL     1      -8.831   7.720  66.538  1.00  0.00    -0.153 C  
HETATM   26  C   UNL     1      -9.653   5.845  67.749  1.00  0.00    -0.115 C  
HETATM   27  O   UNL     1      -8.760   6.970  67.764  1.00  0.00    -0.122 OA 
HETATM   28  C   UNL     1      -9.235   4.858  66.648  1.00  0.00    -0.126 C  
HETATM   29  H   UNL     1      -8.552   5.147  63.468  1.00  0.00     0.000 HD 
HETATM   30  O   UNL     1      -8.229   7.560  64.154  1.00  0.00    -0.310 OA 
HETATM   31  C   UNL     1      -9.125   5.587  65.301  1.00  0.00    -0.009 C  
HETATM   32  O   UNL     1     -10.152   3.768  66.474  1.00  0.00    -0.393 OA 
HETATM   33  H   UNL     1      -7.872   7.024  63.456  1.00  0.00     0.000 HD 
HETATM   34  H   UNL     1      -9.894   3.157  65.793  1.00  0.00     0.000 HD 
HETATM   35  O   UNL     1      -8.620   4.695  64.302  1.00  0.00    -0.128 OA 
HETATM   36  C   UNL     1      -8.249   6.848  65.402  1.00  0.00    -0.134 C  
BRANCH  26  37
HETATM   37  C   UNL     1      -9.639   5.173  69.127  1.00  0.00    -0.146 C  
BRANCH  37  38
HETATM   38  O   UNL     1     -10.790   5.607  69.852  1.00  0.00    -0.331 OA 
BRANCH  38  39
HETATM   39  C   UNL     1     -10.583   6.870  70.494  1.00  0.00    -0.220 C  
HETATM   40  O   UNL     1      -9.302   6.850  71.124  1.00  0.00    -0.161 OA 
HETATM   41  C   UNL     1      -8.982   7.999  71.910  1.00  0.00    -0.149 C  
HETATM   42  C   UNL     1     -10.063   8.293  72.970  1.00  0.00    -0.117 C  
HETATM   43  C   UNL     1      -8.616   9.186  71.023  1.00  0.00    -0.236 C  
HETATM   44  O   UNL     1     -10.043   7.254  73.964  1.00  0.00    -0.382 OA 
HETATM   45  C   UNL     1     -11.475   8.325  72.377  1.00  0.00    -0.394 C  
HETATM   46  O   UNL     1     -11.734   9.546  71.664  1.00  0.00    -0.370 OA 
HETATM   47  H   UNL     1     -10.709   7.435  74.617  1.00  0.00     0.000 HD 
HETATM   48  C   UNL     1     -11.737   7.098  71.494  1.00  0.00    -0.290 C  
HETATM   49  H   UNL     1     -12.610   9.567  71.297  1.00  0.00     0.000 HD 
HETATM   50  O   UNL     1     -12.988   7.267  70.803  1.00  0.00    -0.604 OA 
HETATM   51  H   UNL     1     -13.697   7.407  71.419  1.00  0.00     0.000 HD 
ENDBRANCH  38  39
ENDBRANCH  37  38
ENDBRANCH  26  37
ENDBRANCH  24  25
ENDBRANCH  19  24
ENDBRANCH   6  11
ENDBRANCH   2   3
TORSDOF 7
ENDMDL
MODEL       51
REMARK 921   NORMALIZED FREE ENERGY PREDICTED BY IDOCK:   -7.65 KCAL/MOL
REMARK 922        TOTAL FREE ENERGY PREDICTED BY IDOCK:  -12.06 KCAL/MOL
REMARK 923 INTER-LIGAND FREE ENERGY PREDICTED BY IDOCK:  -11.45 KCAL/MOL
REMARK 924 INTRA-LIGAND FREE ENERGY PREDICTED BY IDOCK:   -0.60 KCAL/MOL
REMARK 927      BINDING AFFINITY PREDICTED BY RF-SCORE:    0.00 PKD
ROOT
HETATM    1  C   UNL     1     -10.756   5.525  73.438  1.00  0.00    -0.278 C  
HETATM    2  O   UNL     1     -11.111   6.848  73.047  1.00  0.00    -0.271 OA 
ENDROOT
BRANCH   2   3
HETATM    3  C   UNL     1     -10.756   7.197  71.771  1.00  0.00    -0.215 A  
HETATM    4  C   UNL     1     -11.489   6.554  70.766  1.00  0.00    -0.419 A  
HETATM    5  C   UNL     1     -11.219   6.782  69.419  1.00  0.00    -0.288 A  
HETATM    6  C   UNL     1     -10.218   7.696  69.035  1.00  0.00    -0.211 A  
HETATM    7  C   UNL     1      -9.520   8.380  70.041  1.00  0.00    -0.164 A  
HETATM    8  H   UNL     1      -8.440   9.477  72.088  1.00  0.00     0.000 HD 
HETATM    9  O   UNL     1      -9.095   8.835  72.341  1.00  0.00    -0.366 OA 
HETATM   10  C   UNL     1      -9.794   8.139  71.399  1.00  0.00    -0.174 A  
BRANCH   6  11
HETATM   11  C   UNL     1      -9.815   7.792  67.571  1.00  0.00    -0.171 C  
HETATM   12  C   UNL     1      -8.348   7.413  67.451  1.00  0.00    -0.116 C  
HETATM   13  O   UNL     1      -7.311   6.506  65.523  1.00  0.00    -0.071 OA 
HETATM   14  C   UNL     1      -8.008   7.405  65.989  1.00  0.00    -0.115 C  
HETATM   15  C   UNL     1      -8.556   8.522  65.199  1.00  0.00    -0.179 A  
HETATM   16  C   UNL     1      -9.539   9.316  65.796  1.00  0.00    -0.271 A  
HETATM   17  C   UNL     1     -10.068  10.416  65.107  1.00  0.00    -0.379 A  
HETATM   18  O   UNL     1     -10.035   9.120  67.068  1.00  0.00    -0.194 OA 
HETATM   19  C   UNL     1      -9.602  10.743  63.828  1.00  0.00    -0.295 A  
HETATM   20  O   UNL     1      -7.122   8.098  63.316  1.00  0.00    -0.083 OA 
HETATM   21  C   UNL     1      -8.632   9.935  63.227  1.00  0.00    -0.204 A  
HETATM   22  H   UNL     1      -6.815   8.313  62.443  1.00  0.00     0.000 HD 
HETATM   23  C   UNL     1      -8.104   8.839  63.911  1.00  0.00    -0.165 A  
BRANCH  19  24
HETATM   24  O   UNL     1     -10.035  11.795  63.060  1.00  0.00    -0.396 OA 
BRANCH  24  25
HETATM   25  C   UNL     1     -10.637  12.896  63.752  1.00  0.00    -0.251 C  
HETATM   26  C   UNL     1     -10.244  14.526  65.440  1.00  0.00    -0.389 C  
HETATM   27  O   UNL     1      -9.801  13.291  64.854  1.00  0.00    -0.162 OA 
HETATM   28  C   UNL     1     -11.647  14.348  66.041  1.00  0.00    -0.363 C  
HETATM   29  H   UNL     1     -14.469  13.146  64.925  1.00  0.00     0.000 HD 
HETATM   30  O   UNL     1     -12.900  12.053  63.268  1.00  0.00    -0.771 OA 
HETATM   31  C   UNL     1     -12.604  13.778  64.985  1.00  0.00    -0.389 C  
HETATM   32  O   UNL     1     -12.222  15.568  66.530  1.00  0.00     0.485 OA 
HETATM   33  H   UNL     1     -13.756  11.822  63.611  1.00  0.00     0.000 HD 
HETATM   34  H   UNL     1     -13.089  15.458  66.902  1.00  0.00     0.000 HD 
HETATM   35  O   UNL     1     -13.877  13.499  65.578  1.00  0.00     0.098 OA 
HETATM   36  C   UNL     1     -12.029  12.520  64.310  1.00  0.00    -0.408 C  
BRANCH  26  37
HETATM   37  C   UNL     1      -9.236  14.967  66.508  1.00  0.00    -0.285 C  
BRANCH  37  38
HETATM   38  O   UNL     1      -9.879  15.901  67.376  1.00  0.00    -0.230 OA 
BRANCH  38  39
HETATM   39  C   UNL     1      -9.268  17.195  67.327  1.00  0.00    -0.230 C  
HETATM   40  O   UNL     1      -8.824  17.534  68.640  1.00  0.00    -0.276 OA 
HETATM   41  C   UNL     1      -8.288  18.850  68.791  1.00  0.00    -0.310 C  
HETATM   42  C   UNL     1      -9.268  19.932  68.294  1.00  0.00    -0.260 C  
HETATM   43  C   UNL     1      -6.882  18.941  68.205  1.00  0.00    -0.271 C  
HETATM   44  O   UNL     1     -10.401  19.983  69.176  1.00  0.00    -0.603 OA 
HETATM   45  C   UNL     1      -9.801  19.642  66.888  1.00  0.00    -0.383 C  
HETATM   46  O   UNL     1      -8.833  19.941  65.869  1.00  0.00    -0.415 OA 
HETATM   47  H   UNL     1     -11.005  20.650  68.869  1.00  0.00     0.000 HD 
HETATM   48  C   UNL     1     -10.304  18.196  66.770  1.00  0.00    -0.365 C  
HETATM   49  H   UNL     1      -9.163  19.761  64.997  1.00  0.00     0.000 HD 
HETATM   50  O   UNL     1     -10.606  17.907  65.393  1.00  0.00    -0.656 OA 
HETATM   51  H   UNL     1     -11.243  18.523  65.051  1.00  0.00     0.000 HD 
ENDBRANCH  38  39
ENDBRANCH  37  38
ENDBRANCH  26  37
ENDBRANCH  24  25
ENDBRANCH  19  24
ENDBRANCH   6  11
ENDBRANCH   2   3
TORSDOF 7
ENDMDL
MODEL       52
REMARK 921   NORMALIZED FREE ENERGY PREDICTED BY IDOCK:   -7.60 KCAL/MOL
REMARK 922        TOTAL FREE ENERGY PREDICTED BY IDOCK:  -11.99 KCAL/MOL
REMARK 923 INTER-LIGAND FREE ENERGY PREDICTED BY IDOCK:  -10.07 KCAL/MOL
REMARK 924 INTRA-LIGAND FREE ENERGY PREDICTED BY IDOCK:   -1.92 KCAL/MOL
REMARK 927      BINDING AFFINITY PREDICTED BY RF-SCORE:    0.00 PKD
ROOT
HETATM    1  C   UNL     1     -12.612  16.124  72.218  1.00  0.00    -0.359 C  
HETATM    2  O   UNL     1     -12.894  15.559  70.941  1.00  0.00    -0.448 OA 
ENDROOT
BRANCH   2   3
HETATM    3  C   UNL     1     -12.749  14.200  70.857  1.00  0.00    -0.361 A  
HETATM    4  C   UNL     1     -13.317  13.486  71.920  1.00  0.00    -0.529 A  
HETATM    5  C   UNL     1     -13.220  12.099  71.989  1.00  0.00    -0.496 A  
HETATM    6  C   UNL     1     -12.574  11.375  70.968  1.00  0.00    -0.487 A  
HETATM    7  C   UNL     1     -12.051  12.085  69.877  1.00  0.00    -0.334 A  
HETATM    8  H   UNL     1     -11.223  13.646  68.024  1.00  0.00     0.000 HD 
HETATM    9  O   UNL     1     -11.632  14.132  68.731  1.00  0.00    -0.285 OA 
HETATM   10  C   UNL     1     -12.147  13.486  69.817  1.00  0.00    -0.318 A  
BRANCH   6  11
HETATM   11  C   UNL     1     -12.317   9.887  71.153  1.00  0.00    -0.370 C  
HETATM   12  C   UNL     1     -13.534   9.268  71.820  1.00  0.00    -0.483 C  
HETATM   13  O   UNL     1     -14.215   7.007  71.624  1.00  0.00    -0.369 OA 
HETATM   14  C   UNL     1     -13.302   7.787  71.887  1.00  0.00    -0.266 C  
HETATM   15  C   UNL     1     -11.944   7.370  72.280  1.00  0.00    -0.277 A  
HETATM   16  C   UNL     1     -10.944   8.346  72.290  1.00  0.00    -0.361 A  
HETATM   17  C   UNL     1      -9.644   8.015  72.694  1.00  0.00    -0.327 A  
HETATM   18  O   UNL     1     -11.140   9.668  71.949  1.00  0.00    -0.201 OA 
HETATM   19  C   UNL     1      -9.340   6.714  73.112  1.00  0.00    -0.132 A  
HETATM   20  O   UNL     1     -12.600   5.096  72.710  1.00  0.00    -0.217 OA 
HETATM   21  C   UNL     1     -10.339   5.736  73.083  1.00  0.00    -0.227 A  
HETATM   22  H   UNL     1     -12.390   4.210  72.981  1.00  0.00     0.000 HD 
HETATM   23  C   UNL     1     -11.634   6.063  72.680  1.00  0.00    -0.221 A  
BRANCH  19  24
HETATM   24  O   UNL     1      -8.111   6.273  73.534  1.00  0.00    -0.107 OA 
BRANCH  24  25
HETATM   25  C   UNL     1      -7.256   5.692  72.542  1.00  0.00    -0.090 C  
HETATM   26  C   UNL     1      -6.493   5.945  70.303  1.00  0.00    -0.039 C  
HETATM   27  O   UNL     1      -7.478   6.335  71.274  1.00  0.00    -0.089 OA 
HETATM   28  C   UNL     1      -6.605   4.440  70.017  1.00  0.00    -0.033 C  
HETATM   29  H   UNL     1      -6.717   1.767  71.889  1.00  0.00     0.000 HD 
HETATM   30  O   UNL     1      -7.390   3.482  73.622  1.00  0.00    -0.057 OA 
HETATM   31  C   UNL     1      -6.535   3.648  71.330  1.00  0.00    -0.018 C  
HETATM   32  O   UNL     1      -5.571   3.939  69.156  1.00  0.00    -0.015 OA 
HETATM   33  H   UNL     1      -7.560   2.553  73.519  1.00  0.00     0.000 HD 
HETATM   34  H   UNL     1      -5.640   3.009  68.979  1.00  0.00     0.000 HD 
HETATM   35  O   UNL     1      -6.760   2.257  71.076  1.00  0.00    -0.030 OA 
HETATM   36  C   UNL     1      -7.532   4.180  72.374  1.00  0.00    -0.068 C  
BRANCH  26  37
HETATM   37  C   UNL     1      -6.695   6.767  69.024  1.00  0.00    -0.059 C  
BRANCH  37  38
HETATM   38  O   UNL     1      -7.454   7.931  69.352  1.00  0.00    -0.086 OA 
BRANCH  38  39
HETATM   39  C   UNL     1      -8.694   7.989  68.640  1.00  0.00    -0.131 C  
HETATM   40  O   UNL     1      -8.657   7.023  67.589  1.00  0.00    -0.122 OA 
HETATM   41  C   UNL     1      -9.780   7.026  66.706  1.00  0.00    -0.184 C  
HETATM   42  C   UNL     1     -10.034   8.421  66.102  1.00  0.00    -0.042 C  
HETATM   43  C   UNL     1     -10.996   6.380  67.364  1.00  0.00    -0.463 C  
HETATM   44  O   UNL     1      -8.963   8.747  65.200  1.00  0.00    -0.334 OA 
HETATM   45  C   UNL     1     -10.084   9.523  67.164  1.00  0.00    -0.229 C  
HETATM   46  O   UNL     1     -11.327   9.524  67.885  1.00  0.00    -0.494 OA 
HETATM   47  H   UNL     1      -9.120   9.608  64.828  1.00  0.00     0.000 HD 
HETATM   48  C   UNL     1      -8.886   9.430  68.119  1.00  0.00    -0.124 C  
HETATM   49  H   UNL     1     -11.358  10.207  68.544  1.00  0.00     0.000 HD 
HETATM   50  O   UNL     1      -9.075  10.348  69.212  1.00  0.00    -0.187 OA 
HETATM   51  H   UNL     1      -9.192  11.234  68.891  1.00  0.00     0.000 HD 
ENDBRANCH  38  39
ENDBRANCH  37  38
ENDBRANCH  26  37
ENDBRANCH  24  25
ENDBRANCH  19  24
ENDBRANCH   6  11
ENDBRANCH   2   3
TORSDOF 7
ENDMDL
MODEL       53
REMARK 921   NORMALIZED FREE ENERGY PREDICTED BY IDOCK:   -7.58 KCAL/MOL
REMARK 922        TOTAL FREE ENERGY PREDICTED BY IDOCK:  -11.96 KCAL/MOL
REMARK 923 INTER-LIGAND FREE ENERGY PREDICTED BY IDOCK:  -10.56 KCAL/MOL
REMARK 924 INTRA-LIGAND FREE ENERGY PREDICTED BY IDOCK:   -1.41 KCAL/MOL
REMARK 927      BINDING AFFINITY PREDICTED BY RF-SCORE:    0.00 PKD
ROOT
HETATM    1  C   UNL     1     -10.772  16.943  67.922  1.00  0.00    -0.344 C  
HETATM    2  O   UNL     1     -11.662  16.773  69.021  1.00  0.00     0.075 OA 
ENDROOT
BRANCH   2   3
HETATM    3  C   UNL     1     -11.808  15.485  69.463  1.00  0.00    -0.372 A  
HETATM    4  C   UNL     1     -11.315  14.508  68.588  1.00  0.00    -0.300 A  
HETATM    5  C   UNL     1     -11.423  13.153  68.886  1.00  0.00    -0.343 A  
HETATM    6  C   UNL     1     -12.006  12.731  70.097  1.00  0.00    -0.371 A  
HETATM    7  C   UNL     1     -12.452  13.709  70.997  1.00  0.00    -0.456 A  
HETATM    8  H   UNL     1     -13.149  15.713  72.431  1.00  0.00     0.000 HD 
HETATM    9  O   UNL     1     -12.785  15.991  71.598  1.00  0.00    -0.446 OA 
HETATM   10  C   UNL     1     -12.345  15.076  70.686  1.00  0.00    -0.348 A  
BRANCH   6  11
HETATM   11  C   UNL     1     -12.281  11.251  70.319  1.00  0.00    -0.345 C  
HETATM   12  C   UNL     1     -12.951  11.084  71.673  1.00  0.00    -0.561 C  
HETATM   13  O   UNL     1     -14.404   9.315  72.284  1.00  0.00    -0.319 OA 
HETATM   14  C   UNL     1     -13.314   9.635  71.815  1.00  0.00    -0.419 C  
HETATM   15  C   UNL     1     -12.291   8.673  71.365  1.00  0.00    -0.344 A  
HETATM   16  C   UNL     1     -11.221   9.168  70.616  1.00  0.00    -0.270 A  
HETATM   17  C   UNL     1     -10.199   8.306  70.196  1.00  0.00    -0.199 A  
HETATM   18  O   UNL     1     -11.062  10.492  70.262  1.00  0.00    -0.298 OA 
HETATM   19  C   UNL     1     -10.228   6.950  70.541  1.00  0.00    -0.192 A  
HETATM   20  O   UNL     1     -13.348   6.806  72.453  1.00  0.00    -0.463 OA 
HETATM   21  C   UNL     1     -11.310   6.455  71.275  1.00  0.00    -0.361 A  
HETATM   22  H   UNL     1     -13.374   5.883  72.676  1.00  0.00     0.000 HD 
HETATM   23  C   UNL     1     -12.329   7.311  71.694  1.00  0.00    -0.352 A  
BRANCH  19  24
HETATM   24  O   UNL     1      -9.286   6.013  70.196  1.00  0.00    -0.151 OA 
BRANCH  24  25
HETATM   25  C   UNL     1      -8.864   5.995  68.826  1.00  0.00    -0.116 C  
HETATM   26  C   UNL     1      -9.003   7.194  66.776  1.00  0.00    -0.137 C  
HETATM   27  O   UNL     1      -9.552   7.023  68.093  1.00  0.00    -0.130 OA 
HETATM   28  C   UNL     1      -9.202   5.910  65.955  1.00  0.00    -0.128 C  
HETATM   29  H   UNL     1      -8.579   2.749  66.480  1.00  0.00     0.000 HD 
HETATM   30  O   UNL     1      -8.564   3.551  68.879  1.00  0.00    -0.078 OA 
HETATM   31  C   UNL     1      -8.636   4.704  66.717  1.00  0.00    -0.108 C  
HETATM   32  O   UNL     1      -8.564   5.945  64.669  1.00  0.00    -0.301 OA 
HETATM   33  H   UNL     1      -8.752   2.715  68.469  1.00  0.00     0.000 HD 
HETATM   34  H   UNL     1      -8.687   5.152  64.162  1.00  0.00     0.000 HD 
HETATM   35  O   UNL     1      -8.929   3.496  66.008  1.00  0.00    -0.127 OA 
HETATM   36  C   UNL     1      -9.171   4.635  68.159  1.00  0.00    -0.128 C  
BRANCH  26  37
HETATM   37  C   UNL     1      -9.679   8.393  66.100  1.00  0.00    -0.153 C  
BRANCH  37  38
HETATM   38  O   UNL     1      -8.723   9.030  65.253  1.00  0.00    -0.173 OA 
BRANCH  38  39
HETATM   39  C   UNL     1      -8.131  10.178  65.871  1.00  0.00    -0.136 C  
HETATM   40  O   UNL     1      -7.115   9.733  66.770  1.00  0.00    -0.087 OA 
HETATM   41  C   UNL     1      -6.497  10.751  67.558  1.00  0.00    -0.058 C  
HETATM   42  C   UNL     1      -7.533  11.586  68.338  1.00  0.00    -0.109 C  
HETATM   43  C   UNL     1      -5.512  11.567  66.725  1.00  0.00    -0.135 C  
HETATM   44  O   UNL     1      -8.131  10.765  69.354  1.00  0.00    -0.294 OA 
HETATM   45  C   UNL     1      -8.666  12.100  67.446  1.00  0.00    -0.177 C  
HETATM   46  O   UNL     1      -8.257  13.219  66.641  1.00  0.00    -0.407 OA 
HETATM   47  H   UNL     1      -8.770  11.279  69.835  1.00  0.00     0.000 HD 
HETATM   48  C   UNL     1      -9.248  10.975  66.580  1.00  0.00    -0.171 C  
HETATM   49  H   UNL     1      -8.959  13.538  66.088  1.00  0.00     0.000 HD 
HETATM   50  O   UNL     1     -10.163  11.536  65.621  1.00  0.00    -0.229 OA 
HETATM   51  H   UNL     1     -10.850  12.026  66.057  1.00  0.00     0.000 HD 
ENDBRANCH  38  39
ENDBRANCH  37  38
ENDBRANCH  26  37
ENDBRANCH  24  25
ENDBRANCH  19  24
ENDBRANCH   6  11
ENDBRANCH   2   3
TORSDOF 7
ENDMDL
MODEL       54
REMARK 921   NORMALIZED FREE ENERGY PREDICTED BY IDOCK:   -7.56 KCAL/MOL
REMARK 922        TOTAL FREE ENERGY PREDICTED BY IDOCK:  -11.93 KCAL/MOL
REMARK 923 INTER-LIGAND FREE ENERGY PREDICTED BY IDOCK:   -9.60 KCAL/MOL
REMARK 924 INTRA-LIGAND FREE ENERGY PREDICTED BY IDOCK:   -2.33 KCAL/MOL
REMARK 927      BINDING AFFINITY PREDICTED BY RF-SCORE:    0.00 PKD
ROOT
HETATM    1  C   UNL     1     -11.062  15.487  64.813  1.00  0.00    -0.407 C  
HETATM    2  O   UNL     1      -9.871  15.058  65.465  1.00  0.00    -0.340 OA 
ENDROOT
BRANCH   2   3
HETATM    3  C   UNL     1     -10.017  13.993  66.312  1.00  0.00    -0.307 A  
HETATM    4  C   UNL     1     -11.247  13.330  66.209  1.00  0.00    -0.321 A  
HETATM    5  C   UNL     1     -11.554  12.249  67.031  1.00  0.00    -0.418 A  
HETATM    6  C   UNL     1     -10.616  11.773  67.968  1.00  0.00    -0.235 A  
HETATM    7  C   UNL     1      -9.364  12.402  68.035  1.00  0.00    -0.204 A  
HETATM    8  H   UNL     1      -7.181  13.735  67.909  1.00  0.00     0.000 HD 
HETATM    9  O   UNL     1      -7.830  14.072  67.301  1.00  0.00    -0.179 OA 
HETATM   10  C   UNL     1      -9.064  13.498  67.206  1.00  0.00    -0.225 A  
BRANCH   6  11
HETATM   11  C   UNL     1     -11.037  10.716  68.977  1.00  0.00    -0.254 C  
HETATM   12  C   UNL     1     -11.976  11.359  69.984  1.00  0.00    -0.442 C  
HETATM   13  O   UNL     1     -13.647  10.230  71.229  1.00  0.00    -0.249 OA 
HETATM   14  C   UNL     1     -12.464  10.272  70.896  1.00  0.00    -0.370 C  
HETATM   15  C   UNL     1     -11.444   9.305  71.341  1.00  0.00    -0.439 A  
HETATM   16  C   UNL     1     -10.212   9.316  70.683  1.00  0.00    -0.272 A  
HETATM   17  C   UNL     1      -9.191   8.446  71.091  1.00  0.00    -0.218 A  
HETATM   18  O   UNL     1      -9.889  10.161  69.642  1.00  0.00    -0.224 OA 
HETATM   19  C   UNL     1      -9.387   7.578  72.171  1.00  0.00    -0.140 A  
HETATM   20  O   UNL     1     -12.831   8.414  73.092  1.00  0.00    -0.639 OA 
HETATM   21  C   UNL     1     -10.628   7.558  72.815  1.00  0.00    -0.365 A  
HETATM   22  H   UNL     1     -12.968   7.816  73.818  1.00  0.00     0.000 HD 
HETATM   23  C   UNL     1     -11.646   8.422  72.411  1.00  0.00    -0.380 A  
BRANCH  19  24
HETATM   24  O   UNL     1      -8.465   6.689  72.664  1.00  0.00    -0.123 OA 
BRANCH  24  25
HETATM   25  C   UNL     1      -8.412   5.400  72.041  1.00  0.00    -0.127 C  
HETATM   26  C   UNL     1      -8.139   4.310  69.944  1.00  0.00    -0.058 C  
HETATM   27  O   UNL     1      -8.417   5.553  70.611  1.00  0.00    -0.117 OA 
HETATM   28  C   UNL     1      -9.251   3.293  70.245  1.00  0.00    -0.157 C  
HETATM   29  H   UNL     1     -10.680   2.221  72.979  1.00  0.00     0.000 HD 
HETATM   30  O   UNL     1      -9.718   4.386  73.867  1.00  0.00    -0.118 OA 
HETATM   31  C   UNL     1      -9.445   3.159  71.762  1.00  0.00    -0.145 C  
HETATM   32  O   UNL     1      -8.986   1.981  69.727  1.00  0.00    -0.069 OA 
HETATM   33  H   UNL     1     -10.464   3.851  74.112  1.00  0.00     0.000 HD 
HETATM   34  H   UNL     1      -9.673   1.352  69.913  1.00  0.00     0.000 HD 
HETATM   35  O   UNL     1     -10.559   2.304  72.039  1.00  0.00     0.008 OA 
HETATM   36  C   UNL     1      -9.624   4.528  72.440  1.00  0.00    -0.146 C  
BRANCH  26  37
HETATM   37  C   UNL     1      -8.017   4.564  68.437  1.00  0.00    -0.079 C  
BRANCH  37  38
HETATM   38  O   UNL     1      -9.091   5.414  68.034  1.00  0.00    -0.108 OA 
BRANCH  38  39
HETATM   39  C   UNL     1      -8.680   6.387  67.068  1.00  0.00    -0.115 C  
HETATM   40  O   UNL     1      -7.287   6.644  67.250  1.00  0.00    -0.086 OA 
HETATM   41  C   UNL     1      -6.738   7.680  66.435  1.00  0.00    -0.058 C  
HETATM   42  C   UNL     1      -7.519   9.002  66.578  1.00  0.00    -0.089 C  
HETATM   43  C   UNL     1      -6.544   7.203  64.998  1.00  0.00    -0.047 C  
HETATM   44  O   UNL     1      -7.306   9.534  67.897  1.00  0.00    -0.082 OA 
HETATM   45  C   UNL     1      -9.028   8.816  66.403  1.00  0.00    -0.158 C  
HETATM   46  O   UNL     1      -9.398   8.659  65.023  1.00  0.00    -0.417 OA 
HETATM   47  H   UNL     1      -7.787  10.349  67.985  1.00  0.00     0.000 HD 
HETATM   48  C   UNL     1      -9.549   7.650  67.255  1.00  0.00    -0.157 C  
HETATM   49  H   UNL     1     -10.334   8.544  64.914  1.00  0.00     0.000 HD 
HETATM   50  O   UNL     1     -10.920   7.383  66.911  1.00  0.00    -0.525 OA 
HETATM   51  H   UNL     1     -11.454   8.160  67.026  1.00  0.00     0.000 HD 
ENDBRANCH  38  39
ENDBRANCH  37  38
ENDBRANCH  26  37
ENDBRANCH  24  25
ENDBRANCH  19  24
ENDBRANCH   6  11
ENDBRANCH   2   3
TORSDOF 7
ENDMDL
MODEL       55
REMARK 921   NORMALIZED FREE ENERGY PREDICTED BY IDOCK:   -7.47 KCAL/MOL
REMARK 922        TOTAL FREE ENERGY PREDICTED BY IDOCK:  -11.81 KCAL/MOL
REMARK 923 INTER-LIGAND FREE ENERGY PREDICTED BY IDOCK:  -10.30 KCAL/MOL
REMARK 924 INTRA-LIGAND FREE ENERGY PREDICTED BY IDOCK:   -1.51 KCAL/MOL
REMARK 927      BINDING AFFINITY PREDICTED BY RF-SCORE:    0.00 PKD
ROOT
HETATM    1  C   UNL     1      -5.986  21.165  67.727  1.00  0.00    -0.355 C  
HETATM    2  O   UNL     1      -7.329  21.176  67.256  1.00  0.00    -0.430 OA 
ENDROOT
BRANCH   2   3
HETATM    3  C   UNL     1      -7.949  19.955  67.222  1.00  0.00    -0.302 A  
HETATM    4  C   UNL     1      -8.861  19.735  68.262  1.00  0.00    -0.329 A  
HETATM    5  C   UNL     1      -9.543  18.526  68.378  1.00  0.00    -0.383 A  
HETATM    6  C   UNL     1      -9.354  17.504  67.428  1.00  0.00    -0.249 A  
HETATM    7  C   UNL     1      -8.480  17.744  66.357  1.00  0.00    -0.270 A  
HETATM    8  H   UNL     1      -6.851  18.480  64.523  1.00  0.00     0.000 HD 
HETATM    9  O   UNL     1      -6.958  19.154  65.185  1.00  0.00    -0.467 OA 
HETATM   10  C   UNL     1      -7.791  18.964  66.250  1.00  0.00    -0.279 A  
BRANCH   6  11
HETATM   11  C   UNL     1      -9.962  16.132  67.674  1.00  0.00    -0.241 C  
HETATM   12  C   UNL     1     -10.777  16.189  68.956  1.00  0.00    -0.287 C  
HETATM   13  O   UNL     1     -12.630  14.807  69.477  1.00  0.00    -0.157 OA 
HETATM   14  C   UNL     1     -11.457  14.861  69.113  1.00  0.00    -0.302 C  
HETATM   15  C   UNL     1     -10.628  13.680  68.810  1.00  0.00    -0.247 A  
HETATM   16  C   UNL     1      -9.410  13.893  68.159  1.00  0.00    -0.203 A  
HETATM   17  C   UNL     1      -8.563  12.811  67.882  1.00  0.00    -0.181 A  
HETATM   18  O   UNL     1      -8.936  15.130  67.775  1.00  0.00    -0.174 OA 
HETATM   19  C   UNL     1      -8.918  11.515  68.272  1.00  0.00    -0.177 A  
HETATM   20  O   UNL     1     -12.161  12.146  69.849  1.00  0.00    -0.251 OA 
HETATM   21  C   UNL     1     -10.145  11.303  68.907  1.00  0.00    -0.185 A  
HETATM   22  H   UNL     1     -12.407  11.264  70.103  1.00  0.00     0.000 HD 
HETATM   23  C   UNL     1     -10.990  12.378  69.183  1.00  0.00    -0.152 A  
BRANCH  19  24
HETATM   24  O   UNL     1      -8.172  10.381  68.063  1.00  0.00    -0.112 OA 
BRANCH  24  25
HETATM   25  C   UNL     1      -8.781   9.339  67.292  1.00  0.00    -0.128 C  
HETATM   26  C   UNL     1      -9.832   7.211  67.462  1.00  0.00    -0.151 C  
HETATM   27  O   UNL     1      -9.022   8.194  68.129  1.00  0.00    -0.135 OA 
HETATM   28  C   UNL     1      -9.087   6.664  66.235  1.00  0.00    -0.145 C  
HETATM   29  H   UNL     1      -7.564   8.036  63.694  1.00  0.00     0.000 HD 
HETATM   30  O   UNL     1      -7.540  10.012  65.274  1.00  0.00    -0.125 OA 
HETATM   31  C   UNL     1      -8.638   7.821  65.332  1.00  0.00    -0.070 C  
HETATM   32  O   UNL     1      -9.876   5.772  65.433  1.00  0.00    -0.314 OA 
HETATM   33  H   UNL     1      -6.982   9.742  64.553  1.00  0.00     0.000 HD 
HETATM   34  H   UNL     1      -9.416   5.434  64.675  1.00  0.00     0.000 HD 
HETATM   35  O   UNL     1      -7.842   7.320  64.253  1.00  0.00    -0.124 OA 
HETATM   36  C   UNL     1      -7.875   8.900  66.119  1.00  0.00    -0.102 C  
BRANCH  26  37
HETATM   37  C   UNL     1     -10.172   6.087  68.449  1.00  0.00    -0.181 C  
BRANCH  37  38
HETATM   38  O   UNL     1      -9.522   6.365  69.689  1.00  0.00    -0.147 OA 
BRANCH  38  39
HETATM   39  C   UNL     1     -10.453   6.529  70.764  1.00  0.00    -0.220 C  
HETATM   40  O   UNL     1     -10.413   7.890  71.192  1.00  0.00    -0.204 OA 
HETATM   41  C   UNL     1     -11.205   8.202  72.340  1.00  0.00    -0.386 C  
HETATM   42  C   UNL     1     -10.873   7.286  73.535  1.00  0.00    -0.245 C  
HETATM   43  C   UNL     1     -12.687   8.275  71.980  1.00  0.00    -0.376 C  
HETATM   44  O   UNL     1      -9.552   7.592  74.011  1.00  0.00    -0.387 OA 
HETATM   45  C   UNL     1     -10.888   5.801  73.161  1.00  0.00    -0.276 C  
HETATM   46  O   UNL     1     -12.224   5.287  73.040  1.00  0.00    -0.513 OA 
HETATM   47  H   UNL     1      -9.348   7.027  74.747  1.00  0.00     0.000 HD 
HETATM   48  C   UNL     1     -10.073   5.539  71.888  1.00  0.00    -0.189 C  
HETATM   49  H   UNL     1     -12.234   4.366  72.808  1.00  0.00     0.000 HD 
HETATM   50  O   UNL     1     -10.277   4.180  71.462  1.00  0.00    -0.148 OA 
HETATM   51  H   UNL     1     -10.042   3.571  72.153  1.00  0.00     0.000 HD 
ENDBRANCH  38  39
ENDBRANCH  37  38
ENDBRANCH  26  37
ENDBRANCH  24  25
ENDBRANCH  19  24
ENDBRANCH   6  11
ENDBRANCH   2   3
TORSDOF 7
ENDMDL
MODEL       56
REMARK 921   NORMALIZED FREE ENERGY PREDICTED BY IDOCK:   -7.45 KCAL/MOL
REMARK 922        TOTAL FREE ENERGY PREDICTED BY IDOCK:  -11.78 KCAL/MOL
REMARK 923 INTER-LIGAND FREE ENERGY PREDICTED BY IDOCK:  -10.68 KCAL/MOL
REMARK 924 INTRA-LIGAND FREE ENERGY PREDICTED BY IDOCK:   -1.10 KCAL/MOL
REMARK 927      BINDING AFFINITY PREDICTED BY RF-SCORE:    0.00 PKD
ROOT
HETATM    1  C   UNL     1      -6.956   2.455  67.648  1.00  0.00    -0.048 C  
HETATM    2  O   UNL     1      -6.988   3.063  66.361  1.00  0.00    -0.051 OA 
ENDROOT
BRANCH   2   3
HETATM    3  C   UNL     1      -7.572   4.301  66.311  1.00  0.00    -0.089 A  
HETATM    4  C   UNL     1      -8.372   4.613  67.418  1.00  0.00    -0.104 A  
HETATM    5  C   UNL     1      -9.058   5.822  67.493  1.00  0.00    -0.106 A  
HETATM    6  C   UNL     1      -8.936   6.779  66.466  1.00  0.00    -0.162 A  
HETATM    7  C   UNL     1      -8.094   6.489  65.383  1.00  0.00    -0.129 A  
HETATM    8  H   UNL     1      -6.483   5.685  63.561  1.00  0.00     0.000 HD 
HETATM    9  O   UNL     1      -6.594   5.030  64.242  1.00  0.00    -0.040 OA 
HETATM   10  C   UNL     1      -7.410   5.263  65.311  1.00  0.00    -0.068 A  
BRANCH   6  11
HETATM   11  C   UNL     1      -9.834   8.007  66.478  1.00  0.00    -0.219 C  
HETATM   12  C   UNL     1      -9.167   9.099  65.658  1.00  0.00    -0.296 C  
HETATM   13  O   UNL     1     -10.286  10.859  64.534  1.00  0.00    -0.311 OA 
HETATM   14  C   UNL     1     -10.122  10.254  65.592  1.00  0.00    -0.271 C  
HETATM   15  C   UNL     1     -10.813  10.585  66.851  1.00  0.00    -0.252 A  
HETATM   16  C   UNL     1     -10.735   9.660  67.895  1.00  0.00    -0.247 A  
HETATM   17  C   UNL     1     -11.339   9.940  69.129  1.00  0.00    -0.088 A  
HETATM   18  O   UNL     1     -10.064   8.457  67.824  1.00  0.00    -0.183 OA 
HETATM   19  C   UNL     1     -12.004  11.154  69.333  1.00  0.00    -0.349 A  
HETATM   20  O   UNL     1     -11.561  12.728  66.057  1.00  0.00    -0.340 OA 
HETATM   21  C   UNL     1     -12.096  12.069  68.280  1.00  0.00    -0.061 A  
HETATM   22  H   UNL     1     -12.024  13.547  66.193  1.00  0.00     0.000 HD 
HETATM   23  C   UNL     1     -11.496  11.792  67.051  1.00  0.00    -0.298 A  
BRANCH  19  24
HETATM   24  O   UNL     1     -12.626  11.543  70.494  1.00  0.00    -0.270 OA 
BRANCH  24  25
HETATM   25  C   UNL     1     -12.674  12.950  70.761  1.00  0.00    -0.149 C  
HETATM   26  C   UNL     1     -11.493  14.990  70.439  1.00  0.00    -0.280 C  
HETATM   27  O   UNL     1     -11.420  13.555  70.401  1.00  0.00    -0.080 OA 
HETATM   28  C   UNL     1     -11.773  15.463  71.874  1.00  0.00    -0.434 C  
HETATM   29  H   UNL     1     -13.980  14.672  74.146  1.00  0.00     0.000 HD 
HETATM   30  O   UNL     1     -14.147  12.600  72.704  1.00  0.00    -0.624 OA 
HETATM   31  C   UNL     1     -13.019  14.759  72.427  1.00  0.00    -0.359 C  
HETATM   32  O   UNL     1     -11.994  16.877  71.980  1.00  0.00    -0.455 OA 
HETATM   33  H   UNL     1     -14.309  12.773  73.624  1.00  0.00     0.000 HD 
HETATM   34  H   UNL     1     -12.166  17.170  72.867  1.00  0.00     0.000 HD 
HETATM   35  O   UNL     1     -13.208  15.108  73.803  1.00  0.00    -0.421 OA 
HETATM   36  C   UNL     1     -12.936  13.231  72.258  1.00  0.00    -0.271 C  
BRANCH  26  37
HETATM   37  C   UNL     1     -10.178  15.574  69.910  1.00  0.00    -0.295 C  
BRANCH  37  38
HETATM   38  O   UNL     1     -10.369  16.969  69.670  1.00  0.00    -0.211 OA 
BRANCH  38  39
HETATM   39  C   UNL     1     -10.300  17.294  68.278  1.00  0.00    -0.361 C  
HETATM   40  O   UNL     1      -9.620  16.236  67.601  1.00  0.00    -0.224 OA 
HETATM   41  C   UNL     1      -9.364  16.454  66.212  1.00  0.00    -0.315 C  
HETATM   42  C   UNL     1      -8.613  17.779  65.965  1.00  0.00    -0.009 C  
HETATM   43  C   UNL     1     -10.634  16.274  65.386  1.00  0.00    -0.371 C  
HETATM   44  O   UNL     1      -7.278  17.668  66.485  1.00  0.00    -0.204 OA 
HETATM   45  C   UNL     1      -9.275  18.969  66.664  1.00  0.00    -0.329 C  
HETATM   46  O   UNL     1     -10.451  19.419  65.971  1.00  0.00    -0.473 OA 
HETATM   47  H   UNL     1      -6.816  18.484  66.333  1.00  0.00     0.000 HD 
HETATM   48  C   UNL     1      -9.581  18.653  68.134  1.00  0.00    -0.331 C  
HETATM   49  H   UNL     1     -10.862  20.157  66.404  1.00  0.00     0.000 HD 
HETATM   50  O   UNL     1     -10.377  19.714  68.694  1.00  0.00    -0.499 OA 
HETATM   51  H   UNL     1      -9.934  20.549  68.606  1.00  0.00     0.000 HD 
ENDBRANCH  38  39
ENDBRANCH  37  38
ENDBRANCH  26  37
ENDBRANCH  24  25
ENDBRANCH  19  24
ENDBRANCH   6  11
ENDBRANCH   2   3
TORSDOF 7
ENDMDL
MODEL       57
REMARK 921   NORMALIZED FREE ENERGY PREDICTED BY IDOCK:   -7.43 KCAL/MOL
REMARK 922        TOTAL FREE ENERGY PREDICTED BY IDOCK:  -11.74 KCAL/MOL
REMARK 923 INTER-LIGAND FREE ENERGY PREDICTED BY IDOCK:   -9.93 KCAL/MOL
REMARK 924 INTRA-LIGAND FREE ENERGY PREDICTED BY IDOCK:   -1.81 KCAL/MOL
REMARK 927      BINDING AFFINITY PREDICTED BY RF-SCORE:    0.00 PKD
ROOT
HETATM    1  C   UNL     1     -13.410  16.005  73.156  1.00  0.00    -0.533 C  
HETATM    2  O   UNL     1     -13.351  15.755  71.755  1.00  0.00    -0.481 OA 
ENDROOT
BRANCH   2   3
HETATM    3  C   UNL     1     -13.086  14.459  71.402  1.00  0.00    -0.346 A  
HETATM    4  C   UNL     1     -13.716  13.496  72.202  1.00  0.00    -0.654 A  
HETATM    5  C   UNL     1     -13.514  12.136  71.985  1.00  0.00    -0.388 A  
HETATM    6  C   UNL     1     -12.693  11.693  70.929  1.00  0.00    -0.351 A  
HETATM    7  C   UNL     1     -12.105  12.656  70.095  1.00  0.00    -0.368 A  
HETATM    8  H   UNL     1     -11.193  14.634  68.748  1.00  0.00     0.000 HD 
HETATM    9  O   UNL     1     -11.722  14.927  69.481  1.00  0.00    -0.285 OA 
HETATM   10  C   UNL     1     -12.308  14.028  70.324  1.00  0.00    -0.358 A  
BRANCH   6  11
HETATM   11  C   UNL     1     -12.339  10.218  70.824  1.00  0.00    -0.350 C  
HETATM   12  C   UNL     1     -12.961   9.488  72.003  1.00  0.00    -0.514 C  
HETATM   13  O   UNL     1     -13.579   7.201  72.041  1.00  0.00    -0.224 OA 
HETATM   14  C   UNL     1     -12.694   8.024  71.814  1.00  0.00    -0.329 C  
HETATM   15  C   UNL     1     -11.338   7.676  71.354  1.00  0.00    -0.285 A  
HETATM   16  C   UNL     1     -10.527   8.713  70.885  1.00  0.00    -0.214 A  
HETATM   17  C   UNL     1      -9.214   8.447  70.473  1.00  0.00    -0.165 A  
HETATM   18  O   UNL     1     -10.913  10.035  70.814  1.00  0.00    -0.313 OA 
HETATM   19  C   UNL     1      -8.696   7.149  70.549  1.00  0.00    -0.149 A  
HETATM   20  O   UNL     1     -11.584   5.347  71.897  1.00  0.00    -0.030 OA 
HETATM   21  C   UNL     1      -9.516   6.112  71.002  1.00  0.00    -0.187 A  
HETATM   22  H   UNL     1     -11.236   4.463  71.936  1.00  0.00     0.000 HD 
HETATM   23  C   UNL     1     -10.824   6.374  71.412  1.00  0.00    -0.253 A  
BRANCH  19  24
HETATM   24  O   UNL     1      -7.429   6.768  70.183  1.00  0.00    -0.089 OA 
BRANCH  24  25
HETATM   25  C   UNL     1      -7.176   6.627  68.780  1.00  0.00    -0.085 C  
HETATM   26  C   UNL     1      -7.569   7.642  66.664  1.00  0.00    -0.097 C  
HETATM   27  O   UNL     1      -7.954   7.591  68.048  1.00  0.00    -0.119 OA 
HETATM   28  C   UNL     1      -7.859   6.292  65.989  1.00  0.00    -0.106 C  
HETATM   29  H   UNL     1      -7.159   3.186  66.711  1.00  0.00     0.000 HD 
HETATM   30  O   UNL     1      -6.858   4.195  69.011  1.00  0.00    -0.045 OA 
HETATM   31  C   UNL     1      -7.198   5.155  66.780  1.00  0.00    -0.077 C  
HETATM   32  O   UNL     1      -7.383   6.211  64.638  1.00  0.00    -0.064 OA 
HETATM   33  H   UNL     1      -7.090   3.328  68.701  1.00  0.00     0.000 HD 
HETATM   34  H   UNL     1      -7.562   5.377  64.220  1.00  0.00     0.000 HD 
HETATM   35  O   UNL     1      -7.568   3.890  66.221  1.00  0.00    -0.086 OA 
HETATM   36  C   UNL     1      -7.554   5.215  68.276  1.00  0.00    -0.079 C  
BRANCH  26  37
HETATM   37  C   UNL     1      -8.329   8.780  65.973  1.00  0.00    -0.126 C  
BRANCH  37  38
HETATM   38  O   UNL     1      -7.378   9.729  65.490  1.00  0.00    -0.102 OA 
BRANCH  38  39
HETATM   39  C   UNL     1      -7.594  11.037  66.031  1.00  0.00    -0.042 C  
HETATM   40  O   UNL     1      -6.959  11.107  67.309  1.00  0.00    -0.083 OA 
HETATM   41  C   UNL     1      -7.174  12.315  68.040  1.00  0.00    -0.102 C  
HETATM   42  C   UNL     1      -8.675  12.632  68.203  1.00  0.00    -0.190 C  
HETATM   43  C   UNL     1      -6.336  13.457  67.472  1.00  0.00    -0.112 C  
HETATM   44  O   UNL     1      -9.269  11.660  69.079  1.00  0.00    -0.393 OA 
HETATM   45  C   UNL     1      -9.436  12.572  66.876  1.00  0.00    -0.219 C  
HETATM   46  O   UNL     1      -9.200  13.734  66.063  1.00  0.00    -0.493 OA 
HETATM   47  H   UNL     1     -10.194  11.855  69.178  1.00  0.00     0.000 HD 
HETATM   48  C   UNL     1      -9.117  11.282  66.108  1.00  0.00    -0.204 C  
HETATM   49  H   UNL     1      -9.672  13.698  65.240  1.00  0.00     0.000 HD 
HETATM   50  O   UNL     1      -9.689  11.358  64.789  1.00  0.00    -0.241 OA 
HETATM   51  H   UNL     1     -10.626  11.509  64.837  1.00  0.00     0.000 HD 
ENDBRANCH  38  39
ENDBRANCH  37  38
ENDBRANCH  26  37
ENDBRANCH  24  25
ENDBRANCH  19  24
ENDBRANCH   6  11
ENDBRANCH   2   3
TORSDOF 7
ENDMDL
MODEL       58
REMARK 921   NORMALIZED FREE ENERGY PREDICTED BY IDOCK:   -7.40 KCAL/MOL
REMARK 922        TOTAL FREE ENERGY PREDICTED BY IDOCK:  -11.71 KCAL/MOL
REMARK 923 INTER-LIGAND FREE ENERGY PREDICTED BY IDOCK:   -9.87 KCAL/MOL
REMARK 924 INTRA-LIGAND FREE ENERGY PREDICTED BY IDOCK:   -1.84 KCAL/MOL
REMARK 927      BINDING AFFINITY PREDICTED BY RF-SCORE:    0.00 PKD
ROOT
HETATM    1  C   UNL     1      -9.157  18.803  66.173  1.00  0.00    -0.141 C  
HETATM    2  O   UNL     1     -10.406  18.169  65.917  1.00  0.00    -0.540 OA 
ENDROOT
BRANCH   2   3
HETATM    3  C   UNL     1     -10.394  16.801  65.987  1.00  0.00    -0.335 A  
HETATM    4  C   UNL     1      -9.821  16.282  67.154  1.00  0.00    -0.243 A  
HETATM    5  C   UNL     1      -9.708  14.908  67.352  1.00  0.00    -0.217 A  
HETATM    6  C   UNL     1     -10.200  14.004  66.391  1.00  0.00    -0.293 A  
HETATM    7  C   UNL     1     -10.822  14.523  65.245  1.00  0.00    -0.377 A  
HETATM    8  H   UNL     1     -11.911  15.763  63.288  1.00  0.00     0.000 HD 
HETATM    9  O   UNL     1     -11.548  16.369  63.924  1.00  0.00    -1.100 OA 
HETATM   10  C   UNL     1     -10.927  15.911  65.050  1.00  0.00    -0.412 A  
BRANCH   6  11
HETATM   11  C   UNL     1      -9.902  12.520  66.538  1.00  0.00    -0.246 C  
HETATM   12  C   UNL     1     -10.182  11.838  65.209  1.00  0.00    -0.307 C  
HETATM   13  O   UNL     1      -9.161   9.842  64.440  1.00  0.00    -0.238 OA 
HETATM   14  C   UNL     1      -9.771  10.401  65.349  1.00  0.00    -0.265 C  
HETATM   15  C   UNL     1     -10.150   9.749  66.616  1.00  0.00    -0.303 A  
HETATM   16  C   UNL     1     -10.600  10.566  67.656  1.00  0.00    -0.250 A  
HETATM   17  C   UNL     1     -11.011   9.997  68.869  1.00  0.00    -0.244 A  
HETATM   18  O   UNL     1     -10.704  11.940  67.581  1.00  0.00    -0.203 OA 
HETATM   19  C   UNL     1     -10.998   8.609  69.041  1.00  0.00     0.090 A  
HETATM   20  O   UNL     1      -9.714   7.535  65.785  1.00  0.00    -0.379 OA 
HETATM   21  C   UNL     1     -10.531   7.795  68.005  1.00  0.00    -0.244 A  
HETATM   22  H   UNL     1      -9.694   6.593  65.907  1.00  0.00     0.000 HD 
HETATM   23  C   UNL     1     -10.119   8.359  66.797  1.00  0.00    -0.303 A  
BRANCH  19  24
HETATM   24  O   UNL     1     -11.382   7.937  70.175  1.00  0.00    -0.214 OA 
BRANCH  24  25
HETATM   25  C   UNL     1     -10.360   7.663  71.142  1.00  0.00    -0.200 C  
HETATM   26  C   UNL     1      -8.198   6.707  71.408  1.00  0.00    -0.116 C  
HETATM   27  O   UNL     1      -9.350   6.824  70.556  1.00  0.00    -0.162 OA 
HETATM   28  C   UNL     1      -8.587   6.012  72.722  1.00  0.00    -0.124 C  
HETATM   29  H   UNL     1     -10.946   6.471  74.932  1.00  0.00     0.000 HD 
HETATM   30  O   UNL     1     -11.998   7.693  72.982  1.00  0.00    -0.594 OA 
HETATM   31  C   UNL     1      -9.773   6.738  73.371  1.00  0.00    -0.192 C  
HETATM   32  O   UNL     1      -7.526   5.972  73.687  1.00  0.00    -0.092 OA 
HETATM   33  H   UNL     1     -12.350   7.247  73.744  1.00  0.00     0.000 HD 
HETATM   34  H   UNL     1      -7.766   5.542  74.499  1.00  0.00     0.000 HD 
HETATM   35  O   UNL     1     -10.211   6.021  74.530  1.00  0.00    -0.295 OA 
HETATM   36  C   UNL     1     -10.934   6.938  72.381  1.00  0.00    -0.246 C  
BRANCH  26  37
HETATM   37  C   UNL     1      -7.105   5.924  70.671  1.00  0.00    -0.074 C  
BRANCH  37  38
HETATM   38  O   UNL     1      -7.237   4.542  71.005  1.00  0.00    -0.042 OA 
BRANCH  38  39
HETATM   39  C   UNL     1      -7.456   3.723  69.851  1.00  0.00    -0.048 C  
HETATM   40  O   UNL     1      -6.618   4.197  68.796  1.00  0.00    -0.043 OA 
HETATM   41  C   UNL     1      -6.795   3.557  67.531  1.00  0.00    -0.050 C  
HETATM   42  C   UNL     1      -8.265   3.596  67.066  1.00  0.00    -0.095 C  
HETATM   43  C   UNL     1      -6.157   2.171  67.524  1.00  0.00    -0.024 C  
HETATM   44  O   UNL     1      -8.624   4.952  66.752  1.00  0.00    -0.110 OA 
HETATM   45  C   UNL     1      -9.237   3.109  68.144  1.00  0.00    -0.195 C  
HETATM   46  O   UNL     1      -9.234   1.677  68.268  1.00  0.00    -0.134 OA 
HETATM   47  H   UNL     1      -9.530   4.976  66.465  1.00  0.00     0.000 HD 
HETATM   48  C   UNL     1      -8.957   3.785  69.493  1.00  0.00    -0.106 C  
HETATM   49  H   UNL     1      -9.837   1.374  68.936  1.00  0.00     0.000 HD 
HETATM   50  O   UNL     1      -9.752   3.156  70.515  1.00  0.00    -0.161 OA 
HETATM   51  H   UNL     1     -10.675   3.194  70.295  1.00  0.00     0.000 HD 
ENDBRANCH  38  39
ENDBRANCH  37  38
ENDBRANCH  26  37
ENDBRANCH  24  25
ENDBRANCH  19  24
ENDBRANCH   6  11
ENDBRANCH   2   3
TORSDOF 7
ENDMDL
MODEL       59
REMARK 921   NORMALIZED FREE ENERGY PREDICTED BY IDOCK:   -7.40 KCAL/MOL
REMARK 922        TOTAL FREE ENERGY PREDICTED BY IDOCK:  -11.71 KCAL/MOL
REMARK 923 INTER-LIGAND FREE ENERGY PREDICTED BY IDOCK:  -10.36 KCAL/MOL
REMARK 924 INTRA-LIGAND FREE ENERGY PREDICTED BY IDOCK:   -1.35 KCAL/MOL
REMARK 927      BINDING AFFINITY PREDICTED BY RF-SCORE:    0.00 PKD
ROOT
HETATM    1  C   UNL     1      -5.684   5.165  68.719  1.00  0.00    -0.016 C  
HETATM    2  O   UNL     1      -5.670   5.429  67.320  1.00  0.00    -0.012 OA 
ENDROOT
BRANCH   2   3
HETATM    3  C   UNL     1      -6.570   6.369  66.892  1.00  0.00    -0.055 A  
HETATM    4  C   UNL     1      -6.307   7.671  67.335  1.00  0.00    -0.054 A  
HETATM    5  C   UNL     1      -7.153   8.727  67.008  1.00  0.00    -0.078 A  
HETATM    6  C   UNL     1      -8.282   8.515  66.192  1.00  0.00    -0.115 A  
HETATM    7  C   UNL     1      -8.516   7.220  65.705  1.00  0.00    -0.148 A  
HETATM    8  H   UNL     1      -8.666   4.774  64.962  1.00  0.00     0.000 HD 
HETATM    9  O   UNL     1      -7.924   4.918  65.539  1.00  0.00    -0.096 OA 
HETATM   10  C   UNL     1      -7.660   6.157  66.045  1.00  0.00    -0.087 A  
BRANCH   6  11
HETATM   11  C   UNL     1      -9.290   9.637  66.002  1.00  0.00    -0.207 C  
HETATM   12  C   UNL     1      -9.166  10.160  64.580  1.00  0.00    -0.300 C  
HETATM   13  O   UNL     1     -10.891  11.208  63.340  1.00  0.00    -0.335 OA 
HETATM   14  C   UNL     1     -10.245  11.184  64.385  1.00  0.00    -0.330 C  
HETATM   15  C   UNL     1     -10.449  12.118  65.507  1.00  0.00    -0.300 A  
HETATM   16  C   UNL     1      -9.835  11.813  66.724  1.00  0.00    -0.198 A  
HETATM   17  C   UNL     1      -9.962  12.686  67.814  1.00  0.00    -0.218 A  
HETATM   18  O   UNL     1      -9.060  10.695  66.949  1.00  0.00    -0.153 OA 
HETATM   19  C   UNL     1     -10.683  13.878  67.687  1.00  0.00    -0.249 A  
HETATM   20  O   UNL     1     -11.771  13.643  64.199  1.00  0.00    -0.422 OA 
HETATM   21  C   UNL     1     -11.311  14.172  66.473  1.00  0.00    -0.348 A  
HETATM   22  H   UNL     1     -12.272  14.446  64.117  1.00  0.00     0.000 HD 
HETATM   23  C   UNL     1     -11.187  13.304  65.387  1.00  0.00    -0.287 A  
BRANCH  19  24
HETATM   24  O   UNL     1     -10.871  14.812  68.675  1.00  0.00    -0.238 OA 
BRANCH  24  25
HETATM   25  C   UNL     1     -11.414  14.341  69.915  1.00  0.00    -0.243 C  
HETATM   26  C   UNL     1     -12.214  12.394  71.025  1.00  0.00    -0.100 C  
HETATM   27  O   UNL     1     -11.870  12.985  69.760  1.00  0.00    -0.308 OA 
HETATM   28  C   UNL     1     -13.397  13.149  71.651  1.00  0.00    -0.308 C  
HETATM   29  H   UNL     1     -14.037  16.295  72.244  1.00  0.00     0.000 HD 
HETATM   30  O   UNL     1     -12.243  16.589  70.486  1.00  0.00    -0.243 OA 
HETATM   31  C   UNL     1     -13.084  14.649  71.727  1.00  0.00    -0.341 C  
HETATM   32  O   UNL     1     -13.723  12.708  72.977  1.00  0.00    -0.507 OA 
HETATM   33  H   UNL     1     -12.979  17.121  70.767  1.00  0.00     0.000 HD 
HETATM   34  H   UNL     1     -14.454  13.174  73.365  1.00  0.00     0.000 HD 
HETATM   35  O   UNL     1     -14.231  15.365  72.198  1.00  0.00    -0.528 OA 
HETATM   36  C   UNL     1     -12.611  15.205  70.372  1.00  0.00    -0.359 C  
BRANCH  26  37
HETATM   37  C   UNL     1     -12.552  10.914  70.812  1.00  0.00    -0.377 C  
BRANCH  37  38
HETATM   38  O   UNL     1     -11.713  10.133  71.663  1.00  0.00    -0.307 OA 
BRANCH  38  39
HETATM   39  C   UNL     1     -11.374   8.871  71.079  1.00  0.00    -0.291 C  
HETATM   40  O   UNL     1     -10.630   8.116  72.036  1.00  0.00    -0.230 OA 
HETATM   41  C   UNL     1     -10.113   6.867  71.573  1.00  0.00    -0.184 C  
HETATM   42  C   UNL     1      -9.270   7.031  70.292  1.00  0.00    -0.156 C  
HETATM   43  C   UNL     1     -11.217   5.816  71.484  1.00  0.00    -0.243 C  
HETATM   44  O   UNL     1      -8.060   7.738  70.612  1.00  0.00    -0.100 OA 
HETATM   45  C   UNL     1      -9.994   7.837  69.211  1.00  0.00    -0.182 C  
HETATM   46  O   UNL     1     -11.001   7.062  68.540  1.00  0.00    -0.398 OA 
HETATM   47  H   UNL     1      -7.541   7.839  69.823  1.00  0.00     0.000 HD 
HETATM   48  C   UNL     1     -10.579   9.136  69.781  1.00  0.00    -0.229 C  
HETATM   49  H   UNL     1     -11.450   7.561  67.869  1.00  0.00     0.000 HD 
HETATM   50  O   UNL     1     -11.415   9.759  68.789  1.00  0.00    -0.480 OA 
HETATM   51  H   UNL     1     -10.926   9.922  67.991  1.00  0.00     0.000 HD 
ENDBRANCH  38  39
ENDBRANCH  37  38
ENDBRANCH  26  37
ENDBRANCH  24  25
ENDBRANCH  19  24
ENDBRANCH   6  11
ENDBRANCH   2   3
TORSDOF 7
ENDMDL
MODEL       60
REMARK 921   NORMALIZED FREE ENERGY PREDICTED BY IDOCK:   -7.30 KCAL/MOL
REMARK 922        TOTAL FREE ENERGY PREDICTED BY IDOCK:  -11.57 KCAL/MOL
REMARK 923 INTER-LIGAND FREE ENERGY PREDICTED BY IDOCK:   -9.07 KCAL/MOL
REMARK 924 INTRA-LIGAND FREE ENERGY PREDICTED BY IDOCK:   -2.50 KCAL/MOL
REMARK 927      BINDING AFFINITY PREDICTED BY RF-SCORE:    0.00 PKD
ROOT
HETATM    1  C   UNL     1      -5.506  10.355  63.303  1.00  0.00    -0.154 C  
HETATM    2  O   UNL     1      -6.798   9.852  62.982  1.00  0.00    -0.113 OA 
ENDROOT
BRANCH   2   3
HETATM    3  C   UNL     1      -7.774  10.110  63.908  1.00  0.00    -0.140 A  
HETATM    4  C   UNL     1      -7.331  10.113  65.236  1.00  0.00    -0.141 A  
HETATM    5  C   UNL     1      -8.215  10.327  66.290  1.00  0.00    -0.131 A  
HETATM    6  C   UNL     1      -9.578  10.579  66.041  1.00  0.00    -0.242 A  
HETATM    7  C   UNL     1     -10.013  10.628  64.708  1.00  0.00    -0.391 A  
HETATM    8  H   UNL     1     -10.495  10.674  62.193  1.00  0.00     0.000 HD 
HETATM    9  O   UNL     1      -9.583  10.472  62.369  1.00  0.00    -0.247 OA 
HETATM   10  C   UNL     1      -9.115  10.405  63.649  1.00  0.00    -0.253 A  
BRANCH   6  11
HETATM   11  C   UNL     1     -10.556  10.624  67.205  1.00  0.00    -0.263 C  
HETATM   12  C   UNL     1     -10.440  11.981  67.879  1.00  0.00    -0.221 C  
HETATM   13  O   UNL     1     -12.154  13.065  69.106  1.00  0.00    -0.276 OA 
HETATM   14  C   UNL     1     -11.491  12.041  68.948  1.00  0.00    -0.301 C  
HETATM   15  C   UNL     1     -11.650  10.819  69.757  1.00  0.00    -0.393 A  
HETATM   16  C   UNL     1     -11.025   9.655  69.301  1.00  0.00    -0.168 A  
HETATM   17  C   UNL     1     -11.109   8.473  70.051  1.00  0.00    -0.152 A  
HETATM   18  O   UNL     1     -10.280   9.571  68.144  1.00  0.00    -0.175 OA 
HETATM   19  C   UNL     1     -11.797   8.454  71.269  1.00  0.00    -0.289 A  
HETATM   20  O   UNL     1     -12.948  11.925  71.452  1.00  0.00    -0.385 OA 
HETATM   21  C   UNL     1     -12.436   9.615  71.712  1.00  0.00    -0.487 A  
HETATM   22  H   UNL     1     -13.426  11.907  72.274  1.00  0.00     0.000 HD 
HETATM   23  C   UNL     1     -12.355  10.793  70.968  1.00  0.00    -0.404 A  
BRANCH  19  24
HETATM   24  O   UNL     1     -11.941   7.364  72.092  1.00  0.00    -0.286 OA 
BRANCH  24  25
HETATM   25  C   UNL     1     -10.876   6.405  72.088  1.00  0.00    -0.237 C  
HETATM   26  C   UNL     1      -9.774   4.790  70.733  1.00  0.00    -0.197 C  
HETATM   27  O   UNL     1     -10.944   5.610  70.891  1.00  0.00    -0.259 OA 
HETATM   28  C   UNL     1      -9.684   3.778  71.885  1.00  0.00    -0.167 C  
HETATM   29  H   UNL     1      -9.841   4.007  75.138  1.00  0.00     0.000 HD 
HETATM   30  O   UNL     1     -10.969   6.191  74.540  1.00  0.00    -0.229 OA 
HETATM   31  C   UNL     1      -9.758   4.507  73.233  1.00  0.00    -0.129 C  
HETATM   32  O   UNL     1      -8.474   3.006  71.878  1.00  0.00    -0.067 OA 
HETATM   33  H   UNL     1     -11.024   5.608  75.289  1.00  0.00     0.000 HD 
HETATM   34  H   UNL     1      -8.418   2.380  72.590  1.00  0.00     0.000 HD 
HETATM   35  O   UNL     1      -9.795   3.556  74.303  1.00  0.00    -0.104 OA 
HETATM   36  C   UNL     1     -10.966   5.457  73.306  1.00  0.00    -0.307 C  
BRANCH  26  37
HETATM   37  C   UNL     1      -9.839   4.079  69.375  1.00  0.00    -0.045 C  
BRANCH  37  38
HETATM   38  O   UNL     1      -8.505   3.814  68.942  1.00  0.00    -0.075 OA 
BRANCH  38  39
HETATM   39  C   UNL     1      -8.195   4.470  67.708  1.00  0.00    -0.099 C  
HETATM   40  O   UNL     1      -7.963   5.853  67.977  1.00  0.00    -0.103 OA 
HETATM   41  C   UNL     1      -7.749   6.679  66.832  1.00  0.00    -0.106 C  
HETATM   42  C   UNL     1      -8.894   6.549  65.806  1.00  0.00    -0.084 C  
HETATM   43  C   UNL     1      -6.350   6.472  66.259  1.00  0.00    -0.042 C  
HETATM   44  O   UNL     1     -10.088   7.129  66.357  1.00  0.00    -0.436 OA 
HETATM   45  C   UNL     1      -9.215   5.092  65.463  1.00  0.00    -0.151 C  
HETATM   46  O   UNL     1      -8.246   4.520  64.569  1.00  0.00    -0.098 OA 
HETATM   47  H   UNL     1     -10.793   7.049  65.725  1.00  0.00     0.000 HD 
HETATM   48  C   UNL     1      -9.371   4.242  66.732  1.00  0.00    -0.167 C  
HETATM   49  H   UNL     1      -8.445   3.616  64.356  1.00  0.00     0.000 HD 
HETATM   50  O   UNL     1      -9.470   2.854  66.366  1.00  0.00    -0.357 OA 
HETATM   51  H   UNL     1     -10.193   2.714  65.766  1.00  0.00     0.000 HD 
ENDBRANCH  38  39
ENDBRANCH  37  38
ENDBRANCH  26  37
ENDBRANCH  24  25
ENDBRANCH  19  24
ENDBRANCH   6  11
ENDBRANCH   2   3
TORSDOF 7
ENDMDL
MODEL       61
REMARK 921   NORMALIZED FREE ENERGY PREDICTED BY IDOCK:   -7.30 KCAL/MOL
REMARK 922        TOTAL FREE ENERGY PREDICTED BY IDOCK:  -11.56 KCAL/MOL
REMARK 923 INTER-LIGAND FREE ENERGY PREDICTED BY IDOCK:  -10.66 KCAL/MOL
REMARK 924 INTRA-LIGAND FREE ENERGY PREDICTED BY IDOCK:   -0.90 KCAL/MOL
REMARK 927      BINDING AFFINITY PREDICTED BY RF-SCORE:    0.00 PKD
ROOT
HETATM    1  C   UNL     1      -8.934  19.861  66.163  1.00  0.00    -0.311 C  
HETATM    2  O   UNL     1      -8.542  18.505  66.350  1.00  0.00    -0.286 OA 
ENDROOT
BRANCH   2   3
HETATM    3  C   UNL     1      -9.478  17.700  66.942  1.00  0.00    -0.276 A  
HETATM    4  C   UNL     1      -9.436  17.690  68.342  1.00  0.00    -0.298 A  
HETATM    5  C   UNL     1     -10.304  16.893  69.083  1.00  0.00    -0.319 A  
HETATM    6  C   UNL     1     -11.273  16.099  68.439  1.00  0.00    -0.358 A  
HETATM    7  C   UNL     1     -11.350  16.149  67.039  1.00  0.00     0.216 A  
HETATM    8  H   UNL     1     -11.259  16.466  64.500  1.00  0.00     0.000 HD 
HETATM    9  O   UNL     1     -10.586  16.975  64.938  1.00  0.00    -0.673 OA 
HETATM   10  C   UNL     1     -10.466  16.952  66.298  1.00  0.00    -0.262 A  
BRANCH   6  11
HETATM   11  C   UNL     1     -12.083  15.101  69.252  1.00  0.00    -0.244 C  
HETATM   12  C   UNL     1     -12.238  15.642  70.663  1.00  0.00    -0.446 C  
HETATM   13  O   UNL     1     -14.012  15.133  72.149  1.00  0.00    -0.438 OA 
HETATM   14  C   UNL     1     -13.134  14.696  71.408  1.00  0.00    -0.347 C  
HETATM   15  C   UNL     1     -12.877  13.262  71.184  1.00  0.00    -0.363 A  
HETATM   16  C   UNL     1     -12.034  12.913  70.126  1.00  0.00    -0.301 A  
HETATM   17  C   UNL     1     -11.722  11.566  69.891  1.00  0.00    -0.420 A  
HETATM   18  O   UNL     1     -11.436  13.817  69.273  1.00  0.00    -0.262 OA 
HETATM   19  C   UNL     1     -12.231  10.565  70.725  1.00  0.00    -0.369 A  
HETATM   20  O   UNL     1     -14.202  12.572  73.069  1.00  0.00    -0.231 OA 
HETATM   21  C   UNL     1     -13.088  10.917  71.772  1.00  0.00    -0.564 A  
HETATM   22  H   UNL     1     -14.557  11.890  73.627  1.00  0.00     0.000 HD 
HETATM   23  C   UNL     1     -13.401  12.256  72.007  1.00  0.00    -0.386 A  
BRANCH  19  24
HETATM   24  O   UNL     1     -11.992   9.219  70.601  1.00  0.00    -0.253 OA 
BRANCH  24  25
HETATM   25  C   UNL     1     -10.756   8.835  69.985  1.00  0.00    -0.228 C  
HETATM   26  C   UNL     1      -9.605   8.774  67.904  1.00  0.00    -0.145 C  
HETATM   27  O   UNL     1     -10.877   8.930  68.555  1.00  0.00    -0.125 OA 
HETATM   28  C   UNL     1      -9.050   7.367  68.169  1.00  0.00    -0.131 C  
HETATM   29  H   UNL     1      -8.595   5.564  70.853  1.00  0.00     0.000 HD 
HETATM   30  O   UNL     1     -10.298   7.196  71.766  1.00  0.00    -0.197 OA 
HETATM   31  C   UNL     1      -9.018   7.089  69.678  1.00  0.00    -0.141 C  
HETATM   32  O   UNL     1      -7.720   7.169  67.666  1.00  0.00    -0.107 OA 
HETATM   33  H   UNL     1     -10.063   6.302  71.987  1.00  0.00     0.000 HD 
HETATM   34  H   UNL     1      -7.376   6.299  67.830  1.00  0.00     0.000 HD 
HETATM   35  O   UNL     1      -8.614   5.736  69.918  1.00  0.00    -0.123 OA 
HETATM   36  C   UNL     1     -10.374   7.381  70.343  1.00  0.00    -0.209 C  
BRANCH  26  37
HETATM   37  C   UNL     1      -9.775   9.028  66.401  1.00  0.00    -0.268 C  
BRANCH  37  38
HETATM   38  O   UNL     1      -8.482   9.227  65.829  1.00  0.00    -0.124 OA 
BRANCH  38  39
HETATM   39  C   UNL     1      -7.871  10.440  66.279  1.00  0.00    -0.132 C  
HETATM   40  O   UNL     1      -6.777  10.104  67.133  1.00  0.00    -0.072 OA 
HETATM   41  C   UNL     1      -6.122  11.207  67.762  1.00  0.00    -0.047 C  
HETATM   42  C   UNL     1      -7.113  12.100  68.537  1.00  0.00    -0.099 C  
HETATM   43  C   UNL     1      -5.227  11.951  66.774  1.00  0.00    -0.040 C  
HETATM   44  O   UNL     1      -7.608  11.376  69.675  1.00  0.00    -0.360 OA 
HETATM   45  C   UNL     1      -8.325  12.503  67.693  1.00  0.00    -0.172 C  
HETATM   46  O   UNL     1      -8.009  13.541  66.751  1.00  0.00    -0.386 OA 
HETATM   47  H   UNL     1      -8.219  11.926  70.153  1.00  0.00     0.000 HD 
HETATM   48  C   UNL     1      -8.947  11.287  66.994  1.00  0.00    -0.154 C  
HETATM   49  H   UNL     1      -8.760  13.792  66.228  1.00  0.00     0.000 HD 
HETATM   50  O   UNL     1      -9.948  11.733  66.062  1.00  0.00    -0.216 OA 
HETATM   51  H   UNL     1     -10.610  12.254  66.502  1.00  0.00     0.000 HD 
ENDBRANCH  38  39
ENDBRANCH  37  38
ENDBRANCH  26  37
ENDBRANCH  24  25
ENDBRANCH  19  24
ENDBRANCH   6  11
ENDBRANCH   2   3
TORSDOF 7
ENDMDL
MODEL       62
REMARK 921   NORMALIZED FREE ENERGY PREDICTED BY IDOCK:   -7.29 KCAL/MOL
REMARK 922        TOTAL FREE ENERGY PREDICTED BY IDOCK:  -11.56 KCAL/MOL
REMARK 923 INTER-LIGAND FREE ENERGY PREDICTED BY IDOCK:  -10.19 KCAL/MOL
REMARK 924 INTRA-LIGAND FREE ENERGY PREDICTED BY IDOCK:   -1.37 KCAL/MOL
REMARK 927      BINDING AFFINITY PREDICTED BY RF-SCORE:    0.00 PKD
ROOT
HETATM    1  C   UNL     1      -8.336   1.492  63.094  1.00  0.00    -0.065 C  
HETATM    2  O   UNL     1      -7.544   2.674  63.161  1.00  0.00    -0.059 OA 
ENDROOT
BRANCH   2   3
HETATM    3  C   UNL     1      -7.679   3.405  64.311  1.00  0.00    -0.077 A  
HETATM    4  C   UNL     1      -7.060   2.845  65.435  1.00  0.00    -0.058 A  
HETATM    5  C   UNL     1      -7.140   3.457  66.683  1.00  0.00    -0.055 A  
HETATM    6  C   UNL     1      -7.823   4.680  66.837  1.00  0.00    -0.099 A  
HETATM    7  C   UNL     1      -8.398   5.269  65.701  1.00  0.00    -0.126 A  
HETATM    8  H   UNL     1      -9.320   6.098  63.461  1.00  0.00     0.000 HD 
HETATM    9  O   UNL     1      -8.886   5.257  63.369  1.00  0.00    -0.053 OA 
HETATM   10  C   UNL     1      -8.318   4.641  64.446  1.00  0.00    -0.118 A  
BRANCH   6  11
HETATM   11  C   UNL     1      -8.056   5.235  68.234  1.00  0.00    -0.094 C  
HETATM   12  C   UNL     1      -7.528   4.231  69.246  1.00  0.00    -0.055 C  
HETATM   13  O   UNL     1      -6.760   4.745  71.427  1.00  0.00    -0.035 OA 
HETATM   14  C   UNL     1      -7.667   4.852  70.604  1.00  0.00    -0.066 C  
HETATM   15  C   UNL     1      -8.932   5.567  70.854  1.00  0.00    -0.153 A  
HETATM   16  C   UNL     1      -9.752   5.835  69.756  1.00  0.00    -0.162 A  
HETATM   17  C   UNL     1     -10.985   6.476  69.940  1.00  0.00    -0.393 A  
HETATM   18  O   UNL     1      -9.455   5.485  68.455  1.00  0.00    -0.115 OA 
HETATM   19  C   UNL     1     -11.415   6.831  71.223  1.00  0.00    -0.302 A  
HETATM   20  O   UNL     1      -8.587   5.662  73.232  1.00  0.00    -0.117 OA 
HETATM   21  C   UNL     1     -10.584   6.578  72.317  1.00  0.00    -0.238 A  
HETATM   22  H   UNL     1      -8.874   5.915  74.102  1.00  0.00     0.000 HD 
HETATM   23  C   UNL     1      -9.355   5.941  72.137  1.00  0.00    -0.145 A  
BRANCH  19  24
HETATM   24  O   UNL     1     -12.600   7.454  71.528  1.00  0.00    -0.336 OA 
BRANCH  24  25
HETATM   25  C   UNL     1     -12.764   8.798  71.059  1.00  0.00    -0.038 C  
HETATM   26  C   UNL     1     -11.761  10.476  69.702  1.00  0.00    -0.256 C  
HETATM   27  O   UNL     1     -11.568   9.225  70.384  1.00  0.00    -0.254 OA 
HETATM   28  C   UNL     1     -12.069  11.585  70.720  1.00  0.00    -0.309 C  
HETATM   29  H   UNL     1     -14.186  11.892  73.187  1.00  0.00     0.000 HD 
HETATM   30  O   UNL     1     -14.189   9.371  72.985  1.00  0.00    -0.929 OA 
HETATM   31  C   UNL     1     -13.248  11.170  71.611  1.00  0.00    -0.345 C  
HETATM   32  O   UNL     1     -12.408  12.842  70.115  1.00  0.00    -0.270 OA 
HETATM   33  H   UNL     1     -14.357   9.971  73.702  1.00  0.00     0.000 HD 
HETATM   34  H   UNL     1     -12.598  13.528  70.744  1.00  0.00     0.000 HD 
HETATM   35  O   UNL     1     -13.456  12.149  72.635  1.00  0.00    -0.213 OA 
HETATM   36  C   UNL     1     -13.038   9.775  72.225  1.00  0.00    -0.356 C  
BRANCH  26  37
HETATM   37  C   UNL     1     -10.504  10.805  68.889  1.00  0.00    -0.205 C  
BRANCH  37  38
HETATM   38  O   UNL     1     -10.798  10.610  67.506  1.00  0.00    -0.254 OA 
BRANCH  38  39
HETATM   39  C   UNL     1     -10.755  11.834  66.764  1.00  0.00    -0.253 C  
HETATM   40  O   UNL     1     -11.811  12.678  67.225  1.00  0.00    -0.365 OA 
HETATM   41  C   UNL     1     -11.981  13.902  66.508  1.00  0.00    -0.439 C  
HETATM   42  C   UNL     1     -12.146  13.665  64.993  1.00  0.00    -0.392 C  
HETATM   43  C   UNL     1     -10.901  14.913  66.885  1.00  0.00    -0.319 C  
HETATM   44  O   UNL     1     -13.407  13.017  64.752  1.00  0.00    -0.555 OA 
HETATM   45  C   UNL     1     -11.054  12.761  64.416  1.00  0.00    -0.349 C  
HETATM   46  O   UNL     1      -9.808  13.456  64.249  1.00  0.00    -0.679 OA 
HETATM   47  H   UNL     1     -13.508  12.871  63.819  1.00  0.00     0.000 HD 
HETATM   48  C   UNL     1     -10.875  11.493  65.263  1.00  0.00    -0.259 C  
HETATM   49  H   UNL     1      -9.130  12.896  63.891  1.00  0.00     0.000 HD 
HETATM   50  O   UNL     1      -9.714  10.776  64.807  1.00  0.00    -0.234 OA 
HETATM   51  H   UNL     1      -9.788  10.566  63.883  1.00  0.00     0.000 HD 
ENDBRANCH  38  39
ENDBRANCH  37  38
ENDBRANCH  26  37
ENDBRANCH  24  25
ENDBRANCH  19  24
ENDBRANCH   6  11
ENDBRANCH   2   3
TORSDOF 7
ENDMDL
MODEL       63
REMARK 921   NORMALIZED FREE ENERGY PREDICTED BY IDOCK:   -7.28 KCAL/MOL
REMARK 922        TOTAL FREE ENERGY PREDICTED BY IDOCK:  -11.53 KCAL/MOL
REMARK 923 INTER-LIGAND FREE ENERGY PREDICTED BY IDOCK:  -11.53 KCAL/MOL
REMARK 924 INTRA-LIGAND FREE ENERGY PREDICTED BY IDOCK:   -0.01 KCAL/MOL
REMARK 927      BINDING AFFINITY PREDICTED BY RF-SCORE:    0.00 PKD
ROOT
HETATM    1  C   UNL     1     -11.204   2.617  73.710  1.00  0.00    -0.188 C  
HETATM    2  O   UNL     1     -10.449   2.779  72.513  1.00  0.00    -0.149 OA 
ENDROOT
BRANCH   2   3
HETATM    3  C   UNL     1     -10.313   4.069  72.076  1.00  0.00    -0.051 A  
HETATM    4  C   UNL     1     -10.880   5.034  72.918  1.00  0.00    -0.322 A  
HETATM    5  C   UNL     1     -10.850   6.386  72.588  1.00  0.00    -0.270 A  
HETATM    6  C   UNL     1     -10.216   6.821  71.408  1.00  0.00    -0.216 A  
HETATM    7  C   UNL     1      -9.601   5.861  70.591  1.00  0.00    -0.208 A  
HETATM    8  H   UNL     1      -8.563   3.892  69.324  1.00  0.00     0.000 HD 
HETATM    9  O   UNL     1      -9.021   3.601  70.105  1.00  0.00    -0.090 OA 
HETATM   10  C   UNL     1      -9.641   4.497  70.928  1.00  0.00    -0.180 A  
BRANCH   6  11
HETATM   11  C   UNL     1     -10.355   8.272  70.975  1.00  0.00    -0.191 C  
HETATM   12  C   UNL     1     -11.799   8.699  71.178  1.00  0.00    -0.331 C  
HETATM   13  O   UNL     1     -12.542  10.915  71.565  1.00  0.00    -0.384 OA 
HETATM   14  C   UNL     1     -11.883  10.161  70.853  1.00  0.00    -0.374 C  
HETATM   15  C   UNL     1     -11.140  10.593  69.655  1.00  0.00    -0.342 A  
HETATM   16  C   UNL     1     -10.228   9.692  69.099  1.00  0.00    -0.202 A  
HETATM   17  C   UNL     1      -9.524  10.033  67.936  1.00  0.00    -0.159 A  
HETATM   18  O   UNL     1      -9.971   8.432  69.599  1.00  0.00    -0.185 OA 
HETATM   19  C   UNL     1      -9.742  11.265  67.311  1.00  0.00    -0.174 A  
HETATM   20  O   UNL     1     -12.252  12.722  69.543  1.00  0.00    -0.222 OA 
HETATM   21  C   UNL     1     -10.641  12.172  67.880  1.00  0.00    -0.230 A  
HETATM   22  H   UNL     1     -12.391  13.564  69.125  1.00  0.00     0.000 HD 
HETATM   23  C   UNL     1     -11.344  11.835  69.038  1.00  0.00    -0.278 A  
BRANCH  19  24
HETATM   24  O   UNL     1      -9.120  11.708  66.170  1.00  0.00    -0.213 OA 
BRANCH  24  25
HETATM   25  C   UNL     1      -9.869  12.591  65.325  1.00  0.00    -0.139 C  
HETATM   26  C   UNL     1     -10.783  14.784  65.200  1.00  0.00    -0.415 C  
HETATM   27  O   UNL     1     -10.229  13.774  66.060  1.00  0.00    -0.292 OA 
HETATM   28  C   UNL     1     -12.094  14.281  64.578  1.00  0.00    -0.480 C  
HETATM   29  H   UNL     1     -12.969  11.567  62.988  1.00  0.00     0.000 HD 
HETATM   30  O   UNL     1     -10.886  10.694  64.127  1.00  0.00    -0.336 OA 
HETATM   31  C   UNL     1     -11.866  12.929  63.888  1.00  0.00    -0.473 C  
HETATM   32  O   UNL     1     -12.648  15.175  63.601  1.00  0.00    -0.917 OA 
HETATM   33  H   UNL     1     -11.684  10.283  63.815  1.00  0.00     0.000 HD 
HETATM   34  H   UNL     1     -13.459  14.864  63.217  1.00  0.00     0.000 HD 
HETATM   35  O   UNL     1     -13.111  12.404  63.414  1.00  0.00    -0.689 OA 
HETATM   36  C   UNL     1     -11.167  11.922  64.818  1.00  0.00    -0.297 C  
BRANCH  26  37
HETATM   37  C   UNL     1     -11.011  16.065  66.011  1.00  0.00    -0.097 C  
BRANCH  37  38
HETATM   38  O   UNL     1     -10.685  15.799  67.375  1.00  0.00    -0.309 OA 
BRANCH  38  39
HETATM   39  C   UNL     1      -9.365  16.237  67.713  1.00  0.00    -0.216 C  
HETATM   40  O   UNL     1      -8.624  16.410  66.504  1.00  0.00    -0.233 OA 
HETATM   41  C   UNL     1      -7.243  16.739  66.667  1.00  0.00    -0.254 C  
HETATM   42  C   UNL     1      -6.511  15.724  67.568  1.00  0.00    -0.173 C  
HETATM   43  C   UNL     1      -7.072  18.200  67.075  1.00  0.00    -0.217 C  
HETATM   44  O   UNL     1      -6.424  14.463  66.884  1.00  0.00    -0.175 OA 
HETATM   45  C   UNL     1      -7.244  15.474  68.889  1.00  0.00    -0.142 C  
HETATM   46  O   UNL     1      -7.061  16.551  69.822  1.00  0.00    -0.082 OA 
HETATM   47  H   UNL     1      -5.973  13.838  67.439  1.00  0.00     0.000 HD 
HETATM   48  C   UNL     1      -8.734  15.188  68.654  1.00  0.00    -0.174 C  
HETATM   49  H   UNL     1      -7.515  16.396  70.642  1.00  0.00     0.000 HD 
HETATM   50  O   UNL     1      -9.419  15.158  69.919  1.00  0.00    -0.462 OA 
HETATM   51  H   UNL     1      -9.031  14.513  70.498  1.00  0.00     0.000 HD 
ENDBRANCH  38  39
ENDBRANCH  37  38
ENDBRANCH  26  37
ENDBRANCH  24  25
ENDBRANCH  19  24
ENDBRANCH   6  11
ENDBRANCH   2   3
TORSDOF 7
ENDMDL
MODEL       64
REMARK 921   NORMALIZED FREE ENERGY PREDICTED BY IDOCK:   -7.25 KCAL/MOL
REMARK 922        TOTAL FREE ENERGY PREDICTED BY IDOCK:  -11.49 KCAL/MOL
REMARK 923 INTER-LIGAND FREE ENERGY PREDICTED BY IDOCK:  -10.81 KCAL/MOL
REMARK 924 INTRA-LIGAND FREE ENERGY PREDICTED BY IDOCK:   -0.68 KCAL/MOL
REMARK 927      BINDING AFFINITY PREDICTED BY RF-SCORE:    0.00 PKD
ROOT
HETATM    1  C   UNL     1      -9.790   3.056  62.607  1.00  0.00    -0.093 C  
HETATM    2  O   UNL     1      -8.928   2.476  63.581  1.00  0.00    -0.092 OA 
ENDROOT
BRANCH   2   3
HETATM    3  C   UNL     1      -8.938   3.083  64.809  1.00  0.00    -0.129 A  
HETATM    4  C   UNL     1      -9.837   4.152  64.924  1.00  0.00    -0.202 A  
HETATM    5  C   UNL     1      -9.934   4.887  66.102  1.00  0.00    -0.252 A  
HETATM    6  C   UNL     1      -9.151   4.550  67.223  1.00  0.00    -0.138 A  
HETATM    7  C   UNL     1      -8.290   3.447  67.126  1.00  0.00    -0.093 A  
HETATM    8  H   UNL     1      -6.840   1.391  66.651  1.00  0.00     0.000 HD 
HETATM    9  O   UNL     1      -7.347   1.642  65.887  1.00  0.00    -0.054 OA 
HETATM   10  C   UNL     1      -8.192   2.713  65.931  1.00  0.00    -0.087 A  
BRANCH   6  11
HETATM   11  C   UNL     1      -9.138   5.474  68.431  1.00  0.00    -0.111 C  
HETATM   12  C   UNL     1     -10.042   4.883  69.500  1.00  0.00    -0.286 C  
HETATM   13  O   UNL     1      -9.837   5.242  71.833  1.00  0.00    -0.167 OA 
HETATM   14  C   UNL     1      -9.920   5.752  70.718  1.00  0.00    -0.193 C  
HETATM   15  C   UNL     1      -9.913   7.204  70.468  1.00  0.00    -0.191 A  
HETATM   16  C   UNL     1      -9.747   7.634  69.149  1.00  0.00    -0.164 A  
HETATM   17  C   UNL     1      -9.772   9.003  68.848  1.00  0.00    -0.166 A  
HETATM   18  O   UNL     1      -9.582   6.793  68.069  1.00  0.00    -0.120 OA 
HETATM   19  C   UNL     1      -9.986   9.947  69.857  1.00  0.00    -0.252 A  
HETATM   20  O   UNL     1     -10.303   7.759  72.775  1.00  0.00    -0.258 OA 
HETATM   21  C   UNL     1     -10.133   9.515  71.179  1.00  0.00    -0.262 A  
HETATM   22  H   UNL     1     -10.435   8.402  73.463  1.00  0.00     0.000 HD 
HETATM   23  C   UNL     1     -10.107   8.153  71.481  1.00  0.00    -0.188 A  
BRANCH  19  24
HETATM   24  O   UNL     1     -10.038  11.309  69.686  1.00  0.00     0.103 OA 
BRANCH  24  25
HETATM   25  C   UNL     1      -9.957  11.794  68.339  1.00  0.00    -0.202 C  
HETATM   26  C   UNL     1      -9.063  13.544  66.998  1.00  0.00    -0.244 C  
HETATM   27  O   UNL     1      -9.372  13.108  68.333  1.00  0.00    -0.207 OA 
HETATM   28  C   UNL     1     -10.356  13.674  66.178  1.00  0.00    -0.297 C  
HETATM   29  H   UNL     1     -12.904  11.712  65.613  1.00  0.00     0.000 HD 
HETATM   30  O   UNL     1     -12.027  10.613  67.716  1.00  0.00    -0.664 OA 
HETATM   31  C   UNL     1     -11.152  12.363  66.239  1.00  0.00    -0.303 C  
HETATM   32  O   UNL     1     -10.130  13.977  64.793  1.00  0.00    -0.572 OA 
HETATM   33  H   UNL     1     -12.886  10.668  67.315  1.00  0.00     0.000 HD 
HETATM   34  H   UNL     1     -10.928  14.057  64.285  1.00  0.00     0.000 HD 
HETATM   35  O   UNL     1     -12.411  12.524  65.575  1.00  0.00    -0.600 OA 
HETATM   36  C   UNL     1     -11.355  11.883  67.686  1.00  0.00    -0.304 C  
BRANCH  26  37
HETATM   37  C   UNL     1      -8.315  14.881  67.066  1.00  0.00    -0.216 C  
BRANCH  37  38
HETATM   38  O   UNL     1      -9.068  15.778  67.883  1.00  0.00    -0.184 OA 
BRANCH  38  39
HETATM   39  C   UNL     1      -8.746  17.148  67.624  1.00  0.00    -0.213 C  
HETATM   40  O   UNL     1      -8.454  17.786  68.867  1.00  0.00    -0.245 OA 
HETATM   41  C   UNL     1      -8.220  19.194  68.800  1.00  0.00    -0.347 C  
HETATM   42  C   UNL     1      -9.380  19.939  68.109  1.00  0.00    -0.308 C  
HETATM   43  C   UNL     1      -6.836  19.493  68.230  1.00  0.00    -0.320 C  
HETATM   44  O   UNL     1     -10.543  19.884  68.951  1.00  0.00    -0.540 OA 
HETATM   45  C   UNL     1      -9.763  19.314  66.765  1.00  0.00    -0.341 C  
HETATM   46  O   UNL     1      -8.829  19.648  65.726  1.00  0.00    -0.393 OA 
HETATM   47  H   UNL     1     -11.258  20.344  68.525  1.00  0.00     0.000 HD 
HETATM   48  C   UNL     1      -9.940  17.794  66.888  1.00  0.00    -0.332 C  
HETATM   49  H   UNL     1      -9.066  19.260  64.892  1.00  0.00     0.000 HD 
HETATM   50  O   UNL     1     -10.100  17.226  65.575  1.00  0.00    -0.581 OA 
HETATM   51  H   UNL     1     -10.835  17.623  65.123  1.00  0.00     0.000 HD 
ENDBRANCH  38  39
ENDBRANCH  37  38
ENDBRANCH  26  37
ENDBRANCH  24  25
ENDBRANCH  19  24
ENDBRANCH   6  11
ENDBRANCH   2   3
TORSDOF 7
ENDMDL
MODEL       65
REMARK 921   NORMALIZED FREE ENERGY PREDICTED BY IDOCK:   -7.24 KCAL/MOL
REMARK 922        TOTAL FREE ENERGY PREDICTED BY IDOCK:  -11.48 KCAL/MOL
REMARK 923 INTER-LIGAND FREE ENERGY PREDICTED BY IDOCK:  -11.30 KCAL/MOL
REMARK 924 INTRA-LIGAND FREE ENERGY PREDICTED BY IDOCK:   -0.17 KCAL/MOL
REMARK 927      BINDING AFFINITY PREDICTED BY RF-SCORE:    0.00 PKD
ROOT
HETATM    1  C   UNL     1      -7.700   2.737  68.105  1.00  0.00    -0.055 C  
HETATM    2  O   UNL     1      -7.777   2.823  69.524  1.00  0.00    -0.044 OA 
ENDROOT
BRANCH   2   3
HETATM    3  C   UNL     1      -8.225   4.020  70.016  1.00  0.00    -0.057 A  
HETATM    4  C   UNL     1      -9.540   3.997  70.499  1.00  0.00    -0.261 A  
HETATM    5  C   UNL     1     -10.144   5.147  70.999  1.00  0.00    -0.297 A  
HETATM    6  C   UNL     1      -9.431   6.361  71.061  1.00  0.00    -0.181 A  
HETATM    7  C   UNL     1      -8.097   6.372  70.627  1.00  0.00    -0.113 A  
HETATM    8  H   UNL     1      -5.697   6.073  69.785  1.00  0.00     0.000 HD 
HETATM    9  O   UNL     1      -6.193   5.265  69.715  1.00  0.00    -0.023 OA 
HETATM   10  C   UNL     1      -7.496   5.207  70.117  1.00  0.00    -0.063 A  
BRANCH   6  11
HETATM   11  C   UNL     1     -10.163   7.640  71.435  1.00  0.00    -0.185 C  
HETATM   12  C   UNL     1     -11.609   7.294  71.749  1.00  0.00    -0.309 C  
HETATM   13  O   UNL     1     -13.041   8.519  73.185  1.00  0.00    -0.107 OA 
HETATM   14  C   UNL     1     -12.277   8.551  72.223  1.00  0.00    -0.389 C  
HETATM   15  C   UNL     1     -11.951   9.773  71.465  1.00  0.00    -0.488 A  
HETATM   16  C   UNL     1     -10.876   9.715  70.574  1.00  0.00    -0.309 A  
HETATM   17  C   UNL     1     -10.546  10.834  69.797  1.00  0.00    -0.191 A  
HETATM   18  O   UNL     1     -10.095   8.597  70.364  1.00  0.00    -0.180 OA 
HETATM   19  C   UNL     1     -11.302  12.008  69.889  1.00  0.00    -0.065 A  
HETATM   20  O   UNL     1     -13.771  11.029  72.409  1.00  0.00    -0.467 OA 
HETATM   21  C   UNL     1     -12.365  12.068  70.794  1.00  0.00    -0.403 A  
HETATM   22  H   UNL     1     -14.276  11.831  72.480  1.00  0.00     0.000 HD 
HETATM   23  C   UNL     1     -12.695  10.956  71.569  1.00  0.00    -0.428 A  
BRANCH  19  24
HETATM   24  O   UNL     1     -11.082  13.162  69.178  1.00  0.00    -0.245 OA 
BRANCH  24  25
HETATM   25  C   UNL     1     -10.714  13.013  67.801  1.00  0.00    -0.229 C  
HETATM   26  C   UNL     1      -9.844  14.191  65.926  1.00  0.00    -0.289 C  
HETATM   27  O   UNL     1     -10.431  14.304  67.233  1.00  0.00    -0.266 OA 
HETATM   28  C   UNL     1     -10.842  13.534  64.959  1.00  0.00    -0.340 C  
HETATM   29  H   UNL     1     -12.665  10.828  65.055  1.00  0.00     0.000 HD 
HETATM   30  O   UNL     1     -12.231  11.091  67.533  1.00  0.00    -0.206 OA 
HETATM   31  C   UNL     1     -11.339  12.203  65.538  1.00  0.00    -0.344 C  
HETATM   32  O   UNL     1     -10.291  13.261  63.662  1.00  0.00    -0.551 OA 
HETATM   33  H   UNL     1     -12.930  10.690  67.029  1.00  0.00     0.000 HD 
HETATM   34  H   UNL     1     -10.907  12.855  63.064  1.00  0.00     0.000 HD 
HETATM   35  O   UNL     1     -12.357  11.652  64.696  1.00  0.00    -0.094 OA 
HETATM   36  C   UNL     1     -11.851  12.362  66.981  1.00  0.00    -0.297 C  
BRANCH  26  37
HETATM   37  C   UNL     1      -9.435  15.585  65.436  1.00  0.00     0.002 C  
BRANCH  37  38
HETATM   38  O   UNL     1      -8.560  16.164  66.404  1.00  0.00    -0.273 OA 
BRANCH  38  39
HETATM   39  C   UNL     1      -9.030  17.434  66.868  1.00  0.00    -0.245 C  
HETATM   40  O   UNL     1      -8.539  18.446  65.988  1.00  0.00    -0.501 OA 
HETATM   41  C   UNL     1      -8.824  19.792  66.373  1.00  0.00    -0.377 C  
HETATM   42  C   UNL     1      -8.348  20.094  67.808  1.00  0.00    -0.256 C  
HETATM   43  C   UNL     1     -10.283  20.145  66.094  1.00  0.00    -0.518 C  
HETATM   44  O   UNL     1      -6.911  20.089  67.839  1.00  0.00    -0.252 OA 
HETATM   45  C   UNL     1      -8.827  19.050  68.820  1.00  0.00    -0.316 C  
HETATM   46  O   UNL     1     -10.212  19.223  69.162  1.00  0.00    -0.573 OA 
HETATM   47  H   UNL     1      -6.617  20.275  68.723  1.00  0.00     0.000 HD 
HETATM   48  C   UNL     1      -8.550  17.625  68.323  1.00  0.00    -0.268 C  
HETATM   49  H   UNL     1     -10.510  18.575  69.790  1.00  0.00     0.000 HD 
HETATM   50  O   UNL     1      -9.190  16.681  69.201  1.00  0.00    -0.249 OA 
HETATM   51  H   UNL     1      -8.894  16.798  70.096  1.00  0.00     0.000 HD 
ENDBRANCH  38  39
ENDBRANCH  37  38
ENDBRANCH  26  37
ENDBRANCH  24  25
ENDBRANCH  19  24
ENDBRANCH   6  11
ENDBRANCH   2   3
TORSDOF 7
ENDMDL
MODEL       66
REMARK 921   NORMALIZED FREE ENERGY PREDICTED BY IDOCK:   -7.20 KCAL/MOL
REMARK 922        TOTAL FREE ENERGY PREDICTED BY IDOCK:  -11.42 KCAL/MOL
REMARK 923 INTER-LIGAND FREE ENERGY PREDICTED BY IDOCK:  -10.54 KCAL/MOL
REMARK 924 INTRA-LIGAND FREE ENERGY PREDICTED BY IDOCK:   -0.88 KCAL/MOL
REMARK 927      BINDING AFFINITY PREDICTED BY RF-SCORE:    0.00 PKD
ROOT
HETATM    1  C   UNL     1     -11.197   1.856  62.449  1.00  0.00    -0.212 C  
HETATM    2  O   UNL     1     -10.109   1.561  63.319  1.00  0.00    -0.108 OA 
ENDROOT
BRANCH   2   3
HETATM    3  C   UNL     1      -9.838   2.515  64.263  1.00  0.00    -0.089 A  
HETATM    4  C   UNL     1     -10.773   3.556  64.325  1.00  0.00    -0.123 A  
HETATM    5  C   UNL     1     -10.612   4.617  65.213  1.00  0.00    -0.118 A  
HETATM    6  C   UNL     1      -9.515   4.650  66.096  1.00  0.00    -0.169 A  
HETATM    7  C   UNL     1      -8.607   3.582  66.071  1.00  0.00    -0.117 A  
HETATM    8  H   UNL     1      -7.144   1.497  65.801  1.00  0.00     0.000 HD 
HETATM    9  O   UNL     1      -7.868   1.496  65.186  1.00  0.00    -0.069 OA 
HETATM   10  C   UNL     1      -8.773   2.517  65.167  1.00  0.00    -0.114 A  
BRANCH   6  11
HETATM   11  C   UNL     1      -9.258   5.901  66.923  1.00  0.00    -0.124 C  
HETATM   12  C   UNL     1     -10.239   5.922  68.083  1.00  0.00    -0.225 C  
HETATM   13  O   UNL     1      -9.889   6.993  70.168  1.00  0.00    -0.175 OA 
HETATM   14  C   UNL     1      -9.890   7.101  68.943  1.00  0.00    -0.156 C  
HETATM   15  C   UNL     1      -9.565   8.344  68.220  1.00  0.00    -0.156 A  
HETATM   16  C   UNL     1      -9.347   8.255  66.843  1.00  0.00    -0.176 A  
HETATM   17  C   UNL     1      -9.074   9.410  66.099  1.00  0.00    -0.214 A  
HETATM   18  O   UNL     1      -9.406   7.083  66.118  1.00  0.00    -0.138 OA 
HETATM   19  C   UNL     1      -9.040  10.663  66.721  1.00  0.00    -0.152 A  
HETATM   20  O   UNL     1      -9.752   9.717  70.185  1.00  0.00    -0.242 OA 
HETATM   21  C   UNL     1      -9.240  10.746  68.102  1.00  0.00    -0.151 A  
HETATM   22  H   UNL     1      -9.716  10.567  70.610  1.00  0.00     0.000 HD 
HETATM   23  C   UNL     1      -9.511   9.597  68.845  1.00  0.00    -0.157 A  
BRANCH  19  24
HETATM   24  O   UNL     1      -8.791  11.862  66.099  1.00  0.00    -0.166 OA 
BRANCH  24  25
HETATM   25  C   UNL     1      -9.926  12.682  65.797  1.00  0.00    -0.256 C  
HETATM   26  C   UNL     1     -11.456  14.238  66.745  1.00  0.00    -0.367 C  
HETATM   27  O   UNL     1     -10.461  13.235  67.013  1.00  0.00    -0.247 OA 
HETATM   28  C   UNL     1     -12.658  13.606  66.027  1.00  0.00    -0.386 C  
HETATM   29  H   UNL     1     -12.995  11.687  63.407  1.00  0.00     0.000 HD 
HETATM   30  O   UNL     1     -10.559  11.232  63.909  1.00  0.00    -0.348 OA 
HETATM   31  C   UNL     1     -12.185  12.846  64.780  1.00  0.00    -0.445 C  
HETATM   32  O   UNL     1     -13.642  14.561  65.603  1.00  0.00    -0.447 OA 
HETATM   33  H   UNL     1     -11.244  10.731  63.482  1.00  0.00     0.000 HD 
HETATM   34  H   UNL     1     -14.385  14.170  65.159  1.00  0.00     0.000 HD 
HETATM   35  O   UNL     1     -13.288  12.158  64.179  1.00  0.00    -0.750 OA 
HETATM   36  C   UNL     1     -11.042  11.868  65.103  1.00  0.00    -0.305 C  
BRANCH  26  37
HETATM   37  C   UNL     1     -11.882  14.889  68.067  1.00  0.00    -0.268 C  
BRANCH  37  38
HETATM   38  O   UNL     1     -11.614  16.288  67.988  1.00  0.00    -0.208 OA 
BRANCH  38  39
HETATM   39  C   UNL     1     -10.241  16.561  67.685  1.00  0.00    -0.279 C  
HETATM   40  O   UNL     1      -9.538  16.754  68.913  1.00  0.00    -0.247 OA 
HETATM   41  C   UNL     1      -8.171  17.149  68.787  1.00  0.00    -0.238 C  
HETATM   42  C   UNL     1      -8.012  18.407  67.909  1.00  0.00    -0.258 C  
HETATM   43  C   UNL     1      -7.294  15.968  68.378  1.00  0.00    -0.131 C  
HETATM   44  O   UNL     1      -8.571  19.537  68.600  1.00  0.00    -0.356 OA 
HETATM   45  C   UNL     1      -8.744  18.287  66.570  1.00  0.00    -0.274 C  
HETATM   46  O   UNL     1      -8.034  17.455  65.638  1.00  0.00    -0.477 OA 
HETATM   47  H   UNL     1      -8.474  20.312  68.059  1.00  0.00     0.000 HD 
HETATM   48  C   UNL     1     -10.186  17.801  66.765  1.00  0.00    -0.351 C  
HETATM   49  H   UNL     1      -8.488  17.380  64.807  1.00  0.00     0.000 HD 
HETATM   50  O   UNL     1     -10.769  17.511  65.481  1.00  0.00    -0.551 OA 
HETATM   51  H   UNL     1     -10.736  18.273  64.916  1.00  0.00     0.000 HD 
ENDBRANCH  38  39
ENDBRANCH  37  38
ENDBRANCH  26  37
ENDBRANCH  24  25
ENDBRANCH  19  24
ENDBRANCH   6  11
ENDBRANCH   2   3
TORSDOF 7
ENDMDL
MODEL       67
REMARK 921   NORMALIZED FREE ENERGY PREDICTED BY IDOCK:   -7.15 KCAL/MOL
REMARK 922        TOTAL FREE ENERGY PREDICTED BY IDOCK:  -11.36 KCAL/MOL
REMARK 923 INTER-LIGAND FREE ENERGY PREDICTED BY IDOCK:  -10.38 KCAL/MOL
REMARK 924 INTRA-LIGAND FREE ENERGY PREDICTED BY IDOCK:   -0.98 KCAL/MOL
REMARK 927      BINDING AFFINITY PREDICTED BY RF-SCORE:    0.00 PKD
ROOT
HETATM    1  C   UNL     1      -8.243   5.704  64.150  1.00  0.00    -0.111 C  
HETATM    2  O   UNL     1      -7.734   5.193  65.377  1.00  0.00    -0.084 OA 
ENDROOT
BRANCH   2   3
HETATM    3  C   UNL     1      -8.325   5.688  66.509  1.00  0.00    -0.110 A  
HETATM    4  C   UNL     1      -9.648   6.115  66.336  1.00  0.00    -0.162 A  
HETATM    5  C   UNL     1     -10.368   6.673  67.389  1.00  0.00    -0.279 A  
HETATM    6  C   UNL     1      -9.790   6.791  68.668  1.00  0.00    -0.142 A  
HETATM    7  C   UNL     1      -8.484   6.314  68.855  1.00  0.00    -0.120 A  
HETATM    8  H   UNL     1      -6.112   5.347  68.886  1.00  0.00     0.000 HD 
HETATM    9  O   UNL     1      -6.496   5.300  68.017  1.00  0.00    -0.044 OA 
HETATM   10  C   UNL     1      -7.761   5.758  67.785  1.00  0.00    -0.097 A  
BRANCH   6  11
HETATM   11  C   UNL     1     -10.522   7.568  69.751  1.00  0.00    -0.230 C  
HETATM   12  C   UNL     1     -11.798   6.820  70.102  1.00  0.00    -0.321 C  
HETATM   13  O   UNL     1     -12.925   6.913  72.184  1.00  0.00    -0.180 OA 
HETATM   14  C   UNL     1     -12.440   7.545  71.248  1.00  0.00    -0.323 C  
HETATM   15  C   UNL     1     -12.441   9.016  71.153  1.00  0.00    -0.285 A  
HETATM   16  C   UNL     1     -11.630   9.603  70.178  1.00  0.00    -0.141 A  
HETATM   17  C   UNL     1     -11.622  10.995  70.016  1.00  0.00    -0.427 A  
HETATM   18  O   UNL     1     -10.825   8.900  69.306  1.00  0.00    -0.197 OA 
HETATM   19  C   UNL     1     -12.439  11.806  70.812  1.00  0.00    -0.312 A  
HETATM   20  O   UNL     1     -14.070   9.282  72.902  1.00  0.00    -0.939 OA 
HETATM   21  C   UNL     1     -13.234  11.217  71.799  1.00  0.00    -0.480 A  
HETATM   22  H   UNL     1     -14.615   9.834  73.451  1.00  0.00     0.000 HD 
HETATM   23  C   UNL     1     -13.244   9.832  71.962  1.00  0.00    -0.460 A  
BRANCH  19  24
HETATM   24  O   UNL     1     -12.522  13.175  70.743  1.00  0.00    -0.349 OA 
BRANCH  24  25
HETATM   25  C   UNL     1     -11.840  13.810  69.654  1.00  0.00    -0.333 C  
HETATM   26  C   UNL     1      -9.791  13.832  68.445  1.00  0.00    -0.227 C  
HETATM   27  O   UNL     1     -10.460  13.403  69.642  1.00  0.00     0.301 OA 
HETATM   28  C   UNL     1      -9.759  15.367  68.384  1.00  0.00    -0.211 C  
HETATM   29  H   UNL     1     -12.011  17.709  68.706  1.00  0.00     0.000 HD 
HETATM   30  O   UNL     1     -13.243  15.825  69.860  1.00  0.00    -0.532 OA 
HETATM   31  C   UNL     1     -11.178  15.930  68.543  1.00  0.00    -0.362 C  
HETATM   32  O   UNL     1      -9.226  15.883  67.155  1.00  0.00    -0.202 OA 
HETATM   33  H   UNL     1     -13.273  16.771  69.936  1.00  0.00     0.000 HD 
HETATM   34  H   UNL     1      -9.205  16.831  67.117  1.00  0.00     0.000 HD 
HETATM   35  O   UNL     1     -11.133  17.360  68.607  1.00  0.00    -0.133 OA 
HETATM   36  C   UNL     1     -11.889  15.350  69.778  1.00  0.00    -0.347 C  
BRANCH  26  37
HETATM   37  C   UNL     1      -8.373  13.248  68.425  1.00  0.00    -0.131 C  
BRANCH  37  38
HETATM   38  O   UNL     1      -7.919  13.216  67.072  1.00  0.00    -0.111 OA 
BRANCH  38  39
HETATM   39  C   UNL     1      -8.798  12.472  66.222  1.00  0.00     0.067 C  
HETATM   40  O   UNL     1      -9.704  13.383  65.600  1.00  0.00    -0.201 OA 
HETATM   41  C   UNL     1     -10.728  12.789  64.800  1.00  0.00    -0.316 C  
HETATM   42  C   UNL     1     -11.532  11.733  65.585  1.00  0.00    -0.186 C  
HETATM   43  C   UNL     1     -10.170  12.307  63.464  1.00  0.00    -0.410 C  
HETATM   44  O   UNL     1     -12.309  12.391  66.600  1.00  0.00    -0.477 OA 
HETATM   45  C   UNL     1     -10.634  10.714  66.292  1.00  0.00    -0.161 C  
HETATM   46  O   UNL     1     -10.098   9.741  65.380  1.00  0.00    -0.311 OA 
HETATM   47  H   UNL     1     -12.805  11.740  67.084  1.00  0.00     0.000 HD 
HETATM   48  C   UNL     1      -9.517  11.410  67.082  1.00  0.00    -0.175 C  
HETATM   49  H   UNL     1      -9.541   9.108  65.818  1.00  0.00     0.000 HD 
HETATM   50  O   UNL     1      -8.586  10.422  67.560  1.00  0.00    -0.124 OA 
HETATM   51  H   UNL     1      -9.028   9.770  68.090  1.00  0.00     0.000 HD 
ENDBRANCH  38  39
ENDBRANCH  37  38
ENDBRANCH  26  37
ENDBRANCH  24  25
ENDBRANCH  19  24
ENDBRANCH   6  11
ENDBRANCH   2   3
TORSDOF 7
ENDMDL
MODEL       68
REMARK 921   NORMALIZED FREE ENERGY PREDICTED BY IDOCK:   -7.14 KCAL/MOL
REMARK 922        TOTAL FREE ENERGY PREDICTED BY IDOCK:  -11.34 KCAL/MOL
REMARK 923 INTER-LIGAND FREE ENERGY PREDICTED BY IDOCK:   -9.28 KCAL/MOL
REMARK 924 INTRA-LIGAND FREE ENERGY PREDICTED BY IDOCK:   -2.06 KCAL/MOL
REMARK 927      BINDING AFFINITY PREDICTED BY RF-SCORE:    0.00 PKD
ROOT
HETATM    1  C   UNL     1      -9.143   3.921  63.543  1.00  0.00    -0.119 C  
HETATM    2  O   UNL     1      -8.431   3.465  64.689  1.00  0.00    -0.093 OA 
ENDROOT
BRANCH   2   3
HETATM    3  C   UNL     1      -8.733   4.106  65.861  1.00  0.00    -0.115 A  
HETATM    4  C   UNL     1     -10.042   4.600  65.934  1.00  0.00    -0.280 A  
HETATM    5  C   UNL     1     -10.484   5.304  67.051  1.00  0.00    -0.290 A  
HETATM    6  C   UNL     1      -9.631   5.508  68.153  1.00  0.00    -0.144 A  
HETATM    7  C   UNL     1      -8.337   4.967  68.102  1.00  0.00    -0.096 A  
HETATM    8  H   UNL     1      -6.063   3.854  67.722  1.00  0.00     0.000 HD 
HETATM    9  O   UNL     1      -6.632   3.748  66.969  1.00  0.00    -0.043 OA 
HETATM   10  C   UNL     1      -7.896   4.263  66.968  1.00  0.00    -0.097 A  
BRANCH   6  11
HETATM   11  C   UNL     1     -10.069   6.434  69.277  1.00  0.00    -0.172 C  
HETATM   12  C   UNL     1     -11.143   5.729  70.090  1.00  0.00    -0.323 C  
HETATM   13  O   UNL     1     -11.630   6.130  72.374  1.00  0.00    -0.295 OA 
HETATM   14  C   UNL     1     -11.474   6.615  71.255  1.00  0.00    -0.311 C  
HETATM   15  C   UNL     1     -11.592   8.053  70.952  1.00  0.00    -0.284 A  
HETATM   16  C   UNL     1     -11.133   8.492  69.707  1.00  0.00    -0.062 A  
HETATM   17  C   UNL     1     -11.257   9.841  69.349  1.00  0.00    -0.154 A  
HETATM   18  O   UNL     1     -10.569   7.674  68.750  1.00  0.00    -0.204 OA 
HETATM   19  C   UNL     1     -11.861  10.754  70.221  1.00  0.00    -0.349 A  
HETATM   20  O   UNL     1     -12.666   8.563  73.042  1.00  0.00    -0.679 OA 
HETATM   21  C   UNL     1     -12.303  10.314  71.472  1.00  0.00    -0.488 A  
HETATM   22  H   UNL     1     -13.064   9.186  73.639  1.00  0.00     0.000 HD 
HETATM   23  C   UNL     1     -12.180   8.972  71.832  1.00  0.00    -0.381 A  
BRANCH  19  24
HETATM   24  O   UNL     1     -12.045  12.093  69.981  1.00  0.00    -0.313 OA 
BRANCH  24  25
HETATM   25  C   UNL     1     -11.284  12.668  68.911  1.00  0.00    -0.280 C  
HETATM   26  C   UNL     1      -9.184  12.564  67.798  1.00  0.00    -0.198 C  
HETATM   27  O   UNL     1      -9.927  12.197  68.973  1.00  0.00    -0.020 OA 
HETATM   28  C   UNL     1      -9.076  14.094  67.704  1.00  0.00    -0.194 C  
HETATM   29  H   UNL     1     -11.226  16.545  67.867  1.00  0.00     0.000 HD 
HETATM   30  O   UNL     1     -12.598  14.750  69.005  1.00  0.00    -0.568 OA 
HETATM   31  C   UNL     1     -10.472  14.727  67.784  1.00  0.00    -0.254 C  
HETATM   32  O   UNL     1      -8.463  14.553  66.490  1.00  0.00    -0.428 OA 
HETATM   33  H   UNL     1     -12.586  15.699  69.058  1.00  0.00     0.000 HD 
HETATM   34  H   UNL     1      -8.396  15.499  66.431  1.00  0.00     0.000 HD 
HETATM   35  O   UNL     1     -10.362  16.154  67.817  1.00  0.00    -0.267 OA 
HETATM   36  C   UNL     1     -11.266  14.212  68.997  1.00  0.00    -0.271 C  
BRANCH  26  37
HETATM   37  C   UNL     1      -7.796  11.914  67.857  1.00  0.00    -0.138 C  
BRANCH  37  38
HETATM   38  O   UNL     1      -7.232  11.938  66.546  1.00  0.00     0.008 OA 
BRANCH  38  39
HETATM   39  C   UNL     1      -7.324  10.667  65.894  1.00  0.00    -0.128 C  
HETATM   40  O   UNL     1      -8.458  10.685  65.027  1.00  0.00    -0.177 OA 
HETATM   41  C   UNL     1      -8.762   9.448  64.379  1.00  0.00    -0.199 C  
HETATM   42  C   UNL     1      -8.915   8.292  65.388  1.00  0.00    -0.011 C  
HETATM   43  C   UNL     1      -7.791   9.176  63.234  1.00  0.00    -0.130 C  
HETATM   44  O   UNL     1     -10.102   8.502  66.170  1.00  0.00    -0.456 OA 
HETATM   45  C   UNL     1      -7.738   8.203  66.364  1.00  0.00    -0.092 C  
HETATM   46  O   UNL     1      -6.573   7.621  65.756  1.00  0.00    -0.045 OA 
HETATM   47  H   UNL     1     -10.195   7.789  66.792  1.00  0.00     0.000 HD 
HETATM   48  C   UNL     1      -7.420   9.572  66.979  1.00  0.00    -0.091 C  
HETATM   49  H   UNL     1      -5.843   7.566  66.361  1.00  0.00     0.000 HD 
HETATM   50  O   UNL     1      -6.194   9.485  67.728  1.00  0.00    -0.053 OA 
HETATM   51  H   UNL     1      -6.254   8.812  68.396  1.00  0.00     0.000 HD 
ENDBRANCH  38  39
ENDBRANCH  37  38
ENDBRANCH  26  37
ENDBRANCH  24  25
ENDBRANCH  19  24
ENDBRANCH   6  11
ENDBRANCH   2   3
TORSDOF 7
ENDMDL
MODEL       69
REMARK 921   NORMALIZED FREE ENERGY PREDICTED BY IDOCK:   -7.11 KCAL/MOL
REMARK 922        TOTAL FREE ENERGY PREDICTED BY IDOCK:  -11.30 KCAL/MOL
REMARK 923 INTER-LIGAND FREE ENERGY PREDICTED BY IDOCK:   -9.03 KCAL/MOL
REMARK 924 INTRA-LIGAND FREE ENERGY PREDICTED BY IDOCK:   -2.27 KCAL/MOL
REMARK 927      BINDING AFFINITY PREDICTED BY RF-SCORE:    0.00 PKD
ROOT
HETATM    1  C   UNL     1     -11.743  15.981  64.536  1.00  0.00    -0.127 C  
HETATM    2  O   UNL     1     -12.485  14.773  64.408  1.00  0.00    -0.599 OA 
ENDROOT
BRANCH   2   3
HETATM    3  C   UNL     1     -11.748  13.621  64.493  1.00  0.00    -0.400 A  
HETATM    4  C   UNL     1     -10.697  13.668  65.417  1.00  0.00    -0.311 A  
HETATM    5  C   UNL     1      -9.840  12.584  65.589  1.00  0.00    -0.227 A  
HETATM    6  C   UNL     1     -10.033  11.396  64.857  1.00  0.00    -0.311 A  
HETATM    7  C   UNL     1     -11.118  11.330  63.970  1.00  0.00    -0.316 A  
HETATM    8  H   UNL     1     -13.176  11.505  62.457  1.00  0.00     0.000 HD 
HETATM    9  O   UNL     1     -13.022  12.315  62.930  1.00  0.00    -0.344 OA 
HETATM   10  C   UNL     1     -11.975  12.431  63.797  1.00  0.00    -0.514 A  
BRANCH   6  11
HETATM   11  C   UNL     1      -8.982  10.298  64.923  1.00  0.00    -0.201 C  
HETATM   12  C   UNL     1      -8.973   9.560  63.595  1.00  0.00    -0.207 C  
HETATM   13  O   UNL     1      -7.122   8.404  62.671  1.00  0.00    -0.090 OA 
HETATM   14  C   UNL     1      -7.854   8.562  63.646  1.00  0.00    -0.151 C  
HETATM   15  C   UNL     1      -7.718   7.819  64.912  1.00  0.00    -0.110 A  
HETATM   16  C   UNL     1      -8.440   8.282  66.015  1.00  0.00    -0.139 A  
HETATM   17  C   UNL     1      -8.380   7.592  67.234  1.00  0.00    -0.118 A  
HETATM   18  O   UNL     1      -9.261   9.390  66.002  1.00  0.00    -0.169 OA 
HETATM   19  C   UNL     1      -7.619   6.424  67.351  1.00  0.00    -0.100 A  
HETATM   20  O   UNL     1      -6.250   6.167  63.964  1.00  0.00    -0.028 OA 
HETATM   21  C   UNL     1      -6.884   5.974  66.250  1.00  0.00    -0.061 A  
HETATM   22  H   UNL     1      -5.723   5.381  64.048  1.00  0.00     0.000 HD 
HETATM   23  C   UNL     1      -6.941   6.659  65.036  1.00  0.00    -0.058 A  
BRANCH  19  24
HETATM   24  O   UNL     1      -7.488   5.661  68.484  1.00  0.00    -0.077 OA 
BRANCH  24  25
HETATM   25  C   UNL     1      -8.648   5.536  69.317  1.00  0.00    -0.104 C  
HETATM   26  C   UNL     1      -9.958   6.683  70.939  1.00  0.00    -0.187 C  
HETATM   27  O   UNL     1      -8.703   6.640  70.238  1.00  0.00    -0.144 OA 
HETATM   28  C   UNL     1     -10.116   5.425  71.806  1.00  0.00    -0.196 C  
HETATM   29  H   UNL     1      -9.829   2.220  71.250  1.00  0.00     0.000 HD 
HETATM   30  O   UNL     1      -8.498   3.078  69.277  1.00  0.00    -0.058 OA 
HETATM   31  C   UNL     1      -9.921   4.166  70.950  1.00  0.00    -0.136 C  
HETATM   32  O   UNL     1     -11.400   5.321  72.439  1.00  0.00    -0.213 OA 
HETATM   33  H   UNL     1      -8.480   2.271  69.779  1.00  0.00     0.000 HD 
HETATM   34  H   UNL     1     -11.499   4.543  72.976  1.00  0.00     0.000 HD 
HETATM   35  O   UNL     1      -9.950   3.000  71.780  1.00  0.00    -0.171 OA 
HETATM   36  C   UNL     1      -8.618   4.224  70.134  1.00  0.00    -0.069 C  
BRANCH  26  37
HETATM   37  C   UNL     1     -10.013   7.955  71.793  1.00  0.00    -0.177 C  
BRANCH  37  38
HETATM   38  O   UNL     1      -9.161   8.934  71.200  1.00  0.00    -0.208 OA 
BRANCH  38  39
HETATM   39  C   UNL     1      -9.896  10.040  70.666  1.00  0.00     0.194 C  
HETATM   40  O   UNL     1     -11.260   9.646  70.516  1.00  0.00    -0.255 OA 
HETATM   41  C   UNL     1     -12.115  10.602  69.886  1.00  0.00    -0.299 C  
HETATM   42  C   UNL     1     -11.566  11.053  68.518  1.00  0.00    -0.310 C  
HETATM   43  C   UNL     1     -12.465  11.738  70.843  1.00  0.00    -0.416 C  
HETATM   44  O   UNL     1     -11.640   9.954  67.595  1.00  0.00    -0.479 OA 
HETATM   45  C   UNL     1     -10.100  11.489  68.587  1.00  0.00    -0.207 C  
HETATM   46  O   UNL     1      -9.950  12.797  69.163  1.00  0.00    -0.393 OA 
HETATM   47  H   UNL     1     -11.301  10.232  66.751  1.00  0.00     0.000 HD 
HETATM   48  C   UNL     1      -9.244  10.452  69.328  1.00  0.00    -0.184 C  
HETATM   49  H   UNL     1      -9.041  13.068  69.206  1.00  0.00     0.000 HD 
HETATM   50  O   UNL     1      -7.927  10.989  69.545  1.00  0.00    -0.363 OA 
HETATM   51  H   UNL     1      -7.526  11.242  68.721  1.00  0.00     0.000 HD 
ENDBRANCH  38  39
ENDBRANCH  37  38
ENDBRANCH  26  37
ENDBRANCH  24  25
ENDBRANCH  19  24
ENDBRANCH   6  11
ENDBRANCH   2   3
TORSDOF 7
ENDMDL
MODEL       70
REMARK 921   NORMALIZED FREE ENERGY PREDICTED BY IDOCK:   -7.09 KCAL/MOL
REMARK 922        TOTAL FREE ENERGY PREDICTED BY IDOCK:  -11.27 KCAL/MOL
REMARK 923 INTER-LIGAND FREE ENERGY PREDICTED BY IDOCK:   -9.43 KCAL/MOL
REMARK 924 INTRA-LIGAND FREE ENERGY PREDICTED BY IDOCK:   -1.84 KCAL/MOL
REMARK 927      BINDING AFFINITY PREDICTED BY RF-SCORE:    0.00 PKD
ROOT
HETATM    1  C   UNL     1      -6.006  20.753  65.993  1.00  0.00    -0.232 C  
HETATM    2  O   UNL     1      -7.183  20.558  66.770  1.00  0.00    -0.273 OA 
ENDROOT
BRANCH   2   3
HETATM    3  C   UNL     1      -7.273  19.347  67.404  1.00  0.00    -0.213 A  
HETATM    4  C   UNL     1      -6.128  18.977  68.121  1.00  0.00    -0.228 A  
HETATM    5  C   UNL     1      -6.059  17.758  68.789  1.00  0.00    -0.195 A  
HETATM    6  C   UNL     1      -7.158  16.877  68.787  1.00  0.00    -0.216 A  
HETATM    7  C   UNL     1      -8.325  17.271  68.114  1.00  0.00    -0.233 A  
HETATM    8  H   UNL     1     -10.300  18.268  66.826  1.00  0.00     0.000 HD 
HETATM    9  O   UNL     1      -9.544  18.844  66.804  1.00  0.00    -0.299 OA 
HETATM   10  C   UNL     1      -8.385  18.501  67.437  1.00  0.00    -0.256 A  
BRANCH   6  11
HETATM   11  C   UNL     1      -6.998  15.479  69.363  1.00  0.00    -0.187 C  
HETATM   12  C   UNL     1      -5.903  15.514  70.416  1.00  0.00    -0.097 C  
HETATM   13  O   UNL     1      -5.716  14.042  72.263  1.00  0.00    -0.346 OA 
HETATM   14  C   UNL     1      -5.845  14.153  71.046  1.00  0.00    -0.217 C  
HETATM   15  C   UNL     1      -5.947  13.014  70.116  1.00  0.00    -0.135 A  
HETATM   16  C   UNL     1      -6.352  13.282  68.806  1.00  0.00    -0.094 A  
HETATM   17  C   UNL     1      -6.429  12.243  67.868  1.00  0.00    -0.088 A  
HETATM   18  O   UNL     1      -6.671  14.536  68.328  1.00  0.00    -0.096 OA 
HETATM   19  C   UNL     1      -6.079  10.937  68.227  1.00  0.00    -0.049 A  
HETATM   20  O   UNL     1      -5.186  11.417  71.745  1.00  0.00    -0.321 OA 
HETATM   21  C   UNL     1      -5.692  10.670  69.543  1.00  0.00    -0.039 A  
HETATM   22  H   UNL     1      -4.961  10.528  71.991  1.00  0.00     0.000 HD 
HETATM   23  C   UNL     1      -5.616  11.702  70.479  1.00  0.00    -0.153 A  
BRANCH  19  24
HETATM   24  O   UNL     1      -6.107   9.842  67.398  1.00  0.00    -0.057 OA 
BRANCH  24  25
HETATM   25  C   UNL     1      -7.391   9.267  67.129  1.00  0.00    -0.091 C  
HETATM   26  C   UNL     1      -9.709   9.469  67.627  1.00  0.00    -0.154 C  
HETATM   27  O   UNL     1      -8.374   9.845  68.006  1.00  0.00    -0.112 OA 
HETATM   28  C   UNL     1      -9.885   7.949  67.769  1.00  0.00    -0.163 C  
HETATM   29  H   UNL     1      -8.196   5.352  66.740  1.00  0.00     0.000 HD 
HETATM   30  O   UNL     1      -6.375   7.098  66.552  1.00  0.00    -0.044 OA 
HETATM   31  C   UNL     1      -8.784   7.216  66.991  1.00  0.00    -0.123 C  
HETATM   32  O   UNL     1     -11.148   7.469  67.285  1.00  0.00    -0.551 OA 
HETATM   33  H   UNL     1      -6.370   6.158  66.689  1.00  0.00     0.000 HD 
HETATM   34  H   UNL     1     -11.258   6.530  67.373  1.00  0.00     0.000 HD 
HETATM   35  O   UNL     1      -8.878   5.806  67.222  1.00  0.00    -0.109 OA 
HETATM   36  C   UNL     1      -7.383   7.737  67.353  1.00  0.00    -0.092 C  
BRANCH  26  37
HETATM   37  C   UNL     1     -10.713  10.227  68.504  1.00  0.00    -0.227 C  
BRANCH  37  38
HETATM   38  O   UNL     1     -11.822  10.609  67.691  1.00  0.00    -0.411 OA 
BRANCH  38  39
HETATM   39  C   UNL     1     -11.860  12.021  67.456  1.00  0.00    -0.205 C  
HETATM   40  O   UNL     1     -11.376  12.271  66.136  1.00  0.00    -0.318 OA 
HETATM   41  C   UNL     1     -11.241  13.648  65.777  1.00  0.00    -0.295 C  
HETATM   42  C   UNL     1     -10.376  14.425  66.789  1.00  0.00    -0.273 C  
HETATM   43  C   UNL     1     -12.602  14.273  65.483  1.00  0.00    -0.429 C  
HETATM   44  O   UNL     1      -9.016  13.972  66.693  1.00  0.00    -0.368 OA 
HETATM   45  C   UNL     1     -10.825  14.207  68.237  1.00  0.00    -0.247 C  
HETATM   46  O   UNL     1     -12.009  14.958  68.556  1.00  0.00    -0.486 OA 
HETATM   47  H   UNL     1      -8.483  14.452  67.317  1.00  0.00     0.000 HD 
HETATM   48  C   UNL     1     -11.012  12.715  68.544  1.00  0.00    -0.261 C  
HETATM   49  H   UNL     1     -12.287  14.823  69.454  1.00  0.00     0.000 HD 
HETATM   50  O   UNL     1     -11.622  12.568  69.839  1.00  0.00    -0.445 OA 
HETATM   51  H   UNL     1     -11.100  12.995  70.508  1.00  0.00     0.000 HD 
ENDBRANCH  38  39
ENDBRANCH  37  38
ENDBRANCH  26  37
ENDBRANCH  24  25
ENDBRANCH  19  24
ENDBRANCH   6  11
ENDBRANCH   2   3
TORSDOF 7
ENDMDL
MODEL       71
REMARK 921   NORMALIZED FREE ENERGY PREDICTED BY IDOCK:   -7.07 KCAL/MOL
REMARK 922        TOTAL FREE ENERGY PREDICTED BY IDOCK:  -11.24 KCAL/MOL
REMARK 923 INTER-LIGAND FREE ENERGY PREDICTED BY IDOCK:   -9.64 KCAL/MOL
REMARK 924 INTRA-LIGAND FREE ENERGY PREDICTED BY IDOCK:   -1.59 KCAL/MOL
REMARK 927      BINDING AFFINITY PREDICTED BY RF-SCORE:    0.00 PKD
ROOT
HETATM    1  C   UNL     1     -10.521  18.687  66.234  1.00  0.00    -0.424 C  
HETATM    2  O   UNL     1     -10.541  17.523  65.415  1.00  0.00    -0.648 OA 
ENDROOT
BRANCH   2   3
HETATM    3  C   UNL     1      -9.872  16.439  65.920  1.00  0.00    -0.315 A  
HETATM    4  C   UNL     1     -10.658  15.290  66.077  1.00  0.00    -0.327 A  
HETATM    5  C   UNL     1     -10.124  14.120  66.611  1.00  0.00    -0.275 A  
HETATM    6  C   UNL     1      -8.765  14.055  66.976  1.00  0.00    -0.220 A  
HETATM    7  C   UNL     1      -7.966  15.189  66.770  1.00  0.00    -0.047 A  
HETATM    8  H   UNL     1      -6.769  17.395  66.260  1.00  0.00     0.000 HD 
HETATM    9  O   UNL     1      -7.694  17.443  66.045  1.00  0.00    -0.434 OA 
HETATM   10  C   UNL     1      -8.513  16.369  66.236  1.00  0.00    -0.337 A  
BRANCH   6  11
HETATM   11  C   UNL     1      -8.250  12.836  67.725  1.00  0.00    -0.176 C  
HETATM   12  C   UNL     1      -7.004  13.236  68.499  1.00  0.00    -0.103 C  
HETATM   13  O   UNL     1      -6.216  12.200  70.478  1.00  0.00    -0.213 OA 
HETATM   14  C   UNL     1      -6.585  12.049  69.315  1.00  0.00    -0.109 C  
HETATM   15  C   UNL     1      -6.648  10.747  68.628  1.00  0.00    -0.056 A  
HETATM   16  C   UNL     1      -7.330  10.689  67.410  1.00  0.00    -0.093 A  
HETATM   17  C   UNL     1      -7.388   9.486  66.693  1.00  0.00    -0.090 A  
HETATM   18  O   UNL     1      -7.953  11.765  66.813  1.00  0.00    -0.161 OA 
HETATM   19  C   UNL     1      -6.747   8.341  67.178  1.00  0.00    -0.063 A  
HETATM   20  O   UNL     1      -5.322   9.629  70.295  1.00  0.00    -0.037 OA 
HETATM   21  C   UNL     1      -6.081   8.397  68.406  1.00  0.00    -0.046 A  
HETATM   22  H   UNL     1      -4.898   8.848  70.629  1.00  0.00     0.000 HD 
HETATM   23  C   UNL     1      -6.023   9.593  69.121  1.00  0.00    -0.034 A  
BRANCH  19  24
HETATM   24  O   UNL     1      -6.727   7.112  66.565  1.00  0.00    -0.054 OA 
BRANCH  24  25
HETATM   25  C   UNL     1      -7.978   6.614  66.075  1.00  0.00    -0.112 C  
HETATM   26  C   UNL     1     -10.273   6.342  66.643  1.00  0.00    -0.164 C  
HETATM   27  O   UNL     1      -8.951   6.618  67.135  1.00  0.00    -0.116 OA 
HETATM   28  C   UNL     1     -10.326   4.925  66.052  1.00  0.00    -0.271 C  
HETATM   29  H   UNL     1      -8.508   3.285  63.892  1.00  0.00     0.000 HD 
HETATM   30  O   UNL     1      -6.837   5.076  64.526  1.00  0.00    -0.046 OA 
HETATM   31  C   UNL     1      -9.220   4.749  65.004  1.00  0.00    -0.133 C  
HETATM   32  O   UNL     1     -11.575   4.614  65.417  1.00  0.00    -1.015 OA 
HETATM   33  H   UNL     1      -6.754   4.186  64.202  1.00  0.00     0.000 HD 
HETATM   34  H   UNL     1     -11.609   3.737  65.052  1.00  0.00     0.000 HD 
HETATM   35  O   UNL     1      -9.194   3.394  64.541  1.00  0.00    -0.124 OA 
HETATM   36  C   UNL     1      -7.843   5.167  65.548  1.00  0.00    -0.092 C  
BRANCH  26  37
HETATM   37  C   UNL     1     -11.279   6.502  67.789  1.00  0.00    -0.161 C  
BRANCH  37  38
HETATM   38  O   UNL     1     -10.612   6.216  69.018  1.00  0.00    -0.217 OA 
BRANCH  38  39
HETATM   39  C   UNL     1     -11.010   7.101  70.070  1.00  0.00    -0.262 C  
HETATM   40  O   UNL     1     -10.500   8.404  69.782  1.00  0.00    -0.214 OA 
HETATM   41  C   UNL     1     -10.713   9.389  70.794  1.00  0.00    -0.305 C  
HETATM   42  C   UNL     1     -10.182   8.931  72.167  1.00  0.00    -0.222 C  
HETATM   43  C   UNL     1     -12.162   9.870  70.795  1.00  0.00    -0.380 C  
HETATM   44  O   UNL     1      -8.746   8.875  72.122  1.00  0.00    -0.386 OA 
HETATM   45  C   UNL     1     -10.678   7.535  72.553  1.00  0.00    -0.285 C  
HETATM   46  O   UNL     1     -12.043   7.549  73.001  1.00  0.00    -0.524 OA 
HETATM   47  H   UNL     1      -8.419   8.592  72.968  1.00  0.00     0.000 HD 
HETATM   48  C   UNL     1     -10.479   6.535  71.405  1.00  0.00    -0.213 C  
HETATM   49  H   UNL     1     -12.351   6.683  73.241  1.00  0.00     0.000 HD 
HETATM   50  O   UNL     1     -11.135   5.297  71.733  1.00  0.00    -0.141 OA 
HETATM   51  H   UNL     1     -10.808   4.949  72.554  1.00  0.00     0.000 HD 
ENDBRANCH  38  39
ENDBRANCH  37  38
ENDBRANCH  26  37
ENDBRANCH  24  25
ENDBRANCH  19  24
ENDBRANCH   6  11
ENDBRANCH   2   3
TORSDOF 7
ENDMDL
MODEL       72
REMARK 921   NORMALIZED FREE ENERGY PREDICTED BY IDOCK:   -7.04 KCAL/MOL
REMARK 922        TOTAL FREE ENERGY PREDICTED BY IDOCK:  -11.20 KCAL/MOL
REMARK 923 INTER-LIGAND FREE ENERGY PREDICTED BY IDOCK:   -9.95 KCAL/MOL
REMARK 924 INTRA-LIGAND FREE ENERGY PREDICTED BY IDOCK:   -1.24 KCAL/MOL
REMARK 927      BINDING AFFINITY PREDICTED BY RF-SCORE:    0.00 PKD
ROOT
HETATM    1  C   UNL     1      -7.317   5.667  66.595  1.00  0.00    -0.083 C  
HETATM    2  O   UNL     1      -7.673   6.078  65.279  1.00  0.00    -0.083 OA 
ENDROOT
BRANCH   2   3
HETATM    3  C   UNL     1      -8.173   7.349  65.176  1.00  0.00    -0.113 A  
HETATM    4  C   UNL     1      -9.023   7.727  66.223  1.00  0.00    -0.209 A  
HETATM    5  C   UNL     1      -9.634   8.978  66.239  1.00  0.00    -0.327 A  
HETATM    6  C   UNL     1      -9.384   9.909  65.212  1.00  0.00    -0.309 A  
HETATM    7  C   UNL     1      -8.492   9.551  64.191  1.00  0.00    -0.194 A  
HETATM    8  H   UNL     1      -6.818   8.620  62.491  1.00  0.00     0.000 HD 
HETATM    9  O   UNL     1      -7.015   7.984  63.170  1.00  0.00    -0.082 OA 
HETATM   10  C   UNL     1      -7.883   8.283  64.179  1.00  0.00    -0.145 A  
BRANCH   6  11
HETATM   11  C   UNL     1     -10.201  11.191  65.150  1.00  0.00    -0.289 C  
HETATM   12  C   UNL     1     -10.895  11.255  63.800  1.00  0.00    -0.424 C  
HETATM   13  O   UNL     1     -12.914  12.406  63.339  1.00  0.00    -0.723 OA 
HETATM   14  C   UNL     1     -11.780  12.467  63.809  1.00  0.00    -0.483 C  
HETATM   15  C   UNL     1     -11.194  13.681  64.404  1.00  0.00    -0.382 A  
HETATM   16  C   UNL     1     -10.009  13.540  65.132  1.00  0.00    -0.176 A  
HETATM   17  C   UNL     1      -9.386  14.666  65.685  1.00  0.00     0.062 A  
HETATM   18  O   UNL     1      -9.359  12.341  65.338  1.00  0.00    -0.055 OA 
HETATM   19  C   UNL     1      -9.929  15.942  65.496  1.00  0.00    -0.278 A  
HETATM   20  O   UNL     1     -12.887  15.129  63.497  1.00  0.00    -0.496 OA 
HETATM   21  C   UNL     1     -11.124  16.078  64.782  1.00  0.00    -0.378 A  
HETATM   22  H   UNL     1     -13.262  15.994  63.379  1.00  0.00     0.000 HD 
HETATM   23  C   UNL     1     -11.747  14.958  64.231  1.00  0.00    -0.247 A  
BRANCH  19  24
HETATM   24  O   UNL     1      -9.408  17.116  65.981  1.00  0.00    -0.461 OA 
BRANCH  24  25
HETATM   25  C   UNL     1      -8.289  17.009  66.869  1.00  0.00    -0.218 C  
HETATM   26  C   UNL     1      -7.279  15.598  68.496  1.00  0.00    -0.120 C  
HETATM   27  O   UNL     1      -8.470  15.881  67.743  1.00  0.00    -0.155 OA 
HETATM   28  C   UNL     1      -6.952  16.778  69.423  1.00  0.00    -0.176 C  
HETATM   29  H   UNL     1      -6.658  20.002  68.993  1.00  0.00     0.000 HD 
HETATM   30  O   UNL     1      -8.014  19.456  66.928  1.00  0.00    -0.251 OA 
HETATM   31  C   UNL     1      -6.885  18.081  68.614  1.00  0.00    -0.249 C  
HETATM   32  O   UNL     1      -5.703  16.637  70.116  1.00  0.00    -0.211 OA 
HETATM   33  H   UNL     1      -7.919  20.236  67.463  1.00  0.00     0.000 HD 
HETATM   34  H   UNL     1      -5.500  17.366  70.690  1.00  0.00     0.000 HD 
HETATM   35  O   UNL     1      -6.700  19.195  69.494  1.00  0.00    -0.296 OA 
HETATM   36  C   UNL     1      -8.135  18.277  67.739  1.00  0.00    -0.250 C  
BRANCH  26  37
HETATM   37  C   UNL     1      -7.485  14.307  69.297  1.00  0.00    -0.022 C  
BRANCH  37  38
HETATM   38  O   UNL     1      -8.141  13.356  68.457  1.00  0.00    -0.150 OA 
BRANCH  38  39
HETATM   39  C   UNL     1      -9.215  12.689  69.129  1.00  0.00     0.702 C  
HETATM   40  O   UNL     1      -9.373  11.393  68.551  1.00  0.00    -0.182 OA 
HETATM   41  C   UNL     1     -10.482  10.632  69.033  1.00  0.00    -0.214 C  
HETATM   42  C   UNL     1     -11.810  11.407  68.910  1.00  0.00    -0.347 C  
HETATM   43  C   UNL     1     -10.197  10.066  70.421  1.00  0.00    -0.218 C  
HETATM   44  O   UNL     1     -12.145  11.549  67.519  1.00  0.00    -0.614 OA 
HETATM   45  C   UNL     1     -11.726  12.816  69.502  1.00  0.00    -0.318 C  
HETATM   46  O   UNL     1     -11.779  12.804  70.938  1.00  0.00    -0.323 OA 
HETATM   47  H   UNL     1     -12.964  12.026  67.443  1.00  0.00     0.000 HD 
HETATM   48  C   UNL     1     -10.483  13.560  68.996  1.00  0.00    -0.051 C  
HETATM   49  H   UNL     1     -11.727  13.678  71.306  1.00  0.00     0.000 HD 
HETATM   50  O   UNL     1     -10.336  14.792  69.725  1.00  0.00    -0.412 OA 
HETATM   51  H   UNL     1     -11.115  15.328  69.643  1.00  0.00     0.000 HD 
ENDBRANCH  38  39
ENDBRANCH  37  38
ENDBRANCH  26  37
ENDBRANCH  24  25
ENDBRANCH  19  24
ENDBRANCH   6  11
ENDBRANCH   2   3
TORSDOF 7
ENDMDL
MODEL       73
REMARK 921   NORMALIZED FREE ENERGY PREDICTED BY IDOCK:   -7.03 KCAL/MOL
REMARK 922        TOTAL FREE ENERGY PREDICTED BY IDOCK:  -11.18 KCAL/MOL
REMARK 923 INTER-LIGAND FREE ENERGY PREDICTED BY IDOCK:   -9.79 KCAL/MOL
REMARK 924 INTRA-LIGAND FREE ENERGY PREDICTED BY IDOCK:   -1.39 KCAL/MOL
REMARK 927      BINDING AFFINITY PREDICTED BY RF-SCORE:    0.00 PKD
ROOT
HETATM    1  C   UNL     1      -9.989   3.531  73.141  1.00  0.00    -0.134 C  
HETATM    2  O   UNL     1      -9.063   3.113  72.143  1.00  0.00    -0.092 OA 
ENDROOT
BRANCH   2   3
HETATM    3  C   UNL     1      -8.857   4.005  71.124  1.00  0.00    -0.092 A  
HETATM    4  C   UNL     1      -9.987   4.747  70.760  1.00  0.00    -0.291 A  
HETATM    5  C   UNL     1      -9.939   5.668  69.718  1.00  0.00    -0.264 A  
HETATM    6  C   UNL     1      -8.736   5.902  69.023  1.00  0.00    -0.114 A  
HETATM    7  C   UNL     1      -7.590   5.198  69.423  1.00  0.00    -0.061 A  
HETATM    8  H   UNL     1      -5.683   3.787  70.387  1.00  0.00     0.000 HD 
HETATM    9  O   UNL     1      -6.505   3.610  70.830  1.00  0.00    -0.028 OA 
HETATM   10  C   UNL     1      -7.648   4.264  70.472  1.00  0.00    -0.052 A  
BRANCH   6  11
HETATM   11  C   UNL     1      -8.749   6.770  67.775  1.00  0.00    -0.120 C  
HETATM   12  C   UNL     1      -7.317   7.146  67.434  1.00  0.00    -0.092 C  
HETATM   13  O   UNL     1      -6.507   7.681  65.273  1.00  0.00    -0.041 OA 
HETATM   14  C   UNL     1      -7.350   7.904  66.140  1.00  0.00    -0.074 C  
HETATM   15  C   UNL     1      -8.431   8.896  66.007  1.00  0.00    -0.138 A  
HETATM   16  C   UNL     1      -9.464   8.858  66.948  1.00  0.00    -0.177 A  
HETATM   17  C   UNL     1     -10.498   9.803  66.895  1.00  0.00    -0.281 A  
HETATM   18  O   UNL     1      -9.543   7.950  67.984  1.00  0.00    -0.147 OA 
HETATM   19  C   UNL     1     -10.494  10.804  65.917  1.00  0.00    -0.204 A  
HETATM   20  O   UNL     1      -7.425   9.968  64.104  1.00  0.00    -0.131 OA 
HETATM   21  C   UNL     1      -9.469  10.828  64.967  1.00  0.00    -0.286 A  
HETATM   22  H   UNL     1      -7.430  10.641  63.433  1.00  0.00     0.000 HD 
HETATM   23  C   UNL     1      -8.439   9.888  65.017  1.00  0.00    -0.154 A  
BRANCH  19  24
HETATM   24  O   UNL     1     -11.444  11.784  65.769  1.00  0.00    -0.300 OA 
BRANCH  24  25
HETATM   25  C   UNL     1     -11.300  12.953  66.585  1.00  0.00    -0.317 C  
HETATM   26  C   UNL     1      -9.953  14.886  66.921  1.00  0.00    -0.242 C  
HETATM   27  O   UNL     1     -10.045  13.594  66.296  1.00  0.00    -0.284 OA 
HETATM   28  C   UNL     1      -9.985  14.732  68.449  1.00  0.00    -0.223 C  
HETATM   29  H   UNL     1     -11.944  13.170  70.543  1.00  0.00     0.000 HD 
HETATM   30  O   UNL     1     -12.531  11.895  68.438  1.00  0.00    -0.154 OA 
HETATM   31  C   UNL     1     -11.217  13.919  68.871  1.00  0.00    -0.271 C  
HETATM   32  O   UNL     1     -10.032  15.982  69.152  1.00  0.00    -0.218 OA 
HETATM   33  H   UNL     1     -12.548  11.677  69.363  1.00  0.00     0.000 HD 
HETATM   34  H   UNL     1     -10.051  15.887  70.097  1.00  0.00     0.000 HD 
HETATM   35  O   UNL     1     -11.182  13.674  70.281  1.00  0.00     0.045 OA 
HETATM   36  C   UNL     1     -11.327  12.598  68.090  1.00  0.00    -0.290 C  
BRANCH  26  37
HETATM   37  C   UNL     1      -8.664  15.576  66.461  1.00  0.00    -0.305 C  
BRANCH  37  38
HETATM   38  O   UNL     1      -9.013  16.645  65.581  1.00  0.00    -0.463 OA 
BRANCH  38  39
HETATM   39  C   UNL     1      -8.930  17.923  66.221  1.00  0.00    -0.168 C  
HETATM   40  O   UNL     1      -8.350  17.744  67.514  1.00  0.00    -0.222 OA 
HETATM   41  C   UNL     1      -8.298  18.912  68.335  1.00  0.00    -0.347 C  
HETATM   42  C   UNL     1      -9.683  19.572  68.488  1.00  0.00    -0.419 C  
HETATM   43  C   UNL     1      -7.186  19.853  67.879  1.00  0.00    -0.317 C  
HETATM   44  O   UNL     1     -10.530  18.713  69.270  1.00  0.00    -0.418 OA 
HETATM   45  C   UNL     1     -10.381  19.795  67.144  1.00  0.00    -0.458 C  
HETATM   46  O   UNL     1      -9.839  20.921  66.433  1.00  0.00    -0.522 OA 
HETATM   47  H   UNL     1     -11.384  19.120  69.364  1.00  0.00     0.000 HD 
HETATM   48  C   UNL     1     -10.351  18.526  66.283  1.00  0.00    -0.427 C  
HETATM   49  H   UNL     1     -10.272  21.060  65.599  1.00  0.00     0.000 HD 
HETATM   50  O   UNL     1     -10.833  18.834  64.962  1.00  0.00    -0.503 OA 
HETATM   51  H   UNL     1     -11.707  19.204  65.000  1.00  0.00     0.000 HD 
ENDBRANCH  38  39
ENDBRANCH  37  38
ENDBRANCH  26  37
ENDBRANCH  24  25
ENDBRANCH  19  24
ENDBRANCH   6  11
ENDBRANCH   2   3
TORSDOF 7
ENDMDL
MODEL       74
REMARK 921   NORMALIZED FREE ENERGY PREDICTED BY IDOCK:   -6.99 KCAL/MOL
REMARK 922        TOTAL FREE ENERGY PREDICTED BY IDOCK:  -11.13 KCAL/MOL
REMARK 923 INTER-LIGAND FREE ENERGY PREDICTED BY IDOCK:   -9.41 KCAL/MOL
REMARK 924 INTRA-LIGAND FREE ENERGY PREDICTED BY IDOCK:   -1.72 KCAL/MOL
REMARK 927      BINDING AFFINITY PREDICTED BY RF-SCORE:    0.00 PKD
ROOT
HETATM    1  C   UNL     1     -11.774  15.945  64.326  1.00  0.00    -0.132 C  
HETATM    2  O   UNL     1     -12.462  14.720  64.555  1.00  0.00    -0.542 OA 
ENDROOT
BRANCH   2   3
HETATM    3  C   UNL     1     -11.667  13.608  64.647  1.00  0.00    -0.388 A  
HETATM    4  C   UNL     1     -10.608  13.722  65.557  1.00  0.00    -0.312 A  
HETATM    5  C   UNL     1      -9.696  12.686  65.734  1.00  0.00    -0.183 A  
HETATM    6  C   UNL     1      -9.836  11.479  65.021  1.00  0.00    -0.294 A  
HETATM    7  C   UNL     1     -10.926  11.345  64.149  1.00  0.00    -0.411 A  
HETATM    8  H   UNL     1     -13.008  11.393  62.658  1.00  0.00     0.000 HD 
HETATM    9  O   UNL     1     -12.890  12.217  63.118  1.00  0.00    -0.662 OA 
HETATM   10  C   UNL     1     -11.840  12.398  63.971  1.00  0.00    -0.439 A  
BRANCH   6  11
HETATM   11  C   UNL     1      -8.730  10.437  65.089  1.00  0.00    -0.181 C  
HETATM   12  C   UNL     1      -8.793   9.585  63.832  1.00  0.00    -0.240 C  
HETATM   13  O   UNL     1      -6.969   8.431  62.854  1.00  0.00    -0.089 OA 
HETATM   14  C   UNL     1      -7.625   8.644  63.872  1.00  0.00    -0.127 C  
HETATM   15  C   UNL     1      -7.349   8.023  65.180  1.00  0.00    -0.074 A  
HETATM   16  C   UNL     1      -8.000   8.551  66.298  1.00  0.00    -0.102 A  
HETATM   17  C   UNL     1      -7.806   7.975  67.561  1.00  0.00    -0.118 A  
HETATM   18  O   UNL     1      -8.874   9.617  66.261  1.00  0.00    -0.145 OA 
HETATM   19  C   UNL     1      -6.980   6.855  67.711  1.00  0.00    -0.083 A  
HETATM   20  O   UNL     1      -5.883   6.357  64.253  1.00  0.00    -0.022 OA 
HETATM   21  C   UNL     1      -6.317   6.341  66.593  1.00  0.00    -0.041 A  
HETATM   22  H   UNL     1      -5.313   5.604  64.358  1.00  0.00     0.000 HD 
HETATM   23  C   UNL     1      -6.507   6.913  65.335  1.00  0.00    -0.046 A  
BRANCH  19  24
HETATM   24  O   UNL     1      -6.719   6.202  68.890  1.00  0.00    -0.055 OA 
BRANCH  24  25
HETATM   25  C   UNL     1      -7.850   5.844  69.695  1.00  0.00    -0.097 C  
HETATM   26  C   UNL     1      -8.903   6.257  71.787  1.00  0.00    -0.137 C  
HETATM   27  O   UNL     1      -7.699   6.396  71.014  1.00  0.00    -0.097 OA 
HETATM   28  C   UNL     1      -9.216   4.769  72.006  1.00  0.00    -0.136 C  
HETATM   29  H   UNL     1      -9.443   2.174  70.038  1.00  0.00     0.000 HD 
HETATM   30  O   UNL     1      -8.078   3.683  68.535  1.00  0.00    -0.069 OA 
HETATM   31  C   UNL     1      -9.250   4.034  70.659  1.00  0.00    -0.126 C  
HETATM   32  O   UNL     1     -10.474   4.536  72.656  1.00  0.00    -0.190 OA 
HETATM   33  H   UNL     1      -8.162   2.740  68.614  1.00  0.00     0.000 HD 
HETATM   34  H   UNL     1     -10.668   3.616  72.792  1.00  0.00     0.000 HD 
HETATM   35  O   UNL     1      -9.422   2.629  70.872  1.00  0.00    -0.138 OA 
HETATM   36  C   UNL     1      -7.987   4.310  69.824  1.00  0.00    -0.056 C  
BRANCH  26  37
HETATM   37  C   UNL     1      -8.729   6.988  73.124  1.00  0.00    -0.125 C  
BRANCH  37  38
HETATM   38  O   UNL     1      -9.256   8.308  72.988  1.00  0.00    -0.260 OA 
BRANCH  38  39
HETATM   39  C   UNL     1     -10.214   8.403  71.928  1.00  0.00    -0.270 C  
HETATM   40  O   UNL     1     -10.015   9.644  71.249  1.00  0.00    -0.186 OA 
HETATM   41  C   UNL     1     -10.966   9.950  70.229  1.00  0.00    -0.309 C  
HETATM   42  C   UNL     1     -12.415   9.886  70.753  1.00  0.00    -0.256 C  
HETATM   43  C   UNL     1     -10.704   9.127  68.970  1.00  0.00    -0.176 C  
HETATM   44  O   UNL     1     -12.630  10.968  71.676  1.00  0.00    -0.358 OA 
HETATM   45  C   UNL     1     -12.714   8.585  71.503  1.00  0.00    -0.313 C  
HETATM   46  O   UNL     1     -12.908   7.477  70.609  1.00  0.00    -0.555 OA 
HETATM   47  H   UNL     1     -13.523  10.929  71.999  1.00  0.00     0.000 HD 
HETATM   48  C   UNL     1     -11.626   8.278  72.541  1.00  0.00    -0.385 C  
HETATM   49  H   UNL     1     -13.093   6.670  71.073  1.00  0.00     0.000 HD 
HETATM   50  O   UNL     1     -11.836   6.959  73.076  1.00  0.00    -0.484 OA 
HETATM   51  H   UNL     1     -12.704   6.883  73.453  1.00  0.00     0.000 HD 
ENDBRANCH  38  39
ENDBRANCH  37  38
ENDBRANCH  26  37
ENDBRANCH  24  25
ENDBRANCH  19  24
ENDBRANCH   6  11
ENDBRANCH   2   3
TORSDOF 7
ENDMDL
MODEL       75
REMARK 921   NORMALIZED FREE ENERGY PREDICTED BY IDOCK:   -6.97 KCAL/MOL
REMARK 922        TOTAL FREE ENERGY PREDICTED BY IDOCK:  -11.10 KCAL/MOL
REMARK 923 INTER-LIGAND FREE ENERGY PREDICTED BY IDOCK:   -9.03 KCAL/MOL
REMARK 924 INTRA-LIGAND FREE ENERGY PREDICTED BY IDOCK:   -2.07 KCAL/MOL
REMARK 927      BINDING AFFINITY PREDICTED BY RF-SCORE:    0.00 PKD
ROOT
HETATM    1  C   UNL     1     -11.551  15.625  68.642  1.00  0.00    -0.382 C  
HETATM    2  O   UNL     1     -12.407  14.587  68.175  1.00  0.00    -0.159 OA 
ENDROOT
BRANCH   2   3
HETATM    3  C   UNL     1     -11.771  13.508  67.620  1.00  0.00    -0.363 A  
HETATM    4  C   UNL     1     -10.904  12.833  68.488  1.00  0.00    -0.279 A  
HETATM    5  C   UNL     1     -10.162  11.737  68.056  1.00  0.00    -0.202 A  
HETATM    6  C   UNL     1     -10.292  11.259  66.737  1.00  0.00    -0.278 A  
HETATM    7  C   UNL     1     -11.200  11.902  65.883  1.00  0.00    -0.373 A  
HETATM    8  H   UNL     1     -12.935  13.262  64.579  1.00  0.00     0.000 HD 
HETATM    9  O   UNL     1     -12.819  13.600  65.460  1.00  0.00    -0.577 OA 
HETATM   10  C   UNL     1     -11.941  13.012  66.325  1.00  0.00    -0.414 A  
BRANCH   6  11
HETATM   11  C   UNL     1      -9.342  10.184  66.234  1.00  0.00    -0.172 C  
HETATM   12  C   UNL     1      -9.404  10.157  64.716  1.00  0.00    -0.324 C  
HETATM   13  O   UNL     1      -7.667   9.436  63.275  1.00  0.00    -0.108 OA 
HETATM   14  C   UNL     1      -8.377   9.171  64.243  1.00  0.00    -0.173 C  
HETATM   15  C   UNL     1      -8.300   7.913  65.007  1.00  0.00    -0.111 A  
HETATM   16  C   UNL     1      -8.972   7.856  66.231  1.00  0.00    -0.171 A  
HETATM   17  C   UNL     1      -8.967   6.672  66.981  1.00  0.00    -0.120 A  
HETATM   18  O   UNL     1      -9.693   8.899  66.774  1.00  0.00    -0.179 OA 
HETATM   19  C   UNL     1      -8.310   5.533  66.503  1.00  0.00    -0.109 A  
HETATM   20  O   UNL     1      -6.988   6.795  63.330  1.00  0.00    -0.051 OA 
HETATM   21  C   UNL     1      -7.624   5.599  65.287  1.00  0.00    -0.084 A  
HETATM   22  H   UNL     1      -6.531   6.025  63.012  1.00  0.00     0.000 HD 
HETATM   23  C   UNL     1      -7.627   6.777  64.538  1.00  0.00    -0.103 A  
BRANCH  19  24
HETATM   24  O   UNL     1      -8.241   4.319  67.140  1.00  0.00    -0.100 OA 
BRANCH  24  25
HETATM   25  C   UNL     1      -8.656   4.285  68.512  1.00  0.00    -0.093 C  
HETATM   26  C   UNL     1      -8.158   5.148  70.672  1.00  0.00    -0.106 C  
HETATM   27  O   UNL     1      -7.682   4.959  69.329  1.00  0.00    -0.072 OA 
HETATM   28  C   UNL     1      -8.377   3.785  71.347  1.00  0.00    -0.072 C  
HETATM   29  H   UNL     1      -9.959   1.055  70.510  1.00  0.00     0.000 HD 
HETATM   30  O   UNL     1      -9.708   2.078  68.210  1.00  0.00    -0.277 OA 
HETATM   31  C   UNL     1      -9.289   2.908  70.479  1.00  0.00    -0.150 C  
HETATM   32  O   UNL     1      -8.978   3.877  72.647  1.00  0.00    -0.103 OA 
HETATM   33  H   UNL     1      -9.795   1.186  68.525  1.00  0.00     0.000 HD 
HETATM   34  H   UNL     1      -9.113   3.035  73.065  1.00  0.00     0.000 HD 
HETATM   35  O   UNL     1      -9.395   1.598  71.048  1.00  0.00    -0.090 OA 
HETATM   36  C   UNL     1      -8.795   2.833  69.024  1.00  0.00    -0.098 C  
BRANCH  26  37
HETATM   37  C   UNL     1      -7.143   5.994  71.451  1.00  0.00    -0.078 C  
BRANCH  37  38
HETATM   38  O   UNL     1      -7.714   7.281  71.684  1.00  0.00    -0.086 OA 
BRANCH  38  39
HETATM   39  C   UNL     1      -9.138   7.278  71.536  1.00  0.00    -0.140 C  
HETATM   40  O   UNL     1      -9.460   7.832  70.260  1.00  0.00    -0.160 OA 
HETATM   41  C   UNL     1     -10.853   8.006  69.995  1.00  0.00    -0.235 C  
HETATM   42  C   UNL     1     -11.550   8.832  71.096  1.00  0.00    -0.289 C  
HETATM   43  C   UNL     1     -11.522   6.673  69.674  1.00  0.00    -0.358 C  
HETATM   44  O   UNL     1     -11.077  10.188  71.038  1.00  0.00    -0.323 OA 
HETATM   45  C   UNL     1     -11.251   8.308  72.503  1.00  0.00    -0.376 C  
HETATM   46  O   UNL     1     -12.003   7.122  72.810  1.00  0.00    -0.520 OA 
HETATM   47  H   UNL     1     -11.507  10.697  71.716  1.00  0.00     0.000 HD 
HETATM   48  C   UNL     1      -9.747   8.081  72.706  1.00  0.00    -0.280 C  
HETATM   49  H   UNL     1     -11.818   6.796  73.683  1.00  0.00     0.000 HD 
HETATM   50  O   UNL     1      -9.531   7.405  73.957  1.00  0.00    -0.289 OA 
HETATM   51  H   UNL     1      -9.905   7.899  74.677  1.00  0.00     0.000 HD 
ENDBRANCH  38  39
ENDBRANCH  37  38
ENDBRANCH  26  37
ENDBRANCH  24  25
ENDBRANCH  19  24
ENDBRANCH   6  11
ENDBRANCH   2   3
TORSDOF 7
ENDMDL
MODEL       76
REMARK 921   NORMALIZED FREE ENERGY PREDICTED BY IDOCK:   -6.92 KCAL/MOL
REMARK 922        TOTAL FREE ENERGY PREDICTED BY IDOCK:  -11.04 KCAL/MOL
REMARK 923 INTER-LIGAND FREE ENERGY PREDICTED BY IDOCK:  -10.34 KCAL/MOL
REMARK 924 INTRA-LIGAND FREE ENERGY PREDICTED BY IDOCK:   -0.70 KCAL/MOL
REMARK 927      BINDING AFFINITY PREDICTED BY RF-SCORE:    0.00 PKD
ROOT
HETATM    1  C   UNL     1      -9.876   2.090  64.011  1.00  0.00    -0.111 C  
HETATM    2  O   UNL     1      -8.785   2.504  64.827  1.00  0.00    -0.101 OA 
ENDROOT
BRANCH   2   3
HETATM    3  C   UNL     1      -8.740   3.844  65.109  1.00  0.00    -0.116 A  
HETATM    4  C   UNL     1      -8.210   4.638  64.085  1.00  0.00    -0.114 A  
HETATM    5  C   UNL     1      -8.069   6.015  64.240  1.00  0.00    -0.109 A  
HETATM    6  C   UNL     1      -8.491   6.648  65.426  1.00  0.00    -0.112 A  
HETATM    7  C   UNL     1      -9.071   5.860  66.431  1.00  0.00    -0.156 A  
HETATM    8  H   UNL     1     -10.097   4.172  68.061  1.00  0.00     0.000 HD 
HETATM    9  O   UNL     1      -9.782   3.746  67.272  1.00  0.00    -0.204 OA 
HETATM   10  C   UNL     1      -9.203   4.470  66.269  1.00  0.00    -0.137 A  
BRANCH   6  11
HETATM   11  C   UNL     1      -8.160   8.116  65.648  1.00  0.00    -0.119 C  
HETATM   12  C   UNL     1      -7.333   8.237  66.917  1.00  0.00    -0.084 C  
HETATM   13  O   UNL     1      -5.781   9.963  67.394  1.00  0.00    -0.046 OA 
HETATM   14  C   UNL     1      -6.926   9.675  67.049  1.00  0.00    -0.085 C  
HETATM   15  C   UNL     1      -7.973  10.666  66.747  1.00  0.00    -0.132 A  
HETATM   16  C   UNL     1      -9.135  10.209  66.118  1.00  0.00    -0.155 A  
HETATM   17  C   UNL     1     -10.181  11.100  65.842  1.00  0.00    -0.303 A  
HETATM   18  O   UNL     1      -9.362   8.898  65.754  1.00  0.00    -0.229 OA 
HETATM   19  C   UNL     1     -10.083  12.446  66.213  1.00  0.00    -0.240 A  
HETATM   20  O   UNL     1      -6.758  12.485  67.745  1.00  0.00    -0.093 OA 
HETATM   21  C   UNL     1      -8.912  12.903  66.826  1.00  0.00    -0.182 A  
HETATM   22  H   UNL     1      -6.687  13.402  67.985  1.00  0.00     0.000 HD 
HETATM   23  C   UNL     1      -7.869  12.018  67.101  1.00  0.00    -0.168 A  
BRANCH  19  24
HETATM   24  O   UNL     1     -11.040  13.408  66.004  1.00  0.00    -0.282 OA 
BRANCH  24  25
HETATM   25  C   UNL     1     -11.573  14.053  67.167  1.00  0.00    -0.372 C  
HETATM   26  C   UNL     1     -11.373  15.996  68.526  1.00  0.00    -0.382 C  
HETATM   27  O   UNL     1     -10.758  15.188  67.508  1.00  0.00    -0.271 OA 
HETATM   28  C   UNL     1     -11.507  15.189  69.826  1.00  0.00    -0.297 C  
HETATM   29  H   UNL     1     -12.705  12.244  70.568  1.00  0.00     0.000 HD 
HETATM   30  O   UNL     1     -12.352  11.905  68.086  1.00  0.00    -0.347 OA 
HETATM   31  C   UNL     1     -12.236  13.866  69.553  1.00  0.00    -0.306 C  
HETATM   32  O   UNL     1     -12.233  15.876  70.857  1.00  0.00    -0.406 OA 
HETATM   33  H   UNL     1     -12.371  11.316  68.832  1.00  0.00     0.000 HD 
HETATM   34  H   UNL     1     -12.316  15.377  71.661  1.00  0.00     0.000 HD 
HETATM   35  O   UNL     1     -12.254  13.063  70.738  1.00  0.00    -0.363 OA 
HETATM   36  C   UNL     1     -11.604  13.096  68.380  1.00  0.00    -0.337 C  
BRANCH  26  37
HETATM   37  C   UNL     1     -10.531  17.259  68.743  1.00  0.00    -0.340 C  
BRANCH  37  38
HETATM   38  O   UNL     1      -9.152  16.888  68.732  1.00  0.00    -0.256 OA 
BRANCH  38  39
HETATM   39  C   UNL     1      -8.332  17.869  68.088  1.00  0.00    -0.267 C  
HETATM   40  O   UNL     1      -8.270  19.025  68.925  1.00  0.00    -0.334 OA 
HETATM   41  C   UNL     1      -7.579  20.149  68.377  1.00  0.00    -0.135 C  
HETATM   42  C   UNL     1      -8.137  20.553  66.998  1.00  0.00    -0.266 C  
HETATM   43  C   UNL     1      -6.068  19.937  68.420  1.00  0.00    -0.286 C  
HETATM   44  O   UNL     1      -9.462  21.087  67.164  1.00  0.00    -0.676 OA 
HETATM   45  C   UNL     1      -8.244  19.367  66.036  1.00  0.00    -0.237 C  
HETATM   46  O   UNL     1      -6.967  18.993  65.493  1.00  0.00    -0.385 OA 
HETATM   47  H   UNL     1      -9.806  21.336  66.314  1.00  0.00     0.000 HD 
HETATM   48  C   UNL     1      -8.939  18.171  66.700  1.00  0.00    -0.282 C  
HETATM   49  H   UNL     1      -7.033  18.257  64.896  1.00  0.00     0.000 HD 
HETATM   50  O   UNL     1      -8.840  17.023  65.838  1.00  0.00    -0.518 OA 
HETATM   51  H   UNL     1      -9.213  17.208  64.985  1.00  0.00     0.000 HD 
ENDBRANCH  38  39
ENDBRANCH  37  38
ENDBRANCH  26  37
ENDBRANCH  24  25
ENDBRANCH  19  24
ENDBRANCH   6  11
ENDBRANCH   2   3
TORSDOF 7
ENDMDL
MODEL       77
REMARK 921   NORMALIZED FREE ENERGY PREDICTED BY IDOCK:   -6.91 KCAL/MOL
REMARK 922        TOTAL FREE ENERGY PREDICTED BY IDOCK:  -11.02 KCAL/MOL
REMARK 923 INTER-LIGAND FREE ENERGY PREDICTED BY IDOCK:   -9.29 KCAL/MOL
REMARK 924 INTRA-LIGAND FREE ENERGY PREDICTED BY IDOCK:   -1.73 KCAL/MOL
REMARK 927      BINDING AFFINITY PREDICTED BY RF-SCORE:    0.00 PKD
ROOT
HETATM    1  C   UNL     1     -12.976  16.194  73.383  1.00  0.00    -0.509 C  
HETATM    2  O   UNL     1     -13.535  15.795  72.136  1.00  0.00    -0.462 OA 
ENDROOT
BRANCH   2   3
HETATM    3  C   UNL     1     -13.188  14.539  71.713  1.00  0.00    -0.351 A  
HETATM    4  C   UNL     1     -13.771  13.496  72.444  1.00  0.00    -0.704 A  
HETATM    5  C   UNL     1     -13.486  12.165  72.152  1.00  0.00    -0.383 A  
HETATM    6  C   UNL     1     -12.625  11.834  71.088  1.00  0.00    -0.412 A  
HETATM    7  C   UNL     1     -12.082  12.877  70.322  1.00  0.00    -0.377 A  
HETATM    8  H   UNL     1     -11.269  14.980  69.109  1.00  0.00     0.000 HD 
HETATM    9  O   UNL     1     -11.825  15.198  69.848  1.00  0.00    -0.288 OA 
HETATM   10  C   UNL     1     -12.370  14.219  70.627  1.00  0.00    -0.361 A  
BRANCH   6  11
HETATM   11  C   UNL     1     -12.182  10.391  70.904  1.00  0.00    -0.383 C  
HETATM   12  C   UNL     1     -12.944   9.524  71.893  1.00  0.00    -0.514 C  
HETATM   13  O   UNL     1     -13.439   7.223  71.617  1.00  0.00    -0.375 OA 
HETATM   14  C   UNL     1     -12.574   8.097  71.614  1.00  0.00    -0.320 C  
HETATM   15  C   UNL     1     -11.145   7.847  71.351  1.00  0.00    -0.275 A  
HETATM   16  C   UNL     1     -10.326   8.955  71.118  1.00  0.00    -0.268 A  
HETATM   17  C   UNL     1      -8.952   8.779  70.901  1.00  0.00    -0.247 A  
HETATM   18  O   UNL     1     -10.765  10.262  71.109  1.00  0.00     0.058 OA 
HETATM   19  C   UNL     1      -8.386   7.500  70.939  1.00  0.00    -0.114 A  
HETATM   20  O   UNL     1     -11.353   5.467  71.626  1.00  0.00    -0.149 OA 
HETATM   21  C   UNL     1      -9.212   6.393  71.154  1.00  0.00    -0.159 A  
HETATM   22  H   UNL     1     -10.970   4.597  71.638  1.00  0.00     0.000 HD 
HETATM   23  C   UNL     1     -10.580   6.565  71.369  1.00  0.00    -0.228 A  
BRANCH  19  24
HETATM   24  O   UNL     1      -7.059   7.204  70.750  1.00  0.00    -0.063 OA 
BRANCH  24  25
HETATM   25  C   UNL     1      -6.489   7.566  69.485  1.00  0.00    -0.036 C  
HETATM   26  C   UNL     1      -6.080   9.412  68.041  1.00  0.00    -0.052 C  
HETATM   27  O   UNL     1      -6.812   8.935  69.183  1.00  0.00    -0.053 OA 
HETATM   28  C   UNL     1      -6.484   8.616  66.790  1.00  0.00    -0.060 C  
HETATM   29  H   UNL     1      -6.719   5.436  66.089  1.00  0.00     0.000 HD 
HETATM   30  O   UNL     1      -6.803   5.284  68.613  1.00  0.00    -0.052 OA 
HETATM   31  C   UNL     1      -6.327   7.111  67.050  1.00  0.00    -0.053 C  
HETATM   32  O   UNL     1      -5.705   8.937  65.629  1.00  0.00    -0.048 OA 
HETATM   33  H   UNL     1      -7.137   4.737  67.912  1.00  0.00     0.000 HD 
HETATM   34  H   UNL     1      -5.954   8.446  64.855  1.00  0.00     0.000 HD 
HETATM   35  O   UNL     1      -6.816   6.368  65.929  1.00  0.00    -0.054 OA 
HETATM   36  C   UNL     1      -7.034   6.676  68.345  1.00  0.00    -0.080 C  
BRANCH  26  37
HETATM   37  C   UNL     1      -6.356  10.909  67.857  1.00  0.00    -0.057 C  
BRANCH  37  38
HETATM   38  O   UNL     1      -7.439  11.276  68.711  1.00  0.00    -0.108 OA 
BRANCH  38  39
HETATM   39  C   UNL     1      -8.613  11.635  67.975  1.00  0.00    -0.152 C  
HETATM   40  O   UNL     1      -9.293  10.437  67.598  1.00  0.00    -0.147 OA 
HETATM   41  C   UNL     1     -10.434  10.612  66.755  1.00  0.00    -0.247 C  
HETATM   42  C   UNL     1     -10.094  11.422  65.487  1.00  0.00    -0.247 C  
HETATM   43  C   UNL     1     -11.627  11.135  67.549  1.00  0.00    -0.220 C  
HETATM   44  O   UNL     1      -9.235  10.638  64.643  1.00  0.00    -0.201 OA 
HETATM   45  C   UNL     1      -9.355  12.725  65.801  1.00  0.00     0.090 C  
HETATM   46  O   UNL     1     -10.237  13.741  66.306  1.00  0.00    -0.282 OA 
HETATM   47  H   UNL     1      -9.026  11.137  63.862  1.00  0.00     0.000 HD 
HETATM   48  C   UNL     1      -8.180  12.483  66.759  1.00  0.00     0.008 C  
HETATM   49  H   UNL     1      -9.779  14.550  66.501  1.00  0.00     0.000 HD 
HETATM   50  O   UNL     1      -7.642  13.748  67.183  1.00  0.00    -0.348 OA 
HETATM   51  H   UNL     1      -7.375  14.269  66.435  1.00  0.00     0.000 HD 
ENDBRANCH  38  39
ENDBRANCH  37  38
ENDBRANCH  26  37
ENDBRANCH  24  25
ENDBRANCH  19  24
ENDBRANCH   6  11
ENDBRANCH   2   3
TORSDOF 7
ENDMDL
MODEL       78
REMARK 921   NORMALIZED FREE ENERGY PREDICTED BY IDOCK:   -6.90 KCAL/MOL
REMARK 922        TOTAL FREE ENERGY PREDICTED BY IDOCK:  -11.00 KCAL/MOL
REMARK 923 INTER-LIGAND FREE ENERGY PREDICTED BY IDOCK:   -9.40 KCAL/MOL
REMARK 924 INTRA-LIGAND FREE ENERGY PREDICTED BY IDOCK:   -1.60 KCAL/MOL
REMARK 927      BINDING AFFINITY PREDICTED BY RF-SCORE:    0.00 PKD
ROOT
HETATM    1  C   UNL     1      -7.473   6.141  74.564  1.00  0.00    -0.093 C  
HETATM    2  O   UNL     1      -6.302   6.573  73.877  1.00  0.00    -0.064 OA 
ENDROOT
BRANCH   2   3
HETATM    3  C   UNL     1      -6.441   6.729  72.524  1.00  0.00    -0.058 A  
HETATM    4  C   UNL     1      -6.590   8.056  72.101  1.00  0.00    -0.067 A  
HETATM    5  C   UNL     1      -6.775   8.367  70.757  1.00  0.00    -0.040 A  
HETATM    6  C   UNL     1      -6.783   7.352  69.781  1.00  0.00    -0.044 A  
HETATM    7  C   UNL     1      -6.580   6.027  70.198  1.00  0.00    -0.040 A  
HETATM    8  H   UNL     1      -6.170   3.732  71.256  1.00  0.00     0.000 HD 
HETATM    9  O   UNL     1      -6.198   4.418  71.914  1.00  0.00    -0.019 OA 
HETATM   10  C   UNL     1      -6.401   5.720  71.558  1.00  0.00    -0.044 A  
BRANCH   6  11
HETATM   11  C   UNL     1      -7.169   7.692  68.350  1.00  0.00    -0.090 C  
HETATM   12  C   UNL     1      -5.920   8.131  67.605  1.00  0.00    -0.047 C  
HETATM   13  O   UNL     1      -5.574   7.957  65.267  1.00  0.00    -0.036 OA 
HETATM   14  C   UNL     1      -6.308   8.350  66.172  1.00  0.00    -0.050 C  
HETATM   15  C   UNL     1      -7.588   9.048  65.956  1.00  0.00    -0.094 A  
HETATM   16  C   UNL     1      -8.437   9.198  67.056  1.00  0.00    -0.123 A  
HETATM   17  C   UNL     1      -9.649   9.889  66.918  1.00  0.00    -0.225 A  
HETATM   18  O   UNL     1      -8.163   8.731  68.324  1.00  0.00    -0.116 OA 
HETATM   19  C   UNL     1     -10.008  10.452  65.688  1.00  0.00    -0.272 A  
HETATM   20  O   UNL     1      -7.132   9.491  63.637  1.00  0.00    -0.100 OA 
HETATM   21  C   UNL     1      -9.165  10.284  64.586  1.00  0.00    -0.290 A  
HETATM   22  H   UNL     1      -7.383   9.863  62.799  1.00  0.00     0.000 HD 
HETATM   23  C   UNL     1      -7.958   9.596  64.721  1.00  0.00    -0.129 A  
BRANCH  19  24
HETATM   24  O   UNL     1     -11.161  11.153  65.433  1.00  0.00    -0.145 OA 
BRANCH  24  25
HETATM   25  C   UNL     1     -11.008  12.478  64.907  1.00  0.00    -0.300 C  
HETATM   26  C   UNL     1      -9.955  14.574  65.304  1.00  0.00    -0.287 C  
HETATM   27  O   UNL     1     -10.331  13.306  65.868  1.00  0.00    -0.281 OA 
HETATM   28  C   UNL     1     -11.212  15.363  64.905  1.00  0.00    -0.403 C  
HETATM   29  H   UNL     1     -13.878  14.671  63.151  1.00  0.00     0.000 HD 
HETATM   30  O   UNL     1     -13.140  12.311  63.683  1.00  0.00    -0.780 OA 
HETATM   31  C   UNL     1     -12.102  14.510  63.990  1.00  0.00    -0.240 C  
HETATM   32  O   UNL     1     -10.927  16.586  64.211  1.00  0.00    -1.152 OA 
HETATM   33  H   UNL     1     -13.981  12.706  63.489  1.00  0.00     0.000 HD 
HETATM   34  H   UNL     1     -11.704  17.075  63.965  1.00  0.00     0.000 HD 
HETATM   35  O   UNL     1     -13.327  15.199  63.718  1.00  0.00     0.421 OA 
HETATM   36  C   UNL     1     -12.378  13.121  64.592  1.00  0.00    -0.405 C  
BRANCH  26  37
HETATM   37  C   UNL     1      -9.116  15.350  66.325  1.00  0.00    -0.320 C  
BRANCH  37  38
HETATM   38  O   UNL     1      -9.980  16.231  67.042  1.00  0.00    -0.243 OA 
BRANCH  38  39
HETATM   39  C   UNL     1      -9.359  17.490  67.324  1.00  0.00    -0.244 C  
HETATM   40  O   UNL     1      -9.619  18.375  66.234  1.00  0.00    -0.375 OA 
HETATM   41  C   UNL     1      -8.972  19.647  66.303  1.00  0.00    -0.375 C  
HETATM   42  C   UNL     1      -7.447  19.509  66.490  1.00  0.00    -0.259 C  
HETATM   43  C   UNL     1      -9.662  20.560  67.314  1.00  0.00    -0.600 C  
HETATM   44  O   UNL     1      -6.873  18.963  65.291  1.00  0.00    -0.474 OA 
HETATM   45  C   UNL     1      -7.078  18.568  67.640  1.00  0.00    -0.210 C  
HETATM   46  O   UNL     1      -7.257  19.186  68.925  1.00  0.00    -0.318 OA 
HETATM   47  H   UNL     1      -5.934  18.878  65.407  1.00  0.00     0.000 HD 
HETATM   48  C   UNL     1      -7.850  17.245  67.546  1.00  0.00    -0.181 C  
HETATM   49  H   UNL     1      -7.028  18.603  69.638  1.00  0.00     0.000 HD 
HETATM   50  O   UNL     1      -7.628  16.478  68.743  1.00  0.00    -0.194 OA 
HETATM   51  H   UNL     1      -6.700  16.327  68.879  1.00  0.00     0.000 HD 
ENDBRANCH  38  39
ENDBRANCH  37  38
ENDBRANCH  26  37
ENDBRANCH  24  25
ENDBRANCH  19  24
ENDBRANCH   6  11
ENDBRANCH   2   3
TORSDOF 7
ENDMDL
MODEL       79
REMARK 921   NORMALIZED FREE ENERGY PREDICTED BY IDOCK:   -6.85 KCAL/MOL
REMARK 922        TOTAL FREE ENERGY PREDICTED BY IDOCK:  -10.93 KCAL/MOL
REMARK 923 INTER-LIGAND FREE ENERGY PREDICTED BY IDOCK:  -10.84 KCAL/MOL
REMARK 924 INTRA-LIGAND FREE ENERGY PREDICTED BY IDOCK:   -0.08 KCAL/MOL
REMARK 927      BINDING AFFINITY PREDICTED BY RF-SCORE:    0.00 PKD
ROOT
HETATM    1  C   UNL     1     -11.201   2.390  73.700  1.00  0.00    -0.217 C  
HETATM    2  O   UNL     1     -10.033   3.123  73.344  1.00  0.00    -0.104 OA 
ENDROOT
BRANCH   2   3
HETATM    3  C   UNL     1     -10.147   3.897  72.220  1.00  0.00    -0.164 A  
HETATM    4  C   UNL     1      -9.653   3.305  71.051  1.00  0.00    -0.234 A  
HETATM    5  C   UNL     1      -9.669   3.985  69.836  1.00  0.00    -0.263 A  
HETATM    6  C   UNL     1     -10.218   5.280  69.748  1.00  0.00    -0.364 A  
HETATM    7  C   UNL     1     -10.761   5.853  70.908  1.00  0.00    -0.338 A  
HETATM    8  H   UNL     1     -11.684   6.617  73.171  1.00  0.00     0.000 HD 
HETATM    9  O   UNL     1     -11.284   5.757  73.231  1.00  0.00    -0.246 OA 
HETATM   10  C   UNL     1     -10.735   5.162  72.132  1.00  0.00    -0.187 A  
BRANCH   6  11
HETATM   11  C   UNL     1     -10.059   6.074  68.461  1.00  0.00    -0.161 C  
HETATM   12  C   UNL     1      -9.144   5.299  67.527  1.00  0.00    -0.110 C  
HETATM   13  O   UNL     1      -9.151   5.435  65.161  1.00  0.00    -0.121 OA 
HETATM   14  C   UNL     1      -9.096   6.046  66.227  1.00  0.00    -0.150 C  
HETATM   15  C   UNL     1      -8.981   7.511  66.335  1.00  0.00    -0.196 A  
HETATM   16  C   UNL     1      -9.196   8.086  67.591  1.00  0.00    -0.133 A  
HETATM   17  C   UNL     1      -9.060   9.471  67.762  1.00  0.00    -0.133 A  
HETATM   18  O   UNL     1      -9.516   7.378  68.730  1.00  0.00    -0.144 OA 
HETATM   19  C   UNL     1      -8.687  10.285  66.686  1.00  0.00    -0.127 A  
HETATM   20  O   UNL     1      -8.380   7.791  64.024  1.00  0.00    -0.353 OA 
HETATM   21  C   UNL     1      -8.491   9.709  65.428  1.00  0.00    -0.155 A  
HETATM   22  H   UNL     1      -8.139   8.346  63.291  1.00  0.00     0.000 HD 
HETATM   23  C   UNL     1      -8.627   8.331  65.255  1.00  0.00    -0.132 A  
BRANCH  19  24
HETATM   24  O   UNL     1      -8.517  11.647  66.732  1.00  0.00    -0.169 OA 
BRANCH  24  25
HETATM   25  C   UNL     1      -9.675  12.434  67.036  1.00  0.00    -0.211 C  
HETATM   26  C   UNL     1     -10.854  14.404  66.413  1.00  0.00    -0.314 C  
HETATM   27  O   UNL     1      -9.616  13.680  66.319  1.00  0.00    -0.276 OA 
HETATM   28  C   UNL     1     -11.124  14.792  67.875  1.00  0.00    -0.293 C  
HETATM   29  H   UNL     1     -11.149  13.156  70.700  1.00  0.00     0.000 HD 
HETATM   30  O   UNL     1      -9.762  11.544  69.331  1.00  0.00    -0.390 OA 
HETATM   31  C   UNL     1     -11.058  13.548  68.771  1.00  0.00    -0.264 C  
HETATM   32  O   UNL     1     -12.406  15.404  68.081  1.00  0.00    -0.412 OA 
HETATM   33  H   UNL     1      -9.816  11.737  70.260  1.00  0.00     0.000 HD 
HETATM   34  H   UNL     1     -12.573  15.644  68.984  1.00  0.00     0.000 HD 
HETATM   35  O   UNL     1     -11.190  13.926  70.146  1.00  0.00    -0.079 OA 
HETATM   36  C   UNL     1      -9.763  12.748  68.547  1.00  0.00    -0.126 C  
BRANCH  26  37
HETATM   37  C   UNL     1     -10.779  15.646  65.517  1.00  0.00    -0.389 C  
BRANCH  37  38
HETATM   38  O   UNL     1      -9.412  16.045  65.413  1.00  0.00    -0.378 OA 
BRANCH  38  39
HETATM   39  C   UNL     1      -9.170  17.314  66.030  1.00  0.00    -0.087 C  
HETATM   40  O   UNL     1      -8.517  17.091  67.280  1.00  0.00    -0.188 OA 
HETATM   41  C   UNL     1      -8.302  18.254  68.082  1.00  0.00    -0.284 C  
HETATM   42  C   UNL     1      -9.609  19.037  68.325  1.00  0.00    -0.355 C  
HETATM   43  C   UNL     1      -7.147  19.089  67.538  1.00  0.00    -0.226 C  
HETATM   44  O   UNL     1     -10.471  18.262  69.175  1.00  0.00    -0.445 OA 
HETATM   45  C   UNL     1     -10.378  19.315  67.031  1.00  0.00    -0.426 C  
HETATM   46  O   UNL     1      -9.790  20.383  66.270  1.00  0.00    -0.608 OA 
HETATM   47  H   UNL     1     -11.276  18.744  69.324  1.00  0.00     0.000 HD 
HETATM   48  C   UNL     1     -10.523  18.043  66.184  1.00  0.00    -0.331 C  
HETATM   49  H   UNL     1     -10.267  20.556  65.467  1.00  0.00     0.000 HD 
HETATM   50  O   UNL     1     -11.068  18.386  64.898  1.00  0.00    -0.560 OA 
HETATM   51  H   UNL     1     -11.901  18.833  64.993  1.00  0.00     0.000 HD 
ENDBRANCH  38  39
ENDBRANCH  37  38
ENDBRANCH  26  37
ENDBRANCH  24  25
ENDBRANCH  19  24
ENDBRANCH   6  11
ENDBRANCH   2   3
TORSDOF 7
ENDMDL
MODEL       80
REMARK 921   NORMALIZED FREE ENERGY PREDICTED BY IDOCK:   -6.77 KCAL/MOL
REMARK 922        TOTAL FREE ENERGY PREDICTED BY IDOCK:  -10.82 KCAL/MOL
REMARK 923 INTER-LIGAND FREE ENERGY PREDICTED BY IDOCK:  -10.30 KCAL/MOL
REMARK 924 INTRA-LIGAND FREE ENERGY PREDICTED BY IDOCK:   -0.52 KCAL/MOL
REMARK 927      BINDING AFFINITY PREDICTED BY RF-SCORE:    0.00 PKD
ROOT
HETATM    1  C   UNL     1     -11.404   2.394  73.915  1.00  0.00    -0.106 C  
HETATM    2  O   UNL     1     -10.926   3.727  74.063  1.00  0.00    -0.208 OA 
ENDROOT
BRANCH   2   3
HETATM    3  C   UNL     1     -10.678   4.394  72.893  1.00  0.00    -0.186 A  
HETATM    4  C   UNL     1     -11.609   5.394  72.583  1.00  0.00    -0.270 A  
HETATM    5  C   UNL     1     -11.508   6.134  71.408  1.00  0.00    -0.317 A  
HETATM    6  C   UNL     1     -10.441   5.916  70.515  1.00  0.00    -0.319 A  
HETATM    7  C   UNL     1      -9.479   4.952  70.850  1.00  0.00    -0.227 A  
HETATM    8  H   UNL     1      -7.886   3.154  71.740  1.00  0.00     0.000 HD 
HETATM    9  O   UNL     1      -8.626   3.283  72.323  1.00  0.00    -0.081 OA 
HETATM   10  C   UNL     1      -9.592   4.204  72.035  1.00  0.00    -0.152 A  
BRANCH   6  11
HETATM   11  C   UNL     1     -10.450   6.600  69.157  1.00  0.00    -0.219 C  
HETATM   12  C   UNL     1      -9.380   5.962  68.287  1.00  0.00    -0.118 C  
HETATM   13  O   UNL     1      -9.398   5.870  65.920  1.00  0.00    -0.140 OA 
HETATM   14  C   UNL     1      -9.488   6.575  66.922  1.00  0.00    -0.152 C  
HETATM   15  C   UNL     1      -9.700   8.034  66.892  1.00  0.00    -0.291 A  
HETATM   16  C   UNL     1     -10.046   8.663  68.091  1.00  0.00    -0.197 A  
HETATM   17  C   UNL     1     -10.220  10.053  68.130  1.00  0.00    -0.205 A  
HETATM   18  O   UNL     1     -10.211   8.011  69.295  1.00  0.00    -0.203 OA 
HETATM   19  C   UNL     1     -10.027  10.825  66.979  1.00  0.00    -0.197 A  
HETATM   20  O   UNL     1      -9.156   8.220  64.557  1.00  0.00    -0.261 OA 
HETATM   21  C   UNL     1      -9.699  10.190  65.777  1.00  0.00    -0.307 A  
HETATM   22  H   UNL     1      -9.038   8.743  63.773  1.00  0.00     0.000 HD 
HETATM   23  C   UNL     1      -9.526   8.806  65.735  1.00  0.00    -0.169 A  
BRANCH  19  24
HETATM   24  O   UNL     1     -10.161  12.188  66.894  1.00  0.00    -0.207 OA 
BRANCH  24  25
HETATM   25  C   UNL     1      -9.449  12.969  67.862  1.00  0.00    -0.219 C  
HETATM   26  C   UNL     1      -9.609  14.905  69.235  1.00  0.00    -0.128 C  
HETATM   27  O   UNL     1     -10.160  14.194  68.114  1.00  0.00    -0.226 OA 
HETATM   28  C   UNL     1      -8.166  15.333  68.926  1.00  0.00    -0.186 C  
HETATM   29  H   UNL     1      -5.516  13.781  67.816  1.00  0.00     0.000 HD 
HETATM   30  O   UNL     1      -7.281  12.147  67.031  1.00  0.00    -0.252 OA 
HETATM   31  C   UNL     1      -7.338  14.117  68.489  1.00  0.00    -0.120 C  
HETATM   32  O   UNL     1      -7.492  15.934  70.042  1.00  0.00     0.089 OA 
HETATM   33  H   UNL     1      -6.408  12.366  66.725  1.00  0.00     0.000 HD 
HETATM   34  H   UNL     1      -6.600  16.199  69.851  1.00  0.00     0.000 HD 
HETATM   35  O   UNL     1      -6.029  14.534  68.087  1.00  0.00    -0.113 OA 
HETATM   36  C   UNL     1      -8.029  13.327  67.364  1.00  0.00    -0.170 C  
BRANCH  26  37
HETATM   37  C   UNL     1     -10.491  16.121  69.543  1.00  0.00    -0.295 C  
BRANCH  37  38
HETATM   38  O   UNL     1     -10.724  16.829  68.325  1.00  0.00    -0.335 OA 
BRANCH  38  39
HETATM   39  C   UNL     1      -9.603  17.634  67.944  1.00  0.00    -0.282 C  
HETATM   40  O   UNL     1      -9.479  18.707  68.878  1.00  0.00    -0.320 OA 
HETATM   41  C   UNL     1      -8.472  19.675  68.579  1.00  0.00    -0.296 C  
HETATM   42  C   UNL     1      -8.636  20.257  67.160  1.00  0.00    -0.338 C  
HETATM   43  C   UNL     1      -7.080  19.134  68.893  1.00  0.00    -0.372 C  
HETATM   44  O   UNL     1      -9.826  21.061  67.115  1.00  0.00    -0.602 OA 
HETATM   45  C   UNL     1      -8.782  19.170  66.092  1.00  0.00    -0.219 C  
HETATM   46  O   UNL     1      -7.525  18.549  65.775  1.00  0.00    -0.471 OA 
HETATM   47  H   UNL     1      -9.926  21.420  66.241  1.00  0.00     0.000 HD 
HETATM   48  C   UNL     1      -9.832  18.127  66.498  1.00  0.00    -0.362 C  
HETATM   49  H   UNL     1      -7.616  17.875  65.112  1.00  0.00     0.000 HD 
HETATM   50  O   UNL     1      -9.794  17.027  65.571  1.00  0.00    -0.551 OA 
HETATM   51  H   UNL     1      -9.935  17.330  64.682  1.00  0.00     0.000 HD 
ENDBRANCH  38  39
ENDBRANCH  37  38
ENDBRANCH  26  37
ENDBRANCH  24  25
ENDBRANCH  19  24
ENDBRANCH   6  11
ENDBRANCH   2   3
TORSDOF 7
ENDMDL
MODEL       81
REMARK 921   NORMALIZED FREE ENERGY PREDICTED BY IDOCK:   -6.77 KCAL/MOL
REMARK 922        TOTAL FREE ENERGY PREDICTED BY IDOCK:  -10.81 KCAL/MOL
REMARK 923 INTER-LIGAND FREE ENERGY PREDICTED BY IDOCK:   -9.81 KCAL/MOL
REMARK 924 INTRA-LIGAND FREE ENERGY PREDICTED BY IDOCK:   -1.00 KCAL/MOL
REMARK 927      BINDING AFFINITY PREDICTED BY RF-SCORE:    0.00 PKD
ROOT
HETATM    1  C   UNL     1     -11.702   1.611  73.771  1.00  0.00    -0.162 C  
HETATM    2  O   UNL     1     -10.898   2.709  74.190  1.00  0.00    -0.175 OA 
ENDROOT
BRANCH   2   3
HETATM    3  C   UNL     1     -10.618   3.635  73.220  1.00  0.00    -0.188 A  
HETATM    4  C   UNL     1     -11.495   4.727  73.186  1.00  0.00    -0.348 A  
HETATM    5  C   UNL     1     -11.357   5.732  72.232  1.00  0.00    -0.334 A  
HETATM    6  C   UNL     1     -10.307   5.690  71.295  1.00  0.00    -0.289 A  
HETATM    7  C   UNL     1      -9.397   4.624  71.362  1.00  0.00    -0.206 A  
HETATM    8  H   UNL     1      -7.902   2.581  71.746  1.00  0.00     0.000 HD 
HETATM    9  O   UNL     1      -8.631   2.598  72.355  1.00  0.00    -0.069 OA 
HETATM   10  C   UNL     1      -9.546   3.610  72.324  1.00  0.00    -0.145 A  
BRANCH   6  11
HETATM   11  C   UNL     1     -10.284   6.693  70.151  1.00  0.00    -0.187 C  
HETATM   12  C   UNL     1     -10.480   5.940  68.846  1.00  0.00    -0.325 C  
HETATM   13  O   UNL     1     -11.406   6.840  66.859  1.00  0.00    -0.318 OA 
HETATM   14  C   UNL     1     -10.568   6.961  67.750  1.00  0.00    -0.244 C  
HETATM   15  C   UNL     1      -9.601   8.071  67.832  1.00  0.00    -0.178 A  
HETATM   16  C   UNL     1      -8.891   8.225  69.026  1.00  0.00    -0.143 A  
HETATM   17  C   UNL     1      -7.930   9.238  69.146  1.00  0.00    -0.097 A  
HETATM   18  O   UNL     1      -9.042   7.417  70.133  1.00  0.00    -0.148 OA 
HETATM   19  C   UNL     1      -7.656  10.087  68.068  1.00  0.00    -0.088 A  
HETATM   20  O   UNL     1      -9.995   8.785  65.570  1.00  0.00    -0.387 OA 
HETATM   21  C   UNL     1      -8.380   9.941  66.882  1.00  0.00    -0.124 A  
HETATM   22  H   UNL     1      -9.817   9.370  64.843  1.00  0.00     0.000 HD 
HETATM   23  C   UNL     1      -9.338   8.934  66.759  1.00  0.00    -0.175 A  
BRANCH  19  24
HETATM   24  O   UNL     1      -6.737  11.106  68.063  1.00  0.00    -0.061 OA 
BRANCH  24  25
HETATM   25  C   UNL     1      -7.161  12.363  68.607  1.00  0.00    -0.103 C  
HETATM   26  C   UNL     1      -8.156  14.446  68.032  1.00  0.00    -0.142 C  
HETATM   27  O   UNL     1      -7.514  13.258  67.538  1.00  0.00    -0.149 OA 
HETATM   28  C   UNL     1      -7.181  15.238  68.917  1.00  0.00    -0.137 C  
HETATM   29  H   UNL     1      -5.264  14.474  71.447  1.00  0.00     0.000 HD 
HETATM   30  O   UNL     1      -5.593  12.154  70.495  1.00  0.00    -0.143 OA 
HETATM   31  C   UNL     1      -6.612  14.332  70.017  1.00  0.00    -0.088 C  
HETATM   32  O   UNL     1      -7.781  16.372  69.561  1.00  0.00    -0.154 OA 
HETATM   33  H   UNL     1      -4.904  12.560  71.009  1.00  0.00     0.000 HD 
HETATM   34  H   UNL     1      -7.180  16.862  70.108  1.00  0.00     0.000 HD 
HETATM   35  O   UNL     1      -5.616  15.036  70.766  1.00  0.00    -0.138 OA 
HETATM   36  C   UNL     1      -6.041  13.024  69.443  1.00  0.00    -0.108 C  
BRANCH  26  37
HETATM   37  C   UNL     1      -8.635  15.290  66.844  1.00  0.00    -0.257 C  
BRANCH  37  38
HETATM   38  O   UNL     1      -7.682  16.328  66.616  1.00  0.00    -0.234 OA 
BRANCH  38  39
HETATM   39  C   UNL     1      -8.291  17.623  66.570  1.00  0.00    -0.268 C  
HETATM   40  O   UNL     1      -7.848  18.370  67.703  1.00  0.00    -0.230 OA 
HETATM   41  C   UNL     1      -8.452  19.654  67.872  1.00  0.00    -0.317 C  
HETATM   42  C   UNL     1      -9.992  19.568  67.894  1.00  0.00    -0.395 C  
HETATM   43  C   UNL     1      -7.880  20.664  66.882  1.00  0.00    -0.265 C  
HETATM   44  O   UNL     1     -10.410  18.897  69.094  1.00  0.00    -0.508 OA 
HETATM   45  C   UNL     1     -10.553  18.774  66.711  1.00  0.00    -0.395 C  
HETATM   46  O   UNL     1     -10.536  19.534  65.492  1.00  0.00    -0.474 OA 
HETATM   47  H   UNL     1     -11.359  18.844  69.107  1.00  0.00     0.000 HD 
HETATM   48  C   UNL     1      -9.824  17.435  66.543  1.00  0.00    -0.304 C  
HETATM   49  H   UNL     1     -10.885  19.042  64.758  1.00  0.00     0.000 HD 
HETATM   50  O   UNL     1     -10.241  16.816  65.312  1.00  0.00    -0.607 OA 
HETATM   51  H   UNL     1     -11.184  16.700  65.295  1.00  0.00     0.000 HD 
ENDBRANCH  38  39
ENDBRANCH  37  38
ENDBRANCH  26  37
ENDBRANCH  24  25
ENDBRANCH  19  24
ENDBRANCH   6  11
ENDBRANCH   2   3
TORSDOF 7
ENDMDL
MODEL       82
REMARK 921   NORMALIZED FREE ENERGY PREDICTED BY IDOCK:   -6.76 KCAL/MOL
REMARK 922        TOTAL FREE ENERGY PREDICTED BY IDOCK:  -10.80 KCAL/MOL
REMARK 923 INTER-LIGAND FREE ENERGY PREDICTED BY IDOCK:   -9.09 KCAL/MOL
REMARK 924 INTRA-LIGAND FREE ENERGY PREDICTED BY IDOCK:   -1.71 KCAL/MOL
REMARK 927      BINDING AFFINITY PREDICTED BY RF-SCORE:    0.00 PKD
ROOT
HETATM    1  C   UNL     1     -11.890  16.177  64.160  1.00  0.00     0.224 C  
HETATM    2  O   UNL     1     -12.658  14.978  64.151  1.00  0.00    -0.770 OA 
ENDROOT
BRANCH   2   3
HETATM    3  C   UNL     1     -12.103  13.921  64.821  1.00  0.00    -0.419 A  
HETATM    4  C   UNL     1     -11.511  14.254  66.046  1.00  0.00    -0.347 A  
HETATM    5  C   UNL     1     -10.876  13.290  66.825  1.00  0.00    -0.289 A  
HETATM    6  C   UNL     1     -10.844  11.944  66.412  1.00  0.00    -0.318 A  
HETATM    7  C   UNL     1     -11.483  11.601  65.211  1.00  0.00    -0.173 A  
HETATM    8  H   UNL     1     -12.742  11.285  63.003  1.00  0.00     0.000 HD 
HETATM    9  O   UNL     1     -12.732  12.197  63.271  1.00  0.00    -0.698 OA 
HETATM   10  C   UNL     1     -12.116  12.581  64.427  1.00  0.00    -0.424 A  
BRANCH   6  11
HETATM   11  C   UNL     1      -9.990  10.946  67.179  1.00  0.00    -0.189 C  
HETATM   12  C   UNL     1      -8.695  11.630  67.584  1.00  0.00    -0.156 C  
HETATM   13  O   UNL     1      -7.354  11.054  69.450  1.00  0.00    -0.124 OA 
HETATM   14  C   UNL     1      -7.925  10.663  68.434  1.00  0.00    -0.120 C  
HETATM   15  C   UNL     1      -7.914   9.267  67.963  1.00  0.00    -0.100 A  
HETATM   16  C   UNL     1      -8.815   8.916  66.953  1.00  0.00    -0.127 A  
HETATM   17  C   UNL     1      -8.820   7.613  66.439  1.00  0.00    -0.179 A  
HETATM   18  O   UNL     1      -9.717   9.785  66.376  1.00  0.00    -0.186 OA 
HETATM   19  C   UNL     1      -7.913   6.659  66.913  1.00  0.00    -0.109 A  
HETATM   20  O   UNL     1      -6.106   8.629  69.415  1.00  0.00    -0.039 OA 
HETATM   21  C   UNL     1      -7.026   7.008  67.935  1.00  0.00    -0.083 A  
HETATM   22  H   UNL     1      -5.499   7.977  69.745  1.00  0.00     0.000 HD 
HETATM   23  C   UNL     1      -7.018   8.305  68.450  1.00  0.00    -0.073 A  
BRANCH  19  24
HETATM   24  O   UNL     1      -7.818   5.358  66.484  1.00  0.00    -0.099 OA 
BRANCH  24  25
HETATM   25  C   UNL     1      -8.126   4.337  67.442  1.00  0.00    -0.099 C  
HETATM   26  C   UNL     1      -9.328   3.912  69.450  1.00  0.00    -0.176 C  
HETATM   27  O   UNL     1      -8.802   4.920  68.570  1.00  0.00    -0.100 OA 
HETATM   28  C   UNL     1      -8.180   3.087  70.049  1.00  0.00    -0.044 C  
HETATM   29  H   UNL     1      -5.600   1.526  68.797  1.00  0.00     0.000 HD 
HETATM   30  O   UNL     1      -6.084   3.085  66.866  1.00  0.00    -0.023 OA 
HETATM   31  C   UNL     1      -7.288   2.534  68.929  1.00  0.00    -0.044 C  
HETATM   32  O   UNL     1      -8.622   1.972  70.837  1.00  0.00    -0.049 OA 
HETATM   33  H   UNL     1      -5.297   2.655  67.179  1.00  0.00     0.000 HD 
HETATM   34  H   UNL     1      -7.913   1.462  71.208  1.00  0.00     0.000 HD 
HETATM   35  O   UNL     1      -6.152   1.868  69.491  1.00  0.00    -0.023 OA 
HETATM   36  C   UNL     1      -6.845   3.637  67.952  1.00  0.00    -0.050 C  
BRANCH  26  37
HETATM   37  C   UNL     1     -10.156   4.588  70.550  1.00  0.00    -0.162 C  
BRANCH  37  38
HETATM   38  O   UNL     1     -11.064   5.502  69.934  1.00  0.00    -0.260 OA 
BRANCH  38  39
HETATM   39  C   UNL     1     -11.172   6.731  70.659  1.00  0.00    -0.312 C  
HETATM   40  O   UNL     1     -10.157   7.621  70.193  1.00  0.00    -0.195 OA 
HETATM   41  C   UNL     1     -10.052   8.861  70.894  1.00  0.00    -0.241 C  
HETATM   42  C   UNL     1      -9.883   8.652  72.413  1.00  0.00    -0.245 C  
HETATM   43  C   UNL     1     -11.179   9.812  70.500  1.00  0.00    -0.381 C  
HETATM   44  O   UNL     1      -8.593   8.071  72.668  1.00  0.00    -0.144 OA 
HETATM   45  C   UNL     1     -10.932   7.702  72.996  1.00  0.00    -0.400 C  
HETATM   46  O   UNL     1     -12.213   8.336  73.149  1.00  0.00    -0.595 OA 
HETATM   47  H   UNL     1      -8.490   7.942  73.604  1.00  0.00     0.000 HD 
HETATM   48  C   UNL     1     -11.043   6.416  72.165  1.00  0.00    -0.263 C  
HETATM   49  H   UNL     1     -12.863   7.747  73.511  1.00  0.00     0.000 HD 
HETATM   50  O   UNL     1     -12.169   5.647  72.625  1.00  0.00    -0.487 OA 
HETATM   51  H   UNL     1     -12.089   5.453  73.552  1.00  0.00     0.000 HD 
ENDBRANCH  38  39
ENDBRANCH  37  38
ENDBRANCH  26  37
ENDBRANCH  24  25
ENDBRANCH  19  24
ENDBRANCH   6  11
ENDBRANCH   2   3
TORSDOF 7
ENDMDL
MODEL       83
REMARK 921   NORMALIZED FREE ENERGY PREDICTED BY IDOCK:   -6.75 KCAL/MOL
REMARK 922        TOTAL FREE ENERGY PREDICTED BY IDOCK:  -10.79 KCAL/MOL
REMARK 923 INTER-LIGAND FREE ENERGY PREDICTED BY IDOCK:   -9.70 KCAL/MOL
REMARK 924 INTRA-LIGAND FREE ENERGY PREDICTED BY IDOCK:   -1.10 KCAL/MOL
REMARK 927      BINDING AFFINITY PREDICTED BY RF-SCORE:    0.00 PKD
ROOT
HETATM    1  C   UNL     1      -6.320  21.028  66.327  1.00  0.00    -0.246 C  
HETATM    2  O   UNL     1      -7.342  20.863  67.305  1.00  0.00    -0.351 OA 
ENDROOT
BRANCH   2   3
HETATM    3  C   UNL     1      -7.443  19.606  67.840  1.00  0.00    -0.286 A  
HETATM    4  C   UNL     1      -6.293  19.161  68.505  1.00  0.00    -0.260 A  
HETATM    5  C   UNL     1      -6.235  17.891  69.071  1.00  0.00    -0.222 A  
HETATM    6  C   UNL     1      -7.349  17.031  69.016  1.00  0.00    -0.225 A  
HETATM    7  C   UNL     1      -8.519  17.496  68.398  1.00  0.00    -0.275 A  
HETATM    8  H   UNL     1     -10.497  18.627  67.228  1.00  0.00     0.000 HD 
HETATM    9  O   UNL     1      -9.731  19.190  67.240  1.00  0.00    -0.305 OA 
HETATM   10  C   UNL     1      -8.568  18.778  67.823  1.00  0.00    -0.283 A  
BRANCH   6  11
HETATM   11  C   UNL     1      -7.204  15.588  69.474  1.00  0.00    -0.201 C  
HETATM   12  C   UNL     1      -6.060  15.511  70.471  1.00  0.00     0.044 C  
HETATM   13  O   UNL     1      -5.830  13.894  72.188  1.00  0.00    -0.405 OA 
HETATM   14  C   UNL     1      -6.013  14.104  70.990  1.00  0.00    -0.187 C  
HETATM   15  C   UNL     1      -6.194  13.045  69.982  1.00  0.00    -0.062 A  
HETATM   16  C   UNL     1      -6.653  13.425  68.718  1.00  0.00    -0.102 A  
HETATM   17  C   UNL     1      -6.805  12.465  67.708  1.00  0.00    -0.113 A  
HETATM   18  O   UNL     1      -6.955  14.721  68.354  1.00  0.00    -0.102 OA 
HETATM   19  C   UNL     1      -6.479  11.126  67.947  1.00  0.00    -0.058 A  
HETATM   20  O   UNL     1      -5.405  11.305  71.443  1.00  0.00    -0.282 OA 
HETATM   21  C   UNL     1      -6.037  10.746  69.218  1.00  0.00    -0.045 A  
HETATM   22  H   UNL     1      -5.196  10.393  71.608  1.00  0.00     0.000 HD 
HETATM   23  C   UNL     1      -5.886  11.699  70.226  1.00  0.00    -0.161 A  
BRANCH  19  24
HETATM   24  O   UNL     1      -6.579  10.101  67.039  1.00  0.00    -0.071 OA 
BRANCH  24  25
HETATM   25  C   UNL     1      -7.837   9.418  66.971  1.00  0.00    -0.098 C  
HETATM   26  C   UNL     1     -10.084   9.486  67.750  1.00  0.00    -0.198 C  
HETATM   27  O   UNL     1      -8.747   9.981  67.932  1.00  0.00    -0.124 OA 
HETATM   28  C   UNL     1     -10.119   7.970  68.000  1.00  0.00    -0.194 C  
HETATM   29  H   UNL     1      -8.368   5.438  66.913  1.00  0.00     0.000 HD 
HETATM   30  O   UNL     1      -6.730   7.294  66.393  1.00  0.00    -0.057 OA 
HETATM   31  C   UNL     1      -9.068   7.267  67.130  1.00  0.00    -0.130 C  
HETATM   32  O   UNL     1     -11.390   7.369  67.710  1.00  0.00    -0.417 OA 
HETATM   33  H   UNL     1      -6.633   6.368  66.582  1.00  0.00     0.000 HD 
HETATM   34  H   UNL     1     -11.413   6.433  67.865  1.00  0.00     0.000 HD 
HETATM   35  O   UNL     1      -9.020   5.873  67.451  1.00  0.00    -0.111 OA 
HETATM   36  C   UNL     1      -7.678   7.911  67.278  1.00  0.00    -0.105 C  
BRANCH  26  37
HETATM   37  C   UNL     1     -11.029  10.226  68.703  1.00  0.00    -0.244 C  
BRANCH  37  38
HETATM   38  O   UNL     1     -10.358  10.410  69.950  1.00  0.00    -0.244 OA 
BRANCH  38  39
HETATM   39  C   UNL     1     -10.916   9.602  70.991  1.00  0.00    -0.361 C  
HETATM   40  O   UNL     1     -10.427   8.269  70.839  1.00  0.00    -0.193 OA 
HETATM   41  C   UNL     1     -10.978   7.302  71.735  1.00  0.00    -0.227 C  
HETATM   42  C   UNL     1     -12.519   7.284  71.687  1.00  0.00    -0.359 C  
HETATM   43  C   UNL     1     -10.382   7.447  73.133  1.00  0.00    -0.384 C  
HETATM   44  O   UNL     1     -12.945   6.768  70.415  1.00  0.00    -0.362 OA 
HETATM   45  C   UNL     1     -13.129   8.680  71.837  1.00  0.00    -0.373 C  
HETATM   46  O   UNL     1     -13.101   9.140  73.198  1.00  0.00    -0.689 OA 
HETATM   47  H   UNL     1     -13.895   6.757  70.386  1.00  0.00     0.000 HD 
HETATM   48  C   UNL     1     -12.455   9.687  70.895  1.00  0.00    -0.238 C  
HETATM   49  H   UNL     1     -13.479  10.006  73.292  1.00  0.00     0.000 HD 
HETATM   50  O   UNL     1     -12.915  11.014  71.208  1.00  0.00    -0.386 OA 
HETATM   51  H   UNL     1     -13.861  11.066  71.149  1.00  0.00     0.000 HD 
ENDBRANCH  38  39
ENDBRANCH  37  38
ENDBRANCH  26  37
ENDBRANCH  24  25
ENDBRANCH  19  24
ENDBRANCH   6  11
ENDBRANCH   2   3
TORSDOF 7
ENDMDL
MODEL       84
REMARK 921   NORMALIZED FREE ENERGY PREDICTED BY IDOCK:   -6.65 KCAL/MOL
REMARK 922        TOTAL FREE ENERGY PREDICTED BY IDOCK:  -10.65 KCAL/MOL
REMARK 923 INTER-LIGAND FREE ENERGY PREDICTED BY IDOCK:   -9.64 KCAL/MOL
REMARK 924 INTRA-LIGAND FREE ENERGY PREDICTED BY IDOCK:   -1.02 KCAL/MOL
REMARK 927      BINDING AFFINITY PREDICTED BY RF-SCORE:    0.00 PKD
ROOT
HETATM    1  C   UNL     1      -5.798   1.809  67.534  1.00  0.00    -0.019 C  
HETATM    2  O   UNL     1      -5.581   2.598  66.369  1.00  0.00    -0.019 OA 
ENDROOT
BRANCH   2   3
HETATM    3  C   UNL     1      -6.443   3.650  66.205  1.00  0.00    -0.037 A  
HETATM    4  C   UNL     1      -5.973   4.872  66.704  1.00  0.00    -0.027 A  
HETATM    5  C   UNL     1      -6.752   6.023  66.640  1.00  0.00    -0.061 A  
HETATM    6  C   UNL     1      -8.025   5.994  66.038  1.00  0.00    -0.109 A  
HETATM    7  C   UNL     1      -8.475   4.783  65.491  1.00  0.00    -0.127 A  
HETATM    8  H   UNL     1      -9.005   2.451  64.575  1.00  0.00     0.000 HD 
HETATM    9  O   UNL     1      -8.160   2.470  65.010  1.00  0.00    -0.081 OA 
HETATM   10  C   UNL     1      -7.684   3.622  65.565  1.00  0.00    -0.082 A  
BRANCH   6  11
HETATM   11  C   UNL     1      -8.931   7.211  66.144  1.00  0.00    -0.140 C  
HETATM   12  C   UNL     1      -8.369   8.309  65.257  1.00  0.00    -0.175 C  
HETATM   13  O   UNL     1      -9.622  10.053  64.256  1.00  0.00    -0.297 OA 
HETATM   14  C   UNL     1      -9.340   9.452  65.291  1.00  0.00    -0.238 C  
HETATM   15  C   UNL     1      -9.897   9.778  66.616  1.00  0.00    -0.275 A  
HETATM   16  C   UNL     1      -9.697   8.856  67.647  1.00  0.00    -0.161 A  
HETATM   17  C   UNL     1     -10.170   9.132  68.937  1.00  0.00    -0.221 A  
HETATM   18  O   UNL     1      -9.022   7.662  67.506  1.00  0.00    -0.126 OA 
HETATM   19  C   UNL     1     -10.824  10.339  69.210  1.00  0.00    -0.238 A  
HETATM   20  O   UNL     1     -10.751  11.910  65.904  1.00  0.00    -0.265 OA 
HETATM   21  C   UNL     1     -11.039  11.250  68.172  1.00  0.00    -0.319 A  
HETATM   22  H   UNL     1     -11.207  12.724  66.087  1.00  0.00     0.000 HD 
HETATM   23  C   UNL     1     -10.570  10.978  66.886  1.00  0.00    -0.258 A  
BRANCH  19  24
HETATM   24  O   UNL     1     -11.324  10.723  70.429  1.00  0.00    -0.301 OA 
BRANCH  24  25
HETATM   25  C   UNL     1     -12.221  11.841  70.438  1.00  0.00    -0.330 C  
HETATM   26  C   UNL     1     -12.426  14.121  69.790  1.00  0.00    -0.216 C  
HETATM   27  O   UNL     1     -11.523  13.025  70.014  1.00  0.00    -0.164 OA 
HETATM   28  C   UNL     1     -13.116  14.509  71.107  1.00  0.00    -0.359 C  
HETATM   29  H   UNL     1     -14.722  12.847  73.414  1.00  0.00     0.000 HD 
HETATM   30  O   UNL     1     -13.453  10.926  72.365  1.00  0.00    -0.587 OA 
HETATM   31  C   UNL     1     -13.775  13.275  71.739  1.00  0.00    -0.196 C  
HETATM   32  O   UNL     1     -14.134  15.508  70.950  1.00  0.00    -0.855 OA 
HETATM   33  H   UNL     1     -13.805  11.083  73.233  1.00  0.00     0.000 HD 
HETATM   34  H   UNL     1     -14.561  15.748  71.764  1.00  0.00     0.000 HD 
HETATM   35  O   UNL     1     -14.314  13.611  73.022  1.00  0.00    -0.140 OA 
HETATM   36  C   UNL     1     -12.794  12.095  71.851  1.00  0.00    -0.222 C  
BRANCH  26  37
HETATM   37  C   UNL     1     -11.645  15.305  69.207  1.00  0.00    -0.332 C  
BRANCH  37  38
HETATM   38  O   UNL     1     -10.954  14.857  68.040  1.00  0.00    -0.262 OA 
BRANCH  38  39
HETATM   39  C   UNL     1      -9.642  15.422  67.937  1.00  0.00    -0.206 C  
HETATM   40  O   UNL     1      -9.708  16.791  68.339  1.00  0.00    -0.231 OA 
HETATM   41  C   UNL     1      -8.500  17.538  68.187  1.00  0.00    -0.254 C  
HETATM   42  C   UNL     1      -7.949  17.459  66.749  1.00  0.00    -0.244 C  
HETATM   43  C   UNL     1      -7.494  17.183  69.279  1.00  0.00    -0.061 C  
HETATM   44  O   UNL     1      -8.834  18.168  65.866  1.00  0.00    -0.500 OA 
HETATM   45  C   UNL     1      -7.851  16.021  66.235  1.00  0.00     0.083 C  
HETATM   46  O   UNL     1      -6.723  15.323  66.787  1.00  0.00    -0.212 OA 
HETATM   47  H   UNL     1      -8.495  18.119  64.979  1.00  0.00     0.000 HD 
HETATM   48  C   UNL     1      -9.156  15.251  66.481  1.00  0.00    -0.300 C  
HETATM   49  H   UNL     1      -6.662  14.431  66.468  1.00  0.00     0.000 HD 
HETATM   50  O   UNL     1      -8.955  13.860  66.169  1.00  0.00    -0.474 OA 
HETATM   51  H   UNL     1      -8.657  13.755  65.274  1.00  0.00     0.000 HD 
ENDBRANCH  38  39
ENDBRANCH  37  38
ENDBRANCH  26  37
ENDBRANCH  24  25
ENDBRANCH  19  24
ENDBRANCH   6  11
ENDBRANCH   2   3
TORSDOF 7
ENDMDL
MODEL       85
REMARK 921   NORMALIZED FREE ENERGY PREDICTED BY IDOCK:   -6.59 KCAL/MOL
REMARK 922        TOTAL FREE ENERGY PREDICTED BY IDOCK:  -10.56 KCAL/MOL
REMARK 923 INTER-LIGAND FREE ENERGY PREDICTED BY IDOCK:   -8.89 KCAL/MOL
REMARK 924 INTRA-LIGAND FREE ENERGY PREDICTED BY IDOCK:   -1.68 KCAL/MOL
REMARK 927      BINDING AFFINITY PREDICTED BY RF-SCORE:    0.00 PKD
ROOT
HETATM    1  C   UNL     1     -11.535  15.734  68.309  1.00  0.00    -0.337 C  
HETATM    2  O   UNL     1     -12.156  14.876  67.358  1.00  0.00    -0.246 OA 
ENDROOT
BRANCH   2   3
HETATM    3  C   UNL     1     -11.509  13.691  67.126  1.00  0.00    -0.342 A  
HETATM    4  C   UNL     1     -10.563  13.344  68.098  1.00  0.00    -0.255 A  
HETATM    5  C   UNL     1      -9.802  12.184  67.981  1.00  0.00    -0.202 A  
HETATM    6  C   UNL     1      -9.992  11.310  66.892  1.00  0.00    -0.238 A  
HETATM    7  C   UNL     1     -10.977  11.631  65.946  1.00  0.00    -0.334 A  
HETATM    8  H   UNL     1     -12.844  12.470  64.408  1.00  0.00     0.000 HD 
HETATM    9  O   UNL     1     -12.689  13.071  65.128  1.00  0.00    -0.585 OA 
HETATM   10  C   UNL     1     -11.737  12.807  66.068  1.00  0.00    -0.418 A  
BRANCH   6  11
HETATM   11  C   UNL     1      -9.028  10.152  66.686  1.00  0.00    -0.140 C  
HETATM   12  C   UNL     1      -8.085  10.506  65.548  1.00  0.00    -0.155 C  
HETATM   13  O   UNL     1      -5.890   9.661  65.261  1.00  0.00    -0.060 OA 
HETATM   14  C   UNL     1      -7.078   9.399  65.442  1.00  0.00    -0.091 C  
HETATM   15  C   UNL     1      -7.614   8.032  65.567  1.00  0.00    -0.085 A  
HETATM   16  C   UNL     1      -8.924   7.890  66.032  1.00  0.00    -0.154 A  
HETATM   17  C   UNL     1      -9.500   6.616  66.132  1.00  0.00    -0.057 A  
HETATM   18  O   UNL     1      -9.744   8.941  66.389  1.00  0.00    -0.220 OA 
HETATM   19  C   UNL     1      -8.779   5.480  65.748  1.00  0.00    -0.151 A  
HETATM   20  O   UNL     1      -5.615   7.004  64.713  1.00  0.00    -0.031 OA 
HETATM   21  C   UNL     1      -7.463   5.624  65.301  1.00  0.00    -0.074 A  
HETATM   22  H   UNL     1      -5.122   6.231  64.464  1.00  0.00     0.000 HD 
HETATM   23  C   UNL     1      -6.887   6.891  65.201  1.00  0.00    -0.051 A  
BRANCH  19  24
HETATM   24  O   UNL     1      -9.236   4.186  65.794  1.00  0.00    -0.132 OA 
BRANCH  24  25
HETATM   25  C   UNL     1      -9.191   3.529  67.067  1.00  0.00    -0.190 C  
HETATM   26  C   UNL     1      -9.599   3.849  69.389  1.00  0.00    -0.169 C  
HETATM   27  O   UNL     1      -9.411   4.489  68.116  1.00  0.00    -0.133 OA 
HETATM   28  C   UNL     1      -8.321   3.098  69.791  1.00  0.00    -0.051 C  
HETATM   29  H   UNL     1      -6.378   0.941  68.297  1.00  0.00     0.000 HD 
HETATM   30  O   UNL     1      -7.506   1.926  66.258  1.00  0.00    -0.059 OA 
HETATM   31  C   UNL     1      -7.896   2.142  68.668  1.00  0.00    -0.052 C  
HETATM   32  O   UNL     1      -8.464   2.320  70.989  1.00  0.00    -0.052 OA 
HETATM   33  H   UNL     1      -6.663   1.512  66.405  1.00  0.00     0.000 HD 
HETATM   34  H   UNL     1      -7.674   1.855  71.238  1.00  0.00     0.000 HD 
HETATM   35  O   UNL     1      -6.642   1.533  68.992  1.00  0.00    -0.028 OA 
HETATM   36  C   UNL     1      -7.821   2.855  67.307  1.00  0.00    -0.074 C  
BRANCH  26  37
HETATM   37  C   UNL     1      -9.970   4.909  70.434  1.00  0.00    -0.246 C  
BRANCH  37  38
HETATM   38  O   UNL     1     -11.091   5.647  69.948  1.00  0.00    -0.321 OA 
BRANCH  38  39
HETATM   39  C   UNL     1     -11.293   6.866  70.673  1.00  0.00    -0.320 C  
HETATM   40  O   UNL     1     -10.259   7.782  70.311  1.00  0.00    -0.195 OA 
HETATM   41  C   UNL     1     -10.246   9.016  71.031  1.00  0.00    -0.277 C  
HETATM   42  C   UNL     1     -10.213   8.792  72.557  1.00  0.00    -0.038 C  
HETATM   43  C   UNL     1     -11.352   9.947  70.544  1.00  0.00    -0.399 C  
HETATM   44  O   UNL     1      -8.940   8.235  72.924  1.00  0.00    -0.233 OA 
HETATM   45  C   UNL     1     -11.290   7.813  73.032  1.00  0.00    -0.273 C  
HETATM   46  O   UNL     1     -12.593   8.419  73.072  1.00  0.00    -0.676 OA 
HETATM   47  H   UNL     1      -8.920   8.098  73.864  1.00  0.00     0.000 HD 
HETATM   48  C   UNL     1     -11.296   6.536  72.181  1.00  0.00    -0.282 C  
HETATM   49  H   UNL     1     -13.261   7.812  73.366  1.00  0.00     0.000 HD 
HETATM   50  O   UNL     1     -12.443   5.738  72.528  1.00  0.00    -0.461 OA 
HETATM   51  H   UNL     1     -12.444   5.535  73.456  1.00  0.00     0.000 HD 
ENDBRANCH  38  39
ENDBRANCH  37  38
ENDBRANCH  26  37
ENDBRANCH  24  25
ENDBRANCH  19  24
ENDBRANCH   6  11
ENDBRANCH   2   3
TORSDOF 7
ENDMDL
MODEL       86
REMARK 921   NORMALIZED FREE ENERGY PREDICTED BY IDOCK:   -6.57 KCAL/MOL
REMARK 922        TOTAL FREE ENERGY PREDICTED BY IDOCK:  -10.54 KCAL/MOL
REMARK 923 INTER-LIGAND FREE ENERGY PREDICTED BY IDOCK:   -9.19 KCAL/MOL
REMARK 924 INTRA-LIGAND FREE ENERGY PREDICTED BY IDOCK:   -1.35 KCAL/MOL
REMARK 927      BINDING AFFINITY PREDICTED BY RF-SCORE:    0.00 PKD
ROOT
HETATM    1  C   UNL     1     -12.106  14.855  64.024  1.00  0.00    -0.126 C  
HETATM    2  O   UNL     1     -11.686  15.338  65.295  1.00  0.00    -0.209 OA 
ENDROOT
BRANCH   2   3
HETATM    3  C   UNL     1     -11.575  14.389  66.276  1.00  0.00    -0.372 A  
HETATM    4  C   UNL     1     -11.682  13.067  65.823  1.00  0.00    -0.427 A  
HETATM    5  C   UNL     1     -11.623  11.995  66.709  1.00  0.00    -0.391 A  
HETATM    6  C   UNL     1     -11.420  12.214  68.086  1.00  0.00    -0.375 A  
HETATM    7  C   UNL     1     -11.260  13.535  68.533  1.00  0.00    -0.310 A  
HETATM    8  H   UNL     1     -10.987  16.031  69.036  1.00  0.00     0.000 HD 
HETATM    9  O   UNL     1     -11.157  15.878  68.113  1.00  0.00    -0.317 OA 
HETATM   10  C   UNL     1     -11.327  14.612  67.633  1.00  0.00    -0.336 A  
BRANCH   6  11
HETATM   11  C   UNL     1     -11.543  11.049  69.055  1.00  0.00    -0.323 C  
HETATM   12  C   UNL     1     -12.410  11.485  70.225  1.00  0.00    -0.355 C  
HETATM   13  O   UNL     1     -13.716  10.050  71.585  1.00  0.00    -0.243 OA 
HETATM   14  C   UNL     1     -12.609  10.286  71.104  1.00  0.00    -0.400 C  
HETATM   15  C   UNL     1     -11.413   9.455  71.333  1.00  0.00    -0.449 A  
HETATM   16  C   UNL     1     -10.299   9.686  70.521  1.00  0.00    -0.295 A  
HETATM   17  C   UNL     1      -9.121   8.954  70.719  1.00  0.00    -0.260 A  
HETATM   18  O   UNL     1     -10.248  10.631  69.517  1.00  0.00    -0.218 OA 
HETATM   19  C   UNL     1      -9.041   8.004  71.744  1.00  0.00    -0.158 A  
HETATM   20  O   UNL     1     -12.401   8.266  73.175  1.00  0.00    -0.622 OA 
HETATM   21  C   UNL     1     -10.163   7.763  72.542  1.00  0.00    -0.320 A  
HETATM   22  H   UNL     1     -12.349   7.612  73.862  1.00  0.00     0.000 HD 
HETATM   23  C   UNL     1     -11.337   8.490  72.346  1.00  0.00    -0.342 A  
BRANCH  19  24
HETATM   24  O   UNL     1      -7.944   7.233  72.039  1.00  0.00    -0.090 OA 
BRANCH  24  25
HETATM   25  C   UNL     1      -7.717   6.086  71.210  1.00  0.00    -0.110 C  
HETATM   26  C   UNL     1      -7.370   5.407  68.956  1.00  0.00    -0.070 C  
HETATM   27  O   UNL     1      -7.809   6.465  69.825  1.00  0.00    -0.109 OA 
HETATM   28  C   UNL     1      -8.294   4.189  69.105  1.00  0.00    -0.073 C  
HETATM   29  H   UNL     1      -9.415   2.474  71.647  1.00  0.00     0.000 HD 
HETATM   30  O   UNL     1      -8.767   4.595  72.865  1.00  0.00    -0.115 OA 
HETATM   31  C   UNL     1      -8.397   3.783  70.581  1.00  0.00    -0.068 C  
HETATM   32  O   UNL     1      -7.851   3.038  68.371  1.00  0.00    -0.058 OA 
HETATM   33  H   UNL     1      -9.407   3.913  73.031  1.00  0.00     0.000 HD 
HETATM   34  H   UNL     1      -8.422   2.285  68.462  1.00  0.00     0.000 HD 
HETATM   35  O   UNL     1      -9.351   2.726  70.733  1.00  0.00    -0.127 OA 
HETATM   36  C   UNL     1      -8.759   4.978  71.480  1.00  0.00    -0.131 C  
BRANCH  26  37
HETATM   37  C   UNL     1      -7.356   5.918  67.510  1.00  0.00    -0.077 C  
BRANCH  37  38
HETATM   38  O   UNL     1      -8.688   5.860  66.999  1.00  0.00    -0.111 OA 
BRANCH  38  39
HETATM   39  C   UNL     1      -8.719   5.550  65.602  1.00  0.00    -0.153 C  
HETATM   40  O   UNL     1      -8.483   4.150  65.444  1.00  0.00    -0.108 OA 
HETATM   41  C   UNL     1      -8.369   3.690  64.097  1.00  0.00    -0.090 C  
HETATM   42  C   UNL     1      -7.302   4.475  63.307  1.00  0.00    -0.053 C  
HETATM   43  C   UNL     1      -9.738   3.616  63.425  1.00  0.00    -0.141 C  
HETATM   44  O   UNL     1      -6.001   4.155  63.828  1.00  0.00    -0.017 OA 
HETATM   45  C   UNL     1      -7.478   5.991  63.427  1.00  0.00    -0.076 C  
HETATM   46  O   UNL     1      -8.552   6.478  62.607  1.00  0.00    -0.341 OA 
HETATM   47  H   UNL     1      -5.343   4.638  63.341  1.00  0.00     0.000 HD 
HETATM   48  C   UNL     1      -7.657   6.417  64.891  1.00  0.00    -0.093 C  
HETATM   49  H   UNL     1      -8.662   7.419  62.681  1.00  0.00     0.000 HD 
HETATM   50  O   UNL     1      -8.017   7.810  64.941  1.00  0.00    -0.126 OA 
HETATM   51  H   UNL     1      -7.364   8.343  64.504  1.00  0.00     0.000 HD 
ENDBRANCH  38  39
ENDBRANCH  37  38
ENDBRANCH  26  37
ENDBRANCH  24  25
ENDBRANCH  19  24
ENDBRANCH   6  11
ENDBRANCH   2   3
TORSDOF 7
ENDMDL
MODEL       87
REMARK 921   NORMALIZED FREE ENERGY PREDICTED BY IDOCK:   -6.53 KCAL/MOL
REMARK 922        TOTAL FREE ENERGY PREDICTED BY IDOCK:  -10.48 KCAL/MOL
REMARK 923 INTER-LIGAND FREE ENERGY PREDICTED BY IDOCK:   -8.96 KCAL/MOL
REMARK 924 INTRA-LIGAND FREE ENERGY PREDICTED BY IDOCK:   -1.51 KCAL/MOL
REMARK 927      BINDING AFFINITY PREDICTED BY RF-SCORE:    0.00 PKD
ROOT
HETATM    1  C   UNL     1      -6.888   8.187  63.375  1.00  0.00    -0.084 C  
HETATM    2  O   UNL     1      -7.865   9.114  62.915  1.00  0.00    -0.120 OA 
ENDROOT
BRANCH   2   3
HETATM    3  C   UNL     1      -8.588   9.739  63.897  1.00  0.00    -0.199 A  
HETATM    4  C   UNL     1      -8.526   9.118  65.151  1.00  0.00    -0.182 A  
HETATM    5  C   UNL     1      -9.236   9.619  66.238  1.00  0.00    -0.213 A  
HETATM    6  C   UNL     1     -10.012  10.788  66.110  1.00  0.00    -0.283 A  
HETATM    7  C   UNL     1     -10.032  11.440  64.868  1.00  0.00    -0.311 A  
HETATM    8  H   UNL     1      -9.856  12.405  62.502  1.00  0.00     0.000 HD 
HETATM    9  O   UNL     1      -9.360  11.598  62.587  1.00  0.00    -0.330 OA 
HETATM   10  C   UNL     1      -9.317  10.924  63.773  1.00  0.00    -0.248 A  
BRANCH   6  11
HETATM   11  C   UNL     1     -10.923  11.211  67.252  1.00  0.00    -0.296 C  
HETATM   12  C   UNL     1     -10.447  12.556  67.775  1.00  0.00    -0.230 C  
HETATM   13  O   UNL     1     -11.798  14.173  68.858  1.00  0.00    -0.311 OA 
HETATM   14  C   UNL     1     -11.427  13.002  68.820  1.00  0.00    -0.298 C  
HETATM   15  C   UNL     1     -11.881  11.958  69.756  1.00  0.00    -0.411 A  
HETATM   16  C   UNL     1     -11.588  10.629  69.437  1.00  0.00    -0.280 A  
HETATM   17  C   UNL     1     -11.961   9.598  70.310  1.00  0.00    -0.101 A  
HETATM   18  O   UNL     1     -10.912  10.230  68.303  1.00  0.00    -0.240 OA 
HETATM   19  C   UNL     1     -12.607   9.889  71.516  1.00  0.00    -0.416 A  
HETATM   20  O   UNL     1     -12.817  13.539  71.308  1.00  0.00    -0.346 OA 
HETATM   21  C   UNL     1     -12.915  11.218  71.823  1.00  0.00    -0.519 A  
HETATM   22  H   UNL     1     -13.267  13.735  72.121  1.00  0.00     0.000 HD 
HETATM   23  C   UNL     1     -12.546  12.246  70.956  1.00  0.00    -0.257 A  
BRANCH  19  24
HETATM   24  O   UNL     1     -13.014   8.970  72.451  1.00  0.00    -0.408 OA 
BRANCH  24  25
HETATM   25  C   UNL     1     -12.029   8.035  72.910  1.00  0.00    -0.041 C  
HETATM   26  C   UNL     1      -9.694   7.752  73.265  1.00  0.00    -0.294 C  
HETATM   27  O   UNL     1     -10.712   8.541  72.627  1.00  0.00    -0.302 OA 
HETATM   28  C   UNL     1      -9.707   6.324  72.700  1.00  0.00    -0.158 C  
HETATM   29  H   UNL     1     -12.031   4.076  72.239  1.00  0.00     0.000 HD 
HETATM   30  O   UNL     1     -13.502   6.128  72.398  1.00  0.00    -0.406 OA 
HETATM   31  C   UNL     1     -11.118   5.728  72.807  1.00  0.00    -0.284 C  
HETATM   32  O   UNL     1      -8.809   5.430  73.375  1.00  0.00    -0.115 OA 
HETATM   33  H   UNL     1     -13.596   5.286  71.969  1.00  0.00     0.000 HD 
HETATM   34  H   UNL     1      -8.817   4.547  73.026  1.00  0.00     0.000 HD 
HETATM   35  O   UNL     1     -11.157   4.445  72.173  1.00  0.00     0.138 OA 
HETATM   36  C   UNL     1     -12.182   6.665  72.211  1.00  0.00    -0.146 C  
BRANCH  26  37
HETATM   37  C   UNL     1      -8.331   8.420  73.047  1.00  0.00    -0.130 C  
BRANCH  37  38
HETATM   38  O   UNL     1      -8.443   9.324  71.948  1.00  0.00    -0.261 OA 
BRANCH  38  39
HETATM   39  C   UNL     1      -7.661   8.909  70.823  1.00  0.00    -0.103 C  
HETATM   40  O   UNL     1      -7.871   7.511  70.618  1.00  0.00    -0.092 OA 
HETATM   41  C   UNL     1      -7.074   6.909  69.597  1.00  0.00    -0.068 C  
HETATM   42  C   UNL     1      -5.569   7.168  69.813  1.00  0.00    -0.023 C  
HETATM   43  C   UNL     1      -7.594   7.272  68.209  1.00  0.00    -0.118 C  
HETATM   44  O   UNL     1      -5.130   6.449  70.978  1.00  0.00    -0.017 OA 
HETATM   45  C   UNL     1      -5.254   8.647  70.047  1.00  0.00    -0.029 C  
HETATM   46  O   UNL     1      -5.287   9.408  68.829  1.00  0.00    -0.037 OA 
HETATM   47  H   UNL     1      -4.202   6.609  71.111  1.00  0.00     0.000 HD 
HETATM   48  C   UNL     1      -6.182   9.254  71.108  1.00  0.00    -0.075 C  
HETATM   49  H   UNL     1      -5.092  10.326  68.974  1.00  0.00     0.000 HD 
HETATM   50  O   UNL     1      -5.989  10.679  71.152  1.00  0.00    -0.320 OA 
HETATM   51  H   UNL     1      -5.080  10.891  71.328  1.00  0.00     0.000 HD 
ENDBRANCH  38  39
ENDBRANCH  37  38
ENDBRANCH  26  37
ENDBRANCH  24  25
ENDBRANCH  19  24
ENDBRANCH   6  11
ENDBRANCH   2   3
TORSDOF 7
ENDMDL
MODEL       88
REMARK 921   NORMALIZED FREE ENERGY PREDICTED BY IDOCK:   -6.50 KCAL/MOL
REMARK 922        TOTAL FREE ENERGY PREDICTED BY IDOCK:  -10.44 KCAL/MOL
REMARK 923 INTER-LIGAND FREE ENERGY PREDICTED BY IDOCK:   -9.36 KCAL/MOL
REMARK 924 INTRA-LIGAND FREE ENERGY PREDICTED BY IDOCK:   -1.08 KCAL/MOL
REMARK 927      BINDING AFFINITY PREDICTED BY RF-SCORE:    0.00 PKD
ROOT
HETATM    1  C   UNL     1      -5.984  21.337  67.820  1.00  0.00    -0.350 C  
HETATM    2  O   UNL     1      -7.192  21.320  67.066  1.00  0.00    -0.423 OA 
ENDROOT
BRANCH   2   3
HETATM    3  C   UNL     1      -7.889  20.142  67.102  1.00  0.00    -0.322 A  
HETATM    4  C   UNL     1      -9.023  20.160  67.923  1.00  0.00    -0.323 A  
HETATM    5  C   UNL     1      -9.812  19.025  68.087  1.00  0.00    -0.430 A  
HETATM    6  C   UNL     1      -9.506  17.834  67.399  1.00  0.00    -0.254 A  
HETATM    7  C   UNL     1      -8.400  17.831  66.535  1.00  0.00    -0.294 A  
HETATM    8  H   UNL     1      -6.351  18.139  65.031  1.00  0.00     0.000 HD 
HETATM    9  O   UNL     1      -6.545  18.930  65.522  1.00  0.00    -0.257 OA 
HETATM   10  C   UNL     1      -7.604  18.979  66.380  1.00  0.00    -0.263 A  
BRANCH   6  11
HETATM   11  C   UNL     1     -10.267  16.561  67.733  1.00  0.00    -0.278 C  
HETATM   12  C   UNL     1     -10.835  16.692  69.136  1.00  0.00    -0.315 C  
HETATM   13  O   UNL     1     -12.763  15.583  69.954  1.00  0.00    -0.242 OA 
HETATM   14  C   UNL     1     -11.673  15.475  69.394  1.00  0.00    -0.367 C  
HETATM   15  C   UNL     1     -11.099  14.196  68.941  1.00  0.00    -0.288 A  
HETATM   16  C   UNL     1      -9.990  14.248  68.092  1.00  0.00    -0.230 A  
HETATM   17  C   UNL     1      -9.378  13.063  67.661  1.00  0.00    -0.202 A  
HETATM   18  O   UNL     1      -9.404  15.414  67.645  1.00  0.00    -0.201 OA 
HETATM   19  C   UNL     1      -9.856  11.821  68.094  1.00  0.00    -0.190 A  
HETATM   20  O   UNL     1     -12.651  12.871  70.212  1.00  0.00    -0.154 OA 
HETATM   21  C   UNL     1     -10.976  11.772  68.928  1.00  0.00    -0.288 A  
HETATM   22  H   UNL     1     -12.983  12.026  70.495  1.00  0.00     0.000 HD 
HETATM   23  C   UNL     1     -11.588  12.950  69.357  1.00  0.00    -0.302 A  
BRANCH  19  24
HETATM   24  O   UNL     1      -9.338  10.597  67.747  1.00  0.00    -0.145 OA 
BRANCH  24  25
HETATM   25  C   UNL     1     -10.037   9.441  68.226  1.00  0.00    -0.183 C  
HETATM   26  C   UNL     1     -10.288   8.016  70.114  1.00  0.00    -0.215 C  
HETATM   27  O   UNL     1      -9.482   9.028  69.488  1.00  0.00    -0.158 OA 
HETATM   28  C   UNL     1     -10.306   6.748  69.247  1.00  0.00    -0.200 C  
HETATM   29  H   UNL     1     -10.909   6.152  66.094  1.00  0.00     0.000 HD 
HETATM   30  O   UNL     1     -10.399   8.624  65.930  1.00  0.00    -0.255 OA 
HETATM   31  C   UNL     1     -10.740   7.095  67.816  1.00  0.00    -0.212 C  
HETATM   32  O   UNL     1     -11.195   5.731  69.732  1.00  0.00    -0.355 OA 
HETATM   33  H   UNL     1     -10.327   7.898  65.321  1.00  0.00     0.000 HD 
HETATM   34  H   UNL     1     -11.206   4.947  69.196  1.00  0.00     0.000 HD 
HETATM   35  O   UNL     1     -10.640   5.937  66.980  1.00  0.00    -0.241 OA 
HETATM   36  C   UNL     1      -9.920   8.260  67.235  1.00  0.00    -0.224 C  
BRANCH  26  37
HETATM   37  C   UNL     1      -9.728   7.722  71.512  1.00  0.00    -0.162 C  
BRANCH  37  38
HETATM   38  O   UNL     1      -8.320   7.517  71.399  1.00  0.00    -0.106 OA 
BRANCH  38  39
HETATM   39  C   UNL     1      -7.926   6.209  71.827  1.00  0.00    -0.103 C  
HETATM   40  O   UNL     1      -8.044   5.316  70.719  1.00  0.00    -0.101 OA 
HETATM   41  C   UNL     1      -7.796   3.939  71.005  1.00  0.00    -0.059 C  
HETATM   42  C   UNL     1      -8.671   3.424  72.165  1.00  0.00    -0.087 C  
HETATM   43  C   UNL     1      -6.301   3.673  71.162  1.00  0.00    -0.019 C  
HETATM   44  O   UNL     1     -10.043   3.382  71.738  1.00  0.00    -0.158 OA 
HETATM   45  C   UNL     1      -8.607   4.329  73.398  1.00  0.00    -0.093 C  
HETATM   46  O   UNL     1      -7.388   4.152  74.138  1.00  0.00    -0.065 OA 
HETATM   47  H   UNL     1     -10.582   3.064  72.453  1.00  0.00     0.000 HD 
HETATM   48  C   UNL     1      -8.820   5.802  73.019  1.00  0.00    -0.123 C  
HETATM   49  H   UNL     1      -7.349   4.714  74.902  1.00  0.00     0.000 HD 
HETATM   50  O   UNL     1      -8.554   6.631  74.164  1.00  0.00    -0.128 OA 
HETATM   51  H   UNL     1      -9.105   6.381  74.897  1.00  0.00     0.000 HD 
ENDBRANCH  38  39
ENDBRANCH  37  38
ENDBRANCH  26  37
ENDBRANCH  24  25
ENDBRANCH  19  24
ENDBRANCH   6  11
ENDBRANCH   2   3
TORSDOF 7
ENDMDL
MODEL       89
REMARK 921   NORMALIZED FREE ENERGY PREDICTED BY IDOCK:   -6.49 KCAL/MOL
REMARK 922        TOTAL FREE ENERGY PREDICTED BY IDOCK:  -10.42 KCAL/MOL
REMARK 923 INTER-LIGAND FREE ENERGY PREDICTED BY IDOCK:   -8.91 KCAL/MOL
REMARK 924 INTRA-LIGAND FREE ENERGY PREDICTED BY IDOCK:   -1.51 KCAL/MOL
REMARK 927      BINDING AFFINITY PREDICTED BY RF-SCORE:    0.00 PKD
ROOT
HETATM    1  C   UNL     1     -12.729  15.236  70.350  1.00  0.00    -0.356 C  
HETATM    2  O   UNL     1     -11.923  15.927  69.402  1.00  0.00    -0.354 OA 
ENDROOT
BRANCH   2   3
HETATM    3  C   UNL     1     -11.331  15.139  68.450  1.00  0.00    -0.315 A  
HETATM    4  C   UNL     1     -11.870  13.851  68.343  1.00  0.00    -0.409 A  
HETATM    5  C   UNL     1     -11.350  12.925  67.443  1.00  0.00    -0.355 A  
HETATM    6  C   UNL     1     -10.284  13.276  66.591  1.00  0.00    -0.265 A  
HETATM    7  C   UNL     1      -9.779  14.583  66.661  1.00  0.00    -0.285 A  
HETATM    8  H   UNL     1      -9.091  17.025  67.007  1.00  0.00     0.000 HD 
HETATM    9  O   UNL     1      -9.788  16.773  67.602  1.00  0.00    -0.252 OA 
HETATM   10  C   UNL     1     -10.306  15.511  67.577  1.00  0.00    -0.271 A  
BRANCH   6  11
HETATM   11  C   UNL     1      -9.612  12.201  65.751  1.00  0.00    -0.197 C  
HETATM   12  C   UNL     1     -10.621  11.678  64.741  1.00  0.00    -0.358 C  
HETATM   13  O   UNL     1     -10.097  10.713  62.641  1.00  0.00    -0.135 OA 
HETATM   14  C   UNL     1      -9.901  10.704  63.855  1.00  0.00    -0.338 C  
HETATM   15  C   UNL     1      -8.982   9.777  64.538  1.00  0.00    -0.278 A  
HETATM   16  C   UNL     1      -8.658  10.050  65.870  1.00  0.00    -0.139 A  
HETATM   17  C   UNL     1      -7.820   9.180  66.582  1.00  0.00    -0.100 A  
HETATM   18  O   UNL     1      -9.132  11.131  66.583  1.00  0.00    -0.162 OA 
HETATM   19  C   UNL     1      -7.321   8.022  65.975  1.00  0.00    -0.073 A  
HETATM   20  O   UNL     1      -8.792   8.319  62.636  1.00  0.00    -0.427 OA 
HETATM   21  C   UNL     1      -7.633   7.762  64.638  1.00  0.00    -0.113 A  
HETATM   22  H   UNL     1      -8.442   7.539  62.221  1.00  0.00     0.000 HD 
HETATM   23  C   UNL     1      -8.465   8.626  63.927  1.00  0.00    -0.062 A  
BRANCH  19  24
HETATM   24  O   UNL     1      -6.501   7.095  66.569  1.00  0.00    -0.048 OA 
BRANCH  24  25
HETATM   25  C   UNL     1      -7.125   6.143  67.441  1.00  0.00    -0.070 C  
HETATM   26  C   UNL     1      -9.239   5.336  68.174  1.00  0.00    -0.113 C  
HETATM   27  O   UNL     1      -8.541   6.394  67.497  1.00  0.00    -0.116 OA 
HETATM   28  C   UNL     1      -8.784   5.262  69.640  1.00  0.00    -0.101 C  
HETATM   29  H   UNL     1      -5.876   5.127  71.119  1.00  0.00     0.000 HD 
HETATM   30  O   UNL     1      -5.133   6.058  68.887  1.00  0.00    -0.003 OA 
HETATM   31  C   UNL     1      -7.255   5.147  69.711  1.00  0.00    -0.060 C  
HETATM   32  O   UNL     1      -9.334   4.147  70.357  1.00  0.00    -0.122 OA 
HETATM   33  H   UNL     1      -4.785   6.114  69.769  1.00  0.00     0.000 HD 
HETATM   34  H   UNL     1      -9.053   4.100  71.263  1.00  0.00     0.000 HD 
HETATM   35  O   UNL     1      -6.823   5.198  71.075  1.00  0.00    -0.044 OA 
HETATM   36  C   UNL     1      -6.559   6.235  68.876  1.00  0.00    -0.048 C  
BRANCH  26  37
HETATM   37  C   UNL     1     -10.749   5.588  68.077  1.00  0.00    -0.086 C  
BRANCH  37  38
HETATM   38  O   UNL     1     -10.990   6.977  68.301  1.00  0.00    -0.169 OA 
BRANCH  38  39
HETATM   39  C   UNL     1     -11.144   7.283  69.691  1.00  0.00    -0.141 C  
HETATM   40  O   UNL     1     -12.448   6.872  70.102  1.00  0.00    -0.039 OA 
HETATM   41  C   UNL     1     -12.809   7.209  71.442  1.00  0.00    -0.384 C  
HETATM   42  C   UNL     1     -12.642   8.716  71.723  1.00  0.00    -0.349 C  
HETATM   43  C   UNL     1     -12.116   6.289  72.444  1.00  0.00    -0.186 C  
HETATM   44  O   UNL     1     -13.626   9.447  70.972  1.00  0.00    -0.567 OA 
HETATM   45  C   UNL     1     -11.267   9.244  71.305  1.00  0.00    -0.355 C  
HETATM   46  O   UNL     1     -10.239   8.878  72.240  1.00  0.00    -0.296 OA 
HETATM   47  H   UNL     1     -13.523  10.376  71.145  1.00  0.00     0.000 HD 
HETATM   48  C   UNL     1     -10.909   8.798  69.881  1.00  0.00    -0.206 C  
HETATM   49  H   UNL     1      -9.386   9.205  71.981  1.00  0.00     0.000 HD 
HETATM   50  O   UNL     1      -9.539   9.142  69.604  1.00  0.00    -0.165 OA 
HETATM   51  H   UNL     1      -9.395  10.073  69.720  1.00  0.00     0.000 HD 
ENDBRANCH  38  39
ENDBRANCH  37  38
ENDBRANCH  26  37
ENDBRANCH  24  25
ENDBRANCH  19  24
ENDBRANCH   6  11
ENDBRANCH   2   3
TORSDOF 7
ENDMDL
MODEL       90
REMARK 921   NORMALIZED FREE ENERGY PREDICTED BY IDOCK:   -6.42 KCAL/MOL
REMARK 922        TOTAL FREE ENERGY PREDICTED BY IDOCK:  -10.33 KCAL/MOL
REMARK 923 INTER-LIGAND FREE ENERGY PREDICTED BY IDOCK:   -9.03 KCAL/MOL
REMARK 924 INTRA-LIGAND FREE ENERGY PREDICTED BY IDOCK:   -1.30 KCAL/MOL
REMARK 927      BINDING AFFINITY PREDICTED BY RF-SCORE:    0.00 PKD
ROOT
HETATM    1  C   UNL     1      -8.992  19.919  69.365  1.00  0.00     0.353 C  
HETATM    2  O   UNL     1     -10.234  19.897  68.669  1.00  0.00    -0.447 OA 
ENDROOT
BRANCH   2   3
HETATM    3  C   UNL     1     -10.387  18.868  67.777  1.00  0.00    -0.421 A  
HETATM    4  C   UNL     1     -10.489  17.600  68.362  1.00  0.00    -0.360 A  
HETATM    5  C   UNL     1     -10.614  16.454  67.581  1.00  0.00    -0.313 A  
HETATM    6  C   UNL     1     -10.676  16.549  66.177  1.00  0.00    -0.155 A  
HETATM    7  C   UNL     1     -10.628  17.824  65.593  1.00  0.00    -0.123 A  
HETATM    8  H   UNL     1     -10.534  20.266  64.830  1.00  0.00     0.000 HD 
HETATM    9  O   UNL     1     -10.461  20.194  65.775  1.00  0.00    -0.430 OA 
HETATM   10  C   UNL     1     -10.494  18.975  66.389  1.00  0.00    -0.446 A  
BRANCH   6  11
HETATM   11  C   UNL     1     -10.627  15.281  65.339  1.00  0.00    -0.394 C  
HETATM   12  C   UNL     1     -12.044  14.919  64.927  1.00  0.00    -0.275 C  
HETATM   13  O   UNL     1     -12.649  13.686  62.996  1.00  0.00    -0.729 OA 
HETATM   14  C   UNL     1     -11.955  13.735  64.010  1.00  0.00    -0.408 C  
HETATM   15  C   UNL     1     -11.006  12.683  64.416  1.00  0.00    -0.386 A  
HETATM   16  C   UNL     1     -10.099  12.986  65.436  1.00  0.00    -0.252 A  
HETATM   17  C   UNL     1      -9.201  12.011  65.890  1.00  0.00    -0.106 A  
HETATM   18  O   UNL     1     -10.027  14.204  66.079  1.00  0.00    -0.301 OA 
HETATM   19  C   UNL     1      -9.218  10.722  65.346  1.00  0.00    -0.205 A  
HETATM   20  O   UNL     1     -11.906  11.064  62.883  1.00  0.00    -0.479 OA 
HETATM   21  C   UNL     1     -10.114  10.427  64.314  1.00  0.00    -0.306 A  
HETATM   22  H   UNL     1     -11.909  10.192  62.505  1.00  0.00     0.000 HD 
HETATM   23  C   UNL     1     -11.009  11.397  63.859  1.00  0.00    -0.366 A  
BRANCH  19  24
HETATM   24  O   UNL     1      -8.396   9.685  65.711  1.00  0.00    -0.123 OA 
BRANCH  24  25
HETATM   25  C   UNL     1      -8.942   8.363  65.617  1.00  0.00    -0.134 C  
HETATM   26  C   UNL     1      -9.974   6.635  66.885  1.00  0.00    -0.180 C  
HETATM   27  O   UNL     1      -9.221   7.859  66.935  1.00  0.00    -0.140 OA 
HETATM   28  C   UNL     1      -9.144   5.537  66.201  1.00  0.00    -0.150 C  
HETATM   29  H   UNL     1      -7.478   5.352  63.399  1.00  0.00     0.000 HD 
HETATM   30  O   UNL     1      -7.581   7.870  63.624  1.00  0.00    -0.114 OA 
HETATM   31  C   UNL     1      -8.653   6.025  64.831  1.00  0.00    -0.002 C  
HETATM   32  O   UNL     1      -9.869   4.317  65.990  1.00  0.00    -0.195 OA 
HETATM   33  H   UNL     1      -6.975   7.274  63.199  1.00  0.00     0.000 HD 
HETATM   34  H   UNL     1      -9.356   3.638  65.567  1.00  0.00     0.000 HD 
HETATM   35  O   UNL     1      -7.782   5.050  64.247  1.00  0.00    -0.078 OA 
HETATM   36  C   UNL     1      -7.955   7.393  64.926  1.00  0.00    -0.128 C  
BRANCH  26  37
HETATM   37  C   UNL     1     -10.363   6.226  68.311  1.00  0.00    -0.194 C  
BRANCH  37  38
HETATM   38  O   UNL     1      -9.756   7.141  69.223  1.00  0.00    -0.158 OA 
BRANCH  38  39
HETATM   39  C   UNL     1      -8.752   6.516  70.031  1.00  0.00    -0.140 C  
HETATM   40  O   UNL     1      -7.496   6.632  69.360  1.00  0.00    -0.089 OA 
HETATM   41  C   UNL     1      -6.399   5.959  69.980  1.00  0.00    -0.028 C  
HETATM   42  C   UNL     1      -6.704   4.467  70.227  1.00  0.00    -0.036 C  
HETATM   43  C   UNL     1      -5.907   6.724  71.205  1.00  0.00    -0.028 C  
HETATM   44  O   UNL     1      -6.779   3.786  68.964  1.00  0.00    -0.043 OA 
HETATM   45  C   UNL     1      -8.042   4.250  70.940  1.00  0.00    -0.071 C  
HETATM   46  O   UNL     1      -7.962   4.546  72.344  1.00  0.00    -0.090 OA 
HETATM   47  H   UNL     1      -6.967   2.867  69.117  1.00  0.00     0.000 HD 
HETATM   48  C   UNL     1      -9.168   5.047  70.267  1.00  0.00    -0.139 C  
HETATM   49  H   UNL     1      -8.791   4.411  72.787  1.00  0.00     0.000 HD 
HETATM   50  O   UNL     1     -10.353   4.976  71.079  1.00  0.00    -0.223 OA 
HETATM   51  H   UNL     1     -10.609   4.073  71.224  1.00  0.00     0.000 HD 
ENDBRANCH  38  39
ENDBRANCH  37  38
ENDBRANCH  26  37
ENDBRANCH  24  25
ENDBRANCH  19  24
ENDBRANCH   6  11
ENDBRANCH   2   3
TORSDOF 7
ENDMDL
MODEL       91
REMARK 921   NORMALIZED FREE ENERGY PREDICTED BY IDOCK:   -6.41 KCAL/MOL
REMARK 922        TOTAL FREE ENERGY PREDICTED BY IDOCK:  -10.31 KCAL/MOL
REMARK 923 INTER-LIGAND FREE ENERGY PREDICTED BY IDOCK:   -8.60 KCAL/MOL
REMARK 924 INTRA-LIGAND FREE ENERGY PREDICTED BY IDOCK:   -1.71 KCAL/MOL
REMARK 927      BINDING AFFINITY PREDICTED BY RF-SCORE:    0.00 PKD
ROOT
HETATM    1  C   UNL     1      -6.215  18.644  65.234  1.00  0.00    -0.277 C  
HETATM    2  O   UNL     1      -7.351  18.423  66.063  1.00  0.00    -0.296 OA 
ENDROOT
BRANCH   2   3
HETATM    3  C   UNL     1      -7.492  17.145  66.535  1.00  0.00    -0.283 A  
HETATM    4  C   UNL     1      -6.461  16.719  67.383  1.00  0.00    -0.192 A  
HETATM    5  C   UNL     1      -6.450  15.432  67.914  1.00  0.00    -0.168 A  
HETATM    6  C   UNL     1      -7.499  14.534  67.635  1.00  0.00    -0.195 A  
HETATM    7  C   UNL     1      -8.558  14.977  66.829  1.00  0.00    -0.279 A  
HETATM    8  H   UNL     1     -10.342  16.074  65.355  1.00  0.00     0.000 HD 
HETATM    9  O   UNL     1      -9.616  16.665  65.521  1.00  0.00    -0.502 OA 
HETATM   10  C   UNL     1      -8.559  16.276  66.292  1.00  0.00    -0.339 A  
BRANCH   6  11
HETATM   11  C   UNL     1      -7.375  13.082  68.070  1.00  0.00    -0.123 C  
HETATM   12  C   UNL     1      -6.351  13.000  69.190  1.00  0.00    -0.105 C  
HETATM   13  O   UNL     1      -6.284  11.341  70.881  1.00  0.00    -0.347 OA 
HETATM   14  C   UNL     1      -6.333  11.580  69.676  1.00  0.00    -0.133 C  
HETATM   15  C   UNL     1      -6.375  10.545  68.627  1.00  0.00    -0.047 A  
HETATM   16  C   UNL     1      -6.694  10.952  67.329  1.00  0.00    -0.082 A  
HETATM   17  C   UNL     1      -6.709  10.017  66.284  1.00  0.00    -0.094 A  
HETATM   18  O   UNL     1      -6.981  12.251  66.965  1.00  0.00    -0.125 OA 
HETATM   19  C   UNL     1      -6.383   8.678  66.526  1.00  0.00    -0.058 A  
HETATM   20  O   UNL     1      -5.720   8.782  70.125  1.00  0.00    -0.030 OA 
HETATM   21  C   UNL     1      -6.082   8.272  67.829  1.00  0.00    -0.048 A  
HETATM   22  H   UNL     1      -5.512   7.870  70.291  1.00  0.00     0.000 HD 
HETATM   23  C   UNL     1      -6.067   9.200  68.871  1.00  0.00    -0.044 A  
BRANCH  19  24
HETATM   24  O   UNL     1      -6.357   7.676  65.587  1.00  0.00    -0.041 OA 
BRANCH  24  25
HETATM   25  C   UNL     1      -7.577   6.956  65.374  1.00  0.00    -0.093 C  
HETATM   26  C   UNL     1      -9.836   6.785  66.101  1.00  0.00     0.163 C  
HETATM   27  O   UNL     1      -8.529   7.304  66.396  1.00  0.00    -0.117 OA 
HETATM   28  C   UNL     1      -9.800   5.249  66.089  1.00  0.00    -0.165 C  
HETATM   29  H   UNL     1      -7.907   3.024  64.630  1.00  0.00     0.000 HD 
HETATM   30  O   UNL     1      -6.357   5.017  64.471  1.00  0.00    -0.032 OA 
HETATM   31  C   UNL     1      -8.702   4.755  65.138  1.00  0.00    -0.144 C  
HETATM   32  O   UNL     1     -11.034   4.647  65.672  1.00  0.00    -0.745 OA 
HETATM   33  H   UNL     1      -6.216   4.078  64.502  1.00  0.00     0.000 HD 
HETATM   34  H   UNL     1     -11.012   3.698  65.666  1.00  0.00     0.000 HD 
HETATM   35  O   UNL     1      -8.588   3.330  65.219  1.00  0.00    -0.102 OA 
HETATM   36  C   UNL     1      -7.348   5.428  65.426  1.00  0.00    -0.069 C  
BRANCH  26  37
HETATM   37  C   UNL     1     -10.832   7.307  67.144  1.00  0.00    -0.308 C  
BRANCH  37  38
HETATM   38  O   UNL     1     -10.208   8.364  67.872  1.00  0.00    -0.196 OA 
BRANCH  38  39
HETATM   39  C   UNL     1     -10.242   8.141  69.286  1.00  0.00    -0.214 C  
HETATM   40  O   UNL     1     -11.102   7.032  69.548  1.00  0.00    -0.238 OA 
HETATM   41  C   UNL     1     -11.338   6.744  70.928  1.00  0.00    -0.315 C  
HETATM   42  C   UNL     1     -11.856   7.979  71.694  1.00  0.00    -0.289 C  
HETATM   43  C   UNL     1     -10.129   6.059  71.559  1.00  0.00    -0.232 C  
HETATM   44  O   UNL     1     -13.182   8.293  71.239  1.00  0.00    -0.487 OA 
HETATM   45  C   UNL     1     -10.991   9.220  71.463  1.00  0.00    -0.375 C  
HETATM   46  O   UNL     1      -9.765   9.174  72.213  1.00  0.00    -0.186 OA 
HETATM   47  H   UNL     1     -13.501   9.054  71.711  1.00  0.00     0.000 HD 
HETATM   48  C   UNL     1     -10.721   9.442  69.969  1.00  0.00    -0.239 C  
HETATM   49  H   UNL     1      -9.228   9.944  72.070  1.00  0.00     0.000 HD 
HETATM   50  O   UNL     1      -9.748  10.490  69.810  1.00  0.00    -0.413 OA 
HETATM   51  H   UNL     1     -10.043  11.290  70.229  1.00  0.00     0.000 HD 
ENDBRANCH  38  39
ENDBRANCH  37  38
ENDBRANCH  26  37
ENDBRANCH  24  25
ENDBRANCH  19  24
ENDBRANCH   6  11
ENDBRANCH   2   3
TORSDOF 7
ENDMDL
MODEL       92
REMARK 921   NORMALIZED FREE ENERGY PREDICTED BY IDOCK:   -6.39 KCAL/MOL
REMARK 922        TOTAL FREE ENERGY PREDICTED BY IDOCK:  -10.28 KCAL/MOL
REMARK 923 INTER-LIGAND FREE ENERGY PREDICTED BY IDOCK:   -9.83 KCAL/MOL
REMARK 924 INTRA-LIGAND FREE ENERGY PREDICTED BY IDOCK:   -0.46 KCAL/MOL
REMARK 927      BINDING AFFINITY PREDICTED BY RF-SCORE:    0.00 PKD
ROOT
HETATM    1  C   UNL     1     -10.719   5.159  73.872  1.00  0.00    -0.290 C  
HETATM    2  O   UNL     1     -11.051   6.479  73.455  1.00  0.00    -0.201 OA 
ENDROOT
BRANCH   2   3
HETATM    3  C   UNL     1     -10.713   6.788  72.164  1.00  0.00    -0.220 A  
HETATM    4  C   UNL     1     -11.478   6.136  71.188  1.00  0.00    -0.314 A  
HETATM    5  C   UNL     1     -11.228   6.324  69.832  1.00  0.00    -0.498 A  
HETATM    6  C   UNL     1     -10.215   7.206  69.406  1.00  0.00    -0.194 A  
HETATM    7  C   UNL     1      -9.483   7.899  70.382  1.00  0.00    -0.163 A  
HETATM    8  H   UNL     1      -8.343   9.023  72.380  1.00  0.00     0.000 HD 
HETATM    9  O   UNL     1      -9.006   8.403  72.661  1.00  0.00    -0.228 OA 
HETATM   10  C   UNL     1      -9.738   7.699  71.750  1.00  0.00    -0.161 A  
BRANCH   6  11
HETATM   11  C   UNL     1      -9.837   7.255  67.934  1.00  0.00    -0.144 C  
HETATM   12  C   UNL     1      -8.427   6.710  67.780  1.00  0.00    -0.122 C  
HETATM   13  O   UNL     1      -7.546   5.690  65.831  1.00  0.00    -0.084 OA 
HETATM   14  C   UNL     1      -8.123   6.664  66.312  1.00  0.00    -0.115 C  
HETATM   15  C   UNL     1      -8.557   7.837  65.532  1.00  0.00    -0.126 A  
HETATM   16  C   UNL     1      -9.427   8.739  66.150  1.00  0.00    -0.247 A  
HETATM   17  C   UNL     1      -9.841   9.894  65.471  1.00  0.00    -0.381 A  
HETATM   18  O   UNL     1      -9.914   8.601  67.433  1.00  0.00    -0.177 OA 
HETATM   19  C   UNL     1      -9.370  10.165  64.181  1.00  0.00    -0.287 A  
HETATM   20  O   UNL     1      -7.225   7.251  63.618  1.00  0.00    -0.064 OA 
HETATM   21  C   UNL     1      -8.513   9.251  63.560  1.00  0.00    -0.199 A  
HETATM   22  H   UNL     1      -6.915   7.430  62.737  1.00  0.00     0.000 HD 
HETATM   23  C   UNL     1      -8.101   8.101  64.233  1.00  0.00    -0.127 A  
BRANCH  19  24
HETATM   24  O   UNL     1      -9.696  11.261  63.422  1.00  0.00    -0.289 OA 
BRANCH  24  25
HETATM   25  C   UNL     1     -10.247  12.388  64.115  1.00  0.00    -0.351 C  
HETATM   26  C   UNL     1      -9.867  13.875  65.933  1.00  0.00    -0.267 C  
HETATM   27  O   UNL     1      -9.499  12.627  65.320  1.00  0.00     0.000 OA 
HETATM   28  C   UNL     1     -11.339  13.829  66.372  1.00  0.00    -0.317 C  
HETATM   29  H   UNL     1     -14.135  13.018  64.894  1.00  0.00     0.000 HD 
HETATM   30  O   UNL     1     -12.521  11.837  63.345  1.00  0.00    -0.706 OA 
HETATM   31  C   UNL     1     -12.230  13.426  65.189  1.00  0.00    -0.434 C  
HETATM   32  O   UNL     1     -11.828  15.081  66.874  1.00  0.00    -0.259 OA 
HETATM   33  H   UNL     1     -13.429  11.689  63.582  1.00  0.00     0.000 HD 
HETATM   34  H   UNL     1     -12.738  15.053  67.146  1.00  0.00     0.000 HD 
HETATM   35  O   UNL     1     -13.583  13.267  65.627  1.00  0.00    -0.102 OA 
HETATM   36  C   UNL     1     -11.724  12.147  64.500  1.00  0.00    -0.338 C  
BRANCH  26  37
HETATM   37  C   UNL     1      -8.942  14.141  67.126  1.00  0.00    -0.225 C  
BRANCH  37  38
HETATM   38  O   UNL     1      -9.538  15.150  67.942  1.00  0.00    -0.201 OA 
BRANCH  38  39
HETATM   39  C   UNL     1      -8.656  16.255  68.167  1.00  0.00    -0.183 C  
HETATM   40  O   UNL     1      -8.743  17.137  67.048  1.00  0.00    -0.212 OA 
HETATM   41  C   UNL     1      -7.838  18.243  67.059  1.00  0.00    -0.223 C  
HETATM   42  C   UNL     1      -6.375  17.788  67.233  1.00  0.00    -0.155 C  
HETATM   43  C   UNL     1      -8.297  19.316  68.042  1.00  0.00    -0.350 C  
HETATM   44  O   UNL     1      -5.954  17.089  66.049  1.00  0.00    -0.200 OA 
HETATM   45  C   UNL     1      -6.192  16.830  68.414  1.00  0.00    -0.134 C  
HETATM   46  O   UNL     1      -6.209  17.517  69.676  1.00  0.00    -0.249 OA 
HETATM   47  H   UNL     1      -5.053  16.809  66.157  1.00  0.00     0.000 HD 
HETATM   48  C   UNL     1      -7.231  15.701  68.381  1.00  0.00    -0.115 C  
HETATM   49  H   UNL     1      -6.096  16.923  70.409  1.00  0.00     0.000 HD 
HETATM   50  O   UNL     1      -7.153  14.946  69.604  1.00  0.00    -0.170 OA 
HETATM   51  H   UNL     1      -6.277  14.605  69.734  1.00  0.00     0.000 HD 
ENDBRANCH  38  39
ENDBRANCH  37  38
ENDBRANCH  26  37
ENDBRANCH  24  25
ENDBRANCH  19  24
ENDBRANCH   6  11
ENDBRANCH   2   3
TORSDOF 7
ENDMDL
MODEL       93
REMARK 921   NORMALIZED FREE ENERGY PREDICTED BY IDOCK:   -6.38 KCAL/MOL
REMARK 922        TOTAL FREE ENERGY PREDICTED BY IDOCK:  -10.26 KCAL/MOL
REMARK 923 INTER-LIGAND FREE ENERGY PREDICTED BY IDOCK:   -8.77 KCAL/MOL
REMARK 924 INTRA-LIGAND FREE ENERGY PREDICTED BY IDOCK:   -1.49 KCAL/MOL
REMARK 927      BINDING AFFINITY PREDICTED BY RF-SCORE:    0.00 PKD
ROOT
HETATM    1  C   UNL     1     -13.222  15.385  72.880  1.00  0.00    -0.518 C  
HETATM    2  O   UNL     1     -11.991  15.816  72.310  1.00  0.00    -0.399 OA 
ENDROOT
BRANCH   2   3
HETATM    3  C   UNL     1     -11.798  15.468  71.000  1.00  0.00    -0.382 A  
HETATM    4  C   UNL     1     -12.355  14.236  70.635  1.00  0.00    -0.431 A  
HETATM    5  C   UNL     1     -12.211  13.733  69.345  1.00  0.00    -0.325 A  
HETATM    6  C   UNL     1     -11.526  14.472  68.361  1.00  0.00    -0.328 A  
HETATM    7  C   UNL     1     -11.012  15.730  68.711  1.00  0.00    -0.291 A  
HETATM    8  H   UNL     1     -10.212  17.978  69.641  1.00  0.00     0.000 HD 
HETATM    9  O   UNL     1     -10.648  17.461  70.309  1.00  0.00     0.308 OA 
HETATM   10  C   UNL     1     -11.156  16.228  70.018  1.00  0.00    -0.348 A  
BRANCH   6  11
HETATM   11  C   UNL     1     -11.220  13.827  67.018  1.00  0.00    -0.311 C  
HETATM   12  C   UNL     1     -12.534  13.438  66.361  1.00  0.00    -0.297 C  
HETATM   13  O   UNL     1     -12.903  13.231  64.029  1.00  0.00    -0.644 OA 
HETATM   14  C   UNL     1     -12.211  12.911  64.994  1.00  0.00    -0.464 C  
HETATM   15  C   UNL     1     -11.044  12.014  64.914  1.00  0.00    -0.368 A  
HETATM   16  C   UNL     1     -10.200  11.950  66.026  1.00  0.00    -0.229 A  
HETATM   17  C   UNL     1      -9.097  11.084  66.021  1.00  0.00    -0.212 A  
HETATM   18  O   UNL     1     -10.380  12.673  67.186  1.00  0.00    -0.230 OA 
HETATM   19  C   UNL     1      -8.845  10.262  64.917  1.00  0.00    -0.192 A  
HETATM   20  O   UNL     1     -11.606  11.225  62.713  1.00  0.00    -0.675 OA 
HETATM   21  C   UNL     1      -9.681  10.343  63.800  1.00  0.00    -0.351 A  
HETATM   22  H   UNL     1     -11.427  10.676  61.959  1.00  0.00     0.000 HD 
HETATM   23  C   UNL     1     -10.779  11.205  63.801  1.00  0.00    -0.329 A  
BRANCH  19  24
HETATM   24  O   UNL     1      -7.806   9.373  64.799  1.00  0.00    -0.110 OA 
BRANCH  24  25
HETATM   25  C   UNL     1      -8.150   7.985  64.707  1.00  0.00    -0.143 C  
HETATM   26  C   UNL     1      -8.876   6.116  65.988  1.00  0.00    -0.153 C  
HETATM   27  O   UNL     1      -8.315   7.438  66.028  1.00  0.00    -0.128 OA 
HETATM   28  C   UNL     1      -7.912   5.158  65.272  1.00  0.00    -0.108 C  
HETATM   29  H   UNL     1      -6.315   5.237  62.425  1.00  0.00     0.000 HD 
HETATM   30  O   UNL     1      -6.787   7.710  62.674  1.00  0.00    -0.073 OA 
HETATM   31  C   UNL     1      -7.537   5.720  63.894  1.00  0.00    -0.083 C  
HETATM   32  O   UNL     1      -8.451   3.843  65.070  1.00  0.00    -0.107 OA 
HETATM   33  H   UNL     1      -6.110   7.213  62.228  1.00  0.00     0.000 HD 
HETATM   34  H   UNL     1      -7.855   3.251  64.627  1.00  0.00     0.000 HD 
HETATM   35  O   UNL     1      -6.547   4.889  63.279  1.00  0.00    -0.026 OA 
HETATM   36  C   UNL     1      -7.050   7.177  63.982  1.00  0.00    -0.064 C  
BRANCH  26  37
HETATM   37  C   UNL     1      -9.160   5.647  67.420  1.00  0.00    -0.110 C  
BRANCH  37  38
HETATM   38  O   UNL     1      -8.167   4.689  67.785  1.00  0.00    -0.099 OA 
BRANCH  38  39
HETATM   39  C   UNL     1      -8.007   4.588  69.204  1.00  0.00    -0.069 C  
HETATM   40  O   UNL     1      -6.692   5.028  69.543  1.00  0.00    -0.047 OA 
HETATM   41  C   UNL     1      -6.326   4.885  70.917  1.00  0.00    -0.019 C  
HETATM   42  C   UNL     1      -6.521   3.440  71.418  1.00  0.00    -0.019 C  
HETATM   43  C   UNL     1      -6.992   5.956  71.776  1.00  0.00    -0.073 C  
HETATM   44  O   UNL     1      -5.558   2.585  70.778  1.00  0.00    -0.012 OA 
HETATM   45  C   UNL     1      -7.909   2.885  71.090  1.00  0.00    -0.047 C  
HETATM   46  O   UNL     1      -8.922   3.406  71.966  1.00  0.00    -0.095 OA 
HETATM   47  H   UNL     1      -5.679   1.695  71.087  1.00  0.00     0.000 HD 
HETATM   48  C   UNL     1      -8.271   3.123  69.617  1.00  0.00    -0.051 C  
HETATM   49  H   UNL     1      -9.784   3.062  71.762  1.00  0.00     0.000 HD 
HETATM   50  O   UNL     1      -9.649   2.771  69.402  1.00  0.00    -0.121 OA 
HETATM   51  H   UNL     1      -9.811   1.870  69.655  1.00  0.00     0.000 HD 
ENDBRANCH  38  39
ENDBRANCH  37  38
ENDBRANCH  26  37
ENDBRANCH  24  25
ENDBRANCH  19  24
ENDBRANCH   6  11
ENDBRANCH   2   3
TORSDOF 7
ENDMDL
MODEL       94
REMARK 921   NORMALIZED FREE ENERGY PREDICTED BY IDOCK:   -6.36 KCAL/MOL
REMARK 922        TOTAL FREE ENERGY PREDICTED BY IDOCK:  -10.23 KCAL/MOL
REMARK 923 INTER-LIGAND FREE ENERGY PREDICTED BY IDOCK:   -9.43 KCAL/MOL
REMARK 924 INTRA-LIGAND FREE ENERGY PREDICTED BY IDOCK:   -0.80 KCAL/MOL
REMARK 927      BINDING AFFINITY PREDICTED BY RF-SCORE:    0.00 PKD
ROOT
HETATM    1  C   UNL     1     -10.657  19.515  66.590  1.00  0.00    -0.478 C  
HETATM    2  O   UNL     1     -10.349  18.582  65.559  1.00  0.00    -0.555 OA 
ENDROOT
BRANCH   2   3
HETATM    3  C   UNL     1     -10.100  17.303  65.981  1.00  0.00    -0.262 A  
HETATM    4  C   UNL     1     -10.716  16.305  65.215  1.00  0.00    -0.349 A  
HETATM    5  C   UNL     1     -10.582  14.959  65.543  1.00  0.00    -0.373 A  
HETATM    6  C   UNL     1      -9.792  14.565  66.640  1.00  0.00    -0.282 A  
HETATM    7  C   UNL     1      -9.131  15.560  67.376  1.00  0.00    -0.207 A  
HETATM    8  H   UNL     1      -8.047  17.587  68.504  1.00  0.00     0.000 HD 
HETATM    9  O   UNL     1      -8.607  17.849  67.782  1.00  0.00    -0.236 OA 
HETATM   10  C   UNL     1      -9.276  16.918  67.042  1.00  0.00    -0.234 A  
BRANCH   6  11
HETATM   11  C   UNL     1      -9.809  13.113  67.091  1.00  0.00    -0.235 C  
HETATM   12  C   UNL     1     -10.223  12.247  65.913  1.00  0.00    -0.274 C  
HETATM   13  O   UNL     1      -9.639   9.972  65.598  1.00  0.00    -0.211 OA 
HETATM   14  C   UNL     1     -10.121  10.816  66.352  1.00  0.00    -0.227 C  
HETATM   15  C   UNL     1     -10.629  10.525  67.705  1.00  0.00    -0.295 A  
HETATM   16  C   UNL     1     -10.900  11.610  68.542  1.00  0.00    -0.219 A  
HETATM   17  C   UNL     1     -11.422  11.394  69.825  1.00  0.00    -0.376 A  
HETATM   18  O   UNL     1     -10.715  12.931  68.192  1.00  0.00    -0.226 OA 
HETATM   19  C   UNL     1     -11.698  10.096  70.269  1.00  0.00    -0.282 A  
HETATM   20  O   UNL     1     -10.663   8.147  67.348  1.00  0.00    -0.434 OA 
HETATM   21  C   UNL     1     -11.409   9.012  69.435  1.00  0.00     0.224 A  
HETATM   22  H   UNL     1     -10.838   7.265  67.655  1.00  0.00     0.000 HD 
HETATM   23  C   UNL     1     -10.888   9.224  68.158  1.00  0.00    -0.090 A  
BRANCH  19  24
HETATM   24  O   UNL     1     -12.215   9.761  71.496  1.00  0.00    -0.355 OA 
BRANCH  24  25
HETATM   25  C   UNL     1     -11.485   8.795  72.263  1.00  0.00    -0.306 C  
HETATM   26  C   UNL     1      -9.288   8.044  72.781  1.00  0.00    -0.263 C  
HETATM   27  O   UNL     1     -10.097   8.829  71.889  1.00  0.00    -0.295 OA 
HETATM   28  C   UNL     1      -9.694   6.565  72.692  1.00  0.00    -0.160 C  
HETATM   29  H   UNL     1     -12.536   4.967  72.866  1.00  0.00     0.000 HD 
HETATM   30  O   UNL     1     -13.421   7.272  72.317  1.00  0.00    -0.505 OA 
HETATM   31  C   UNL     1     -11.205   6.418  72.924  1.00  0.00    -0.186 C  
HETATM   32  O   UNL     1      -9.028   5.727  73.648  1.00  0.00    -0.128 OA 
HETATM   33  H   UNL     1     -13.748   6.393  72.169  1.00  0.00     0.000 HD 
HETATM   34  H   UNL     1      -9.279   4.812  73.593  1.00  0.00     0.000 HD 
HETATM   35  O   UNL     1     -11.601   5.058  72.723  1.00  0.00    -0.220 OA 
HETATM   36  C   UNL     1     -12.017   7.364  72.023  1.00  0.00    -0.297 C  
BRANCH  26  37
HETATM   37  C   UNL     1      -7.810   8.234  72.419  1.00  0.00    -0.127 C  
BRANCH  37  38
HETATM   38  O   UNL     1      -7.732   9.081  71.273  1.00  0.00    -0.198 OA 
BRANCH  38  39
HETATM   39  C   UNL     1      -7.850   8.349  70.049  1.00  0.00    -0.103 C  
HETATM   40  O   UNL     1      -7.523   6.983  70.306  1.00  0.00    -0.082 OA 
HETATM   41  C   UNL     1      -7.481   6.130  69.161  1.00  0.00    -0.090 C  
HETATM   42  C   UNL     1      -6.542   6.679  68.067  1.00  0.00    -0.062 C  
HETATM   43  C   UNL     1      -8.889   5.786  68.682  1.00  0.00    -0.110 C  
HETATM   44  O   UNL     1      -5.183   6.599  68.530  1.00  0.00    -0.010 OA 
HETATM   45  C   UNL     1      -6.822   8.146  67.733  1.00  0.00    -0.073 C  
HETATM   46  O   UNL     1      -7.992   8.301  66.912  1.00  0.00    -0.098 OA 
HETATM   47  H   UNL     1      -4.605   6.938  67.856  1.00  0.00     0.000 HD 
HETATM   48  C   UNL     1      -6.917   9.000  69.005  1.00  0.00    -0.063 C  
HETATM   49  H   UNL     1      -8.166   9.212  66.705  1.00  0.00     0.000 HD 
HETATM   50  O   UNL     1      -7.376  10.319  68.660  1.00  0.00    -0.078 OA 
HETATM   51  H   UNL     1      -6.801  10.720  68.019  1.00  0.00     0.000 HD 
ENDBRANCH  38  39
ENDBRANCH  37  38
ENDBRANCH  26  37
ENDBRANCH  24  25
ENDBRANCH  19  24
ENDBRANCH   6  11
ENDBRANCH   2   3
TORSDOF 7
ENDMDL
MODEL       95
REMARK 921   NORMALIZED FREE ENERGY PREDICTED BY IDOCK:   -6.34 KCAL/MOL
REMARK 922        TOTAL FREE ENERGY PREDICTED BY IDOCK:  -10.21 KCAL/MOL
REMARK 923 INTER-LIGAND FREE ENERGY PREDICTED BY IDOCK:   -8.11 KCAL/MOL
REMARK 924 INTRA-LIGAND FREE ENERGY PREDICTED BY IDOCK:   -2.10 KCAL/MOL
REMARK 927      BINDING AFFINITY PREDICTED BY RF-SCORE:    0.00 PKD
ROOT
HETATM    1  C   UNL     1     -12.353  15.485  64.465  1.00  0.00     0.028 C  
HETATM    2  O   UNL     1     -12.999  14.402  65.128  1.00  0.00    -0.631 OA 
ENDROOT
BRANCH   2   3
HETATM    3  C   UNL     1     -12.217  13.299  65.348  1.00  0.00    -0.456 A  
HETATM    4  C   UNL     1     -11.594  13.267  66.602  1.00  0.00    -0.408 A  
HETATM    5  C   UNL     1     -10.742  12.225  66.957  1.00  0.00    -0.263 A  
HETATM    6  C   UNL     1     -10.511  11.156  66.069  1.00  0.00    -0.312 A  
HETATM    7  C   UNL     1     -11.176  11.161  64.834  1.00  0.00    -0.027 A  
HETATM    8  H   UNL     1     -12.535  11.442  62.682  1.00  0.00     0.000 HD 
HETATM    9  O   UNL     1     -12.662  12.176  63.272  1.00  0.00    -0.698 OA 
HETATM   10  C   UNL     1     -12.030  12.220  64.481  1.00  0.00    -0.383 A  
BRANCH   6  11
HETATM   11  C   UNL     1      -9.439  10.129  66.399  1.00  0.00    -0.176 C  
HETATM   12  C   UNL     1      -8.129  10.581  65.774  1.00  0.00    -0.158 C  
HETATM   13  O   UNL     1      -5.962  10.024  66.555  1.00  0.00    -0.057 OA 
HETATM   14  C   UNL     1      -7.069   9.613  66.210  1.00  0.00    -0.093 C  
HETATM   15  C   UNL     1      -7.453   8.191  66.184  1.00  0.00    -0.078 A  
HETATM   16  C   UNL     1      -8.809   7.888  66.028  1.00  0.00    -0.158 A  
HETATM   17  C   UNL     1      -9.227   6.553  65.957  1.00  0.00    -0.077 A  
HETATM   18  O   UNL     1      -9.809   8.830  65.906  1.00  0.00    -0.225 OA 
HETATM   19  C   UNL     1      -8.292   5.513  66.019  1.00  0.00    -0.122 A  
HETATM   20  O   UNL     1      -5.186   7.415  66.385  1.00  0.00    -0.023 OA 
HETATM   21  C   UNL     1      -6.940   5.818  66.193  1.00  0.00    -0.059 A  
HETATM   22  H   UNL     1      -4.553   6.708  66.440  1.00  0.00     0.000 HD 
HETATM   23  C   UNL     1      -6.520   7.147  66.265  1.00  0.00    -0.051 A  
BRANCH  19  24
HETATM   24  O   UNL     1      -8.579   4.172  65.953  1.00  0.00    -0.112 OA 
BRANCH  24  25
HETATM   25  C   UNL     1      -8.645   3.463  67.197  1.00  0.00    -0.109 C  
HETATM   26  C   UNL     1      -9.325   3.665  69.468  1.00  0.00    -0.176 C  
HETATM   27  O   UNL     1      -9.027   4.367  68.249  1.00  0.00    -0.108 OA 
HETATM   28  C   UNL     1      -8.066   2.953  69.985  1.00  0.00    -0.041 C  
HETATM   29  H   UNL     1      -5.869   0.947  68.640  1.00  0.00     0.000 HD 
HETATM   30  O   UNL     1      -6.806   1.969  66.525  1.00  0.00    -0.041 OA 
HETATM   31  C   UNL     1      -7.473   2.065  68.882  1.00  0.00    -0.043 C  
HETATM   32  O   UNL     1      -8.306   2.118  71.127  1.00  0.00    -0.049 OA 
HETATM   33  H   UNL     1      -5.967   1.585  66.751  1.00  0.00     0.000 HD 
HETATM   34  H   UNL     1      -7.527   1.677  71.447  1.00  0.00     0.000 HD 
HETATM   35  O   UNL     1      -6.236   1.496  69.323  1.00  0.00    -0.024 OA 
HETATM   36  C   UNL     1      -7.280   2.838  67.565  1.00  0.00    -0.053 C  
BRANCH  26  37
HETATM   37  C   UNL     1      -9.861   4.662  70.503  1.00  0.00    -0.231 C  
BRANCH  37  38
HETATM   38  O   UNL     1     -10.625   5.655  69.820  1.00  0.00    -0.280 OA 
BRANCH  38  39
HETATM   39  C   UNL     1     -10.573   6.926  70.476  1.00  0.00    -0.220 C  
HETATM   40  O   UNL     1     -11.910   7.387  70.675  1.00  0.00    -0.286 OA 
HETATM   41  C   UNL     1     -12.037   8.701  71.220  1.00  0.00    -0.290 C  
HETATM   42  C   UNL     1     -11.259   9.746  70.393  1.00  0.00    -0.300 C  
HETATM   43  C   UNL     1     -11.727   8.707  72.714  1.00  0.00    -0.029 C  
HETATM   44  O   UNL     1     -11.897   9.905  69.115  1.00  0.00    -0.466 OA 
HETATM   45  C   UNL     1      -9.811   9.326  70.127  1.00  0.00    -0.215 C  
HETATM   46  O   UNL     1      -8.974   9.505  71.282  1.00  0.00    -0.314 OA 
HETATM   47  H   UNL     1     -11.418  10.549  68.606  1.00  0.00     0.000 HD 
HETATM   48  C   UNL     1      -9.735   7.886  69.603  1.00  0.00    -0.173 C  
HETATM   49  H   UNL     1      -8.076   9.245  71.118  1.00  0.00     0.000 HD 
HETATM   50  O   UNL     1      -8.359   7.467  69.558  1.00  0.00    -0.129 OA 
HETATM   51  H   UNL     1      -7.844   8.057  69.021  1.00  0.00     0.000 HD 
ENDBRANCH  38  39
ENDBRANCH  37  38
ENDBRANCH  26  37
ENDBRANCH  24  25
ENDBRANCH  19  24
ENDBRANCH   6  11
ENDBRANCH   2   3
TORSDOF 7
ENDMDL
MODEL       96
REMARK 921   NORMALIZED FREE ENERGY PREDICTED BY IDOCK:   -6.33 KCAL/MOL
REMARK 922        TOTAL FREE ENERGY PREDICTED BY IDOCK:  -10.20 KCAL/MOL
REMARK 923 INTER-LIGAND FREE ENERGY PREDICTED BY IDOCK:   -8.29 KCAL/MOL
REMARK 924 INTRA-LIGAND FREE ENERGY PREDICTED BY IDOCK:   -1.91 KCAL/MOL
REMARK 927      BINDING AFFINITY PREDICTED BY RF-SCORE:    0.00 PKD
ROOT
HETATM    1  C   UNL     1      -9.256   4.770  66.990  1.00  0.00    -0.126 C  
HETATM    2  O   UNL     1      -9.418   5.962  66.228  1.00  0.00    -0.158 OA 
ENDROOT
BRANCH   2   3
HETATM    3  C   UNL     1      -9.484   7.119  66.957  1.00  0.00    -0.155 A  
HETATM    4  C   UNL     1     -10.442   7.112  67.978  1.00  0.00    -0.251 A  
HETATM    5  C   UNL     1     -10.647   8.231  68.781  1.00  0.00    -0.152 A  
HETATM    6  C   UNL     1      -9.868   9.391  68.605  1.00  0.00    -0.174 A  
HETATM    7  C   UNL     1      -8.872   9.380  67.617  1.00  0.00    -0.118 A  
HETATM    8  H   UNL     1      -7.138   9.051  65.762  1.00  0.00     0.000 HD 
HETATM    9  O   UNL     1      -7.688   8.283  65.864  1.00  0.00    -0.082 OA 
HETATM   10  C   UNL     1      -8.675   8.249  66.806  1.00  0.00    -0.133 A  
BRANCH   6  11
HETATM   11  C   UNL     1     -10.231  10.658  69.364  1.00  0.00    -0.192 C  
HETATM   12  C   UNL     1     -11.734  10.862  69.270  1.00  0.00    -0.395 C  
HETATM   13  O   UNL     1     -13.070  12.025  70.844  1.00  0.00    -0.075 OA 
HETATM   14  C   UNL     1     -12.077  12.050  70.119  1.00  0.00    -0.298 C  
HETATM   15  C   UNL     1     -11.162  13.200  70.009  1.00  0.00     0.174 A  
HETATM   16  C   UNL     1      -9.941  12.997  69.359  1.00  0.00     0.788 A  
HETATM   17  C   UNL     1      -9.049  14.064  69.191  1.00  0.00     0.282 A  
HETATM   18  O   UNL     1      -9.534  11.793  68.823  1.00  0.00    -0.142 OA 
HETATM   19  C   UNL     1      -9.379  15.344  69.649  1.00  0.00    -0.205 A  
HETATM   20  O   UNL     1     -12.683  14.713  71.097  1.00  0.00    -0.300 OA 
HETATM   21  C   UNL     1     -10.593  15.540  70.315  1.00  0.00    -0.324 A  
HETATM   22  H   UNL     1     -12.901  15.579  71.419  1.00  0.00     0.000 HD 
HETATM   23  C   UNL     1     -11.483  14.479  70.485  1.00  0.00    -0.185 A  
BRANCH  19  24
HETATM   24  O   UNL     1      -8.594  16.465  69.537  1.00  0.00    -0.081 OA 
BRANCH  24  25
HETATM   25  C   UNL     1      -9.079  17.512  68.687  1.00  0.00    -0.263 C  
HETATM   26  C   UNL     1     -10.323  17.929  66.702  1.00  0.00    -0.361 C  
HETATM   27  O   UNL     1      -9.624  16.944  67.483  1.00  0.00    -0.240 OA 
HETATM   28  C   UNL     1      -9.344  19.015  66.230  1.00  0.00    -0.298 C  
HETATM   29  H   UNL     1      -7.113  20.876  67.719  1.00  0.00     0.000 HD 
HETATM   30  O   UNL     1      -7.313  19.048  69.455  1.00  0.00    -0.228 OA 
HETATM   31  C   UNL     1      -8.581  19.594  67.429  1.00  0.00    -0.306 C  
HETATM   32  O   UNL     1      -9.981  20.109  65.555  1.00  0.00    -0.451 OA 
HETATM   33  H   UNL     1      -6.618  19.649  69.213  1.00  0.00     0.000 HD 
HETATM   34  H   UNL     1      -9.376  20.781  65.262  1.00  0.00     0.000 HD 
HETATM   35  O   UNL     1      -7.586  20.518  66.976  1.00  0.00    -0.304 OA 
HETATM   36  C   UNL     1      -7.948  18.490  68.294  1.00  0.00    -0.305 C  
BRANCH  26  37
HETATM   37  C   UNL     1     -11.000  17.239  65.512  1.00  0.00     0.100 C  
BRANCH  37  38
HETATM   38  O   UNL     1     -10.025  16.442  64.839  1.00  0.00    -0.229 OA 
BRANCH  38  39
HETATM   39  C   UNL     1     -10.429  15.073  64.726  1.00  0.00    -0.234 C  
HETATM   40  O   UNL     1     -11.841  15.035  64.514  1.00  0.00    -0.429 OA 
HETATM   41  C   UNL     1     -12.428  13.732  64.491  1.00  0.00    -0.285 C  
HETATM   42  C   UNL     1     -12.083  12.922  65.758  1.00  0.00    -0.457 C  
HETATM   43  C   UNL     1     -12.131  13.020  63.174  1.00  0.00    -0.324 C  
HETATM   44  O   UNL     1     -12.745  13.512  66.889  1.00  0.00    -0.186 OA 
HETATM   45  C   UNL     1     -10.583  12.916  66.063  1.00  0.00    -0.270 C  
HETATM   46  O   UNL     1      -9.859  12.022  65.201  1.00  0.00    -0.274 OA 
HETATM   47  H   UNL     1     -12.533  13.013  67.669  1.00  0.00     0.000 HD 
HETATM   48  C   UNL     1      -9.998  14.334  66.012  1.00  0.00    -0.319 C  
HETATM   49  H   UNL     1      -8.928  12.018  65.390  1.00  0.00     0.000 HD 
HETATM   50  O   UNL     1      -8.564  14.262  66.104  1.00  0.00    -0.320 OA 
HETATM   51  H   UNL     1      -8.299  13.808  66.895  1.00  0.00     0.000 HD 
ENDBRANCH  38  39
ENDBRANCH  37  38
ENDBRANCH  26  37
ENDBRANCH  24  25
ENDBRANCH  19  24
ENDBRANCH   6  11
ENDBRANCH   2   3
TORSDOF 7
ENDMDL
MODEL       97
REMARK 921   NORMALIZED FREE ENERGY PREDICTED BY IDOCK:   -6.30 KCAL/MOL
REMARK 922        TOTAL FREE ENERGY PREDICTED BY IDOCK:  -10.16 KCAL/MOL
REMARK 923 INTER-LIGAND FREE ENERGY PREDICTED BY IDOCK:   -9.25 KCAL/MOL
REMARK 924 INTRA-LIGAND FREE ENERGY PREDICTED BY IDOCK:   -0.91 KCAL/MOL
REMARK 927      BINDING AFFINITY PREDICTED BY RF-SCORE:    0.00 PKD
ROOT
HETATM    1  C   UNL     1     -10.323  16.624  67.699  1.00  0.00    -0.305 C  
HETATM    2  O   UNL     1     -11.300  16.518  68.730  1.00  0.00    -0.318 OA 
ENDROOT
BRANCH   2   3
HETATM    3  C   UNL     1     -11.543  15.247  69.179  1.00  0.00    -0.332 A  
HETATM    4  C   UNL     1     -10.870  14.241  68.474  1.00  0.00    -0.264 A  
HETATM    5  C   UNL     1     -11.045  12.898  68.793  1.00  0.00    -0.305 A  
HETATM    6  C   UNL     1     -11.881  12.519  69.862  1.00  0.00    -0.373 A  
HETATM    7  C   UNL     1     -12.513  13.529  70.602  1.00  0.00    -0.405 A  
HETATM    8  H   UNL     1     -13.505  15.583  71.767  1.00  0.00     0.000 HD 
HETATM    9  O   UNL     1     -12.965  15.830  71.025  1.00  0.00    -0.483 OA 
HETATM   10  C   UNL     1     -12.337  14.883  70.269  1.00  0.00    -0.341 A  
BRANCH   6  11
HETATM   11  C   UNL     1     -12.203  11.048  70.075  1.00  0.00    -0.343 C  
HETATM   12  C   UNL     1     -12.507  10.830  71.548  1.00  0.00    -0.447 C  
HETATM   13  O   UNL     1     -13.882   9.116  72.435  1.00  0.00    -0.469 OA 
HETATM   14  C   UNL     1     -12.930   9.399  71.710  1.00  0.00    -0.402 C  
HETATM   15  C   UNL     1     -12.138   8.409  70.959  1.00  0.00    -0.218 A  
HETATM   16  C   UNL     1     -11.265   8.888  69.978  1.00  0.00    -0.110 A  
HETATM   17  C   UNL     1     -10.457   7.995  69.260  1.00  0.00    -0.221 A  
HETATM   18  O   UNL     1     -11.102  10.220  69.661  1.00  0.00    -0.240 OA 
HETATM   19  C   UNL     1     -10.499   6.624  69.534  1.00  0.00    -0.218 A  
HETATM   20  O   UNL     1     -13.014   6.541  72.193  1.00  0.00    -0.539 OA 
HETATM   21  C   UNL     1     -11.387   6.147  70.503  1.00  0.00    -0.381 A  
HETATM   22  H   UNL     1     -13.052   5.608  72.369  1.00  0.00     0.000 HD 
HETATM   23  C   UNL     1     -12.193   7.033  71.218  1.00  0.00    -0.377 A  
BRANCH  19  24
HETATM   24  O   UNL     1      -9.755   5.657  68.905  1.00  0.00    -0.124 OA 
BRANCH  24  25
HETATM   25  C   UNL     1      -8.637   6.104  68.127  1.00  0.00    -0.115 C  
HETATM   26  C   UNL     1      -6.804   7.620  68.127  1.00  0.00    -0.064 C  
HETATM   27  O   UNL     1      -8.056   7.268  68.740  1.00  0.00    -0.121 OA 
HETATM   28  C   UNL     1      -7.031   8.008  66.658  1.00  0.00    -0.072 C  
HETATM   29  H   UNL     1      -8.579   6.613  64.145  1.00  0.00     0.000 HD 
HETATM   30  O   UNL     1      -9.713   5.373  66.035  1.00  0.00    -0.190 OA 
HETATM   31  C   UNL     1      -7.792   6.892  65.930  1.00  0.00    -0.106 C  
HETATM   32  O   UNL     1      -5.816   8.247  65.932  1.00  0.00    -0.040 OA 
HETATM   33  H   UNL     1      -9.975   5.601  65.151  1.00  0.00     0.000 HD 
HETATM   34  H   UNL     1      -5.956   8.487  65.024  1.00  0.00     0.000 HD 
HETATM   35  O   UNL     1      -8.108   7.304  64.596  1.00  0.00    -0.127 OA 
HETATM   36  C   UNL     1      -9.064   6.476  66.689  1.00  0.00    -0.147 C  
BRANCH  26  37
HETATM   37  C   UNL     1      -6.167   8.773  68.911  1.00  0.00    -0.044 C  
BRANCH  37  38
HETATM   38  O   UNL     1      -5.571   8.239  70.094  1.00  0.00    -0.023 OA 
BRANCH  38  39
HETATM   39  C   UNL     1      -6.544   7.706  70.998  1.00  0.00    -0.038 C  
HETATM   40  O   UNL     1      -6.723   8.636  72.067  1.00  0.00    -0.083 OA 
HETATM   41  C   UNL     1      -7.584   8.206  73.123  1.00  0.00    -0.147 C  
HETATM   42  C   UNL     1      -7.148   6.845  73.704  1.00  0.00    -0.074 C  
HETATM   43  C   UNL     1      -9.049   8.284  72.703  1.00  0.00    -0.327 C  
HETATM   44  O   UNL     1      -5.902   7.007  74.401  1.00  0.00    -0.068 OA 
HETATM   45  C   UNL     1      -6.927   5.786  72.620  1.00  0.00    -0.080 C  
HETATM   46  O   UNL     1      -8.165   5.261  72.115  1.00  0.00    -0.112 OA 
HETATM   47  H   UNL     1      -5.634   6.168  74.759  1.00  0.00     0.000 HD 
HETATM   48  C   UNL     1      -6.047   6.327  71.484  1.00  0.00    -0.040 C  
HETATM   49  H   UNL     1      -8.029   4.604  71.443  1.00  0.00     0.000 HD 
HETATM   50  O   UNL     1      -6.031   5.379  70.402  1.00  0.00    -0.019 OA 
HETATM   51  H   UNL     1      -5.725   4.531  70.701  1.00  0.00     0.000 HD 
ENDBRANCH  38  39
ENDBRANCH  37  38
ENDBRANCH  26  37
ENDBRANCH  24  25
ENDBRANCH  19  24
ENDBRANCH   6  11
ENDBRANCH   2   3
TORSDOF 7
ENDMDL
MODEL       98
REMARK 921   NORMALIZED FREE ENERGY PREDICTED BY IDOCK:   -6.29 KCAL/MOL
REMARK 922        TOTAL FREE ENERGY PREDICTED BY IDOCK:  -10.14 KCAL/MOL
REMARK 923 INTER-LIGAND FREE ENERGY PREDICTED BY IDOCK:   -9.25 KCAL/MOL
REMARK 924 INTRA-LIGAND FREE ENERGY PREDICTED BY IDOCK:   -0.89 KCAL/MOL
REMARK 927      BINDING AFFINITY PREDICTED BY RF-SCORE:    0.00 PKD
ROOT
HETATM    1  C   UNL     1     -10.746  19.310  66.795  1.00  0.00    -0.431 C  
HETATM    2  O   UNL     1     -10.229  18.620  65.662  1.00  0.00    -0.536 OA 
ENDROOT
BRANCH   2   3
HETATM    3  C   UNL     1      -9.951  17.293  65.861  1.00  0.00    -0.173 A  
HETATM    4  C   UNL     1     -10.894  16.412  65.317  1.00  0.00    -0.271 A  
HETATM    5  C   UNL     1     -10.763  15.034  65.469  1.00  0.00    -0.372 A  
HETATM    6  C   UNL     1      -9.656  14.491  66.148  1.00  0.00    -0.325 A  
HETATM    7  C   UNL     1      -8.684  15.370  66.647  1.00  0.00    -0.332 A  
HETATM    8  H   UNL     1      -7.083  17.214  67.421  1.00  0.00     0.000 HD 
HETATM    9  O   UNL     1      -7.849  17.576  66.990  1.00  0.00    -0.198 OA 
HETATM   10  C   UNL     1      -8.826  16.761  66.495  1.00  0.00    -0.277 A  
BRANCH   6  11
HETATM   11  C   UNL     1      -9.627  13.003  66.462  1.00  0.00    -0.260 C  
HETATM   12  C   UNL     1     -10.292  12.256  65.317  1.00  0.00    -0.311 C  
HETATM   13  O   UNL     1      -9.850  10.013  64.692  1.00  0.00    -0.318 OA 
HETATM   14  C   UNL     1     -10.148  10.789  65.598  1.00  0.00    -0.267 C  
HETATM   15  C   UNL     1     -10.388  10.379  66.994  1.00  0.00    -0.295 A  
HETATM   16  C   UNL     1     -10.455  11.385  67.962  1.00  0.00    -0.188 A  
HETATM   17  C   UNL     1     -10.721  11.056  69.298  1.00  0.00    -0.263 A  
HETATM   18  O   UNL     1     -10.304  12.730  67.701  1.00  0.00    -0.216 OA 
HETATM   19  C   UNL     1     -10.943   9.726  69.671  1.00  0.00    -0.241 A  
HETATM   20  O   UNL     1     -10.563   8.045  66.441  1.00  0.00    -0.373 OA 
HETATM   21  C   UNL     1     -10.857   8.721  68.703  1.00  0.00    -0.018 A  
HETATM   22  H   UNL     1     -10.701   7.141  66.697  1.00  0.00     0.000 HD 
HETATM   23  C   UNL     1     -10.592   9.045  67.372  1.00  0.00    -0.239 A  
BRANCH  19  24
HETATM   24  O   UNL     1     -11.218   9.284  70.941  1.00  0.00    -0.260 OA 
BRANCH  24  25
HETATM   25  C   UNL     1     -10.240   8.435  71.556  1.00  0.00    -0.228 C  
HETATM   26  C   UNL     1      -8.278   7.164  71.117  1.00  0.00    -0.112 C  
HETATM   27  O   UNL     1      -9.408   7.842  70.543  1.00  0.00    -0.162 OA 
HETATM   28  C   UNL     1      -8.755   5.990  71.985  1.00  0.00    -0.136 C  
HETATM   29  H   UNL     1     -10.947   5.674  74.385  1.00  0.00     0.000 HD 
HETATM   30  O   UNL     1     -11.806   7.819  73.355  1.00  0.00    -0.555 OA 
HETATM   31  C   UNL     1      -9.779   6.481  73.018  1.00  0.00    -0.155 C  
HETATM   32  O   UNL     1      -7.697   5.338  72.703  1.00  0.00    -0.095 OA 
HETATM   33  H   UNL     1     -12.216   7.120  73.851  1.00  0.00     0.000 HD 
HETATM   34  H   UNL     1      -7.992   4.612  73.240  1.00  0.00     0.000 HD 
HETATM   35  O   UNL     1     -10.313   5.370  73.745  1.00  0.00    -0.206 OA 
HETATM   36  C   UNL     1     -10.907   7.298  72.363  1.00  0.00    -0.255 C  
BRANCH  26  37
HETATM   37  C   UNL     1      -7.358   6.679  69.990  1.00  0.00    -0.089 C  
BRANCH  37  38
HETATM   38  O   UNL     1      -7.973   6.992  68.740  1.00  0.00    -0.116 OA 
BRANCH  38  39
HETATM   39  C   UNL     1      -8.300   5.818  67.988  1.00  0.00    -0.103 C  
HETATM   40  O   UNL     1      -9.683   5.524  68.190  1.00  0.00    -0.121 OA 
HETATM   41  C   UNL     1     -10.150   4.311  67.596  1.00  0.00     0.070 C  
HETATM   42  C   UNL     1      -9.306   3.095  68.029  1.00  0.00    -0.194 C  
HETATM   43  C   UNL     1     -10.321   4.469  66.088  1.00  0.00    -0.258 C  
HETATM   44  O   UNL     1      -9.534   2.835  69.424  1.00  0.00    -0.142 OA 
HETATM   45  C   UNL     1      -7.803   3.328  67.851  1.00  0.00    -0.071 C  
HETATM   46  O   UNL     1      -7.396   3.218  66.477  1.00  0.00    -0.072 OA 
HETATM   47  H   UNL     1      -9.013   2.085  69.690  1.00  0.00     0.000 HD 
HETATM   48  C   UNL     1      -7.373   4.673  68.453  1.00  0.00    -0.065 C  
HETATM   49  H   UNL     1      -6.464   3.363  66.366  1.00  0.00     0.000 HD 
HETATM   50  O   UNL     1      -6.007   4.943  68.090  1.00  0.00    -0.024 OA 
HETATM   51  H   UNL     1      -5.437   4.239  68.376  1.00  0.00     0.000 HD 
ENDBRANCH  38  39
ENDBRANCH  37  38
ENDBRANCH  26  37
ENDBRANCH  24  25
ENDBRANCH  19  24
ENDBRANCH   6  11
ENDBRANCH   2   3
TORSDOF 7
ENDMDL
MODEL       99
REMARK 921   NORMALIZED FREE ENERGY PREDICTED BY IDOCK:   -6.28 KCAL/MOL
REMARK 922        TOTAL FREE ENERGY PREDICTED BY IDOCK:  -10.13 KCAL/MOL
REMARK 923 INTER-LIGAND FREE ENERGY PREDICTED BY IDOCK:   -8.43 KCAL/MOL
REMARK 924 INTRA-LIGAND FREE ENERGY PREDICTED BY IDOCK:   -1.69 KCAL/MOL
REMARK 927      BINDING AFFINITY PREDICTED BY RF-SCORE:    0.00 PKD
ROOT
HETATM    1  C   UNL     1      -6.618  21.370  67.526  1.00  0.00    -0.192 C  
HETATM    2  O   UNL     1      -5.817  20.263  67.927  1.00  0.00    -0.200 OA 
ENDROOT
BRANCH   2   3
HETATM    3  C   UNL     1      -6.383  19.030  67.736  1.00  0.00    -0.209 A  
HETATM    4  C   UNL     1      -6.832  18.792  66.431  1.00  0.00    -0.239 A  
HETATM    5  C   UNL     1      -7.460  17.596  66.092  1.00  0.00    -0.334 A  
HETATM    6  C   UNL     1      -7.628  16.579  67.052  1.00  0.00    -0.240 A  
HETATM    7  C   UNL     1      -7.131  16.797  68.346  1.00  0.00    -0.173 A  
HETATM    8  H   UNL     1      -6.111  17.476  70.594  1.00  0.00     0.000 HD 
HETATM    9  O   UNL     1      -6.029  18.171  69.951  1.00  0.00    -0.238 OA 
HETATM   10  C   UNL     1      -6.504  18.010  68.682  1.00  0.00    -0.223 A  
BRANCH   6  11
HETATM   11  C   UNL     1      -8.476  15.363  66.713  1.00  0.00    -0.272 C  
HETATM   12  C   UNL     1      -9.856  15.553  67.321  1.00  0.00    -0.224 C  
HETATM   13  O   UNL     1     -11.864  14.585  66.516  1.00  0.00    -0.383 OA 
HETATM   14  C   UNL     1     -10.703  14.397  66.876  1.00  0.00    -0.292 C  
HETATM   15  C   UNL     1     -10.050  13.076  66.910  1.00  0.00    -0.243 A  
HETATM   16  C   UNL     1      -8.664  13.043  67.083  1.00  0.00    -0.204 A  
HETATM   17  C   UNL     1      -7.995  11.814  67.162  1.00  0.00    -0.166 A  
HETATM   18  O   UNL     1      -7.867  14.161  67.214  1.00  0.00    -0.183 OA 
HETATM   19  C   UNL     1      -8.709  10.613  67.093  1.00  0.00    -0.130 A  
HETATM   20  O   UNL     1     -12.121  11.875  66.684  1.00  0.00    -0.587 OA 
HETATM   21  C   UNL     1     -10.093  10.650  66.902  1.00  0.00    -0.260 A  
HETATM   22  H   UNL     1     -12.604  11.059  66.624  1.00  0.00     0.000 HD 
HETATM   23  C   UNL     1     -10.762  11.872  66.821  1.00  0.00    -0.246 A  
BRANCH  19  24
HETATM   24  O   UNL     1      -8.169   9.353  67.166  1.00  0.00    -0.112 OA 
BRANCH  24  25
HETATM   25  C   UNL     1      -9.036   8.257  66.847  1.00  0.00    -0.150 C  
HETATM   26  C   UNL     1     -10.558   6.696  67.799  1.00  0.00    -0.252 C  
HETATM   27  O   UNL     1      -9.514   7.649  68.060  1.00  0.00    -0.142 OA 
HETATM   28  C   UNL     1     -10.009   5.536  66.955  1.00  0.00    -0.179 C  
HETATM   29  H   UNL     1      -8.292   5.346  64.184  1.00  0.00     0.000 HD 
HETATM   30  O   UNL     1      -7.741   7.732  64.819  1.00  0.00    -0.103 OA 
HETATM   31  C   UNL     1      -9.329   6.079  65.691  1.00  0.00     0.116 C  
HETATM   32  O   UNL     1     -11.016   4.603  66.535  1.00  0.00    -0.353 OA 
HETATM   33  H   UNL     1      -7.290   7.068  64.310  1.00  0.00     0.000 HD 
HETATM   34  H   UNL     1     -10.676   3.885  66.013  1.00  0.00     0.000 HD 
HETATM   35  O   UNL     1      -8.713   5.009  64.966  1.00  0.00    -0.145 OA 
HETATM   36  C   UNL     1      -8.302   7.178  66.020  1.00  0.00    -0.134 C  
BRANCH  26  37
HETATM   37  C   UNL     1     -11.122   6.191  69.132  1.00  0.00    -0.378 C  
BRANCH  37  38
HETATM   38  O   UNL     1     -10.341   6.744  70.191  1.00  0.00    -0.195 OA 
BRANCH  38  39
HETATM   39  C   UNL     1      -9.484   5.771  70.798  1.00  0.00    -0.165 C  
HETATM   40  O   UNL     1     -10.062   5.375  72.042  1.00  0.00    -0.178 OA 
HETATM   41  C   UNL     1      -9.273   4.486  72.835  1.00  0.00    -0.123 C  
HETATM   42  C   UNL     1      -7.857   5.042  73.089  1.00  0.00    -0.100 C  
HETATM   43  C   UNL     1      -9.313   3.067  72.273  1.00  0.00    -0.168 C  
HETATM   44  O   UNL     1      -7.950   6.188  73.953  1.00  0.00    -0.101 OA 
HETATM   45  C   UNL     1      -7.165   5.499  71.803  1.00  0.00    -0.089 C  
HETATM   46  O   UNL     1      -6.673   4.392  71.030  1.00  0.00    -0.032 OA 
HETATM   47  H   UNL     1      -7.077   6.531  74.109  1.00  0.00     0.000 HD 
HETATM   48  C   UNL     1      -8.083   6.399  70.965  1.00  0.00    -0.121 C  
HETATM   49  H   UNL     1      -6.243   4.675  70.232  1.00  0.00     0.000 HD 
HETATM   50  O   UNL     1      -7.474   6.639  69.683  1.00  0.00    -0.091 OA 
HETATM   51  H   UNL     1      -6.613   7.026  69.786  1.00  0.00     0.000 HD 
ENDBRANCH  38  39
ENDBRANCH  37  38
ENDBRANCH  26  37
ENDBRANCH  24  25
ENDBRANCH  19  24
ENDBRANCH   6  11
ENDBRANCH   2   3
TORSDOF 7
ENDMDL
MODEL      100
REMARK 921   NORMALIZED FREE ENERGY PREDICTED BY IDOCK:   -6.26 KCAL/MOL
REMARK 922        TOTAL FREE ENERGY PREDICTED BY IDOCK:  -10.10 KCAL/MOL
REMARK 923 INTER-LIGAND FREE ENERGY PREDICTED BY IDOCK:   -9.84 KCAL/MOL
REMARK 924 INTRA-LIGAND FREE ENERGY PREDICTED BY IDOCK:   -0.27 KCAL/MOL
REMARK 927      BINDING AFFINITY PREDICTED BY RF-SCORE:    0.00 PKD
ROOT
HETATM    1  C   UNL     1      -9.660  20.666  67.780  1.00  0.00    -0.218 C  
HETATM    2  O   UNL     1      -9.247  20.000  66.590  1.00  0.00    -0.351 OA 
ENDROOT
BRANCH   2   3
HETATM    3  C   UNL     1      -9.271  18.632  66.646  1.00  0.00    -0.321 A  
HETATM    4  C   UNL     1     -10.489  18.087  67.072  1.00  0.00    -0.361 A  
HETATM    5  C   UNL     1     -10.653  16.711  67.211  1.00  0.00    -0.281 A  
HETATM    6  C   UNL     1      -9.602  15.829  66.893  1.00  0.00    -0.243 A  
HETATM    7  C   UNL     1      -8.399  16.372  66.416  1.00  0.00    -0.363 A  
HETATM    8  H   UNL     1      -6.352  17.651  65.562  1.00  0.00     0.000 HD 
HETATM    9  O   UNL     1      -7.054  18.243  65.809  1.00  0.00    -0.407 OA 
HETATM   10  C   UNL     1      -8.239  17.762  66.285  1.00  0.00    -0.217 A  
BRANCH   6  11
HETATM   11  C   UNL     1      -9.738  14.352  67.226  1.00  0.00    -0.233 C  
HETATM   12  C   UNL     1     -10.270  13.628  66.000  1.00  0.00    -0.312 C  
HETATM   13  O   UNL     1      -9.911  11.344  65.482  1.00  0.00    -0.213 OA 
HETATM   14  C   UNL     1     -10.286  12.162  66.319  1.00  0.00    -0.221 C  
HETATM   15  C   UNL     1     -10.774  11.806  67.664  1.00  0.00    -0.254 A  
HETATM   16  C   UNL     1     -10.914  12.837  68.596  1.00  0.00    -0.260 A  
HETATM   17  C   UNL     1     -11.412  12.563  69.878  1.00  0.00    -0.159 A  
HETATM   18  O   UNL     1     -10.620  14.161  68.346  1.00  0.00    -0.244 OA 
HETATM   19  C   UNL     1     -11.792  11.263  70.227  1.00  0.00    -0.357 A  
HETATM   20  O   UNL     1     -11.039   9.479  67.120  1.00  0.00    -0.266 OA 
HETATM   21  C   UNL     1     -11.633  10.230  69.298  1.00  0.00    -0.186 A  
HETATM   22  H   UNL     1     -11.286   8.593  67.362  1.00  0.00     0.000 HD 
HETATM   23  C   UNL     1     -11.137  10.500  68.022  1.00  0.00    -0.300 A  
BRANCH  19  24
HETATM   24  O   UNL     1     -12.296  10.874  71.443  1.00  0.00    -0.346 OA 
BRANCH  24  25
HETATM   25  C   UNL     1     -11.919   9.574  71.914  1.00  0.00    -0.311 C  
HETATM   26  C   UNL     1     -10.295   7.854  71.657  1.00  0.00    -0.204 C  
HETATM   27  O   UNL     1     -10.859   9.050  71.094  1.00  0.00    -0.245 OA 
HETATM   28  C   UNL     1     -11.356   6.744  71.702  1.00  0.00    -0.266 C  
HETATM   29  H   UNL     1     -14.420   6.565  72.816  1.00  0.00     0.000 HD 
HETATM   30  O   UNL     1     -14.230   9.078  72.609  1.00  0.00    -0.779 OA 
HETATM   31  C   UNL     1     -12.612   7.245  72.430  1.00  0.00     0.093 C  
HETATM   32  O   UNL     1     -10.916   5.554  72.373  1.00  0.00    -0.236 OA 
HETATM   33  H   UNL     1     -14.960   8.472  72.576  1.00  0.00     0.000 HD 
HETATM   34  H   UNL     1     -11.572   4.868  72.401  1.00  0.00     0.000 HD 
HETATM   35  O   UNL     1     -13.643   6.254  72.366  1.00  0.00     0.146 OA 
HETATM   36  C   UNL     1     -13.107   8.586  71.860  1.00  0.00    -0.362 C  
BRANCH  26  37
HETATM   37  C   UNL     1      -9.084   7.427  70.819  1.00  0.00    -0.151 C  
BRANCH  37  38
HETATM   38  O   UNL     1      -9.392   7.637  69.441  1.00  0.00    -0.153 OA 
BRANCH  38  39
HETATM   39  C   UNL     1      -8.532   6.892  68.573  1.00  0.00    -0.123 C  
HETATM   40  O   UNL     1      -7.981   7.787  67.606  1.00  0.00    -0.119 OA 
HETATM   41  C   UNL     1      -7.182   7.183  66.588  1.00  0.00    -0.079 C  
HETATM   42  C   UNL     1      -7.937   6.052  65.859  1.00  0.00    -0.111 C  
HETATM   43  C   UNL     1      -5.809   6.793  67.127  1.00  0.00    -0.014 C  
HETATM   44  O   UNL     1      -9.004   6.622  65.082  1.00  0.00    -0.362 OA 
HETATM   45  C   UNL     1      -8.567   5.046  66.825  1.00  0.00    -0.109 C  
HETATM   46  O   UNL     1      -7.594   4.144  67.379  1.00  0.00    -0.075 OA 
HETATM   47  H   UNL     1      -9.468   5.925  64.633  1.00  0.00     0.000 HD 
HETATM   48  C   UNL     1      -9.359   5.757  67.931  1.00  0.00    -0.105 C  
HETATM   49  H   UNL     1      -7.985   3.520  67.978  1.00  0.00     0.000 HD 
HETATM   50  O   UNL     1      -9.762   4.794  68.923  1.00  0.00    -0.156 OA 
HETATM   51  H   UNL     1     -10.271   4.097  68.528  1.00  0.00     0.000 HD 
ENDBRANCH  38  39
ENDBRANCH  37  38
ENDBRANCH  26  37
ENDBRANCH  24  25
ENDBRANCH  19  24
ENDBRANCH   6  11
ENDBRANCH   2   3
TORSDOF 7
ENDMDL
MODEL      101
REMARK 921   NORMALIZED FREE ENERGY PREDICTED BY IDOCK:   -6.23 KCAL/MOL
REMARK 922        TOTAL FREE ENERGY PREDICTED BY IDOCK:  -10.06 KCAL/MOL
REMARK 923 INTER-LIGAND FREE ENERGY PREDICTED BY IDOCK:   -8.07 KCAL/MOL
REMARK 924 INTRA-LIGAND FREE ENERGY PREDICTED BY IDOCK:   -1.99 KCAL/MOL
REMARK 927      BINDING AFFINITY PREDICTED BY RF-SCORE:    0.00 PKD
ROOT
HETATM    1  C   UNL     1     -10.218   2.739  63.944  1.00  0.00    -0.140 C  
HETATM    2  O   UNL     1      -8.947   2.739  64.585  1.00  0.00    -0.112 OA 
ENDROOT
BRANCH   2   3
HETATM    3  C   UNL     1      -8.828   3.590  65.652  1.00  0.00    -0.129 A  
HETATM    4  C   UNL     1      -9.283   3.066  66.868  1.00  0.00    -0.177 A  
HETATM    5  C   UNL     1      -9.257   3.827  68.034  1.00  0.00    -0.216 A  
HETATM    6  C   UNL     1      -8.739   5.137  68.023  1.00  0.00    -0.102 A  
HETATM    7  C   UNL     1      -8.235   5.642  66.816  1.00  0.00    -0.105 A  
HETATM    8  H   UNL     1      -7.379   6.274  64.486  1.00  0.00     0.000 HD 
HETATM    9  O   UNL     1      -7.759   5.402  64.493  1.00  0.00    -0.084 OA 
HETATM   10  C   UNL     1      -8.270   4.870  65.641  1.00  0.00    -0.115 A  
BRANCH   6  11
HETATM   11  C   UNL     1      -8.890   6.011  69.258  1.00  0.00    -0.123 C  
HETATM   12  C   UNL     1      -8.613   5.162  70.487  1.00  0.00    -0.126 C  
HETATM   13  O   UNL     1      -7.815   5.965  72.569  1.00  0.00    -0.101 OA 
HETATM   14  C   UNL     1      -8.657   6.073  71.679  1.00  0.00    -0.131 C  
HETATM   15  C   UNL     1      -9.750   7.061  71.688  1.00  0.00    -0.164 A  
HETATM   16  C   UNL     1     -10.465   7.248  70.501  1.00  0.00    -0.217 A  
HETATM   17  C   UNL     1     -11.540   8.146  70.463  1.00  0.00    -0.130 A  
HETATM   18  O   UNL     1     -10.211   6.577  69.324  1.00  0.00    -0.171 OA 
HETATM   19  C   UNL     1     -11.922   8.845  71.613  1.00  0.00    -0.345 A  
HETATM   20  O   UNL     1      -9.460   7.590  74.016  1.00  0.00    -0.344 OA 
HETATM   21  C   UNL     1     -11.193   8.669  72.793  1.00  0.00     0.095 A  
HETATM   22  H   UNL     1      -9.711   8.075  74.793  1.00  0.00     0.000 HD 
HETATM   23  C   UNL     1     -10.121   7.777  72.834  1.00  0.00    -0.301 A  
BRANCH  19  24
HETATM   24  O   UNL     1     -12.957   9.742  71.701  1.00  0.00    -0.356 OA 
BRANCH  24  25
HETATM   25  C   UNL     1     -12.815  10.968  70.973  1.00  0.00    -0.346 C  
HETATM   26  C   UNL     1     -11.478  12.067  69.341  1.00  0.00    -0.296 C  
HETATM   27  O   UNL     1     -11.566  10.964  70.259  1.00  0.00    -0.299 OA 
HETATM   28  C   UNL     1     -11.498  13.395  70.113  1.00  0.00     0.013 C  
HETATM   29  H   UNL     1     -13.432  14.663  72.417  1.00  0.00     0.000 HD 
HETATM   30  O   UNL     1     -14.025  12.222  72.713  1.00  0.00    -0.439 OA 
HETATM   31  C   UNL     1     -12.721  13.448  71.038  1.00  0.00    -0.307 C  
HETATM   32  O   UNL     1     -11.547  14.552  69.265  1.00  0.00    -0.267 OA 
HETATM   33  H   UNL     1     -14.034  12.974  73.294  1.00  0.00     0.000 HD 
HETATM   34  H   UNL     1     -11.559  15.373  69.742  1.00  0.00     0.000 HD 
HETATM   35  O   UNL     1     -12.674  14.630  71.844  1.00  0.00    -0.310 OA 
HETATM   36  C   UNL     1     -12.829  12.191  71.918  1.00  0.00    -0.222 C  
BRANCH  26  37
HETATM   37  C   UNL     1     -10.196  11.929  68.511  1.00  0.00    -0.215 C  
BRANCH  37  38
HETATM   38  O   UNL     1     -10.387  10.883  67.557  1.00  0.00    -0.186 OA 
BRANCH  38  39
HETATM   39  C   UNL     1      -9.160  10.229  67.218  1.00  0.00    -0.138 C  
HETATM   40  O   UNL     1      -8.122  10.759  68.042  1.00  0.00    -0.109 OA 
HETATM   41  C   UNL     1      -6.803  10.292  67.754  1.00  0.00    -0.075 C  
HETATM   42  C   UNL     1      -6.428  10.501  66.272  1.00  0.00    -0.114 C  
HETATM   43  C   UNL     1      -6.598   8.872  68.272  1.00  0.00    -0.060 C  
HETATM   44  O   UNL     1      -6.294  11.909  66.014  1.00  0.00    -0.322 OA 
HETATM   45  C   UNL     1      -7.495   9.964  65.314  1.00  0.00    -0.131 C  
HETATM   46  O   UNL     1      -7.451   8.532  65.203  1.00  0.00    -0.085 OA 
HETATM   47  H   UNL     1      -6.064  12.037  65.101  1.00  0.00     0.000 HD 
HETATM   48  C   UNL     1      -8.896  10.449  65.712  1.00  0.00    -0.170 C  
HETATM   49  H   UNL     1      -8.113   8.198  64.609  1.00  0.00     0.000 HD 
HETATM   50  O   UNL     1      -9.881   9.765  64.915  1.00  0.00    -0.399 OA 
HETATM   51  H   UNL     1      -9.719   9.901  63.989  1.00  0.00     0.000 HD 
ENDBRANCH  38  39
ENDBRANCH  37  38
ENDBRANCH  26  37
ENDBRANCH  24  25
ENDBRANCH  19  24
ENDBRANCH   6  11
ENDBRANCH   2   3
TORSDOF 7
ENDMDL
MODEL      102
REMARK 921   NORMALIZED FREE ENERGY PREDICTED BY IDOCK:   -6.18 KCAL/MOL
REMARK 922        TOTAL FREE ENERGY PREDICTED BY IDOCK:   -9.99 KCAL/MOL
REMARK 923 INTER-LIGAND FREE ENERGY PREDICTED BY IDOCK:   -9.31 KCAL/MOL
REMARK 924 INTRA-LIGAND FREE ENERGY PREDICTED BY IDOCK:   -0.69 KCAL/MOL
REMARK 927      BINDING AFFINITY PREDICTED BY RF-SCORE:    0.00 PKD
ROOT
HETATM    1  C   UNL     1     -12.248  14.672  64.034  1.00  0.00    -0.194 C  
HETATM    2  O   UNL     1     -11.571  15.079  65.218  1.00  0.00    -0.331 OA 
ENDROOT
BRANCH   2   3
HETATM    3  C   UNL     1     -11.534  14.147  66.222  1.00  0.00    -0.352 A  
HETATM    4  C   UNL     1     -11.312  12.834  65.791  1.00  0.00    -0.357 A  
HETATM    5  C   UNL     1     -11.283  11.774  66.693  1.00  0.00    -0.383 A  
HETATM    6  C   UNL     1     -11.445  12.005  68.074  1.00  0.00    -0.392 A  
HETATM    7  C   UNL     1     -11.615  13.327  68.511  1.00  0.00    -0.368 A  
HETATM    8  H   UNL     1     -11.887  15.826  69.001  1.00  0.00     0.000 HD 
HETATM    9  O   UNL     1     -11.809  15.660  68.068  1.00  0.00    -0.244 OA 
HETATM   10  C   UNL     1     -11.650  14.391  67.593  1.00  0.00    -0.370 A  
BRANCH   6  11
HETATM   11  C   UNL     1     -11.595  10.822  69.017  1.00  0.00    -0.299 C  
HETATM   12  C   UNL     1     -12.136  11.329  70.344  1.00  0.00    -0.474 C  
HETATM   13  O   UNL     1     -13.404  10.062  71.893  1.00  0.00    -0.413 OA 
HETATM   14  C   UNL     1     -12.382  10.131  71.213  1.00  0.00    -0.400 C  
HETATM   15  C   UNL     1     -11.334   9.095  71.184  1.00  0.00    -0.392 A  
HETATM   16  C   UNL     1     -10.368   9.179  70.178  1.00  0.00    -0.213 A  
HETATM   17  C   UNL     1      -9.326   8.243  70.125  1.00  0.00    -0.159 A  
HETATM   18  O   UNL     1     -10.334  10.159  69.208  1.00  0.00    -0.195 OA 
HETATM   19  C   UNL     1      -9.230   7.233  71.089  1.00  0.00    -0.156 A  
HETATM   20  O   UNL     1     -12.161   7.985  73.150  1.00  0.00    -0.656 OA 
HETATM   21  C   UNL     1     -10.208   7.142  72.083  1.00  0.00    -0.207 A  
HETATM   22  H   UNL     1     -12.102   7.291  73.797  1.00  0.00     0.000 HD 
HETATM   23  C   UNL     1     -11.248   8.071  72.137  1.00  0.00    -0.319 A  
BRANCH  19  24
HETATM   24  O   UNL     1      -8.255   6.268  71.146  1.00  0.00    -0.119 OA 
BRANCH  24  25
HETATM   25  C   UNL     1      -8.000   5.535  69.941  1.00  0.00    -0.083 C  
HETATM   26  C   UNL     1      -6.850   5.633  67.861  1.00  0.00    -0.064 C  
HETATM   27  O   UNL     1      -7.326   6.381  68.993  1.00  0.00    -0.084 OA 
HETATM   28  C   UNL     1      -8.037   5.031  67.093  1.00  0.00    -0.107 C  
HETATM   29  H   UNL     1     -10.643   3.261  67.950  1.00  0.00     0.000 HD 
HETATM   30  O   UNL     1     -10.071   4.229  70.215  1.00  0.00    -0.191 OA 
HETATM   31  C   UNL     1      -8.925   4.222  68.048  1.00  0.00    -0.122 C  
HETATM   32  O   UNL     1      -7.646   4.158  66.023  1.00  0.00    -0.087 OA 
HETATM   33  H   UNL     1     -10.877   3.920  69.819  1.00  0.00     0.000 HD 
HETATM   34  H   UNL     1      -8.379   3.786  65.548  1.00  0.00     0.000 HD 
HETATM   35  O   UNL     1     -10.093   3.762  67.358  1.00  0.00     0.046 OA 
HETATM   36  C   UNL     1      -9.312   5.032  69.297  1.00  0.00    -0.125 C  
BRANCH  26  37
HETATM   37  C   UNL     1      -6.021   6.558  66.961  1.00  0.00    -0.024 C  
BRANCH  37  38
HETATM   38  O   UNL     1      -6.679   6.666  65.699  1.00  0.00    -0.048 OA 
BRANCH  38  39
HETATM   39  C   UNL     1      -7.088   8.008  65.414  1.00  0.00    -0.060 C  
HETATM   40  O   UNL     1      -7.798   8.010  64.175  1.00  0.00    -0.129 OA 
HETATM   41  C   UNL     1      -8.182   9.296  63.684  1.00  0.00    -0.166 C  
HETATM   42  C   UNL     1      -6.980  10.256  63.580  1.00  0.00    -0.078 C  
HETATM   43  C   UNL     1      -9.376   9.846  64.461  1.00  0.00    -0.336 C  
HETATM   44  O   UNL     1      -6.104   9.803  62.534  1.00  0.00    -0.097 OA 
HETATM   45  C   UNL     1      -6.156  10.310  64.869  1.00  0.00    -0.128 C  
HETATM   46  O   UNL     1      -6.795  11.098  65.887  1.00  0.00    -0.346 OA 
HETATM   47  H   UNL     1      -5.363  10.394  62.470  1.00  0.00     0.000 HD 
HETATM   48  C   UNL     1      -5.828   8.901  65.380  1.00  0.00    -0.047 C  
HETATM   49  H   UNL     1      -6.284  11.132  66.687  1.00  0.00     0.000 HD 
HETATM   50  O   UNL     1      -5.233   8.994  66.687  1.00  0.00    -0.037 OA 
HETATM   51  H   UNL     1      -4.458   9.542  66.666  1.00  0.00     0.000 HD 
ENDBRANCH  38  39
ENDBRANCH  37  38
ENDBRANCH  26  37
ENDBRANCH  24  25
ENDBRANCH  19  24
ENDBRANCH   6  11
ENDBRANCH   2   3
TORSDOF 7
ENDMDL
MODEL      103
REMARK 921   NORMALIZED FREE ENERGY PREDICTED BY IDOCK:   -6.18 KCAL/MOL
REMARK 922        TOTAL FREE ENERGY PREDICTED BY IDOCK:   -9.98 KCAL/MOL
REMARK 923 INTER-LIGAND FREE ENERGY PREDICTED BY IDOCK:   -7.74 KCAL/MOL
REMARK 924 INTRA-LIGAND FREE ENERGY PREDICTED BY IDOCK:   -2.24 KCAL/MOL
REMARK 927      BINDING AFFINITY PREDICTED BY RF-SCORE:    0.00 PKD
ROOT
HETATM    1  C   UNL     1      -6.262   5.556  67.767  1.00  0.00    -0.034 C  
HETATM    2  O   UNL     1      -6.893   6.528  66.940  1.00  0.00    -0.061 OA 
ENDROOT
BRANCH   2   3
HETATM    3  C   UNL     1      -7.798   7.338  67.574  1.00  0.00    -0.112 A  
HETATM    4  C   UNL     1      -7.233   8.426  68.251  1.00  0.00    -0.086 A  
HETATM    5  C   UNL     1      -8.025   9.317  68.970  1.00  0.00    -0.097 A  
HETATM    6  C   UNL     1      -9.425   9.163  69.005  1.00  0.00    -0.152 A  
HETATM    7  C   UNL     1      -9.996   8.104  68.283  1.00  0.00    -0.212 A  
HETATM    8  H   UNL     1     -10.738   6.105  66.865  1.00  0.00     0.000 HD 
HETATM    9  O   UNL     1      -9.791   6.195  66.871  1.00  0.00    -0.143 OA 
HETATM   10  C   UNL     1      -9.189   7.204  67.565  1.00  0.00    -0.125 A  
BRANCH   6  11
HETATM   11  C   UNL     1     -10.250  10.032  69.941  1.00  0.00    -0.260 C  
HETATM   12  C   UNL     1     -11.389   9.194  70.498  1.00  0.00    -0.300 C  
HETATM   13  O   UNL     1     -12.482   9.551  72.570  1.00  0.00    -0.209 OA 
HETATM   14  C   UNL     1     -12.116  10.039  71.502  1.00  0.00    -0.387 C  
HETATM   15  C   UNL     1     -12.345  11.441  71.111  1.00  0.00    -0.404 A  
HETATM   16  C   UNL     1     -11.652  11.925  69.998  1.00  0.00    -0.220 A  
HETATM   17  C   UNL     1     -11.861  13.239  69.557  1.00  0.00    -0.388 A  
HETATM   18  O   UNL     1     -10.763  11.183  69.249  1.00  0.00    -0.217 OA 
HETATM   19  C   UNL     1     -12.780  14.068  70.209  1.00  0.00    -0.210 A  
HETATM   20  O   UNL     1     -13.966  11.823  72.846  1.00  0.00     0.098 OA 
HETATM   21  C   UNL     1     -13.458  13.587  71.333  1.00  0.00    -0.233 A  
HETATM   22  H   UNL     1     -14.580  12.391  73.296  1.00  0.00     0.000 HD 
HETATM   23  C   UNL     1     -13.251  12.280  71.775  1.00  0.00    -0.326 A  
BRANCH  19  24
HETATM   24  O   UNL     1     -13.074  15.365  69.867  1.00  0.00    -0.004 OA 
BRANCH  24  25
HETATM   25  C   UNL     1     -12.120  16.050  69.045  1.00  0.00    -0.014 C  
HETATM   26  C   UNL     1     -11.101  16.032  66.896  1.00  0.00    -0.039 C  
HETATM   27  O   UNL     1     -11.873  15.286  67.851  1.00  0.00    -0.303 OA 
HETATM   28  C   UNL     1      -9.711  16.341  67.472  1.00  0.00    -0.234 C  
HETATM   29  H   UNL     1      -8.640  17.631  70.274  1.00  0.00     0.000 HD 
HETATM   30  O   UNL     1     -10.958  16.948  71.022  1.00  0.00    -0.050 OA 
HETATM   31  C   UNL     1      -9.847  17.028  68.838  1.00  0.00    -0.272 C  
HETATM   32  O   UNL     1      -8.919  17.198  66.636  1.00  0.00    -0.231 OA 
HETATM   33  H   UNL     1     -10.131  17.068  71.476  1.00  0.00     0.000 HD 
HETATM   34  H   UNL     1      -8.059  17.389  66.992  1.00  0.00     0.000 HD 
HETATM   35  O   UNL     1      -8.555  17.206  69.428  1.00  0.00     0.063 OA 
HETATM   36  C   UNL     1     -10.776  16.245  69.783  1.00  0.00    -0.345 C  
BRANCH  26  37
HETATM   37  C   UNL     1     -10.994  15.225  65.596  1.00  0.00    -0.344 C  
BRANCH  37  38
HETATM   38  O   UNL     1      -9.664  14.715  65.491  1.00  0.00    -0.320 OA 
BRANCH  38  39
HETATM   39  C   UNL     1      -9.643  13.327  65.140  1.00  0.00     0.215 C  
HETATM   40  O   UNL     1     -10.942  12.959  64.674  1.00  0.00    -0.301 OA 
HETATM   41  C   UNL     1     -11.125  11.572  64.385  1.00  0.00    -0.291 C  
HETATM   42  C   UNL     1     -10.746  10.679  65.584  1.00  0.00    -0.034 C  
HETATM   43  C   UNL     1     -10.457  11.193  63.067  1.00  0.00    -0.140 C  
HETATM   44  O   UNL     1     -11.699  10.878  66.641  1.00  0.00    -0.093 OA 
HETATM   45  C   UNL     1      -9.363  11.012  66.152  1.00  0.00    -0.191 C  
HETATM   46  O   UNL     1      -8.302  10.495  65.332  1.00  0.00    -0.162 OA 
HETATM   47  H   UNL     1     -11.465  10.328  67.379  1.00  0.00     0.000 HD 
HETATM   48  C   UNL     1      -9.204  12.521  66.382  1.00  0.00    -0.177 C  
HETATM   49  H   UNL     1      -7.444  10.701  65.684  1.00  0.00     0.000 HD 
HETATM   50  O   UNL     1      -7.836  12.810  66.722  1.00  0.00    -0.399 OA 
HETATM   51  H   UNL     1      -7.567  12.314  67.486  1.00  0.00     0.000 HD 
ENDBRANCH  38  39
ENDBRANCH  37  38
ENDBRANCH  26  37
ENDBRANCH  24  25
ENDBRANCH  19  24
ENDBRANCH   6  11
ENDBRANCH   2   3
TORSDOF 7
ENDMDL
MODEL      104
REMARK 921   NORMALIZED FREE ENERGY PREDICTED BY IDOCK:   -6.15 KCAL/MOL
REMARK 922        TOTAL FREE ENERGY PREDICTED BY IDOCK:   -9.94 KCAL/MOL
REMARK 923 INTER-LIGAND FREE ENERGY PREDICTED BY IDOCK:   -8.21 KCAL/MOL
REMARK 924 INTRA-LIGAND FREE ENERGY PREDICTED BY IDOCK:   -1.73 KCAL/MOL
REMARK 927      BINDING AFFINITY PREDICTED BY RF-SCORE:    0.00 PKD
ROOT
HETATM    1  C   UNL     1      -9.249   2.327  62.941  1.00  0.00    -0.091 C  
HETATM    2  O   UNL     1      -8.165   1.997  63.804  1.00  0.00    -0.078 OA 
ENDROOT
BRANCH   2   3
HETATM    3  C   UNL     1      -8.095   2.724  64.962  1.00  0.00    -0.083 A  
HETATM    4  C   UNL     1      -8.673   2.104  66.077  1.00  0.00    -0.116 A  
HETATM    5  C   UNL     1      -8.708   2.737  67.316  1.00  0.00    -0.138 A  
HETATM    6  C   UNL     1      -8.130   4.010  67.486  1.00  0.00    -0.091 A  
HETATM    7  C   UNL     1      -7.505   4.610  66.383  1.00  0.00    -0.082 A  
HETATM    8  H   UNL     1      -6.432   5.431  64.208  1.00  0.00     0.000 HD 
HETATM    9  O   UNL     1      -6.851   4.586  64.091  1.00  0.00    -0.043 OA 
HETATM   10  C   UNL     1      -7.479   3.967  65.133  1.00  0.00    -0.077 A  
BRANCH   6  11
HETATM   11  C   UNL     1      -8.342   4.759  68.793  1.00  0.00    -0.082 C  
HETATM   12  C   UNL     1      -7.890   3.868  69.938  1.00  0.00    -0.051 C  
HETATM   13  O   UNL     1      -7.112   4.617  72.047  1.00  0.00    -0.057 OA 
HETATM   14  C   UNL     1      -8.002   4.671  71.200  1.00  0.00    -0.087 C  
HETATM   15  C   UNL     1      -9.220   5.490  71.330  1.00  0.00    -0.167 A  
HETATM   16  C   UNL     1     -10.011   5.661  70.191  1.00  0.00    -0.207 A  
HETATM   17  C   UNL     1     -11.202   6.397  70.265  1.00  0.00    -0.445 A  
HETATM   18  O   UNL     1      -9.723   5.124  68.953  1.00  0.00    -0.134 OA 
HETATM   19  C   UNL     1     -11.621   6.946  71.482  1.00  0.00    -0.290 A  
HETATM   20  O   UNL     1      -8.894   5.878  73.681  1.00  0.00    -0.125 OA 
HETATM   21  C   UNL     1     -10.818   6.788  72.616  1.00  0.00    -0.282 A  
HETATM   22  H   UNL     1      -9.173   6.262  74.504  1.00  0.00     0.000 HD 
HETATM   23  C   UNL     1      -9.632   6.057  72.544  1.00  0.00    -0.153 A  
BRANCH  19  24
HETATM   24  O   UNL     1     -12.766   7.677  71.681  1.00  0.00    -0.323 OA 
BRANCH  24  25
HETATM   25  C   UNL     1     -12.813   8.979  71.086  1.00  0.00    -0.167 C  
HETATM   26  C   UNL     1     -11.641  10.449  69.628  1.00  0.00    -0.239 C  
HETATM   27  O   UNL     1     -11.565   9.257  70.427  1.00  0.00    -0.254 OA 
HETATM   28  C   UNL     1     -11.902  11.667  70.527  1.00  0.00    -0.231 C  
HETATM   29  H   UNL     1     -14.077  12.350  72.864  1.00  0.00     0.000 HD 
HETATM   30  O   UNL     1     -14.260   9.827  72.890  1.00  0.00    -0.643 OA 
HETATM   31  C   UNL     1     -13.139  11.421  71.402  1.00  0.00    -0.276 C  
HETATM   32  O   UNL     1     -12.124  12.883  69.798  1.00  0.00    -0.299 OA 
HETATM   33  H   UNL     1     -14.409  10.502  73.542  1.00  0.00     0.000 HD 
HETATM   34  H   UNL     1     -12.286  13.636  70.354  1.00  0.00     0.000 HD 
HETATM   35  O   UNL     1     -13.311  12.503  72.323  1.00  0.00    -0.525 OA 
HETATM   36  C   UNL     1     -13.056  10.077  72.147  1.00  0.00    -0.386 C  
BRANCH  26  37
HETATM   37  C   UNL     1     -10.334  10.612  68.843  1.00  0.00    -0.207 C  
BRANCH  37  38
HETATM   38  O   UNL     1     -10.395   9.776  67.687  1.00  0.00    -0.198 OA 
BRANCH  38  39
HETATM   39  C   UNL     1      -9.094   9.420  67.206  1.00  0.00    -0.133 C  
HETATM   40  O   UNL     1      -8.126   9.847  68.164  1.00  0.00    -0.103 OA 
HETATM   41  C   UNL     1      -6.760   9.669  67.785  1.00  0.00    -0.066 C  
HETATM   42  C   UNL     1      -6.449  10.326  66.425  1.00  0.00    -0.087 C  
HETATM   43  C   UNL     1      -6.346   8.204  67.899  1.00  0.00    -0.052 C  
HETATM   44  O   UNL     1      -6.521  11.755  66.565  1.00  0.00    -0.341 OA 
HETATM   45  C   UNL     1      -7.448   9.926  65.336  1.00  0.00    -0.132 C  
HETATM   46  O   UNL     1      -7.203   8.600  64.837  1.00  0.00    -0.082 OA 
HETATM   47  H   UNL     1      -6.329  12.159  65.726  1.00  0.00     0.000 HD 
HETATM   48  C   UNL     1      -8.895  10.079  65.823  1.00  0.00    -0.150 C  
HETATM   49  H   UNL     1      -7.822   8.351  64.162  1.00  0.00     0.000 HD 
HETATM   50  O   UNL     1      -9.788   9.507  64.850  1.00  0.00    -0.434 OA 
HETATM   51  H   UNL     1      -9.666   9.913  64.000  1.00  0.00     0.000 HD 
ENDBRANCH  38  39
ENDBRANCH  37  38
ENDBRANCH  26  37
ENDBRANCH  24  25
ENDBRANCH  19  24
ENDBRANCH   6  11
ENDBRANCH   2   3
TORSDOF 7
ENDMDL
MODEL      105
REMARK 921   NORMALIZED FREE ENERGY PREDICTED BY IDOCK:   -6.10 KCAL/MOL
REMARK 922        TOTAL FREE ENERGY PREDICTED BY IDOCK:   -9.88 KCAL/MOL
REMARK 923 INTER-LIGAND FREE ENERGY PREDICTED BY IDOCK:   -9.37 KCAL/MOL
REMARK 924 INTRA-LIGAND FREE ENERGY PREDICTED BY IDOCK:   -0.51 KCAL/MOL
REMARK 927      BINDING AFFINITY PREDICTED BY RF-SCORE:    0.00 PKD
ROOT
HETATM    1  C   UNL     1     -10.534  17.344  68.831  1.00  0.00    -0.312 C  
HETATM    2  O   UNL     1     -11.658  16.692  68.248  1.00  0.00    -0.145 OA 
ENDROOT
BRANCH   2   3
HETATM    3  C   UNL     1     -11.758  15.351  68.509  1.00  0.00    -0.338 A  
HETATM    4  C   UNL     1     -12.059  15.036  69.840  1.00  0.00    -0.376 A  
HETATM    5  C   UNL     1     -12.159  13.714  70.262  1.00  0.00    -0.427 A  
HETATM    6  C   UNL     1     -11.992  12.655  69.348  1.00  0.00    -0.318 A  
HETATM    7  C   UNL     1     -11.743  12.971  68.004  1.00  0.00    -0.397 A  
HETATM    8  H   UNL     1     -11.320  13.857  65.639  1.00  0.00     0.000 HD 
HETATM    9  O   UNL     1     -11.402  14.566  66.266  1.00  0.00    -0.340 OA 
HETATM   10  C   UNL     1     -11.637  14.309  67.586  1.00  0.00    -0.368 A  
BRANCH   6  11
HETATM   11  C   UNL     1     -11.921  11.226  69.863  1.00  0.00    -0.365 C  
HETATM   12  C   UNL     1     -12.750  11.129  71.133  1.00  0.00    -0.510 C  
HETATM   13  O   UNL     1     -13.795   9.167  71.953  1.00  0.00    -0.402 OA 
HETATM   14  C   UNL     1     -12.756   9.689  71.554  1.00  0.00    -0.387 C  
HETATM   15  C   UNL     1     -11.463   8.989  71.453  1.00  0.00    -0.400 A  
HETATM   16  C   UNL     1     -10.439   9.619  70.741  1.00  0.00    -0.305 A  
HETATM   17  C   UNL     1      -9.176   9.017  70.647  1.00  0.00    -0.279 A  
HETATM   18  O   UNL     1     -10.559  10.844  70.120  1.00  0.00    -0.051 OA 
HETATM   19  C   UNL     1      -8.923   7.796  71.282  1.00  0.00    -0.134 A  
HETATM   20  O   UNL     1     -12.188   7.134  72.802  1.00  0.00    -0.488 OA 
HETATM   21  C   UNL     1      -9.955   7.161  71.979  1.00  0.00    -0.178 A  
HETATM   22  H   UNL     1     -12.019   6.299  73.222  1.00  0.00     0.000 HD 
HETATM   23  C   UNL     1     -11.213   7.757  72.073  1.00  0.00    -0.278 A  
BRANCH  19  24
HETATM   24  O   UNL     1      -7.731   7.116  71.268  1.00  0.00    -0.090 OA 
BRANCH  24  25
HETATM   25  C   UNL     1      -7.798   5.695  71.091  1.00  0.00    -0.110 C  
HETATM   26  C   UNL     1      -8.634   3.995  69.651  1.00  0.00    -0.068 C  
HETATM   27  O   UNL     1      -8.702   5.384  70.016  1.00  0.00    -0.118 OA 
HETATM   28  C   UNL     1      -9.091   3.121  70.829  1.00  0.00    -0.116 C  
HETATM   29  H   UNL     1      -8.306   2.969  73.995  1.00  0.00     0.000 HD 
HETATM   30  O   UNL     1      -7.482   5.310  73.503  1.00  0.00    -0.092 OA 
HETATM   31  C   UNL     1      -8.292   3.477  72.091  1.00  0.00    -0.079 C  
HETATM   32  O   UNL     1      -8.929   1.714  70.599  1.00  0.00    -0.060 OA 
HETATM   33  H   UNL     1      -7.793   4.876  74.289  1.00  0.00     0.000 HD 
HETATM   34  H   UNL     1      -9.212   1.174  71.326  1.00  0.00     0.000 HD 
HETATM   35  O   UNL     1      -8.800   2.749  73.214  1.00  0.00    -0.078 OA 
HETATM   36  C   UNL     1      -8.305   4.990  72.370  1.00  0.00    -0.120 C  
BRANCH  26  37
HETATM   37  C   UNL     1      -9.507   3.757  68.414  1.00  0.00    -0.148 C  
BRANCH  37  38
HETATM   38  O   UNL     1      -8.667   3.317  67.347  1.00  0.00    -0.102 OA 
BRANCH  38  39
HETATM   39  C   UNL     1      -8.134   4.409  66.591  1.00  0.00    -0.102 C  
HETATM   40  O   UNL     1      -6.991   4.919  67.278  1.00  0.00    -0.059 OA 
HETATM   41  C   UNL     1      -6.401   6.091  66.713  1.00  0.00    -0.041 C  
HETATM   42  C   UNL     1      -7.431   7.225  66.533  1.00  0.00    -0.088 C  
HETATM   43  C   UNL     1      -5.597   5.751  65.461  1.00  0.00    -0.013 C  
HETATM   44  O   UNL     1      -7.834   7.705  67.827  1.00  0.00    -0.115 OA 
HETATM   45  C   UNL     1      -8.697   6.761  65.807  1.00  0.00    -0.110 C  
HETATM   46  O   UNL     1      -8.489   6.622  64.392  1.00  0.00    -0.338 OA 
HETATM   47  H   UNL     1      -8.468   8.404  67.716  1.00  0.00     0.000 HD 
HETATM   48  C   UNL     1      -9.247   5.466  66.419  1.00  0.00    -0.147 C  
HETATM   49  H   UNL     1      -9.274   6.335  63.941  1.00  0.00     0.000 HD 
HETATM   50  O   UNL     1     -10.309   4.961  65.590  1.00  0.00    -0.380 OA 
HETATM   51  H   UNL     1     -10.993   5.611  65.485  1.00  0.00     0.000 HD 
ENDBRANCH  38  39
ENDBRANCH  37  38
ENDBRANCH  26  37
ENDBRANCH  24  25
ENDBRANCH  19  24
ENDBRANCH   6  11
ENDBRANCH   2   3
TORSDOF 7
ENDMDL
MODEL      106
REMARK 921   NORMALIZED FREE ENERGY PREDICTED BY IDOCK:   -6.10 KCAL/MOL
REMARK 922        TOTAL FREE ENERGY PREDICTED BY IDOCK:   -9.87 KCAL/MOL
REMARK 923 INTER-LIGAND FREE ENERGY PREDICTED BY IDOCK:   -8.41 KCAL/MOL
REMARK 924 INTRA-LIGAND FREE ENERGY PREDICTED BY IDOCK:   -1.46 KCAL/MOL
REMARK 927      BINDING AFFINITY PREDICTED BY RF-SCORE:    0.00 PKD
ROOT
HETATM    1  C   UNL     1      -8.484   3.983  74.359  1.00  0.00    -0.092 C  
HETATM    2  O   UNL     1      -7.555   4.980  73.946  1.00  0.00    -0.089 OA 
ENDROOT
BRANCH   2   3
HETATM    3  C   UNL     1      -7.624   5.334  72.625  1.00  0.00    -0.097 A  
HETATM    4  C   UNL     1      -8.244   6.567  72.383  1.00  0.00    -0.105 A  
HETATM    5  C   UNL     1      -8.418   7.043  71.087  1.00  0.00    -0.119 A  
HETATM    6  C   UNL     1      -7.942   6.308  69.984  1.00  0.00    -0.111 A  
HETATM    7  C   UNL     1      -7.274   5.099  70.228  1.00  0.00    -0.058 A  
HETATM    8  H   UNL     1      -6.091   2.959  70.990  1.00  0.00     0.000 HD 
HETATM    9  O   UNL     1      -6.443   3.444  71.728  1.00  0.00    -0.014 OA 
HETATM   10  C   UNL     1      -7.108   4.621  71.540  1.00  0.00    -0.051 A  
BRANCH   6  11
HETATM   11  C   UNL     1      -8.304   6.754  68.575  1.00  0.00    -0.120 C  
HETATM   12  C   UNL     1      -7.020   6.946  67.785  1.00  0.00    -0.083 C  
HETATM   13  O   UNL     1      -6.806   6.759  65.433  1.00  0.00    -0.049 OA 
HETATM   14  C   UNL     1      -7.410   7.272  66.373  1.00  0.00    -0.080 C  
HETATM   15  C   UNL     1      -8.526   8.222  66.222  1.00  0.00    -0.134 A  
HETATM   16  C   UNL     1      -9.284   8.517  67.358  1.00  0.00    -0.140 A  
HETATM   17  C   UNL     1     -10.333   9.444  67.281  1.00  0.00    -0.325 A  
HETATM   18  O   UNL     1      -9.064   7.974  68.606  1.00  0.00    -0.140 OA 
HETATM   19  C   UNL     1     -10.616  10.097  66.077  1.00  0.00    -0.001 A  
HETATM   20  O   UNL     1      -8.077   8.617  63.892  1.00  0.00    -0.153 OA 
HETATM   21  C   UNL     1      -9.867   9.786  64.938  1.00  0.00    -0.183 A  
HETATM   22  H   UNL     1      -8.278   9.051  63.072  1.00  0.00     0.000 HD 
HETATM   23  C   UNL     1      -8.823   8.863  65.011  1.00  0.00    -0.140 A  
BRANCH  19  24
HETATM   24  O   UNL     1     -11.608  11.025  65.880  1.00  0.00     0.057 OA 
BRANCH  24  25
HETATM   25  C   UNL     1     -11.219  12.277  65.301  1.00  0.00    -0.328 C  
HETATM   26  C   UNL     1     -10.206  14.371  65.799  1.00  0.00    -0.337 C  
HETATM   27  O   UNL     1     -10.815  13.187  66.339  1.00  0.00    -0.283 OA 
HETATM   28  C   UNL     1     -11.228  15.148  64.955  1.00  0.00    -0.409 C  
HETATM   29  H   UNL     1     -13.269  14.345  62.537  1.00  0.00     0.000 HD 
HETATM   30  O   UNL     1     -12.881  12.038  63.498  1.00  0.00    -0.749 OA 
HETATM   31  C   UNL     1     -11.848  14.226  63.897  1.00  0.00    -0.121 C  
HETATM   32  O   UNL     1     -10.667  16.277  64.268  1.00  0.00    -0.875 OA 
HETATM   33  H   UNL     1     -13.596  12.435  63.016  1.00  0.00     0.000 HD 
HETATM   34  H   UNL     1     -11.298  16.758  63.747  1.00  0.00     0.000 HD 
HETATM   35  O   UNL     1     -12.885  14.917  63.192  1.00  0.00     0.264 OA 
HETATM   36  C   UNL     1     -12.383  12.922  64.515  1.00  0.00    -0.417 C  
BRANCH  26  37
HETATM   37  C   UNL     1      -9.670  15.231  66.950  1.00  0.00    -0.233 C  
BRANCH  37  38
HETATM   38  O   UNL     1     -10.779  15.844  67.607  1.00  0.00    -0.301 OA 
BRANCH  38  39
HETATM   39  C   UNL     1     -11.058  15.241  68.876  1.00  0.00    -0.266 C  
HETATM   40  O   UNL     1     -12.217  14.418  68.739  1.00  0.00    -0.275 OA 
HETATM   41  C   UNL     1     -12.702  13.827  69.946  1.00  0.00     0.061 C  
HETATM   42  C   UNL     1     -12.956  14.881  71.042  1.00  0.00    -0.377 C  
HETATM   43  C   UNL     1     -11.822  12.656  70.374  1.00  0.00    -0.238 C  
HETATM   44  O   UNL     1     -14.073  15.700  70.658  1.00  0.00    -0.804 OA 
HETATM   45  C   UNL     1     -11.761  15.814  71.251  1.00  0.00    -0.440 C  
HETATM   46  O   UNL     1     -10.705  15.184  71.995  1.00  0.00    -0.300 OA 
HETATM   47  H   UNL     1     -14.230  16.350  71.334  1.00  0.00     0.000 HD 
HETATM   48  C   UNL     1     -11.246  16.368  69.915  1.00  0.00    -0.248 C  
HETATM   49  H   UNL     1      -9.963  15.762  72.125  1.00  0.00     0.000 HD 
HETATM   50  O   UNL     1     -10.010  17.072  70.135  1.00  0.00     0.495 OA 
HETATM   51  H   UNL     1     -10.127  17.765  70.774  1.00  0.00     0.000 HD 
ENDBRANCH  38  39
ENDBRANCH  37  38
ENDBRANCH  26  37
ENDBRANCH  24  25
ENDBRANCH  19  24
ENDBRANCH   6  11
ENDBRANCH   2   3
TORSDOF 7
ENDMDL
MODEL      107
REMARK 921   NORMALIZED FREE ENERGY PREDICTED BY IDOCK:   -6.06 KCAL/MOL
REMARK 922        TOTAL FREE ENERGY PREDICTED BY IDOCK:   -9.82 KCAL/MOL
REMARK 923 INTER-LIGAND FREE ENERGY PREDICTED BY IDOCK:   -9.09 KCAL/MOL
REMARK 924 INTRA-LIGAND FREE ENERGY PREDICTED BY IDOCK:   -0.73 KCAL/MOL
REMARK 927      BINDING AFFINITY PREDICTED BY RF-SCORE:    0.00 PKD
ROOT
HETATM    1  C   UNL     1     -12.413  16.435  73.987  1.00  0.00    -0.486 C  
HETATM    2  O   UNL     1     -12.997  16.349  72.692  1.00  0.00    -0.245 OA 
ENDROOT
BRANCH   2   3
HETATM    3  C   UNL     1     -12.826  15.151  72.050  1.00  0.00    -0.345 A  
HETATM    4  C   UNL     1     -13.432  14.058  72.683  1.00  0.00    -0.650 A  
HETATM    5  C   UNL     1     -13.315  12.771  72.166  1.00  0.00    -0.593 A  
HETATM    6  C   UNL     1     -12.608  12.541  70.970  1.00  0.00    -0.350 A  
HETATM    7  C   UNL     1     -12.046  13.642  70.308  1.00  0.00    -0.427 A  
HETATM    8  H   UNL     1     -11.155  15.835  69.330  1.00  0.00     0.000 HD 
HETATM    9  O   UNL     1     -11.606  15.980  70.154  1.00  0.00    -0.333 OA 
HETATM   10  C   UNL     1     -12.162  14.939  70.839  1.00  0.00    -0.326 A  
BRANCH   6  11
HETATM   11  C   UNL     1     -12.336  11.113  70.524  1.00  0.00    -0.364 C  
HETATM   12  C   UNL     1     -12.674  10.177  71.673  1.00  0.00    -0.549 C  
HETATM   13  O   UNL     1     -13.333   7.911  71.459  1.00  0.00    -0.334 OA 
HETATM   14  C   UNL     1     -12.506   8.773  71.170  1.00  0.00    -0.193 C  
HETATM   15  C   UNL     1     -11.314   8.531  70.338  1.00  0.00    -0.193 A  
HETATM   16  C   UNL     1     -10.611   9.646  69.873  1.00  0.00    -0.249 A  
HETATM   17  C   UNL     1      -9.447   9.474  69.111  1.00  0.00    -0.163 A  
HETATM   18  O   UNL     1     -10.962  10.954  70.133  1.00  0.00    -0.230 OA 
HETATM   19  C   UNL     1      -8.966   8.191  68.829  1.00  0.00    -0.144 A  
HETATM   20  O   UNL     1     -11.492   6.139  70.507  1.00  0.00    -0.342 OA 
HETATM   21  C   UNL     1      -9.682   7.078  69.280  1.00  0.00    -0.158 A  
HETATM   22  H   UNL     1     -11.172   5.267  70.303  1.00  0.00     0.000 HD 
HETATM   23  C   UNL     1     -10.842   7.246  70.038  1.00  0.00    -0.253 A  
BRANCH  19  24
HETATM   24  O   UNL     1      -7.839   7.898  68.102  1.00  0.00    -0.121 OA 
BRANCH  24  25
HETATM   25  C   UNL     1      -6.959   6.906  68.646  1.00  0.00    -0.076 C  
HETATM   26  C   UNL     1      -6.704   4.564  68.978  1.00  0.00    -0.046 C  
HETATM   27  O   UNL     1      -7.616   5.627  68.654  1.00  0.00    -0.085 OA 
HETATM   28  C   UNL     1      -6.167   4.751  70.405  1.00  0.00    -0.022 C  
HETATM   29  H   UNL     1      -4.812   7.242  72.023  1.00  0.00     0.000 HD 
HETATM   30  O   UNL     1      -5.940   8.548  70.173  1.00  0.00    -0.030 OA 
HETATM   31  C   UNL     1      -5.571   6.156  70.564  1.00  0.00    -0.018 C  
HETATM   32  O   UNL     1      -5.147   3.807  70.764  1.00  0.00     0.000 OA 
HETATM   33  H   UNL     1      -5.687   8.759  71.065  1.00  0.00     0.000 HD 
HETATM   34  H   UNL     1      -4.815   3.922  71.647  1.00  0.00     0.000 HD 
HETATM   35  O   UNL     1      -5.181   6.372  71.925  1.00  0.00    -0.025 OA 
HETATM   36  C   UNL     1      -6.548   7.249  70.096  1.00  0.00    -0.043 C  
BRANCH  26  37
HETATM   37  C   UNL     1      -7.426   3.219  68.830  1.00  0.00    -0.049 C  
BRANCH  37  38
HETATM   38  O   UNL     1      -6.900   2.549  67.685  1.00  0.00    -0.039 OA 
BRANCH  38  39
HETATM   39  C   UNL     1      -7.591   2.904  66.483  1.00  0.00    -0.076 C  
HETATM   40  O   UNL     1      -6.971   4.066  65.932  1.00  0.00    -0.062 OA 
HETATM   41  C   UNL     1      -7.611   4.623  64.783  1.00  0.00    -0.076 C  
HETATM   42  C   UNL     1      -9.102   4.920  65.041  1.00  0.00    -0.131 C  
HETATM   43  C   UNL     1      -7.332   3.785  63.538  1.00  0.00    -0.051 C  
HETATM   44  O   UNL     1      -9.210   6.003  65.980  1.00  0.00    -0.190 OA 
HETATM   45  C   UNL     1      -9.846   3.724  65.642  1.00  0.00    -0.100 C  
HETATM   46  O   UNL     1     -10.139   2.719  64.657  1.00  0.00    -0.355 OA 
HETATM   47  H   UNL     1     -10.129   6.187  66.140  1.00  0.00     0.000 HD 
HETATM   48  C   UNL     1      -9.079   3.131  66.831  1.00  0.00    -0.171 C  
HETATM   49  H   UNL     1     -10.600   1.977  65.029  1.00  0.00     0.000 HD 
HETATM   50  O   UNL     1      -9.704   1.899  67.235  1.00  0.00    -0.394 OA 
HETATM   51  H   UNL     1     -10.618   2.039  67.449  1.00  0.00     0.000 HD 
ENDBRANCH  38  39
ENDBRANCH  37  38
ENDBRANCH  26  37
ENDBRANCH  24  25
ENDBRANCH  19  24
ENDBRANCH   6  11
ENDBRANCH   2   3
TORSDOF 7
ENDMDL
MODEL      108
REMARK 921   NORMALIZED FREE ENERGY PREDICTED BY IDOCK:   -5.99 KCAL/MOL
REMARK 922        TOTAL FREE ENERGY PREDICTED BY IDOCK:   -9.72 KCAL/MOL
REMARK 923 INTER-LIGAND FREE ENERGY PREDICTED BY IDOCK:   -8.01 KCAL/MOL
REMARK 924 INTRA-LIGAND FREE ENERGY PREDICTED BY IDOCK:   -1.71 KCAL/MOL
REMARK 927      BINDING AFFINITY PREDICTED BY RF-SCORE:    0.00 PKD
ROOT
HETATM    1  C   UNL     1     -11.952  13.445  63.823  1.00  0.00    -0.461 C  
HETATM    2  O   UNL     1     -11.290  13.148  65.048  1.00  0.00    -0.291 OA 
ENDROOT
BRANCH   2   3
HETATM    3  C   UNL     1     -10.618  11.955  65.077  1.00  0.00    -0.289 A  
HETATM    4  C   UNL     1     -10.780  11.223  66.260  1.00  0.00    -0.312 A  
HETATM    5  C   UNL     1     -10.131  10.006  66.449  1.00  0.00    -0.307 A  
HETATM    6  C   UNL     1      -9.316   9.464  65.435  1.00  0.00    -0.311 A  
HETATM    7  C   UNL     1      -9.196  10.172  64.230  1.00  0.00    -0.312 A  
HETATM    8  H   UNL     1      -9.188  11.674  62.156  1.00  0.00     0.000 HD 
HETATM    9  O   UNL     1      -9.710  12.050  62.855  1.00  0.00    -0.334 OA 
HETATM   10  C   UNL     1      -9.850  11.403  64.049  1.00  0.00    -0.278 A  
BRANCH   6  11
HETATM   11  C   UNL     1      -8.473   8.234  65.730  1.00  0.00    -0.151 C  
HETATM   12  C   UNL     1      -7.976   7.662  64.413  1.00  0.00    -0.123 C  
HETATM   13  O   UNL     1      -6.004   6.382  64.120  1.00  0.00    -0.022 OA 
HETATM   14  C   UNL     1      -7.057   6.522  64.739  1.00  0.00    -0.053 C  
HETATM   15  C   UNL     1      -7.510   5.624  65.816  1.00  0.00    -0.078 A  
HETATM   16  C   UNL     1      -8.583   6.048  66.604  1.00  0.00    -0.113 A  
HETATM   17  C   UNL     1      -9.082   5.217  67.618  1.00  0.00    -0.113 A  
HETATM   18  O   UNL     1      -9.239   7.251  66.448  1.00  0.00    -0.165 OA 
HETATM   19  C   UNL     1      -8.528   3.951  67.833  1.00  0.00    -0.094 A  
HETATM   20  O   UNL     1      -5.914   3.910  65.269  1.00  0.00    -0.022 OA 
HETATM   21  C   UNL     1      -7.443   3.538  67.055  1.00  0.00    -0.075 A  
HETATM   22  H   UNL     1      -5.530   3.055  65.425  1.00  0.00     0.000 HD 
HETATM   23  C   UNL     1      -6.944   4.363  66.046  1.00  0.00    -0.066 A  
BRANCH  19  24
HETATM   24  O   UNL     1      -8.933   3.049  68.786  1.00  0.00    -0.106 OA 
BRANCH  24  25
HETATM   25  C   UNL     1      -9.185   3.565  70.099  1.00  0.00    -0.154 C  
HETATM   26  C   UNL     1      -8.433   5.164  71.692  1.00  0.00    -0.125 C  
HETATM   27  O   UNL     1      -8.119   4.450  70.485  1.00  0.00    -0.065 OA 
HETATM   28  C   UNL     1      -8.581   4.177  72.861  1.00  0.00    -0.100 C  
HETATM   29  H   UNL     1     -10.269   1.419  73.316  1.00  0.00     0.000 HD 
HETATM   30  O   UNL     1     -10.280   1.468  70.787  1.00  0.00     0.095 OA 
HETATM   31  C   UNL     1      -9.594   3.082  72.500  1.00  0.00    -0.124 C  
HETATM   32  O   UNL     1      -9.026   4.792  74.079  1.00  0.00    -0.113 OA 
HETATM   33  H   UNL     1     -10.335   0.770  71.429  1.00  0.00     0.000 HD 
HETATM   34  H   UNL     1      -9.118   4.182  74.802  1.00  0.00     0.000 HD 
HETATM   35  O   UNL     1      -9.642   2.098  73.539  1.00  0.00    -0.078 OA 
HETATM   36  C   UNL     1      -9.274   2.429  71.144  1.00  0.00    -0.120 C  
BRANCH  26  37
HETATM   37  C   UNL     1      -7.329   6.190  71.972  1.00  0.00    -0.093 C  
BRANCH  37  38
HETATM   38  O   UNL     1      -7.922   7.488  72.023  1.00  0.00    -0.090 OA 
BRANCH  38  39
HETATM   39  C   UNL     1      -9.322   7.456  71.723  1.00  0.00    -0.145 C  
HETATM   40  O   UNL     1      -9.516   7.999  70.417  1.00  0.00    -0.165 OA 
HETATM   41  C   UNL     1     -10.876   8.145  70.004  1.00  0.00    -0.233 C  
HETATM   42  C   UNL     1     -11.702   8.961  71.019  1.00  0.00    -0.289 C  
HETATM   43  C   UNL     1     -11.481   6.797  69.621  1.00  0.00    -0.286 C  
HETATM   44  O   UNL     1     -11.252  10.326  71.004  1.00  0.00    -0.315 OA 
HETATM   45  C   UNL     1     -11.546   8.448  72.453  1.00  0.00    -0.380 C  
HETATM   46  O   UNL     1     -12.304   7.249  72.685  1.00  0.00    -0.501 OA 
HETATM   47  H   UNL     1     -11.761  10.829  71.629  1.00  0.00     0.000 HD 
HETATM   48  C   UNL     1     -10.068   8.252  72.817  1.00  0.00    -0.263 C  
HETATM   49  H   UNL     1     -12.207   6.931  73.574  1.00  0.00     0.000 HD 
HETATM   50  O   UNL     1      -9.975   7.585  74.088  1.00  0.00    -0.393 OA 
HETATM   51  H   UNL     1     -10.433   8.075  74.761  1.00  0.00     0.000 HD 
ENDBRANCH  38  39
ENDBRANCH  37  38
ENDBRANCH  26  37
ENDBRANCH  24  25
ENDBRANCH  19  24
ENDBRANCH   6  11
ENDBRANCH   2   3
TORSDOF 7
ENDMDL
MODEL      109
REMARK 921   NORMALIZED FREE ENERGY PREDICTED BY IDOCK:   -5.95 KCAL/MOL
REMARK 922        TOTAL FREE ENERGY PREDICTED BY IDOCK:   -9.66 KCAL/MOL
REMARK 923 INTER-LIGAND FREE ENERGY PREDICTED BY IDOCK:   -7.25 KCAL/MOL
REMARK 924 INTRA-LIGAND FREE ENERGY PREDICTED BY IDOCK:   -2.41 KCAL/MOL
REMARK 927      BINDING AFFINITY PREDICTED BY RF-SCORE:    0.00 PKD
ROOT
HETATM    1  C   UNL     1     -11.847  15.175  69.137  1.00  0.00    -0.313 C  
HETATM    2  O   UNL     1     -11.994  14.795  67.772  1.00  0.00    -0.334 OA 
ENDROOT
BRANCH   2   3
HETATM    3  C   UNL     1     -11.450  13.583  67.440  1.00  0.00    -0.336 A  
HETATM    4  C   UNL     1     -10.540  13.075  68.376  1.00  0.00    -0.264 A  
HETATM    5  C   UNL     1      -9.881  11.868  68.158  1.00  0.00    -0.192 A  
HETATM    6  C   UNL     1     -10.141  11.110  67.000  1.00  0.00    -0.235 A  
HETATM    7  C   UNL     1     -11.091  11.592  66.088  1.00  0.00    -0.302 A  
HETATM    8  H   UNL     1     -12.874  12.715  64.632  1.00  0.00     0.000 HD 
HETATM    9  O   UNL     1     -12.671  13.238  65.399  1.00  0.00    -0.506 OA 
HETATM   10  C   UNL     1     -11.748  12.815  66.311  1.00  0.00    -0.402 A  
BRANCH   6  11
HETATM   11  C   UNL     1      -9.279   9.894  66.693  1.00  0.00    -0.153 C  
HETATM   12  C   UNL     1      -8.591  10.117  65.357  1.00  0.00    -0.165 C  
HETATM   13  O   UNL     1      -6.534   9.150  64.686  1.00  0.00    -0.073 OA 
HETATM   14  C   UNL     1      -7.663   8.959  65.135  1.00  0.00    -0.102 C  
HETATM   15  C   UNL     1      -8.202   7.632  65.483  1.00  0.00    -0.135 A  
HETATM   16  C   UNL     1      -9.386   7.588  66.223  1.00  0.00    -0.120 A  
HETATM   17  C   UNL     1      -9.966   6.354  66.549  1.00  0.00    -0.162 A  
HETATM   18  O   UNL     1     -10.078   8.700  66.656  1.00  0.00    -0.263 OA 
HETATM   19  C   UNL     1      -9.379   5.159  66.118  1.00  0.00    -0.155 A  
HETATM   20  O   UNL     1      -6.463   6.449  64.317  1.00  0.00    -0.032 OA 
HETATM   21  C   UNL     1      -8.184   5.206  65.393  1.00  0.00    -0.124 A  
HETATM   22  H   UNL     1      -6.058   5.636  64.036  1.00  0.00     0.000 HD 
HETATM   23  C   UNL     1      -7.605   6.433  65.069  1.00  0.00    -0.091 A  
BRANCH  19  24
HETATM   24  O   UNL     1      -9.854   3.895  66.367  1.00  0.00    -0.195 OA 
BRANCH  24  25
HETATM   25  C   UNL     1      -9.519   3.317  67.635  1.00  0.00    -0.165 C  
HETATM   26  C   UNL     1      -9.636   3.680  69.983  1.00  0.00    -0.173 C  
HETATM   27  O   UNL     1      -9.741   4.279  68.681  1.00  0.00    -0.156 OA 
HETATM   28  C   UNL     1      -8.207   3.162  70.208  1.00  0.00    -0.044 C  
HETATM   29  H   UNL     1      -6.172   1.271  68.493  1.00  0.00     0.000 HD 
HETATM   30  O   UNL     1      -7.727   1.964  66.622  1.00  0.00    -0.064 OA 
HETATM   31  C   UNL     1      -7.797   2.232  69.058  1.00  0.00    -0.045 C  
HETATM   32  O   UNL     1      -8.047   2.430  71.432  1.00  0.00    -0.052 OA 
HETATM   33  H   UNL     1      -6.816   1.696  66.652  1.00  0.00     0.000 HD 
HETATM   34  H   UNL     1      -7.164   2.109  71.572  1.00  0.00     0.000 HD 
HETATM   35  O   UNL     1      -6.426   1.846  69.205  1.00  0.00    -0.028 OA 
HETATM   36  C   UNL     1      -8.037   2.881  67.683  1.00  0.00    -0.075 C  
BRANCH  26  37
HETATM   37  C   UNL     1     -10.022   4.717  71.046  1.00  0.00    -0.200 C  
BRANCH  37  38
HETATM   38  O   UNL     1      -8.831   5.160  71.696  1.00  0.00    -0.131 OA 
BRANCH  38  39
HETATM   39  C   UNL     1      -8.640   6.573  71.572  1.00  0.00    -0.129 C  
HETATM   40  O   UNL     1      -9.346   7.025  70.416  1.00  0.00    -0.159 OA 
HETATM   41  C   UNL     1      -9.167   8.402  70.081  1.00  0.00    -0.159 C  
HETATM   42  C   UNL     1      -7.677   8.772  69.940  1.00  0.00    -0.081 C  
HETATM   43  C   UNL     1      -9.966   9.303  71.019  1.00  0.00    -0.364 C  
HETATM   44  O   UNL     1      -7.138   8.124  68.776  1.00  0.00    -0.068 OA 
HETATM   45  C   UNL     1      -6.842   8.317  71.139  1.00  0.00    -0.052 C  
HETATM   46  O   UNL     1      -7.024   9.170  72.282  1.00  0.00    -0.317 OA 
HETATM   47  H   UNL     1      -6.220   8.353  68.689  1.00  0.00     0.000 HD 
HETATM   48  C   UNL     1      -7.123   6.850  71.490  1.00  0.00    -0.075 C  
HETATM   49  H   UNL     1      -6.506   8.889  73.026  1.00  0.00     0.000 HD 
HETATM   50  O   UNL     1      -6.476   6.524  72.733  1.00  0.00    -0.061 OA 
HETATM   51  H   UNL     1      -5.542   6.694  72.682  1.00  0.00     0.000 HD 
ENDBRANCH  38  39
ENDBRANCH  37  38
ENDBRANCH  26  37
ENDBRANCH  24  25
ENDBRANCH  19  24
ENDBRANCH   6  11
ENDBRANCH   2   3
TORSDOF 7
ENDMDL
MODEL      110
REMARK 921   NORMALIZED FREE ENERGY PREDICTED BY IDOCK:   -5.93 KCAL/MOL
REMARK 922        TOTAL FREE ENERGY PREDICTED BY IDOCK:   -9.64 KCAL/MOL
REMARK 923 INTER-LIGAND FREE ENERGY PREDICTED BY IDOCK:   -7.67 KCAL/MOL
REMARK 924 INTRA-LIGAND FREE ENERGY PREDICTED BY IDOCK:   -1.97 KCAL/MOL
REMARK 927      BINDING AFFINITY PREDICTED BY RF-SCORE:    0.00 PKD
ROOT
HETATM    1  C   UNL     1     -10.373   1.493  74.503  1.00  0.00    -0.110 C  
HETATM    2  O   UNL     1     -10.332   1.749  73.103  1.00  0.00    -0.097 OA 
ENDROOT
BRANCH   2   3
HETATM    3  C   UNL     1     -10.351   3.072  72.749  1.00  0.00    -0.148 A  
HETATM    4  C   UNL     1     -10.825   3.936  73.744  1.00  0.00    -0.326 A  
HETATM    5  C   UNL     1     -10.934   5.305  73.517  1.00  0.00    -0.353 A  
HETATM    6  C   UNL     1     -10.536   5.861  72.285  1.00  0.00    -0.246 A  
HETATM    7  C   UNL     1     -10.011   5.003  71.307  1.00  0.00    -0.264 A  
HETATM    8  H   UNL     1      -9.084   3.200  69.742  1.00  0.00     0.000 HD 
HETATM    9  O   UNL     1      -9.384   2.827  70.563  1.00  0.00    -0.127 OA 
HETATM   10  C   UNL     1      -9.910   3.620  71.542  1.00  0.00    -0.157 A  
BRANCH   6  11
HETATM   11  C   UNL     1     -10.835   7.323  71.992  1.00  0.00    -0.233 C  
HETATM   12  C   UNL     1     -12.331   7.474  71.773  1.00  0.00    -0.357 C  
HETATM   13  O   UNL     1     -13.588   9.448  72.145  1.00  0.00    -0.425 OA 
HETATM   14  C   UNL     1     -12.611   8.938  71.600  1.00  0.00    -0.346 C  
HETATM   15  C   UNL     1     -11.655   9.676  70.755  1.00  0.00    -0.395 A  
HETATM   16  C   UNL     1     -10.458   9.038  70.420  1.00  0.00    -0.213 A  
HETATM   17  C   UNL     1      -9.530   9.676  69.586  1.00  0.00    -0.226 A  
HETATM   18  O   UNL     1     -10.108   7.770  70.835  1.00  0.00    -0.187 OA 
HETATM   19  C   UNL     1      -9.802  10.945  69.063  1.00  0.00    -0.180 A  
HETATM   20  O   UNL     1     -13.094  11.590  70.530  1.00  0.00     0.025 OA 
HETATM   21  C   UNL     1     -10.993  11.588  69.414  1.00  0.00    -0.233 A  
HETATM   22  H   UNL     1     -13.273  12.457  70.185  1.00  0.00     0.000 HD 
HETATM   23  C   UNL     1     -11.918  10.956  70.245  1.00  0.00    -0.361 A  
BRANCH  19  24
HETATM   24  O   UNL     1      -8.979  11.665  68.234  1.00  0.00    -0.174 OA 
BRANCH  24  25
HETATM   25  C   UNL     1      -8.606  11.046  66.996  1.00  0.00    -0.140 C  
HETATM   26  C   UNL     1      -8.895   9.080  65.689  1.00  0.00    -0.185 C  
HETATM   27  O   UNL     1      -9.044   9.676  66.988  1.00  0.00    -0.133 OA 
HETATM   28  C   UNL     1      -7.409   9.031  65.301  1.00  0.00    -0.092 C  
HETATM   29  H   UNL     1      -4.993  11.227  65.253  1.00  0.00     0.000 HD 
HETATM   30  O   UNL     1      -6.557  12.406  66.853  1.00  0.00    -0.348 OA 
HETATM   31  C   UNL     1      -6.787  10.429  65.422  1.00  0.00    -0.120 C  
HETATM   32  O   UNL     1      -7.179   8.571  63.961  1.00  0.00    -0.088 OA 
HETATM   33  H   UNL     1      -5.615  12.419  66.728  1.00  0.00     0.000 HD 
HETATM   34  H   UNL     1      -6.261   8.541  63.721  1.00  0.00     0.000 HD 
HETATM   35  O   UNL     1      -5.378  10.361  65.178  1.00  0.00    -0.090 OA 
HETATM   36  C   UNL     1      -7.074  11.067  66.793  1.00  0.00    -0.135 C  
BRANCH  26  37
HETATM   37  C   UNL     1      -9.508   7.674  65.708  1.00  0.00     0.259 C  
BRANCH  37  38
HETATM   38  O   UNL     1      -9.759   7.311  67.065  1.00  0.00    -0.158 OA 
BRANCH  38  39
HETATM   39  C   UNL     1      -9.171   6.051  67.407  1.00  0.00    -0.109 C  
HETATM   40  O   UNL     1      -7.751   6.197  67.392  1.00  0.00    -0.092 OA 
HETATM   41  C   UNL     1      -7.003   4.998  67.603  1.00  0.00    -0.061 C  
HETATM   42  C   UNL     1      -7.407   3.885  66.615  1.00  0.00    -0.072 C  
HETATM   43  C   UNL     1      -7.025   4.590  69.073  1.00  0.00    -0.051 C  
HETATM   44  O   UNL     1      -6.986   4.254  65.291  1.00  0.00    -0.056 OA 
HETATM   45  C   UNL     1      -8.922   3.666  66.564  1.00  0.00    -0.147 C  
HETATM   46  O   UNL     1      -9.402   2.934  67.704  1.00  0.00    -0.194 OA 
HETATM   47  H   UNL     1      -7.235   3.568  64.683  1.00  0.00     0.000 HD 
HETATM   48  C   UNL     1      -9.672   4.994  66.399  1.00  0.00    -0.182 C  
HETATM   49  H   UNL     1     -10.341   2.797  67.673  1.00  0.00     0.000 HD 
HETATM   50  O   UNL     1     -11.085   4.766  66.557  1.00  0.00    -0.344 OA 
HETATM   51  H   UNL     1     -11.393   4.117  65.936  1.00  0.00     0.000 HD 
ENDBRANCH  38  39
ENDBRANCH  37  38
ENDBRANCH  26  37
ENDBRANCH  24  25
ENDBRANCH  19  24
ENDBRANCH   6  11
ENDBRANCH   2   3
TORSDOF 7
ENDMDL
MODEL      111
REMARK 921   NORMALIZED FREE ENERGY PREDICTED BY IDOCK:   -5.92 KCAL/MOL
REMARK 922        TOTAL FREE ENERGY PREDICTED BY IDOCK:   -9.62 KCAL/MOL
REMARK 923 INTER-LIGAND FREE ENERGY PREDICTED BY IDOCK:   -9.02 KCAL/MOL
REMARK 924 INTRA-LIGAND FREE ENERGY PREDICTED BY IDOCK:   -0.60 KCAL/MOL
REMARK 927      BINDING AFFINITY PREDICTED BY RF-SCORE:    0.00 PKD
ROOT
HETATM    1  C   UNL     1      -5.877   1.956  68.607  1.00  0.00    -0.023 C  
HETATM    2  O   UNL     1      -6.838   1.722  67.583  1.00  0.00    -0.034 OA 
ENDROOT
BRANCH   2   3
HETATM    3  C   UNL     1      -7.419   2.845  67.056  1.00  0.00    -0.070 A  
HETATM    4  C   UNL     1      -6.602   3.564  66.174  1.00  0.00    -0.037 A  
HETATM    5  C   UNL     1      -7.044   4.747  65.587  1.00  0.00    -0.064 A  
HETATM    6  C   UNL     1      -8.342   5.232  65.841  1.00  0.00    -0.120 A  
HETATM    7  C   UNL     1      -9.178   4.483  66.683  1.00  0.00    -0.138 A  
HETATM    8  H   UNL     1     -10.464   2.901  68.232  1.00  0.00     0.000 HD 
HETATM    9  O   UNL     1      -9.577   2.596  68.082  1.00  0.00    -0.199 OA 
HETATM   10  C   UNL     1      -8.723   3.294  67.278  1.00  0.00    -0.120 A  
BRANCH   6  11
HETATM   11  C   UNL     1      -8.736   6.612  65.340  1.00  0.00     0.007 C  
HETATM   12  C   UNL     1      -7.724   7.053  64.296  1.00  0.00    -0.117 C  
HETATM   13  O   UNL     1      -8.139   8.577  62.529  1.00  0.00    -0.156 OA 
HETATM   14  C   UNL     1      -8.200   8.363  63.738  1.00  0.00    -0.105 C  
HETATM   15  C   UNL     1      -8.719   9.326  64.725  1.00  0.00    -0.220 A  
HETATM   16  C   UNL     1      -8.975   8.857  66.016  1.00  0.00    -0.193 A  
HETATM   17  C   UNL     1      -9.432   9.738  67.006  1.00  0.00    -0.195 A  
HETATM   18  O   UNL     1      -8.782   7.554  66.426  1.00  0.00    -0.131 OA 
HETATM   19  C   UNL     1      -9.614  11.095  66.718  1.00  0.00    -0.191 A  
HETATM   20  O   UNL     1      -8.648  11.174  63.187  1.00  0.00    -0.405 OA 
HETATM   21  C   UNL     1      -9.375  11.557  65.421  1.00  0.00    -0.177 A  
HETATM   22  H   UNL     1      -8.784  12.093  62.989  1.00  0.00     0.000 HD 
HETATM   23  C   UNL     1      -8.920  10.682  64.433  1.00  0.00    -0.195 A  
BRANCH  19  24
HETATM   24  O   UNL     1     -10.048  12.052  67.602  1.00  0.00    -0.192 OA 
BRANCH  24  25
HETATM   25  C   UNL     1      -9.048  12.900  68.180  1.00  0.00    -0.207 C  
HETATM   26  C   UNL     1      -7.778  14.876  67.803  1.00  0.00    -0.161 C  
HETATM   27  O   UNL     1      -8.611  13.866  67.208  1.00  0.00    -0.193 OA 
HETATM   28  C   UNL     1      -6.490  14.240  68.347  1.00  0.00    -0.106 C  
HETATM   29  H   UNL     1      -5.849  11.692  70.285  1.00  0.00     0.000 HD 
HETATM   30  O   UNL     1      -8.192  11.057  69.572  1.00  0.00    -0.380 OA 
HETATM   31  C   UNL     1      -6.834  13.079  69.290  1.00  0.00    -0.019 C  
HETATM   32  O   UNL     1      -5.660  15.156  69.076  1.00  0.00    -0.096 OA 
HETATM   33  H   UNL     1      -7.436  10.557  69.857  1.00  0.00     0.000 HD 
HETATM   34  H   UNL     1      -4.863  14.763  69.412  1.00  0.00     0.000 HD 
HETATM   35  O   UNL     1      -5.637  12.411  69.701  1.00  0.00    -0.077 OA 
HETATM   36  C   UNL     1      -7.818  12.087  68.644  1.00  0.00    -0.091 C  
BRANCH  26  37
HETATM   37  C   UNL     1      -7.464  15.950  66.754  1.00  0.00    -0.149 C  
BRANCH  37  38
HETATM   38  O   UNL     1      -8.698  16.462  66.250  1.00  0.00    -0.285 OA 
BRANCH  38  39
HETATM   39  C   UNL     1      -8.783  17.886  66.371  1.00  0.00    -0.224 C  
HETATM   40  O   UNL     1      -8.131  18.276  67.580  1.00  0.00    -0.240 OA 
HETATM   41  C   UNL     1      -8.223  19.663  67.913  1.00  0.00    -0.309 C  
HETATM   42  C   UNL     1      -9.685  20.153  67.945  1.00  0.00    -0.366 C  
HETATM   43  C   UNL     1      -7.286  20.498  67.044  1.00  0.00    -0.372 C  
HETATM   44  O   UNL     1     -10.360  19.548  69.061  1.00  0.00    -0.587 OA 
HETATM   45  C   UNL     1     -10.462  19.770  66.683  1.00  0.00    -0.497 C  
HETATM   46  O   UNL     1     -10.126  20.607  65.565  1.00  0.00    -0.445 OA 
HETATM   47  H   UNL     1     -11.260  19.850  69.081  1.00  0.00     0.000 HD 
HETATM   48  C   UNL     1     -10.275  18.285  66.343  1.00  0.00    -0.403 C  
HETATM   49  H   UNL     1     -10.608  20.370  64.782  1.00  0.00     0.000 HD 
HETATM   50  O   UNL     1     -10.852  18.016  65.052  1.00  0.00    -0.738 OA 
HETATM   51  H   UNL     1     -11.769  18.260  65.035  1.00  0.00     0.000 HD 
ENDBRANCH  38  39
ENDBRANCH  37  38
ENDBRANCH  26  37
ENDBRANCH  24  25
ENDBRANCH  19  24
ENDBRANCH   6  11
ENDBRANCH   2   3
TORSDOF 7
ENDMDL
MODEL      112
REMARK 921   NORMALIZED FREE ENERGY PREDICTED BY IDOCK:   -5.89 KCAL/MOL
REMARK 922        TOTAL FREE ENERGY PREDICTED BY IDOCK:   -9.57 KCAL/MOL
REMARK 923 INTER-LIGAND FREE ENERGY PREDICTED BY IDOCK:   -8.44 KCAL/MOL
REMARK 924 INTRA-LIGAND FREE ENERGY PREDICTED BY IDOCK:   -1.13 KCAL/MOL
REMARK 927      BINDING AFFINITY PREDICTED BY RF-SCORE:    0.00 PKD
ROOT
HETATM    1  C   UNL     1      -7.772   9.647  62.550  1.00  0.00    -0.116 C  
HETATM    2  O   UNL     1      -8.991  10.371  62.421  1.00  0.00    -0.211 OA 
ENDROOT
BRANCH   2   3
HETATM    3  C   UNL     1      -9.588  10.729  63.601  1.00  0.00    -0.305 A  
HETATM    4  C   UNL     1      -9.347   9.852  64.666  1.00  0.00    -0.338 A  
HETATM    5  C   UNL     1      -9.915  10.066  65.919  1.00  0.00    -0.339 A  
HETATM    6  C   UNL     1     -10.724  11.195  66.154  1.00  0.00    -0.285 A  
HETATM    7  C   UNL     1     -10.922  12.102  65.102  1.00  0.00    -0.355 A  
HETATM    8  H   UNL     1     -11.083  13.571  63.011  1.00  0.00     0.000 HD 
HETATM    9  O   UNL     1     -10.565  12.791  62.849  1.00  0.00     0.346 OA 
HETATM   10  C   UNL     1     -10.350  11.875  63.838  1.00  0.00    -0.389 A  
BRANCH   6  11
HETATM   11  C   UNL     1     -11.481  11.312  67.468  1.00  0.00    -0.246 C  
HETATM   12  C   UNL     1     -11.050  12.594  68.160  1.00  0.00    -0.285 C  
HETATM   13  O   UNL     1     -12.356  13.840  69.696  1.00  0.00    -0.316 OA 
HETATM   14  C   UNL     1     -11.893  12.742  69.392  1.00  0.00    -0.300 C  
HETATM   15  C   UNL     1     -12.105  11.509  70.173  1.00  0.00    -0.432 A  
HETATM   16  C   UNL     1     -11.749  10.296  69.577  1.00  0.00    -0.122 A  
HETATM   17  C   UNL     1     -11.891   9.096  70.287  1.00  0.00     0.032 A  
HETATM   18  O   UNL     1     -11.222  10.175  68.308  1.00  0.00    -0.255 OA 
HETATM   19  C   UNL     1     -12.368   9.103  71.603  1.00  0.00    -0.360 A  
HETATM   20  O   UNL     1     -12.926  12.687  72.102  1.00  0.00    -0.328 OA 
HETATM   21  C   UNL     1     -12.740  10.317  72.189  1.00  0.00    -0.277 A  
HETATM   22  H   UNL     1     -13.262  12.690  72.991  1.00  0.00     0.000 HD 
HETATM   23  C   UNL     1     -12.600  11.512  71.484  1.00  0.00    -0.258 A  
BRANCH  19  24
HETATM   24  O   UNL     1     -12.543   7.999  72.399  1.00  0.00    -0.272 OA 
BRANCH  24  25
HETATM   25  C   UNL     1     -11.403   7.153  72.592  1.00  0.00    -0.268 C  
HETATM   26  C   UNL     1      -9.096   6.917  72.058  1.00  0.00    -0.136 C  
HETATM   27  O   UNL     1     -10.327   7.587  71.741  1.00  0.00    -0.191 OA 
HETATM   28  C   UNL     1      -9.237   5.410  71.794  1.00  0.00    -0.142 C  
HETATM   29  H   UNL     1     -11.417   3.138  72.655  1.00  0.00     0.000 HD 
HETATM   30  O   UNL     1     -12.839   5.198  73.022  1.00  0.00    -0.298 OA 
HETATM   31  C   UNL     1     -10.460   4.856  72.537  1.00  0.00    -0.205 C  
HETATM   32  O   UNL     1      -8.096   4.644  72.209  1.00  0.00    -0.098 OA 
HETATM   33  H   UNL     1     -13.038   4.293  72.812  1.00  0.00     0.000 HD 
HETATM   34  H   UNL     1      -8.182   3.713  72.046  1.00  0.00     0.000 HD 
HETATM   35  O   UNL     1     -10.660   3.481  72.195  1.00  0.00    -0.006 OA 
HETATM   36  C   UNL     1     -11.727   5.680  72.250  1.00  0.00    -0.138 C  
BRANCH  26  37
HETATM   37  C   UNL     1      -7.964   7.522  71.220  1.00  0.00    -0.095 C  
BRANCH  37  38
HETATM   38  O   UNL     1      -8.541   8.373  70.230  1.00  0.00    -0.121 OA 
BRANCH  38  39
HETATM   39  C   UNL     1      -8.714   7.705  68.975  1.00  0.00    -0.136 C  
HETATM   40  O   UNL     1      -9.799   6.785  69.099  1.00  0.00    -0.155 OA 
HETATM   41  C   UNL     1     -10.034   5.950  67.964  1.00  0.00    -0.137 C  
HETATM   42  C   UNL     1      -8.766   5.183  67.539  1.00  0.00    -0.103 C  
HETATM   43  C   UNL     1     -10.717   6.729  66.843  1.00  0.00    -0.394 C  
HETATM   44  O   UNL     1      -8.445   4.209  68.547  1.00  0.00    -0.089 OA 
HETATM   45  C   UNL     1      -7.547   6.097  67.389  1.00  0.00    -0.090 C  
HETATM   46  O   UNL     1      -7.588   6.857  66.170  1.00  0.00    -0.088 OA 
HETATM   47  H   UNL     1      -7.663   3.736  68.285  1.00  0.00     0.000 HD 
HETATM   48  C   UNL     1      -7.383   7.012  68.610  1.00  0.00    -0.097 C  
HETATM   49  H   UNL     1      -6.832   7.425  66.076  1.00  0.00     0.000 HD 
HETATM   50  O   UNL     1      -6.356   7.985  68.342  1.00  0.00    -0.047 OA 
HETATM   51  H   UNL     1      -5.538   7.558  68.118  1.00  0.00     0.000 HD 
ENDBRANCH  38  39
ENDBRANCH  37  38
ENDBRANCH  26  37
ENDBRANCH  24  25
ENDBRANCH  19  24
ENDBRANCH   6  11
ENDBRANCH   2   3
TORSDOF 7
ENDMDL
MODEL      113
REMARK 921   NORMALIZED FREE ENERGY PREDICTED BY IDOCK:   -5.88 KCAL/MOL
REMARK 922        TOTAL FREE ENERGY PREDICTED BY IDOCK:   -9.57 KCAL/MOL
REMARK 923 INTER-LIGAND FREE ENERGY PREDICTED BY IDOCK:   -7.87 KCAL/MOL
REMARK 924 INTRA-LIGAND FREE ENERGY PREDICTED BY IDOCK:   -1.70 KCAL/MOL
REMARK 927      BINDING AFFINITY PREDICTED BY RF-SCORE:    0.00 PKD
ROOT
HETATM    1  C   UNL     1      -8.701   1.473  63.067  1.00  0.00    -0.072 C  
HETATM    2  O   UNL     1      -7.731   2.457  63.412  1.00  0.00    -0.061 OA 
ENDROOT
BRANCH   2   3
HETATM    3  C   UNL     1      -7.900   3.040  64.640  1.00  0.00    -0.078 A  
HETATM    4  C   UNL     1      -7.498   2.247  65.722  1.00  0.00    -0.067 A  
HETATM    5  C   UNL     1      -7.640   2.692  67.033  1.00  0.00    -0.070 A  
HETATM    6  C   UNL     1      -8.163   3.972  67.302  1.00  0.00    -0.099 A  
HETATM    7  C   UNL     1      -8.516   4.788  66.216  1.00  0.00    -0.111 A  
HETATM    8  H   UNL     1      -9.047   6.039  64.046  1.00  0.00     0.000 HD 
HETATM    9  O   UNL     1      -8.724   5.162  63.872  1.00  0.00    -0.128 OA 
HETATM   10  C   UNL     1      -8.375   4.328  64.895  1.00  0.00    -0.108 A  
BRANCH   6  11
HETATM   11  C   UNL     1      -8.482   4.365  68.736  1.00  0.00    -0.084 C  
HETATM   12  C   UNL     1      -8.350   3.131  69.614  1.00  0.00    -0.085 C  
HETATM   13  O   UNL     1      -7.833   3.131  71.926  1.00  0.00    -0.052 OA 
HETATM   14  C   UNL     1      -8.556   3.569  71.034  1.00  0.00    -0.072 C  
HETATM   15  C   UNL     1      -9.656   4.526  71.254  1.00  0.00    -0.240 A  
HETATM   16  C   UNL     1     -10.217   5.137  70.130  1.00  0.00    -0.278 A  
HETATM   17  C   UNL     1     -11.292   6.025  70.277  1.00  0.00    -0.336 A  
HETATM   18  O   UNL     1      -9.807   4.913  68.833  1.00  0.00    -0.162 OA 
HETATM   19  C   UNL     1     -11.826   6.290  71.543  1.00  0.00    -0.230 A  
HETATM   20  O   UNL     1      -9.669   4.199  73.637  1.00  0.00    -0.111 OA 
HETATM   21  C   UNL     1     -11.249   5.691  72.667  1.00  0.00    -0.350 A  
HETATM   22  H   UNL     1     -10.024   4.389  74.497  1.00  0.00     0.000 HD 
HETATM   23  C   UNL     1     -10.179   4.807  72.524  1.00  0.00    -0.190 A  
BRANCH  19  24
HETATM   24  O   UNL     1     -12.876   7.132  71.811  1.00  0.00    -0.345 OA 
BRANCH  24  25
HETATM   25  C   UNL     1     -12.830   8.435  71.216  1.00  0.00    -0.174 C  
HETATM   26  C   UNL     1     -11.488   9.864  69.869  1.00  0.00    -0.179 C  
HETATM   27  O   UNL     1     -11.520   8.671  70.669  1.00  0.00    -0.269 OA 
HETATM   28  C   UNL     1     -11.787  11.091  70.744  1.00  0.00    -0.278 C  
HETATM   29  H   UNL     1     -14.134  11.847  72.884  1.00  0.00     0.000 HD 
HETATM   30  O   UNL     1     -14.399   9.331  72.890  1.00  0.00    -0.934 OA 
HETATM   31  C   UNL     1     -13.103  10.886  71.507  1.00  0.00    -0.399 C  
HETATM   32  O   UNL     1     -11.905  12.313  70.001  1.00  0.00    -0.373 OA 
HETATM   33  H   UNL     1     -14.583  10.011  73.528  1.00  0.00     0.000 HD 
HETATM   34  H   UNL     1     -12.090  13.071  70.542  1.00  0.00     0.000 HD 
HETATM   35  O   UNL     1     -13.319  11.974  72.412  1.00  0.00    -0.403 OA 
HETATM   36  C   UNL     1     -13.128   9.541  72.254  1.00  0.00    -0.408 C  
BRANCH  26  37
HETATM   37  C   UNL     1     -10.113   9.984  69.200  1.00  0.00    -0.208 C  
BRANCH  37  38
HETATM   38  O   UNL     1      -9.431   8.738  69.345  1.00  0.00    -0.159 OA 
BRANCH  38  39
HETATM   39  C   UNL     1      -8.036   8.845  69.045  1.00  0.00    -0.106 C  
HETATM   40  O   UNL     1      -7.678   7.773  68.172  1.00  0.00    -0.113 OA 
HETATM   41  C   UNL     1      -6.288   7.665  67.862  1.00  0.00    -0.050 C  
HETATM   42  C   UNL     1      -5.417   7.595  69.133  1.00  0.00    -0.019 C  
HETATM   43  C   UNL     1      -5.867   8.731  66.854  1.00  0.00    -0.052 C  
HETATM   44  O   UNL     1      -5.656   6.345  69.800  1.00  0.00    -0.013 OA 
HETATM   45  C   UNL     1      -5.741   8.711  70.130  1.00  0.00    -0.027 C  
HETATM   46  O   UNL     1      -5.187   9.975  69.728  1.00  0.00    -0.037 OA 
HETATM   47  H   UNL     1      -5.120   6.302  70.583  1.00  0.00     0.000 HD 
HETATM   48  C   UNL     1      -7.252   8.818  70.375  1.00  0.00    -0.050 C  
HETATM   49  H   UNL     1      -5.387  10.667  70.346  1.00  0.00     0.000 HD 
HETATM   50  O   UNL     1      -7.526   9.997  71.154  1.00  0.00    -0.288 OA 
HETATM   51  H   UNL     1      -7.044   9.979  71.973  1.00  0.00     0.000 HD 
ENDBRANCH  38  39
ENDBRANCH  37  38
ENDBRANCH  26  37
ENDBRANCH  24  25
ENDBRANCH  19  24
ENDBRANCH   6  11
ENDBRANCH   2   3
TORSDOF 7
ENDMDL
MODEL      114
REMARK 921   NORMALIZED FREE ENERGY PREDICTED BY IDOCK:   -5.85 KCAL/MOL
REMARK 922        TOTAL FREE ENERGY PREDICTED BY IDOCK:   -9.52 KCAL/MOL
REMARK 923 INTER-LIGAND FREE ENERGY PREDICTED BY IDOCK:   -8.82 KCAL/MOL
REMARK 924 INTRA-LIGAND FREE ENERGY PREDICTED BY IDOCK:   -0.69 KCAL/MOL
REMARK 927      BINDING AFFINITY PREDICTED BY RF-SCORE:    0.00 PKD
ROOT
HETATM    1  C   UNL     1      -8.209   2.024  63.170  1.00  0.00    -0.072 C  
HETATM    2  O   UNL     1      -7.015   2.771  63.382  1.00  0.00    -0.035 OA 
ENDROOT
BRANCH   2   3
HETATM    3  C   UNL     1      -7.139   3.851  64.215  1.00  0.00    -0.050 A  
HETATM    4  C   UNL     1      -6.610   3.661  65.498  1.00  0.00    -0.037 A  
HETATM    5  C   UNL     1      -6.693   4.658  66.466  1.00  0.00    -0.051 A  
HETATM    6  C   UNL     1      -7.285   5.900  66.166  1.00  0.00    -0.076 A  
HETATM    7  C   UNL     1      -7.768   6.110  64.865  1.00  0.00    -0.101 A  
HETATM    8  H   UNL     1      -8.534   6.197  62.423  1.00  0.00     0.000 HD 
HETATM    9  O   UNL     1      -8.162   5.350  62.641  1.00  0.00    -0.098 OA 
HETATM   10  C   UNL     1      -7.687   5.096  63.895  1.00  0.00    -0.078 A  
BRANCH   6  11
HETATM   11  C   UNL     1      -7.531   6.902  67.284  1.00  0.00    -0.096 C  
HETATM   12  C   UNL     1      -6.567   6.602  68.420  1.00  0.00    -0.059 C  
HETATM   13  O   UNL     1      -5.775   8.171  70.008  1.00  0.00    -0.023 OA 
HETATM   14  C   UNL     1      -6.753   7.670  69.456  1.00  0.00    -0.036 C  
HETATM   15  C   UNL     1      -8.148   8.047  69.744  1.00  0.00    -0.115 A  
HETATM   16  C   UNL     1      -9.136   7.594  68.864  1.00  0.00    -0.140 A  
HETATM   17  C   UNL     1     -10.484   7.888  69.110  1.00  0.00    -0.218 A  
HETATM   18  O   UNL     1      -8.891   6.828  67.744  1.00  0.00    -0.120 OA 
HETATM   19  C   UNL     1     -10.855   8.616  70.246  1.00  0.00    -0.235 A  
HETATM   20  O   UNL     1      -7.579   9.220  71.764  1.00  0.00    -0.329 OA 
HETATM   21  C   UNL     1      -9.864   9.083  71.114  1.00  0.00    -0.371 A  
HETATM   22  H   UNL     1      -7.831   9.725  72.528  1.00  0.00     0.000 HD 
HETATM   23  C   UNL     1      -8.521   8.792  70.871  1.00  0.00    -0.175 A  
BRANCH  19  24
HETATM   24  O   UNL     1     -12.138   8.958  70.596  1.00  0.00    -0.173 OA 
BRANCH  24  25
HETATM   25  C   UNL     1     -12.519  10.326  70.398  1.00  0.00    -0.219 C  
HETATM   26  C   UNL     1     -11.781  12.394  69.482  1.00  0.00    -0.322 C  
HETATM   27  O   UNL     1     -11.394  11.076  69.908  1.00  0.00    -0.268 OA 
HETATM   28  C   UNL     1     -12.310  13.197  70.680  1.00  0.00    -0.326 C  
HETATM   29  H   UNL     1     -14.527  12.624  73.008  1.00  0.00     0.000 HD 
HETATM   30  O   UNL     1     -14.083  10.236  72.299  1.00  0.00    -0.224 OA 
HETATM   31  C   UNL     1     -13.426  12.415  71.387  1.00  0.00     0.243 C  
HETATM   32  O   UNL     1     -12.843  14.480  70.322  1.00  0.00    -0.495 OA 
HETATM   33  H   UNL     1     -14.377  10.636  73.110  1.00  0.00     0.000 HD 
HETATM   34  H   UNL     1     -13.170  14.977  71.062  1.00  0.00     0.000 HD 
HETATM   35  O   UNL     1     -13.835  13.108  72.571  1.00  0.00    -0.654 OA 
HETATM   36  C   UNL     1     -12.997  10.975  71.717  1.00  0.00    -0.438 C  
BRANCH  26  37
HETATM   37  C   UNL     1     -10.574  13.089  68.840  1.00  0.00    -0.127 C  
BRANCH  37  38
HETATM   38  O   UNL     1     -10.618  14.474  69.181  1.00  0.00    -0.244 OA 
BRANCH  38  39
HETATM   39  C   UNL     1     -10.554  15.319  68.027  1.00  0.00    -0.261 C  
HETATM   40  O   UNL     1      -9.836  14.630  67.003  1.00  0.00    -0.236 OA 
HETATM   41  C   UNL     1      -9.582  15.380  65.814  1.00  0.00    -0.333 C  
HETATM   42  C   UNL     1      -8.874  16.716  66.116  1.00  0.00    -0.288 C  
HETATM   43  C   UNL     1     -10.842  15.500  64.961  1.00  0.00    -0.468 C  
HETATM   44  O   UNL     1      -7.538  16.448  66.574  1.00  0.00    -0.250 OA 
HETATM   45  C   UNL     1      -9.577  17.520  67.212  1.00  0.00    -0.273 C  
HETATM   46  O   UNL     1     -10.764  18.171  66.730  1.00  0.00    -0.321 OA 
HETATM   47  H   UNL     1      -7.102  17.272  66.760  1.00  0.00     0.000 HD 
HETATM   48  C   UNL     1      -9.879  16.646  68.437  1.00  0.00    -0.252 C  
HETATM   49  H   UNL     1     -11.201  18.670  67.410  1.00  0.00     0.000 HD 
HETATM   50  O   UNL     1     -10.711  17.381  69.353  1.00  0.00    -0.384 OA 
HETATM   51  H   UNL     1     -10.296  18.197  69.606  1.00  0.00     0.000 HD 
ENDBRANCH  38  39
ENDBRANCH  37  38
ENDBRANCH  26  37
ENDBRANCH  24  25
ENDBRANCH  19  24
ENDBRANCH   6  11
ENDBRANCH   2   3
TORSDOF 7
ENDMDL
MODEL      115
REMARK 921   NORMALIZED FREE ENERGY PREDICTED BY IDOCK:   -5.73 KCAL/MOL
REMARK 922        TOTAL FREE ENERGY PREDICTED BY IDOCK:   -9.35 KCAL/MOL
REMARK 923 INTER-LIGAND FREE ENERGY PREDICTED BY IDOCK:   -8.12 KCAL/MOL
REMARK 924 INTRA-LIGAND FREE ENERGY PREDICTED BY IDOCK:   -1.23 KCAL/MOL
REMARK 927      BINDING AFFINITY PREDICTED BY RF-SCORE:    0.00 PKD
ROOT
HETATM    1  C   UNL     1     -10.465  20.272  68.138  1.00  0.00    -0.150 C  
HETATM    2  O   UNL     1     -10.790  19.398  67.062  1.00  0.00    -0.476 OA 
ENDROOT
BRANCH   2   3
HETATM    3  C   UNL     1     -10.180  18.172  67.098  1.00  0.00    -0.367 A  
HETATM    4  C   UNL     1     -10.880  17.193  67.814  1.00  0.00    -0.270 A  
HETATM    5  C   UNL     1     -10.367  15.908  67.967  1.00  0.00    -0.262 A  
HETATM    6  C   UNL     1      -9.141  15.551  67.372  1.00  0.00    -0.207 A  
HETATM    7  C   UNL     1      -8.466  16.515  66.610  1.00  0.00    -0.299 A  
HETATM    8  H   UNL     1      -7.485  18.470  65.277  1.00  0.00     0.000 HD 
HETATM    9  O   UNL     1      -8.297  18.715  65.707  1.00  0.00    -0.462 OA 
HETATM   10  C   UNL     1      -8.986  17.813  66.466  1.00  0.00    -0.261 A  
BRANCH   6  11
HETATM   11  C   UNL     1      -8.513  14.206  67.703  1.00  0.00    -0.185 C  
HETATM   12  C   UNL     1      -7.061  14.230  67.256  1.00  0.00     0.042 C  
HETATM   13  O   UNL     1      -5.309  12.933  68.187  1.00  0.00    -0.069 OA 
HETATM   14  C   UNL     1      -6.437  12.938  67.697  1.00  0.00    -0.157 C  
HETATM   15  C   UNL     1      -7.258  11.731  67.497  1.00  0.00    -0.123 A  
HETATM   16  C   UNL     1      -8.607  11.910  67.181  1.00  0.00    -0.172 A  
HETATM   17  C   UNL     1      -9.426  10.798  66.940  1.00  0.00    -0.192 A  
HETATM   18  O   UNL     1      -9.222  13.138  67.053  1.00  0.00    -0.218 OA 
HETATM   19  C   UNL     1      -8.897   9.504  66.992  1.00  0.00    -0.127 A  
HETATM   20  O   UNL     1      -5.411  10.230  67.842  1.00  0.00    -0.041 OA 
HETATM   21  C   UNL     1      -7.551   9.327  67.326  1.00  0.00    -0.091 A  
HETATM   22  H   UNL     1      -5.056   9.350  67.889  1.00  0.00     0.000 HD 
HETATM   23  C   UNL     1      -6.734  10.432  67.566  1.00  0.00    -0.071 A  
BRANCH  19  24
HETATM   24  O   UNL     1      -9.595   8.342  66.769  1.00  0.00    -0.182 OA 
BRANCH  24  25
HETATM   25  C   UNL     1     -10.289   7.780  67.890  1.00  0.00    -0.217 C  
HETATM   26  C   UNL     1     -10.864   8.173  70.164  1.00  0.00    -0.241 C  
HETATM   27  O   UNL     1     -10.019   8.560  69.068  1.00  0.00    -0.182 OA 
HETATM   28  C   UNL     1     -10.570   6.719  70.566  1.00  0.00    -0.225 C  
HETATM   29  H   UNL     1     -10.354   3.902  68.930  1.00  0.00     0.000 HD 
HETATM   30  O   UNL     1     -10.025   5.500  66.996  1.00  0.00    -0.141 OA 
HETATM   31  C   UNL     1     -10.678   5.802  69.340  1.00  0.00    -0.326 C  
HETATM   32  O   UNL     1     -11.462   6.208  71.567  1.00  0.00    -0.291 OA 
HETATM   33  H   UNL     1      -9.751   4.605  67.161  1.00  0.00     0.000 HD 
HETATM   34  H   UNL     1     -11.280   5.309  71.816  1.00  0.00     0.000 HD 
HETATM   35  O   UNL     1     -10.287   4.470  69.689  1.00  0.00    -0.099 OA 
HETATM   36  C   UNL     1      -9.842   6.325  68.158  1.00  0.00    -0.129 C  
BRANCH  26  37
HETATM   37  C   UNL     1     -10.631   9.129  71.340  1.00  0.00    -0.341 C  
BRANCH  37  38
HETATM   38  O   UNL     1      -9.233   9.406  71.426  1.00  0.00    -0.277 OA 
BRANCH  38  39
HETATM   39  C   UNL     1      -8.518   8.379  72.121  1.00  0.00    -0.181 C  
HETATM   40  O   UNL     1      -8.634   8.619  73.524  1.00  0.00    -0.341 OA 
HETATM   41  C   UNL     1      -7.880   7.745  74.366  1.00  0.00    -0.205 C  
HETATM   42  C   UNL     1      -6.388   7.716  73.979  1.00  0.00    -0.079 C  
HETATM   43  C   UNL     1      -8.543   6.374  74.466  1.00  0.00    -0.153 C  
HETATM   44  O   UNL     1      -5.796   8.989  74.289  1.00  0.00    -0.125 OA 
HETATM   45  C   UNL     1      -6.172   7.468  72.483  1.00  0.00    -0.047 C  
HETATM   46  O   UNL     1      -6.369   6.089  72.129  1.00  0.00    -0.047 OA 
HETATM   47  H   UNL     1      -4.876   8.971  74.050  1.00  0.00     0.000 HD 
HETATM   48  C   UNL     1      -7.053   8.393  71.633  1.00  0.00    -0.089 C  
HETATM   49  H   UNL     1      -6.236   5.935  71.201  1.00  0.00     0.000 HD 
HETATM   50  O   UNL     1      -6.971   7.993  70.252  1.00  0.00    -0.044 OA 
HETATM   51  H   UNL     1      -6.070   8.003  69.952  1.00  0.00     0.000 HD 
ENDBRANCH  38  39
ENDBRANCH  37  38
ENDBRANCH  26  37
ENDBRANCH  24  25
ENDBRANCH  19  24
ENDBRANCH   6  11
ENDBRANCH   2   3
TORSDOF 7
ENDMDL
MODEL      116
REMARK 921   NORMALIZED FREE ENERGY PREDICTED BY IDOCK:   -5.72 KCAL/MOL
REMARK 922        TOTAL FREE ENERGY PREDICTED BY IDOCK:   -9.34 KCAL/MOL
REMARK 923 INTER-LIGAND FREE ENERGY PREDICTED BY IDOCK:   -8.25 KCAL/MOL
REMARK 924 INTRA-LIGAND FREE ENERGY PREDICTED BY IDOCK:   -1.09 KCAL/MOL
REMARK 927      BINDING AFFINITY PREDICTED BY RF-SCORE:    0.00 PKD
ROOT
HETATM    1  C   UNL     1      -9.983  20.803  68.714  1.00  0.00     0.600 C  
HETATM    2  O   UNL     1      -9.573  20.584  67.368  1.00  0.00    -0.425 OA 
ENDROOT
BRANCH   2   3
HETATM    3  C   UNL     1      -9.468  19.271  66.993  1.00  0.00    -0.322 A  
HETATM    4  C   UNL     1     -10.660  18.541  67.086  1.00  0.00    -0.439 A  
HETATM    5  C   UNL     1     -10.701  17.186  66.771  1.00  0.00    -0.097 A  
HETATM    6  C   UNL     1      -9.544  16.521  66.317  1.00  0.00    -0.333 A  
HETATM    7  C   UNL     1      -8.363  17.264  66.174  1.00  0.00    -0.238 A  
HETATM    8  H   UNL     1      -6.382  18.878  66.000  1.00  0.00     0.000 HD 
HETATM    9  O   UNL     1      -7.158  19.313  66.336  1.00  0.00    -0.209 OA 
HETATM   10  C   UNL     1      -8.328  18.631  66.500  1.00  0.00    -0.291 A  
BRANCH   6  11
HETATM   11  C   UNL     1      -9.565  15.009  66.158  1.00  0.00    -0.314 C  
HETATM   12  C   UNL     1     -10.334  14.668  64.892  1.00  0.00    -0.382 C  
HETATM   13  O   UNL     1     -10.036  12.719  63.578  1.00  0.00    -0.350 OA 
HETATM   14  C   UNL     1     -10.241  13.183  64.698  1.00  0.00    -0.306 C  
HETATM   15  C   UNL     1     -10.411  12.369  65.915  1.00  0.00    -0.284 A  
HETATM   16  C   UNL     1     -10.371  13.028  67.146  1.00  0.00    -0.243 A  
HETATM   17  C   UNL     1     -10.568  12.309  68.334  1.00  0.00    -0.250 A  
HETATM   18  O   UNL     1     -10.175  14.384  67.300  1.00  0.00    -0.250 OA 
HETATM   19  C   UNL     1     -10.827  10.935  68.297  1.00  0.00    -0.225 A  
HETATM   20  O   UNL     1     -10.728  10.325  64.688  1.00  0.00    -0.090 OA 
HETATM   21  C   UNL     1     -10.848  10.276  67.064  1.00  0.00    -0.248 A  
HETATM   22  H   UNL     1     -10.892   9.389  64.664  1.00  0.00     0.000 HD 
HETATM   23  C   UNL     1     -10.653  10.988  65.880  1.00  0.00    -0.206 A  
BRANCH  19  24
HETATM   24  O   UNL     1     -11.042  10.129  69.387  1.00  0.00    -0.232 OA 
BRANCH  24  25
HETATM   25  C   UNL     1     -10.097   9.073  69.607  1.00  0.00    -0.197 C  
HETATM   26  C   UNL     1      -8.093   8.108  68.765  1.00  0.00    -0.120 C  
HETATM   27  O   UNL     1      -9.191   8.995  68.493  1.00  0.00    -0.136 OA 
HETATM   28  C   UNL     1      -8.613   6.676  68.964  1.00  0.00    -0.130 C  
HETATM   29  H   UNL     1     -10.958   5.337  70.799  1.00  0.00     0.000 HD 
HETATM   30  O   UNL     1     -11.773   7.731  70.814  1.00  0.00    -0.330 OA 
HETATM   31  C   UNL     1      -9.711   6.658  70.036  1.00  0.00    -0.162 C  
HETATM   32  O   UNL     1      -7.598   5.747  69.372  1.00  0.00    -0.084 OA 
HETATM   33  H   UNL     1     -12.207   6.891  70.906  1.00  0.00     0.000 HD 
HETATM   34  H   UNL     1      -7.919   4.861  69.495  1.00  0.00     0.000 HD 
HETATM   35  O   UNL     1     -10.278   5.348  70.135  1.00  0.00    -0.226 OA 
HETATM   36  C   UNL     1     -10.803   7.706  69.756  1.00  0.00    -0.217 C  
BRANCH  26  37
HETATM   37  C   UNL     1      -7.092   8.176  67.605  1.00  0.00    -0.087 C  
BRANCH  37  38
HETATM   38  O   UNL     1      -7.623   9.042  66.602  1.00  0.00    -0.088 OA 
BRANCH  38  39
HETATM   39  C   UNL     1      -7.233   8.647  65.283  1.00  0.00    -0.083 C  
HETATM   40  O   UNL     1      -7.203   9.809  64.454  1.00  0.00    -0.117 OA 
HETATM   41  C   UNL     1      -6.940   9.574  63.069  1.00  0.00    -0.100 C  
HETATM   42  C   UNL     1      -7.916   8.545  62.463  1.00  0.00    -0.151 C  
HETATM   43  C   UNL     1      -5.463   9.271  62.835  1.00  0.00    -0.079 C  
HETATM   44  O   UNL     1      -9.233   9.120  62.409  1.00  0.00    -0.513 OA 
HETATM   45  C   UNL     1      -8.014   7.265  63.297  1.00  0.00    -0.074 C  
HETATM   46  O   UNL     1      -6.875   6.409  63.110  1.00  0.00    -0.039 OA 
HETATM   47  H   UNL     1      -9.834   8.485  62.035  1.00  0.00     0.000 HD 
HETATM   48  C   UNL     1      -8.234   7.583  64.782  1.00  0.00    -0.065 C  
HETATM   49  H   UNL     1      -6.935   5.614  63.627  1.00  0.00     0.000 HD 
HETATM   50  O   UNL     1      -8.119   6.371  65.551  1.00  0.00    -0.116 OA 
HETATM   51  H   UNL     1      -8.736   5.717  65.243  1.00  0.00     0.000 HD 
ENDBRANCH  38  39
ENDBRANCH  37  38
ENDBRANCH  26  37
ENDBRANCH  24  25
ENDBRANCH  19  24
ENDBRANCH   6  11
ENDBRANCH   2   3
TORSDOF 7
ENDMDL
MODEL      117
REMARK 921   NORMALIZED FREE ENERGY PREDICTED BY IDOCK:   -5.60 KCAL/MOL
REMARK 922        TOTAL FREE ENERGY PREDICTED BY IDOCK:   -9.17 KCAL/MOL
REMARK 923 INTER-LIGAND FREE ENERGY PREDICTED BY IDOCK:   -8.64 KCAL/MOL
REMARK 924 INTRA-LIGAND FREE ENERGY PREDICTED BY IDOCK:   -0.53 KCAL/MOL
REMARK 927      BINDING AFFINITY PREDICTED BY RF-SCORE:    0.00 PKD
ROOT
HETATM    1  C   UNL     1     -13.108  15.373  71.416  1.00  0.00    -0.488 C  
HETATM    2  O   UNL     1     -12.215  15.918  70.450  1.00  0.00    -0.372 OA 
ENDROOT
BRANCH   2   3
HETATM    3  C   UNL     1     -11.536  14.999  69.695  1.00  0.00    -0.294 A  
HETATM    4  C   UNL     1     -12.268  13.848  69.378  1.00  0.00    -0.338 A  
HETATM    5  C   UNL     1     -11.698  12.811  68.646  1.00  0.00    -0.360 A  
HETATM    6  C   UNL     1     -10.374  12.910  68.175  1.00  0.00    -0.243 A  
HETATM    7  C   UNL     1      -9.658  14.085  68.446  1.00  0.00    -0.222 A  
HETATM    8  H   UNL     1      -8.622  16.340  69.081  1.00  0.00     0.000 HD 
HETATM    9  O   UNL     1      -9.505  16.253  69.423  1.00  0.00    -0.241 OA 
HETATM   10  C   UNL     1     -10.238  15.126  69.192  1.00  0.00    -0.249 A  
BRANCH   6  11
HETATM   11  C   UNL     1      -9.713  11.696  67.540  1.00  0.00    -0.177 C  
HETATM   12  C   UNL     1     -10.196  11.580  66.104  1.00  0.00    -0.272 C  
HETATM   13  O   UNL     1      -9.008  10.559  64.326  1.00  0.00    -0.194 OA 
HETATM   14  C   UNL     1      -9.444  10.447  65.470  1.00  0.00    -0.215 C  
HETATM   15  C   UNL     1      -9.285   9.241  66.303  1.00  0.00    -0.236 A  
HETATM   16  C   UNL     1      -9.594   9.346  67.661  1.00  0.00    -0.134 A  
HETATM   17  C   UNL     1      -9.499   8.221  68.492  1.00  0.00    -0.149 A  
HETATM   18  O   UNL     1     -10.028  10.502  68.276  1.00  0.00    -0.153 OA 
HETATM   19  C   UNL     1      -9.118   6.982  67.967  1.00  0.00    -0.127 A  
HETATM   20  O   UNL     1      -8.608   7.864  64.451  1.00  0.00    -0.378 OA 
HETATM   21  C   UNL     1      -8.792   6.884  66.611  1.00  0.00    -0.140 A  
HETATM   22  H   UNL     1      -8.336   7.025  64.097  1.00  0.00     0.000 HD 
HETATM   23  C   UNL     1      -8.885   8.002  65.782  1.00  0.00    -0.132 A  
BRANCH  19  24
HETATM   24  O   UNL     1      -8.996   5.812  68.676  1.00  0.00    -0.113 OA 
BRANCH  24  25
HETATM   25  C   UNL     1      -9.883   5.635  69.788  1.00  0.00    -0.185 C  
HETATM   26  C   UNL     1     -10.793   6.736  71.691  1.00  0.00    -0.229 C  
HETATM   27  O   UNL     1      -9.769   6.756  70.682  1.00  0.00    -0.172 OA 
HETATM   28  C   UNL     1     -10.630   5.493  72.579  1.00  0.00    -0.226 C  
HETATM   29  H   UNL     1     -10.281   2.301  71.990  1.00  0.00     0.000 HD 
HETATM   30  O   UNL     1      -9.581   3.191  69.728  1.00  0.00    -0.151 OA 
HETATM   31  C   UNL     1     -10.583   4.228  71.711  1.00  0.00     0.149 C  
HETATM   32  O   UNL     1     -11.691   5.323  73.530  1.00  0.00    -0.419 OA 
HETATM   33  H   UNL     1      -9.375   2.400  70.213  1.00  0.00     0.000 HD 
HETATM   34  H   UNL     1     -11.591   4.555  74.080  1.00  0.00     0.000 HD 
HETATM   35  O   UNL     1     -10.310   3.084  72.527  1.00  0.00    -0.158 OA 
HETATM   36  C   UNL     1      -9.548   4.349  70.578  1.00  0.00    -0.199 C  
BRANCH  26  37
HETATM   37  C   UNL     1     -10.708   8.023  72.520  1.00  0.00    -0.341 C  
BRANCH  37  38
HETATM   38  O   UNL     1      -9.573   8.769  72.078  1.00  0.00    -0.290 OA 
BRANCH  38  39
HETATM   39  C   UNL     1      -8.339   8.175  72.494  1.00  0.00    -0.172 C  
HETATM   40  O   UNL     1      -8.245   8.276  73.915  1.00  0.00    -0.235 OA 
HETATM   41  C   UNL     1      -7.014   7.829  74.487  1.00  0.00    -0.125 C  
HETATM   42  C   UNL     1      -5.795   8.525  73.848  1.00  0.00    -0.111 C  
HETATM   43  C   UNL     1      -6.942   6.305  74.511  1.00  0.00    -0.090 C  
HETATM   44  O   UNL     1      -5.795   9.913  74.223  1.00  0.00    -0.336 OA 
HETATM   45  C   UNL     1      -5.820   8.468  72.318  1.00  0.00    -0.061 C  
HETATM   46  O   UNL     1      -5.440   7.176  71.818  1.00  0.00    -0.035 OA 
HETATM   47  H   UNL     1      -5.044  10.341  73.829  1.00  0.00     0.000 HD 
HETATM   48  C   UNL     1      -7.185   8.900  71.766  1.00  0.00     0.010 C  
HETATM   49  H   UNL     1      -5.455   7.140  70.869  1.00  0.00     0.000 HD 
HETATM   50  O   UNL     1      -7.230   8.641  70.351  1.00  0.00    -0.039 OA 
HETATM   51  H   UNL     1      -6.521   9.088  69.904  1.00  0.00     0.000 HD 
ENDBRANCH  38  39
ENDBRANCH  37  38
ENDBRANCH  26  37
ENDBRANCH  24  25
ENDBRANCH  19  24
ENDBRANCH   6  11
ENDBRANCH   2   3
TORSDOF 7
ENDMDL
MODEL      118
REMARK 921   NORMALIZED FREE ENERGY PREDICTED BY IDOCK:   -5.58 KCAL/MOL
REMARK 922        TOTAL FREE ENERGY PREDICTED BY IDOCK:   -9.15 KCAL/MOL
REMARK 923 INTER-LIGAND FREE ENERGY PREDICTED BY IDOCK:   -8.62 KCAL/MOL
REMARK 924 INTRA-LIGAND FREE ENERGY PREDICTED BY IDOCK:   -0.53 KCAL/MOL
REMARK 927      BINDING AFFINITY PREDICTED BY RF-SCORE:    0.00 PKD
ROOT
HETATM    1  C   UNL     1     -10.498  17.539  69.050  1.00  0.00    -0.250 C  
HETATM    2  O   UNL     1     -11.323  16.834  68.128  1.00  0.00    -0.255 OA 
ENDROOT
BRANCH   2   3
HETATM    3  C   UNL     1     -11.538  15.514  68.423  1.00  0.00    -0.357 A  
HETATM    4  C   UNL     1     -12.103  15.283  69.684  1.00  0.00    -0.342 A  
HETATM    5  C   UNL     1     -12.348  13.990  70.137  1.00  0.00    -0.409 A  
HETATM    6  C   UNL     1     -12.061  12.878  69.320  1.00  0.00    -0.234 A  
HETATM    7  C   UNL     1     -11.544  13.112  68.037  1.00  0.00    -0.371 A  
HETATM    8  H   UNL     1     -10.634  13.854  65.761  1.00  0.00     0.000 HD 
HETATM    9  O   UNL     1     -10.799  14.598  66.329  1.00  0.00    -0.308 OA 
HETATM   10  C   UNL     1     -11.294  14.421  67.589  1.00  0.00    -0.329 A  
BRANCH   6  11
HETATM   11  C   UNL     1     -12.161  11.477  69.901  1.00  0.00    -0.258 C  
HETATM   12  C   UNL     1     -12.963  11.546  71.190  1.00  0.00    -0.329 C  
HETATM   13  O   UNL     1     -14.231   9.774  72.124  1.00  0.00    -0.085 OA 
HETATM   14  C   UNL     1     -13.143  10.139  71.680  1.00  0.00    -0.447 C  
HETATM   15  C   UNL     1     -11.954   9.273  71.589  1.00  0.00    -0.448 A  
HETATM   16  C   UNL     1     -10.875   9.733  70.828  1.00  0.00    -0.333 A  
HETATM   17  C   UNL     1      -9.703   8.969  70.739  1.00  0.00    -0.306 A  
HETATM   18  O   UNL     1     -10.853  10.934  70.151  1.00  0.00    -0.186 OA 
HETATM   19  C   UNL     1      -9.593   7.756  71.427  1.00  0.00    -0.155 A  
HETATM   20  O   UNL     1     -12.876   7.591  73.039  1.00  0.00     0.112 OA 
HETATM   21  C   UNL     1     -10.680   7.291  72.172  1.00  0.00    -0.252 A  
HETATM   22  H   UNL     1     -12.805   6.761  73.495  1.00  0.00     0.000 HD 
HETATM   23  C   UNL     1     -11.849   8.048  72.262  1.00  0.00    -0.369 A  
BRANCH  19  24
HETATM   24  O   UNL     1      -8.498   6.927  71.422  1.00  0.00    -0.118 OA 
BRANCH  24  25
HETATM   25  C   UNL     1      -8.158   6.312  70.174  1.00  0.00    -0.116 C  
HETATM   26  C   UNL     1      -7.805   6.761  67.864  1.00  0.00    -0.113 C  
HETATM   27  O   UNL     1      -8.343   7.254  69.103  1.00  0.00    -0.129 OA 
HETATM   28  C   UNL     1      -8.565   5.499  67.428  1.00  0.00    -0.108 C  
HETATM   29  H   UNL     1      -9.379   2.703  68.904  1.00  0.00     0.000 HD 
HETATM   30  O   UNL     1      -8.958   4.118  70.958  1.00  0.00    -0.100 OA 
HETATM   31  C   UNL     1      -8.568   4.466  68.563  1.00  0.00    -0.093 C  
HETATM   32  O   UNL     1      -8.007   4.863  66.268  1.00  0.00    -0.105 OA 
HETATM   33  H   UNL     1      -9.504   3.360  70.786  1.00  0.00     0.000 HD 
HETATM   34  H   UNL     1      -8.476   4.084  65.998  1.00  0.00     0.000 HD 
HETATM   35  O   UNL     1      -9.377   3.342  68.201  1.00  0.00    -0.170 OA 
HETATM   36  C   UNL     1      -9.045   5.077  69.892  1.00  0.00    -0.119 C  
BRANCH  26  37
HETATM   37  C   UNL     1      -7.902   7.861  66.800  1.00  0.00    -0.103 C  
BRANCH  37  38
HETATM   38  O   UNL     1      -6.735   8.678  66.889  1.00  0.00    -0.064 OA 
BRANCH  38  39
HETATM   39  C   UNL     1      -6.993   9.922  67.548  1.00  0.00    -0.083 C  
HETATM   40  O   UNL     1      -7.394  10.879  66.566  1.00  0.00    -0.131 OA 
HETATM   41  C   UNL     1      -7.583  12.212  67.043  1.00  0.00    -0.093 C  
HETATM   42  C   UNL     1      -6.339  12.741  67.785  1.00  0.00    -0.137 C  
HETATM   43  C   UNL     1      -8.893  12.338  67.816  1.00  0.00    -0.174 C  
HETATM   44  O   UNL     1      -5.270  12.925  66.842  1.00  0.00    -0.298 OA 
HETATM   45  C   UNL     1      -5.836  11.769  68.857  1.00  0.00    -0.052 C  
HETATM   46  O   UNL     1      -6.650  11.800  70.041  1.00  0.00    -0.322 OA 
HETATM   47  H   UNL     1      -4.503  13.250  67.300  1.00  0.00     0.000 HD 
HETATM   48  C   UNL     1      -5.713  10.344  68.303  1.00  0.00    -0.040 C  
HETATM   49  H   UNL     1      -6.339  11.198  70.706  1.00  0.00     0.000 HD 
HETATM   50  O   UNL     1      -5.434   9.435  69.383  1.00  0.00    -0.035 OA 
HETATM   51  H   UNL     1      -4.647   9.694  69.847  1.00  0.00     0.000 HD 
ENDBRANCH  38  39
ENDBRANCH  37  38
ENDBRANCH  26  37
ENDBRANCH  24  25
ENDBRANCH  19  24
ENDBRANCH   6  11
ENDBRANCH   2   3
TORSDOF 7
ENDMDL
MODEL      119
REMARK 921   NORMALIZED FREE ENERGY PREDICTED BY IDOCK:   -5.58 KCAL/MOL
REMARK 922        TOTAL FREE ENERGY PREDICTED BY IDOCK:   -9.14 KCAL/MOL
REMARK 923 INTER-LIGAND FREE ENERGY PREDICTED BY IDOCK:   -7.13 KCAL/MOL
REMARK 924 INTRA-LIGAND FREE ENERGY PREDICTED BY IDOCK:   -2.01 KCAL/MOL
REMARK 927      BINDING AFFINITY PREDICTED BY RF-SCORE:    0.00 PKD
ROOT
HETATM    1  C   UNL     1      -8.714  16.075  69.093  1.00  0.00    -0.248 C  
HETATM    2  O   UNL     1      -8.742  15.604  67.749  1.00  0.00    -0.167 OA 
ENDROOT
BRANCH   2   3
HETATM    3  C   UNL     1      -8.380  14.294  67.580  1.00  0.00    -0.188 A  
HETATM    4  C   UNL     1      -9.453  13.408  67.426  1.00  0.00    -0.222 A  
HETATM    5  C   UNL     1      -9.242  12.040  67.278  1.00  0.00    -0.182 A  
HETATM    6  C   UNL     1      -7.935  11.516  67.246  1.00  0.00    -0.153 A  
HETATM    7  C   UNL     1      -6.858  12.410  67.347  1.00  0.00    -0.147 A  
HETATM    8  H   UNL     1      -5.115  14.276  67.535  1.00  0.00     0.000 HD 
HETATM    9  O   UNL     1      -6.000  14.620  67.588  1.00  0.00    -0.280 OA 
HETATM   10  C   UNL     1      -7.079  13.789  67.503  1.00  0.00    -0.157 A  
BRANCH   6  11
HETATM   11  C   UNL     1      -7.731  10.009  67.271  1.00  0.00    -0.095 C  
HETATM   12  C   UNL     1      -8.871   9.357  66.506  1.00  0.00    -0.155 C  
HETATM   13  O   UNL     1      -8.772   7.260  65.406  1.00  0.00    -0.089 OA 
HETATM   14  C   UNL     1      -8.585   7.885  66.448  1.00  0.00    -0.147 C  
HETATM   15  C   UNL     1      -8.084   7.282  67.697  1.00  0.00    -0.114 A  
HETATM   16  C   UNL     1      -7.670   8.147  68.713  1.00  0.00    -0.107 A  
HETATM   17  C   UNL     1      -7.222   7.629  69.937  1.00  0.00    -0.072 A  
HETATM   18  O   UNL     1      -7.689   9.523  68.623  1.00  0.00    -0.079 OA 
HETATM   19  C   UNL     1      -7.208   6.248  70.160  1.00  0.00    -0.080 A  
HETATM   20  O   UNL     1      -8.481   5.031  66.950  1.00  0.00    -0.107 OA 
HETATM   21  C   UNL     1      -7.607   5.385  69.135  1.00  0.00    -0.085 A  
HETATM   22  H   UNL     1      -8.459   4.092  67.098  1.00  0.00     0.000 HD 
HETATM   23  C   UNL     1      -8.052   5.898  67.915  1.00  0.00    -0.105 A  
BRANCH  19  24
HETATM   24  O   UNL     1      -6.800   5.625  71.314  1.00  0.00    -0.057 OA 
BRANCH  24  25
HETATM   25  C   UNL     1      -7.685   4.642  71.865  1.00  0.00    -0.097 C  
HETATM   26  C   UNL     1      -9.736   4.373  73.041  1.00  0.00    -0.135 C  
HETATM   27  O   UNL     1      -8.699   5.290  72.653  1.00  0.00    -0.120 OA 
HETATM   28  C   UNL     1      -9.155   3.280  73.951  1.00  0.00    -0.089 C  
HETATM   29  H   UNL     1      -6.593   1.266  73.746  1.00  0.00     0.000 HD 
HETATM   30  O   UNL     1      -5.853   3.007  72.067  1.00  0.00    -0.008 OA 
HETATM   31  C   UNL     1      -7.952   2.612  73.271  1.00  0.00    -0.059 C  
HETATM   32  O   UNL     1     -10.094   2.245  74.278  1.00  0.00    -0.101 OA 
HETATM   33  H   UNL     1      -5.387   2.396  72.625  1.00  0.00     0.000 HD 
HETATM   34  H   UNL     1      -9.735   1.569  74.841  1.00  0.00     0.000 HD 
HETATM   35  O   UNL     1      -7.338   1.679  74.167  1.00  0.00    -0.027 OA 
HETATM   36  C   UNL     1      -6.927   3.647  72.774  1.00  0.00    -0.044 C  
BRANCH  26  37
HETATM   37  C   UNL     1     -10.853   5.147  73.750  1.00  0.00    -0.287 C  
BRANCH  37  38
HETATM   38  O   UNL     1     -10.458   6.515  73.853  1.00  0.00    -0.310 OA 
BRANCH  38  39
HETATM   39  C   UNL     1     -11.174   7.356  72.941  1.00  0.00    -0.319 C  
HETATM   40  O   UNL     1     -12.205   6.582  72.328  1.00  0.00    -0.265 OA 
HETATM   41  C   UNL     1     -12.948   7.243  71.302  1.00  0.00    -0.328 C  
HETATM   42  C   UNL     1     -12.029   7.819  70.206  1.00  0.00     0.227 C  
HETATM   43  C   UNL     1     -13.939   8.239  71.897  1.00  0.00    -0.468 C  
HETATM   44  O   UNL     1     -11.433   6.736  69.473  1.00  0.00    -0.534 OA 
HETATM   45  C   UNL     1     -10.886   8.662  70.779  1.00  0.00    -0.230 C  
HETATM   46  O   UNL     1     -11.330   9.963  71.198  1.00  0.00    -0.357 OA 
HETATM   47  H   UNL     1     -10.867   7.091  68.797  1.00  0.00     0.000 HD 
HETATM   48  C   UNL     1     -10.167   7.925  71.917  1.00  0.00    -0.202 C  
HETATM   49  H   UNL     1     -10.621  10.486  71.554  1.00  0.00     0.000 HD 
HETATM   50  O   UNL     1      -9.241   8.822  72.555  1.00  0.00    -0.347 OA 
HETATM   51  H   UNL     1      -8.622   9.172  71.926  1.00  0.00     0.000 HD 
ENDBRANCH  38  39
ENDBRANCH  37  38
ENDBRANCH  26  37
ENDBRANCH  24  25
ENDBRANCH  19  24
ENDBRANCH   6  11
ENDBRANCH   2   3
TORSDOF 7
ENDMDL
MODEL      120
REMARK 921   NORMALIZED FREE ENERGY PREDICTED BY IDOCK:   -5.56 KCAL/MOL
REMARK 922        TOTAL FREE ENERGY PREDICTED BY IDOCK:   -9.11 KCAL/MOL
REMARK 923 INTER-LIGAND FREE ENERGY PREDICTED BY IDOCK:   -7.39 KCAL/MOL
REMARK 924 INTRA-LIGAND FREE ENERGY PREDICTED BY IDOCK:   -1.72 KCAL/MOL
REMARK 927      BINDING AFFINITY PREDICTED BY RF-SCORE:    0.00 PKD
ROOT
HETATM    1  C   UNL     1      -5.303  16.466  67.799  1.00  0.00    -0.127 C  
HETATM    2  O   UNL     1      -6.004  16.127  68.991  1.00  0.00    -0.120 OA 
ENDROOT
BRANCH   2   3
HETATM    3  C   UNL     1      -6.253  14.792  69.165  1.00  0.00    -0.105 A  
HETATM    4  C   UNL     1      -5.607  14.216  70.266  1.00  0.00    -0.124 A  
HETATM    5  C   UNL     1      -5.738  12.860  70.550  1.00  0.00    -0.171 A  
HETATM    6  C   UNL     1      -6.555  12.037  69.751  1.00  0.00     0.001 A  
HETATM    7  C   UNL     1      -7.245  12.623  68.680  1.00  0.00    -0.108 A  
HETATM    8  H   UNL     1      -8.380  13.976  66.825  1.00  0.00     0.000 HD 
HETATM    9  O   UNL     1      -7.801  14.520  67.348  1.00  0.00    -0.180 OA 
HETATM   10  C   UNL     1      -7.103  13.993  68.395  1.00  0.00    -0.102 A  
BRANCH   6  11
HETATM   11  C   UNL     1      -6.538  10.531  69.966  1.00  0.00    -0.144 C  
HETATM   12  C   UNL     1      -5.427  10.197  70.946  1.00  0.00    -0.077 C  
HETATM   13  O   UNL     1      -5.368   8.307  72.375  1.00  0.00    -0.036 OA 
HETATM   14  C   UNL     1      -5.506   8.725  71.227  1.00  0.00    -0.037 C  
HETATM   15  C   UNL     1      -5.750   7.864  70.056  1.00  0.00    -0.023 A  
HETATM   16  C   UNL     1      -6.147   8.483  68.868  1.00  0.00    -0.044 A  
HETATM   17  C   UNL     1      -6.354   7.718  67.712  1.00  0.00    -0.051 A  
HETATM   18  O   UNL     1      -6.335   9.841  68.721  1.00  0.00    -0.046 OA 
HETATM   19  C   UNL     1      -6.144   6.334  67.730  1.00  0.00    -0.020 A  
HETATM   20  O   UNL     1      -5.138   5.848  71.217  1.00  0.00    -0.012 OA 
HETATM   21  C   UNL     1      -5.763   5.716  68.924  1.00  0.00    -0.015 A  
HETATM   22  H   UNL     1      -5.008   4.907  71.231  1.00  0.00     0.000 HD 
HETATM   23  C   UNL     1      -5.558   6.475  70.077  1.00  0.00    -0.015 A  
BRANCH  19  24
HETATM   24  O   UNL     1      -6.306   5.484  66.665  1.00  0.00    -0.033 OA 
BRANCH  24  25
HETATM   25  C   UNL     1      -7.612   5.426  66.076  1.00  0.00    -0.087 C  
HETATM   26  C   UNL     1      -9.915   5.829  66.512  1.00  0.00    -0.163 C  
HETATM   27  O   UNL     1      -8.609   5.654  67.087  1.00  0.00    -0.111 OA 
HETATM   28  C   UNL     1     -10.351   4.541  65.798  1.00  0.00    -0.258 C  
HETATM   29  H   UNL     1      -8.963   2.579  63.588  1.00  0.00     0.000 HD 
HETATM   30  O   UNL     1      -6.880   3.725  64.452  1.00  0.00    -0.043 OA 
HETATM   31  C   UNL     1      -9.277   4.109  64.790  1.00  0.00    -0.154 C  
HETATM   32  O   UNL     1     -11.588   4.670  65.082  1.00  0.00    -1.107 OA 
HETATM   33  H   UNL     1      -7.045   2.877  64.055  1.00  0.00     0.000 HD 
HETATM   34  H   UNL     1     -11.858   3.874  64.640  1.00  0.00     0.000 HD 
HETATM   35  O   UNL     1      -9.628   2.846  64.212  1.00  0.00    -0.145 OA 
HETATM   36  C   UNL     1      -7.880   4.047  65.431  1.00  0.00    -0.089 C  
BRANCH  26  37
HETATM   37  C   UNL     1     -10.905   6.209  67.621  1.00  0.00    -0.332 C  
BRANCH  37  38
HETATM   38  O   UNL     1     -10.473   7.435  68.210  1.00  0.00    -0.197 OA 
BRANCH  38  39
HETATM   39  C   UNL     1     -10.702   7.468  69.623  1.00  0.00    -0.230 C  
HETATM   40  O   UNL     1     -11.724   6.521  69.936  1.00  0.00    -0.406 OA 
HETATM   41  C   UNL     1     -12.157   6.505  71.298  1.00  0.00    -0.270 C  
HETATM   42  C   UNL     1     -12.598   7.903  71.778  1.00  0.00    -0.328 C  
HETATM   43  C   UNL     1     -11.132   5.814  72.191  1.00  0.00    -0.327 C  
HETATM   44  O   UNL     1     -13.809   8.275  71.099  1.00  0.00    -0.571 OA 
HETATM   45  C   UNL     1     -11.557   8.985  71.475  1.00  0.00    -0.343 C  
HETATM   46  O   UNL     1     -10.446   8.938  72.385  1.00  0.00    -0.264 OA 
HETATM   47  H   UNL     1     -14.080   9.136  71.396  1.00  0.00     0.000 HD 
HETATM   48  C   UNL     1     -11.086   8.911  70.017  1.00  0.00    -0.170 C  
HETATM   49  H   UNL     1      -9.801   9.609  72.198  1.00  0.00     0.000 HD 
HETATM   50  O   UNL     1      -9.973   9.805  69.830  1.00  0.00    -0.207 OA 
HETATM   51  H   UNL     1     -10.210  10.692  70.071  1.00  0.00     0.000 HD 
ENDBRANCH  38  39
ENDBRANCH  37  38
ENDBRANCH  26  37
ENDBRANCH  24  25
ENDBRANCH  19  24
ENDBRANCH   6  11
ENDBRANCH   2   3
TORSDOF 7
ENDMDL
MODEL      121
REMARK 921   NORMALIZED FREE ENERGY PREDICTED BY IDOCK:   -5.52 KCAL/MOL
REMARK 922        TOTAL FREE ENERGY PREDICTED BY IDOCK:   -9.05 KCAL/MOL
REMARK 923 INTER-LIGAND FREE ENERGY PREDICTED BY IDOCK:   -8.00 KCAL/MOL
REMARK 924 INTRA-LIGAND FREE ENERGY PREDICTED BY IDOCK:   -1.05 KCAL/MOL
REMARK 927      BINDING AFFINITY PREDICTED BY RF-SCORE:    0.00 PKD
ROOT
HETATM    1  C   UNL     1      -7.331   2.595  67.675  1.00  0.00    -0.056 C  
HETATM    2  O   UNL     1      -7.339   3.369  68.870  1.00  0.00    -0.049 OA 
ENDROOT
BRANCH   2   3
HETATM    3  C   UNL     1      -7.838   4.638  68.743  1.00  0.00    -0.075 A  
HETATM    4  C   UNL     1      -6.867   5.635  68.589  1.00  0.00    -0.059 A  
HETATM    5  C   UNL     1      -7.222   6.977  68.483  1.00  0.00    -0.091 A  
HETATM    6  C   UNL     1      -8.577   7.362  68.495  1.00  0.00    -0.128 A  
HETATM    7  C   UNL     1      -9.552   6.359  68.596  1.00  0.00    -0.121 A  
HETATM    8  H   UNL     1     -11.088   4.317  68.772  1.00  0.00     0.000 HD 
HETATM    9  O   UNL     1     -10.171   4.066  68.796  1.00  0.00     0.201 OA 
HETATM   10  C   UNL     1      -9.186   5.007  68.709  1.00  0.00    -0.122 A  
BRANCH   6  11
HETATM   11  C   UNL     1      -8.934   8.839  68.564  1.00  0.00    -0.138 C  
HETATM   12  C   UNL     1     -10.207   9.064  67.765  1.00  0.00    -0.284 C  
HETATM   13  O   UNL     1     -11.776  10.802  68.129  1.00  0.00    -0.501 OA 
HETATM   14  C   UNL     1     -10.598  10.502  67.944  1.00  0.00    -0.232 C  
HETATM   15  C   UNL     1      -9.495  11.477  67.879  1.00  0.00    -0.178 A  
HETATM   16  C   UNL     1      -8.189  10.982  67.930  1.00  0.00    -0.119 A  
HETATM   17  C   UNL     1      -7.100  11.860  67.833  1.00  0.00    -0.093 A  
HETATM   18  O   UNL     1      -7.864   9.647  68.046  1.00  0.00    -0.087 OA 
HETATM   19  C   UNL     1      -7.310  13.233  67.660  1.00  0.00    -0.161 A  
HETATM   20  O   UNL     1     -10.969  13.362  67.641  1.00  0.00    -0.251 OA 
HETATM   21  C   UNL     1      -8.618  13.726  67.628  1.00  0.00    -0.187 A  
HETATM   22  H   UNL     1     -11.111  14.296  67.537  1.00  0.00     0.000 HD 
HETATM   23  C   UNL     1      -9.703  12.855  67.726  1.00  0.00    -0.214 A  
BRANCH  19  24
HETATM   24  O   UNL     1      -6.329  14.187  67.546  1.00  0.00    -0.289 OA 
BRANCH  24  25
HETATM   25  C   UNL     1      -6.443  15.337  68.393  1.00  0.00    -0.105 C  
HETATM   26  C   UNL     1      -6.222  17.705  68.425  1.00  0.00    -0.177 C  
HETATM   27  O   UNL     1      -5.926  16.494  67.711  1.00  0.00    -0.110 OA 
HETATM   28  C   UNL     1      -5.518  17.694  69.791  1.00  0.00    -0.217 C  
HETATM   29  H   UNL     1      -5.349  15.553  72.250  1.00  0.00     0.000 HD 
HETATM   30  O   UNL     1      -6.070  13.974  70.410  1.00  0.00    -0.158 OA 
HETATM   31  C   UNL     1      -5.876  16.413  70.558  1.00  0.00     0.034 C  
HETATM   32  O   UNL     1      -5.865  18.808  70.627  1.00  0.00    -0.180 OA 
HETATM   33  H   UNL     1      -5.581  13.860  71.217  1.00  0.00     0.000 HD 
HETATM   34  H   UNL     1      -5.430  18.801  71.471  1.00  0.00     0.000 HD 
HETATM   35  O   UNL     1      -5.128  16.346  71.776  1.00  0.00    -0.289 OA 
HETATM   36  C   UNL     1      -5.648  15.152  69.706  1.00  0.00    -0.109 C  
BRANCH  26  37
HETATM   37  C   UNL     1      -5.775  18.907  67.583  1.00  0.00    -0.184 C  
BRANCH  37  38
HETATM   38  O   UNL     1      -6.424  20.075  68.085  1.00  0.00    -0.245 OA 
BRANCH  38  39
HETATM   39  C   UNL     1      -7.831  20.068  67.823  1.00  0.00    -0.295 C  
HETATM   40  O   UNL     1      -8.483  19.356  68.875  1.00  0.00    -0.367 OA 
HETATM   41  C   UNL     1      -9.888  19.158  68.710  1.00  0.00    -0.439 C  
HETATM   42  C   UNL     1     -10.221  18.486  67.362  1.00  0.00    -0.373 C  
HETATM   43  C   UNL     1     -10.661  20.443  68.993  1.00  0.00     0.293 C  
HETATM   44  O   UNL     1      -9.743  17.131  67.380  1.00  0.00    -0.245 OA 
HETATM   45  C   UNL     1      -9.554  19.186  66.175  1.00  0.00    -0.280 C  
HETATM   46  O   UNL     1     -10.225  20.407  65.819  1.00  0.00    -0.528 OA 
HETATM   47  H   UNL     1      -9.948  16.717  66.549  1.00  0.00     0.000 HD 
HETATM   48  C   UNL     1      -8.061  19.427  66.437  1.00  0.00    -0.318 C  
HETATM   49  H   UNL     1      -9.811  20.841  65.083  1.00  0.00     0.000 HD 
HETATM   50  O   UNL     1      -7.522  20.259  65.393  1.00  0.00    -0.475 OA 
HETATM   51  H   UNL     1      -7.663  19.864  64.541  1.00  0.00     0.000 HD 
ENDBRANCH  38  39
ENDBRANCH  37  38
ENDBRANCH  26  37
ENDBRANCH  24  25
ENDBRANCH  19  24
ENDBRANCH   6  11
ENDBRANCH   2   3
TORSDOF 7
ENDMDL
MODEL      122
REMARK 921   NORMALIZED FREE ENERGY PREDICTED BY IDOCK:   -5.49 KCAL/MOL
REMARK 922        TOTAL FREE ENERGY PREDICTED BY IDOCK:   -9.01 KCAL/MOL
REMARK 923 INTER-LIGAND FREE ENERGY PREDICTED BY IDOCK:   -7.07 KCAL/MOL
REMARK 924 INTRA-LIGAND FREE ENERGY PREDICTED BY IDOCK:   -1.94 KCAL/MOL
REMARK 927      BINDING AFFINITY PREDICTED BY RF-SCORE:    0.00 PKD
ROOT
HETATM    1  C   UNL     1      -8.921  16.575  69.143  1.00  0.00    -0.171 C  
HETATM    2  O   UNL     1      -9.145  16.080  67.827  1.00  0.00    -0.195 OA 
ENDROOT
BRANCH   2   3
HETATM    3  C   UNL     1      -8.652  14.826  67.580  1.00  0.00    -0.174 A  
HETATM    4  C   UNL     1      -9.605  13.902  67.134  1.00  0.00    -0.247 A  
HETATM    5  C   UNL     1      -9.258  12.578  66.875  1.00  0.00    -0.211 A  
HETATM    6  C   UNL     1      -7.927  12.144  67.024  1.00  0.00    -0.138 A  
HETATM    7  C   UNL     1      -6.962  13.083  67.420  1.00  0.00    -0.123 A  
HETATM    8  H   UNL     1      -5.439  15.015  68.131  1.00  0.00     0.000 HD 
HETATM    9  O   UNL     1      -6.345  15.294  68.059  1.00  0.00    -0.117 OA 
HETATM   10  C   UNL     1      -7.320  14.416  67.686  1.00  0.00    -0.180 A  
BRANCH   6  11
HETATM   11  C   UNL     1      -7.606  10.661  66.916  1.00  0.00    -0.115 C  
HETATM   12  C   UNL     1      -8.454  10.065  65.805  1.00  0.00    -0.145 C  
HETATM   13  O   UNL     1      -7.899   8.152  64.521  1.00  0.00    -0.123 OA 
HETATM   14  C   UNL     1      -8.036   8.633  65.644  1.00  0.00    -0.110 C  
HETATM   15  C   UNL     1      -7.818   7.887  66.896  1.00  0.00    -0.104 A  
HETATM   16  C   UNL     1      -7.751   8.620  68.084  1.00  0.00    -0.102 A  
HETATM   17  C   UNL     1      -7.585   7.959  69.309  1.00  0.00    -0.097 A  
HETATM   18  O   UNL     1      -7.866   9.992  68.162  1.00  0.00    -0.088 OA 
HETATM   19  C   UNL     1      -7.508   6.563  69.357  1.00  0.00    -0.094 A  
HETATM   20  O   UNL     1      -7.816   5.746  65.801  1.00  0.00    -0.096 OA 
HETATM   21  C   UNL     1      -7.558   5.834  68.165  1.00  0.00    -0.085 A  
HETATM   22  H   UNL     1      -7.751   4.798  65.833  1.00  0.00     0.000 HD 
HETATM   23  C   UNL     1      -7.722   6.489  66.944  1.00  0.00    -0.100 A  
BRANCH  19  24
HETATM   24  O   UNL     1      -7.353   5.806  70.492  1.00  0.00    -0.078 OA 
BRANCH  24  25
HETATM   25  C   UNL     1      -8.547   5.289  71.092  1.00  0.00    -0.124 C  
HETATM   26  C   UNL     1     -10.337   5.850  72.556  1.00  0.00    -0.196 C  
HETATM   27  O   UNL     1      -9.028   6.212  72.086  1.00  0.00    -0.142 OA 
HETATM   28  C   UNL     1     -10.282   4.487  73.263  1.00  0.00    -0.169 C  
HETATM   29  H   UNL     1      -9.077   1.557  72.475  1.00  0.00     0.000 HD 
HETATM   30  O   UNL     1      -7.747   2.972  70.854  1.00  0.00    -0.042 OA 
HETATM   31  C   UNL     1      -9.637   3.441  72.343  1.00  0.00    -0.133 C  
HETATM   32  O   UNL     1     -11.571   3.986  73.648  1.00  0.00    -0.182 OA 
HETATM   33  H   UNL     1      -7.590   2.135  71.275  1.00  0.00     0.000 HD 
HETATM   34  H   UNL     1     -11.537   3.144  74.085  1.00  0.00     0.000 HD 
HETATM   35  O   UNL     1      -9.477   2.204  73.045  1.00  0.00    -0.079 OA 
HETATM   36  C   UNL     1      -8.291   3.928  71.778  1.00  0.00    -0.082 C  
BRANCH  26  37
HETATM   37  C   UNL     1     -10.852   6.942  73.501  1.00  0.00    -0.236 C  
BRANCH  37  38
HETATM   38  O   UNL     1     -10.446   8.211  72.986  1.00  0.00    -0.325 OA 
BRANCH  38  39
HETATM   39  C   UNL     1     -11.205   8.597  71.835  1.00  0.00    -0.343 C  
HETATM   40  O   UNL     1     -10.307   9.127  70.860  1.00  0.00    -0.233 OA 
HETATM   41  C   UNL     1     -10.918   9.667  69.686  1.00  0.00    -0.229 C  
HETATM   42  C   UNL     1     -11.981  10.731  70.026  1.00  0.00    -0.347 C  
HETATM   43  C   UNL     1     -11.398   8.555  68.757  1.00  0.00     0.656 C  
HETATM   44  O   UNL     1     -11.329  11.892  70.567  1.00  0.00    -0.363 OA 
HETATM   45  C   UNL     1     -12.985  10.245  71.075  1.00  0.00    -0.397 C  
HETATM   46  O   UNL     1     -13.956   9.343  70.518  1.00  0.00    -0.383 OA 
HETATM   47  H   UNL     1     -11.984  12.548  70.777  1.00  0.00     0.000 HD 
HETATM   48  C   UNL     1     -12.273   9.620  72.282  1.00  0.00     0.011 C  
HETATM   49  H   UNL     1     -14.579   9.042  71.168  1.00  0.00     0.000 HD 
HETATM   50  O   UNL     1     -13.246   9.001  73.142  1.00  0.00    -0.836 OA 
HETATM   51  H   UNL     1     -13.902   9.631  73.417  1.00  0.00     0.000 HD 
ENDBRANCH  38  39
ENDBRANCH  37  38
ENDBRANCH  26  37
ENDBRANCH  24  25
ENDBRANCH  19  24
ENDBRANCH   6  11
ENDBRANCH   2   3
TORSDOF 7
ENDMDL
MODEL      123
REMARK 921   NORMALIZED FREE ENERGY PREDICTED BY IDOCK:   -5.46 KCAL/MOL
REMARK 922        TOTAL FREE ENERGY PREDICTED BY IDOCK:   -8.97 KCAL/MOL
REMARK 923 INTER-LIGAND FREE ENERGY PREDICTED BY IDOCK:   -8.39 KCAL/MOL
REMARK 924 INTRA-LIGAND FREE ENERGY PREDICTED BY IDOCK:   -0.58 KCAL/MOL
REMARK 927      BINDING AFFINITY PREDICTED BY RF-SCORE:    0.00 PKD
ROOT
HETATM    1  C   UNL     1      -8.203   1.557  63.995  1.00  0.00    -0.065 C  
HETATM    2  O   UNL     1      -6.983   2.266  64.189  1.00  0.00    -0.038 OA 
ENDROOT
BRANCH   2   3
HETATM    3  C   UNL     1      -7.071   3.376  64.987  1.00  0.00    -0.065 A  
HETATM    4  C   UNL     1      -6.837   3.136  66.347  1.00  0.00    -0.053 A  
HETATM    5  C   UNL     1      -6.925   4.162  67.284  1.00  0.00    -0.059 A  
HETATM    6  C   UNL     1      -7.220   5.478  66.879  1.00  0.00    -0.078 A  
HETATM    7  C   UNL     1      -7.402   5.729  65.511  1.00  0.00    -0.076 A  
HETATM    8  H   UNL     1      -7.661   5.873  62.967  1.00  0.00     0.000 HD 
HETATM    9  O   UNL     1      -7.493   4.981  63.250  1.00  0.00    -0.051 OA 
HETATM   10  C   UNL     1      -7.318   4.687  64.571  1.00  0.00    -0.070 A  
BRANCH   6  11
HETATM   11  C   UNL     1      -7.493   6.541  67.932  1.00  0.00    -0.094 C  
HETATM   12  C   UNL     1      -6.723   6.181  69.192  1.00  0.00    -0.060 C  
HETATM   13  O   UNL     1      -5.969   7.713  70.835  1.00  0.00    -0.034 OA 
HETATM   14  C   UNL     1      -6.918   7.301  70.171  1.00  0.00    -0.060 C  
HETATM   15  C   UNL     1      -8.288   7.838  70.263  1.00  0.00    -0.127 A  
HETATM   16  C   UNL     1      -9.199   7.462  69.272  1.00  0.00    -0.147 A  
HETATM   17  C   UNL     1     -10.526   7.910  69.331  1.00  0.00    -0.222 A  
HETATM   18  O   UNL     1      -8.900   6.633  68.211  1.00  0.00    -0.125 OA 
HETATM   19  C   UNL     1     -10.956   8.715  70.392  1.00  0.00    -0.235 A  
HETATM   20  O   UNL     1      -7.854   9.016  72.314  1.00  0.00    -0.353 OA 
HETATM   21  C   UNL     1     -10.037   9.104  71.372  1.00  0.00    -0.392 A  
HETATM   22  H   UNL     1      -8.143   9.574  73.027  1.00  0.00     0.000 HD 
HETATM   23  C   UNL     1      -8.716   8.660  71.314  1.00  0.00    -0.194 A  
BRANCH  19  24
HETATM   24  O   UNL     1     -12.226   9.208  70.562  1.00  0.00    -0.093 OA 
BRANCH  24  25
HETATM   25  C   UNL     1     -12.463  10.551  70.122  1.00  0.00    -0.226 C  
HETATM   26  C   UNL     1     -11.651  12.247  68.666  1.00  0.00    -0.323 C  
HETATM   27  O   UNL     1     -11.361  10.997  69.313  1.00  0.00    -0.232 OA 
HETATM   28  C   UNL     1     -11.852  13.349  69.718  1.00  0.00    -0.326 C  
HETATM   29  H   UNL     1     -13.666  13.616  72.420  1.00  0.00     0.000 HD 
HETATM   30  O   UNL     1     -13.658  11.096  72.206  1.00  0.00    -0.543 OA 
HETATM   31  C   UNL     1     -12.910  12.914  70.741  1.00  0.00    -0.050 C  
HETATM   32  O   UNL     1     -12.276  14.603  69.165  1.00  0.00    -0.501 OA 
HETATM   33  H   UNL     1     -13.748  11.691  72.941  1.00  0.00     0.000 HD 
HETATM   34  H   UNL     1     -12.400  15.284  69.815  1.00  0.00     0.000 HD 
HETATM   35  O   UNL     1     -13.010  13.886  71.786  1.00  0.00    -0.329 OA 
HETATM   36  C   UNL     1     -12.611  11.519  71.318  1.00  0.00    -0.347 C  
BRANCH  26  37
HETATM   37  C   UNL     1     -10.503  12.598  67.711  1.00  0.00    -0.221 C  
BRANCH  37  38
HETATM   38  O   UNL     1     -10.946  12.376  66.373  1.00  0.00    -0.257 OA 
BRANCH  38  39
HETATM   39  C   UNL     1      -9.902  11.876  65.531  1.00  0.00    -0.232 C  
HETATM   40  O   UNL     1     -10.493  11.092  64.494  1.00  0.00    -0.318 OA 
HETATM   41  C   UNL     1      -9.577  10.423  63.626  1.00  0.00    -0.310 C  
HETATM   42  C   UNL     1      -8.573   9.552  64.408  1.00  0.00    -0.195 C  
HETATM   43  C   UNL     1      -8.945  11.399  62.637  1.00  0.00    -0.211 C  
HETATM   44  O   UNL     1      -9.271   8.441  64.996  1.00  0.00    -0.402 OA 
HETATM   45  C   UNL     1      -7.894  10.316  65.548  1.00  0.00    -0.152 C  
HETATM   46  O   UNL     1      -6.870  11.203  65.070  1.00  0.00    -0.194 OA 
HETATM   47  H   UNL     1      -8.652   7.905  65.478  1.00  0.00     0.000 HD 
HETATM   48  C   UNL     1      -8.923  11.064  66.407  1.00  0.00    -0.181 C  
HETATM   49  H   UNL     1      -6.448  11.677  65.777  1.00  0.00     0.000 HD 
HETATM   50  O   UNL     1      -8.234  11.922  67.335  1.00  0.00    -0.147 OA 
HETATM   51  H   UNL     1      -7.633  11.423  67.874  1.00  0.00     0.000 HD 
ENDBRANCH  38  39
ENDBRANCH  37  38
ENDBRANCH  26  37
ENDBRANCH  24  25
ENDBRANCH  19  24
ENDBRANCH   6  11
ENDBRANCH   2   3
TORSDOF 7
ENDMDL
MODEL      124
REMARK 921   NORMALIZED FREE ENERGY PREDICTED BY IDOCK:   -5.45 KCAL/MOL
REMARK 922        TOTAL FREE ENERGY PREDICTED BY IDOCK:   -8.96 KCAL/MOL
REMARK 923 INTER-LIGAND FREE ENERGY PREDICTED BY IDOCK:   -9.07 KCAL/MOL
REMARK 924 INTRA-LIGAND FREE ENERGY PREDICTED BY IDOCK:    0.11 KCAL/MOL
REMARK 927      BINDING AFFINITY PREDICTED BY RF-SCORE:    0.00 PKD
ROOT
HETATM    1  C   UNL     1      -7.339   7.185  73.454  1.00  0.00    -0.072 C  
HETATM    2  O   UNL     1      -6.511   7.942  72.577  1.00  0.00    -0.059 OA 
ENDROOT
BRANCH   2   3
HETATM    3  C   UNL     1      -6.969   8.055  71.291  1.00  0.00    -0.056 A  
HETATM    4  C   UNL     1      -7.086   9.372  70.827  1.00  0.00    -0.119 A  
HETATM    5  C   UNL     1      -7.571   9.645  69.551  1.00  0.00    -0.104 A  
HETATM    6  C   UNL     1      -7.925   8.597  68.679  1.00  0.00    -0.115 A  
HETATM    7  C   UNL     1      -7.758   7.277  69.124  1.00  0.00    -0.108 A  
HETATM    8  H   UNL     1      -7.327   4.996  70.206  1.00  0.00     0.000 HD 
HETATM    9  O   UNL     1      -7.120   5.708  70.801  1.00  0.00    -0.065 OA 
HETATM   10  C   UNL     1      -7.274   7.009  70.417  1.00  0.00    -0.075 A  
BRANCH   6  11
HETATM   11  C   UNL     1      -8.622   8.918  67.366  1.00  0.00    -0.119 C  
HETATM   12  C   UNL     1      -7.767   8.394  66.225  1.00  0.00    -0.094 C  
HETATM   13  O   UNL     1      -8.561   7.750  64.088  1.00  0.00     0.117 OA 
HETATM   14  C   UNL     1      -8.530   8.622  64.954  1.00  0.00    -0.161 C  
HETATM   15  C   UNL     1      -9.206   9.927  64.839  1.00  0.00    -0.301 A  
HETATM   16  C   UNL     1      -9.308  10.707  65.994  1.00  0.00    -0.186 A  
HETATM   17  C   UNL     1      -9.906  11.973  65.936  1.00  0.00    -0.259 A  
HETATM   18  O   UNL     1      -8.828  10.335  67.232  1.00  0.00    -0.132 OA 
HETATM   19  C   UNL     1     -10.383  12.477  64.721  1.00  0.00    -0.307 A  
HETATM   20  O   UNL     1      -9.587   9.696  62.476  1.00  0.00    -0.561 OA 
HETATM   21  C   UNL     1     -10.295  11.686  63.571  1.00  0.00    -0.488 A  
HETATM   22  H   UNL     1      -9.923  10.033  61.654  1.00  0.00     0.000 HD 
HETATM   23  C   UNL     1      -9.702  10.425  63.627  1.00  0.00    -0.277 A  
BRANCH  19  24
HETATM   24  O   UNL     1     -10.979  13.700  64.537  1.00  0.00    -0.375 OA 
BRANCH  24  25
HETATM   25  C   UNL     1     -10.240  14.850  64.969  1.00  0.00    -0.330 C  
HETATM   26  C   UNL     1      -8.756  15.636  66.654  1.00  0.00    -0.298 C  
HETATM   27  O   UNL     1      -9.686  14.608  66.274  1.00  0.00    -0.276 OA 
HETATM   28  C   UNL     1      -9.483  16.985  66.768  1.00  0.00    -0.258 C  
HETATM   29  H   UNL     1     -11.495  18.661  64.819  1.00  0.00     0.000 HD 
HETATM   30  O   UNL     1     -11.782  16.368  63.791  1.00  0.00    -1.553 OA 
HETATM   31  C   UNL     1     -10.248  17.282  65.471  1.00  0.00    -0.022 C  
HETATM   32  O   UNL     1      -8.605  18.093  67.014  1.00  0.00    -0.242 OA 
HETATM   33  H   UNL     1     -12.337  17.138  63.841  1.00  0.00     0.000 HD 
HETATM   34  H   UNL     1      -9.054  18.927  67.085  1.00  0.00     0.000 HD 
HETATM   35  O   UNL     1     -11.021  18.478  65.622  1.00  0.00    -0.231 OA 
HETATM   36  C   UNL     1     -11.143  16.103  65.050  1.00  0.00    -0.294 C  
BRANCH  26  37
HETATM   37  C   UNL     1      -8.096  15.250  67.983  1.00  0.00    -0.137 C  
BRANCH  37  38
HETATM   38  O   UNL     1      -8.796  15.904  69.041  1.00  0.00    -0.212 OA 
BRANCH  38  39
HETATM   39  C   UNL     1      -9.982  15.200  69.423  1.00  0.00    -0.228 C  
HETATM   40  O   UNL     1      -9.992  13.937  68.756  1.00  0.00    -0.213 OA 
HETATM   41  C   UNL     1     -11.169  13.149  68.940  1.00  0.00    -0.277 C  
HETATM   42  C   UNL     1     -12.448  13.928  68.569  1.00  0.00     0.268 C  
HETATM   43  C   UNL     1     -11.189  12.508  70.325  1.00  0.00     0.581 C  
HETATM   44  O   UNL     1     -12.471  14.146  67.148  1.00  0.00    -0.566 OA 
HETATM   45  C   UNL     1     -12.516  15.302  69.240  1.00  0.00     0.020 C  
HETATM   46  O   UNL     1     -12.882  15.211  70.626  1.00  0.00    -0.400 OA 
HETATM   47  H   UNL     1     -13.259  14.626  66.920  1.00  0.00     0.000 HD 
HETATM   48  C   UNL     1     -11.202  16.075  69.061  1.00  0.00    -0.347 C  
HETATM   49  H   UNL     1     -12.924  16.063  71.043  1.00  0.00     0.000 HD 
HETATM   50  O   UNL     1     -11.235  17.265  69.870  1.00  0.00    -0.133 OA 
HETATM   51  H   UNL     1     -11.985  17.804  69.646  1.00  0.00     0.000 HD 
ENDBRANCH  38  39
ENDBRANCH  37  38
ENDBRANCH  26  37
ENDBRANCH  24  25
ENDBRANCH  19  24
ENDBRANCH   6  11
ENDBRANCH   2   3
TORSDOF 7
ENDMDL
MODEL      125
REMARK 921   NORMALIZED FREE ENERGY PREDICTED BY IDOCK:   -5.42 KCAL/MOL
REMARK 922        TOTAL FREE ENERGY PREDICTED BY IDOCK:   -8.92 KCAL/MOL
REMARK 923 INTER-LIGAND FREE ENERGY PREDICTED BY IDOCK:   -9.17 KCAL/MOL
REMARK 924 INTRA-LIGAND FREE ENERGY PREDICTED BY IDOCK:    0.25 KCAL/MOL
REMARK 927      BINDING AFFINITY PREDICTED BY RF-SCORE:    0.00 PKD
ROOT
HETATM    1  C   UNL     1      -7.826   5.698  67.559  1.00  0.00    -0.101 C  
HETATM    2  O   UNL     1      -7.278   6.874  66.971  1.00  0.00    -0.080 OA 
ENDROOT
BRANCH   2   3
HETATM    3  C   UNL     1      -8.166   7.896  66.766  1.00  0.00    -0.116 A  
HETATM    4  C   UNL     1      -7.814   8.777  65.735  1.00  0.00    -0.099 A  
HETATM    5  C   UNL     1      -8.602   9.884  65.433  1.00  0.00    -0.164 A  
HETATM    6  C   UNL     1      -9.797  10.126  66.139  1.00  0.00    -0.297 A  
HETATM    7  C   UNL     1     -10.177   9.215  67.136  1.00  0.00    -0.329 A  
HETATM    8  H   UNL     1     -10.610   7.381  68.869  1.00  0.00     0.000 HD 
HETATM    9  O   UNL     1      -9.789   7.240  68.411  1.00  0.00    -0.149 OA 
HETATM   10  C   UNL     1      -9.372   8.103  67.440  1.00  0.00    -0.141 A  
BRANCH   6  11
HETATM   11  C   UNL     1     -10.543  11.433  65.921  1.00  0.00    -0.263 C  
HETATM   12  C   UNL     1     -11.358  11.316  64.644  1.00  0.00    -0.066 C  
HETATM   13  O   UNL     1     -13.345  12.513  64.159  1.00  0.00    -0.543 OA 
HETATM   14  C   UNL     1     -12.169  12.571  64.514  1.00  0.00    -0.453 C  
HETATM   15  C   UNL     1     -11.462  13.825  64.834  1.00  0.00    -0.351 A  
HETATM   16  C   UNL     1     -10.223  13.725  65.473  1.00  0.00    -0.316 A  
HETATM   17  C   UNL     1      -9.488  14.882  65.764  1.00  0.00    -0.237 A  
HETATM   18  O   UNL     1      -9.624  12.536  65.832  1.00  0.00    -0.240 OA 
HETATM   19  C   UNL     1      -9.974  16.142  65.399  1.00  0.00    -0.106 A  
HETATM   20  O   UNL     1     -13.150  15.213  63.832  1.00  0.00    -0.327 OA 
HETATM   21  C   UNL     1     -11.222  16.239  64.776  1.00  0.00    -0.267 A  
HETATM   22  H   UNL     1     -13.485  16.071  63.595  1.00  0.00     0.000 HD 
HETATM   23  C   UNL     1     -11.956  15.089  64.486  1.00  0.00    -0.371 A  
BRANCH  19  24
HETATM   24  O   UNL     1      -9.344  17.341  65.623  1.00  0.00    -0.506 OA 
BRANCH  24  25
HETATM   25  C   UNL     1      -8.169  17.311  66.443  1.00  0.00    -0.282 C  
HETATM   26  C   UNL     1      -7.311  16.505  68.510  1.00  0.00    -0.186 C  
HETATM   27  O   UNL     1      -8.492  16.764  67.733  1.00  0.00    -0.189 OA 
HETATM   28  C   UNL     1      -6.577  17.823  68.803  1.00  0.00    -0.227 C  
HETATM   29  H   UNL     1      -5.573  20.329  66.967  1.00  0.00     0.000 HD 
HETATM   30  O   UNL     1      -7.301  19.364  65.393  1.00  0.00    -0.432 OA 
HETATM   31  C   UNL     1      -6.311  18.580  67.494  1.00  0.00    -0.194 C  
HETATM   32  O   UNL     1      -5.314  17.644  69.461  1.00  0.00    -0.178 OA 
HETATM   33  H   UNL     1      -6.944  20.235  65.520  1.00  0.00     0.000 HD 
HETATM   34  H   UNL     1      -4.860  18.458  69.643  1.00  0.00     0.000 HD 
HETATM   35  O   UNL     1      -5.737  19.860  67.778  1.00  0.00    -0.193 OA 
HETATM   36  C   UNL     1      -7.589  18.729  66.649  1.00  0.00    -0.244 C  
BRANCH  26  37
HETATM   37  C   UNL     1      -7.709  15.793  69.809  1.00  0.00     0.073 C  
BRANCH  37  38
HETATM   38  O   UNL     1      -6.591  15.033  70.267  1.00  0.00    -0.153 OA 
BRANCH  38  39
HETATM   39  C   UNL     1      -6.705  13.645  69.933  1.00  0.00     0.113 C  
HETATM   40  O   UNL     1      -5.417  13.167  69.542  1.00  0.00    -0.077 OA 
HETATM   41  C   UNL     1      -5.376  11.821  69.066  1.00  0.00    -0.050 C  
HETATM   42  C   UNL     1      -6.374  11.585  67.915  1.00  0.00    -0.056 C  
HETATM   43  C   UNL     1      -5.482  10.828  70.220  1.00  0.00    -0.074 C  
HETATM   44  O   UNL     1      -5.934  12.310  66.754  1.00  0.00    -0.453 OA 
HETATM   45  C   UNL     1      -7.785  12.076  68.249  1.00  0.00    -0.127 C  
HETATM   46  O   UNL     1      -8.476  11.179  69.133  1.00  0.00    -0.345 OA 
HETATM   47  H   UNL     1      -6.550  12.165  66.044  1.00  0.00     0.000 HD 
HETATM   48  C   UNL     1      -7.759  13.504  68.813  1.00  0.00    -0.044 C  
HETATM   49  H   UNL     1      -9.351  11.483  69.341  1.00  0.00     0.000 HD 
HETATM   50  O   UNL     1      -9.070  13.849  69.297  1.00  0.00    -0.330 OA 
HETATM   51  H   UNL     1      -9.717  13.762  68.608  1.00  0.00     0.000 HD 
ENDBRANCH  38  39
ENDBRANCH  37  38
ENDBRANCH  26  37
ENDBRANCH  24  25
ENDBRANCH  19  24
ENDBRANCH   6  11
ENDBRANCH   2   3
TORSDOF 7
ENDMDL
MODEL      126
REMARK 921   NORMALIZED FREE ENERGY PREDICTED BY IDOCK:   -5.38 KCAL/MOL
REMARK 922        TOTAL FREE ENERGY PREDICTED BY IDOCK:   -8.86 KCAL/MOL
REMARK 923 INTER-LIGAND FREE ENERGY PREDICTED BY IDOCK:   -7.66 KCAL/MOL
REMARK 924 INTRA-LIGAND FREE ENERGY PREDICTED BY IDOCK:   -1.20 KCAL/MOL
REMARK 927      BINDING AFFINITY PREDICTED BY RF-SCORE:    0.00 PKD
ROOT
HETATM    1  C   UNL     1     -10.765   4.565  73.447  1.00  0.00    -0.248 C  
HETATM    2  O   UNL     1      -9.457   5.110  73.587  1.00  0.00    -0.132 OA 
ENDROOT
BRANCH   2   3
HETATM    3  C   UNL     1      -9.055   5.936  72.572  1.00  0.00    -0.135 A  
HETATM    4  C   UNL     1      -9.026   7.297  72.904  1.00  0.00    -0.168 A  
HETATM    5  C   UNL     1      -8.670   8.260  71.965  1.00  0.00    -0.243 A  
HETATM    6  C   UNL     1      -8.296   7.884  70.660  1.00  0.00    -0.123 A  
HETATM    7  C   UNL     1      -8.274   6.518  70.342  1.00  0.00    -0.125 A  
HETATM    8  H   UNL     1      -8.312   3.972  70.072  1.00  0.00     0.000 HD 
HETATM    9  O   UNL     1      -8.595   4.234  70.941  1.00  0.00    -0.081 OA 
HETATM   10  C   UNL     1      -8.641   5.551  71.294  1.00  0.00    -0.127 A  
BRANCH   6  11
HETATM   11  C   UNL     1      -8.092   8.957  69.601  1.00  0.00    -0.104 C  
HETATM   12  C   UNL     1      -7.140   8.418  68.546  1.00  0.00    -0.076 C  
HETATM   13  O   UNL     1      -7.059   9.105  66.280  1.00  0.00    -0.085 OA 
HETATM   14  C   UNL     1      -7.047   9.449  67.460  1.00  0.00    -0.078 C  
HETATM   15  C   UNL     1      -6.940  10.847  67.914  1.00  0.00    -0.073 A  
HETATM   16  C   UNL     1      -7.203  11.113  69.261  1.00  0.00    -0.112 A  
HETATM   17  C   UNL     1      -7.078  12.418  69.757  1.00  0.00     0.500 A  
HETATM   18  O   UNL     1      -7.564  10.158  70.189  1.00  0.00    -0.167 OA 
HETATM   19  C   UNL     1      -6.668  13.459  68.918  1.00  0.00    -0.110 A  
HETATM   20  O   UNL     1      -6.254  11.658  65.757  1.00  0.00    -0.378 OA 
HETATM   21  C   UNL     1      -6.424  13.193  67.567  1.00  0.00    -0.154 A  
HETATM   22  H   UNL     1      -5.988  12.369  65.185  1.00  0.00     0.000 HD 
HETATM   23  C   UNL     1      -6.548  11.895  67.070  1.00  0.00    -0.128 A  
BRANCH  19  24
HETATM   24  O   UNL     1      -6.504  14.771  69.288  1.00  0.00    -0.105 OA 
BRANCH  24  25
HETATM   25  C   UNL     1      -7.521  15.692  68.874  1.00  0.00    -0.162 C  
HETATM   26  C   UNL     1      -9.787  15.832  68.165  1.00  0.00    -0.209 C  
HETATM   27  O   UNL     1      -8.660  14.966  68.380  1.00  0.00    -0.147 OA 
HETATM   28  C   UNL     1      -9.458  16.859  67.071  1.00  0.00    -0.244 C  
HETATM   29  H   UNL     1      -6.984  18.927  66.557  1.00  0.00     0.000 HD 
HETATM   30  O   UNL     1      -5.835  17.338  68.154  1.00  0.00    -0.122 OA 
HETATM   31  C   UNL     1      -8.159  17.600  67.418  1.00  0.00    -0.207 C  
HETATM   32  O   UNL     1     -10.481  17.849  66.884  1.00  0.00    -0.356 OA 
HETATM   33  H   UNL     1      -5.524  17.911  67.464  1.00  0.00     0.000 HD 
HETATM   34  H   UNL     1     -10.277  18.484  66.208  1.00  0.00     0.000 HD 
HETATM   35  O   UNL     1      -7.789  18.469  66.343  1.00  0.00    -0.255 OA 
HETATM   36  C   UNL     1      -7.015  16.625  67.750  1.00  0.00    -0.136 C  
BRANCH  26  37
HETATM   37  C   UNL     1     -11.005  14.984  67.778  1.00  0.00    -0.298 C  
BRANCH  37  38
HETATM   38  O   UNL     1     -10.700  13.613  68.033  1.00  0.00    -0.238 OA 
BRANCH  38  39
HETATM   39  C   UNL     1     -10.953  12.780  66.897  1.00  0.00    -0.260 C  
HETATM   40  O   UNL     1      -9.703  12.302  66.400  1.00  0.00    -0.224 OA 
HETATM   41  C   UNL     1      -9.767  11.542  65.192  1.00  0.00    -0.237 C  
HETATM   42  C   UNL     1     -10.500  12.305  64.069  1.00  0.00    -0.399 C  
HETATM   43  C   UNL     1     -10.291  10.134  65.457  1.00  0.00    -0.196 C  
HETATM   44  O   UNL     1      -9.697  13.424  63.658  1.00  0.00    -0.263 OA 
HETATM   45  C   UNL     1     -11.853  12.859  64.521  1.00  0.00    -0.375 C  
HETATM   46  O   UNL     1     -12.862  11.838  64.589  1.00  0.00    -0.184 OA 
HETATM   47  H   UNL     1     -10.148  13.894  62.967  1.00  0.00     0.000 HD 
HETATM   48  C   UNL     1     -11.731  13.611  65.853  1.00  0.00    -0.354 C  
HETATM   49  H   UNL     1     -13.702  12.181  64.869  1.00  0.00     0.000 HD 
HETATM   50  O   UNL     1     -13.046  13.939  66.338  1.00  0.00    -0.340 OA 
HETATM   51  H   UNL     1     -13.524  14.450  65.696  1.00  0.00     0.000 HD 
ENDBRANCH  38  39
ENDBRANCH  37  38
ENDBRANCH  26  37
ENDBRANCH  24  25
ENDBRANCH  19  24
ENDBRANCH   6  11
ENDBRANCH   2   3
TORSDOF 7
ENDMDL
MODEL      127
REMARK 921   NORMALIZED FREE ENERGY PREDICTED BY IDOCK:   -5.33 KCAL/MOL
REMARK 922        TOTAL FREE ENERGY PREDICTED BY IDOCK:   -8.79 KCAL/MOL
REMARK 923 INTER-LIGAND FREE ENERGY PREDICTED BY IDOCK:   -7.61 KCAL/MOL
REMARK 924 INTRA-LIGAND FREE ENERGY PREDICTED BY IDOCK:   -1.18 KCAL/MOL
REMARK 927      BINDING AFFINITY PREDICTED BY RF-SCORE:    0.00 PKD
ROOT
HETATM    1  C   UNL     1      -9.263   2.278  62.900  1.00  0.00    -0.091 C  
HETATM    2  O   UNL     1      -8.237   1.877  63.802  1.00  0.00    -0.075 OA 
ENDROOT
BRANCH   2   3
HETATM    3  C   UNL     1      -8.192   2.570  64.983  1.00  0.00    -0.087 A  
HETATM    4  C   UNL     1      -8.874   1.961  66.043  1.00  0.00    -0.121 A  
HETATM    5  C   UNL     1      -8.944   2.565  67.296  1.00  0.00    -0.182 A  
HETATM    6  C   UNL     1      -8.298   3.793  67.536  1.00  0.00    -0.097 A  
HETATM    7  C   UNL     1      -7.570   4.378  66.489  1.00  0.00    -0.086 A  
HETATM    8  H   UNL     1      -6.316   5.180  64.405  1.00  0.00     0.000 HD 
HETATM    9  O   UNL     1      -6.781   4.367  64.240  1.00  0.00    -0.042 OA 
HETATM   10  C   UNL     1      -7.509   3.765  65.225  1.00  0.00    -0.077 A  
BRANCH   6  11
HETATM   11  C   UNL     1      -8.541   4.522  68.849  1.00  0.00    -0.084 C  
HETATM   12  C   UNL     1      -8.204   3.580  69.992  1.00  0.00    -0.071 C  
HETATM   13  O   UNL     1      -7.504   4.235  72.160  1.00  0.00    -0.070 OA 
HETATM   14  C   UNL     1      -8.341   4.358  71.268  1.00  0.00    -0.094 C  
HETATM   15  C   UNL     1      -9.518   5.242  71.353  1.00  0.00    -0.194 A  
HETATM   16  C   UNL     1     -10.233   5.485  70.177  1.00  0.00    -0.263 A  
HETATM   17  C   UNL     1     -11.383   6.285  70.206  1.00  0.00    -0.457 A  
HETATM   18  O   UNL     1      -9.907   4.961  68.943  1.00  0.00    -0.162 OA 
HETATM   19  C   UNL     1     -11.838   6.828  71.413  1.00  0.00    -0.338 A  
HETATM   20  O   UNL     1      -9.303   5.556  73.727  1.00  0.00    -0.136 OA 
HETATM   21  C   UNL     1     -11.111   6.598  72.584  1.00  0.00    -0.291 A  
HETATM   22  H   UNL     1      -9.605   5.936  74.544  1.00  0.00     0.000 HD 
HETATM   23  C   UNL     1      -9.965   5.803  72.557  1.00  0.00    -0.170 A  
BRANCH  19  24
HETATM   24  O   UNL     1     -12.950   7.618  71.568  1.00  0.00    -0.336 OA 
BRANCH  24  25
HETATM   25  C   UNL     1     -12.900   8.927  70.987  1.00  0.00    -0.028 C  
HETATM   26  C   UNL     1     -11.575  10.352  69.618  1.00  0.00    -0.239 C  
HETATM   27  O   UNL     1     -11.603   9.150  70.405  1.00  0.00    -0.242 OA 
HETATM   28  C   UNL     1     -11.830  11.573  70.516  1.00  0.00    -0.267 C  
HETATM   29  H   UNL     1     -14.103  12.338  72.731  1.00  0.00     0.000 HD 
HETATM   30  O   UNL     1     -14.407   9.827  72.715  1.00  0.00    -0.627 OA 
HETATM   31  C   UNL     1     -13.126  11.378  71.314  1.00  0.00    -0.200 C  
HETATM   32  O   UNL     1     -11.950  12.805  69.790  1.00  0.00    -0.314 OA 
HETATM   33  H   UNL     1     -14.562  10.502  73.366  1.00  0.00     0.000 HD 
HETATM   34  H   UNL     1     -12.108  13.560  70.345  1.00  0.00     0.000 HD 
HETATM   35  O   UNL     1     -13.300  12.459  72.237  1.00  0.00    -0.522 OA 
HETATM   36  C   UNL     1     -13.152  10.025  72.046  1.00  0.00    -0.441 C  
BRANCH  26  37
HETATM   37  C   UNL     1     -10.218  10.459  68.912  1.00  0.00    -0.205 C  
BRANCH  37  38
HETATM   38  O   UNL     1      -9.448   9.302  69.239  1.00  0.00    -0.153 OA 
BRANCH  38  39
HETATM   39  C   UNL     1      -8.053   9.487  68.977  1.00  0.00    -0.101 C  
HETATM   40  O   UNL     1      -7.398   9.783  70.211  1.00  0.00    -0.130 OA 
HETATM   41  C   UNL     1      -6.010  10.109  70.112  1.00  0.00    -0.066 C  
HETATM   42  C   UNL     1      -5.758  11.260  69.117  1.00  0.00    -0.041 C  
HETATM   43  C   UNL     1      -5.169   8.858  69.872  1.00  0.00    -0.029 C  
HETATM   44  O   UNL     1      -6.298  12.477  69.658  1.00  0.00    -0.145 OA 
HETATM   45  C   UNL     1      -6.433  11.026  67.763  1.00  0.00    -0.063 C  
HETATM   46  O   UNL     1      -5.720  10.073  66.959  1.00  0.00    -0.046 OA 
HETATM   47  H   UNL     1      -6.142  13.186  69.044  1.00  0.00     0.000 HD 
HETATM   48  C   UNL     1      -7.903  10.619  67.936  1.00  0.00    -0.105 C  
HETATM   49  H   UNL     1      -6.139   9.927  66.119  1.00  0.00     0.000 HD 
HETATM   50  O   UNL     1      -8.440  10.217  66.663  1.00  0.00    -0.123 OA 
HETATM   51  H   UNL     1      -8.348  10.913  66.024  1.00  0.00     0.000 HD 
ENDBRANCH  38  39
ENDBRANCH  37  38
ENDBRANCH  26  37
ENDBRANCH  24  25
ENDBRANCH  19  24
ENDBRANCH   6  11
ENDBRANCH   2   3
TORSDOF 7
ENDMDL
MODEL      128
REMARK 921   NORMALIZED FREE ENERGY PREDICTED BY IDOCK:   -5.23 KCAL/MOL
REMARK 922        TOTAL FREE ENERGY PREDICTED BY IDOCK:   -8.65 KCAL/MOL
REMARK 923 INTER-LIGAND FREE ENERGY PREDICTED BY IDOCK:   -7.00 KCAL/MOL
REMARK 924 INTRA-LIGAND FREE ENERGY PREDICTED BY IDOCK:   -1.65 KCAL/MOL
REMARK 927      BINDING AFFINITY PREDICTED BY RF-SCORE:    0.00 PKD
ROOT
HETATM    1  C   UNL     1     -11.345  16.399  64.091  1.00  0.00     0.317 C  
HETATM    2  O   UNL     1     -10.326  16.361  65.084  1.00  0.00    -0.610 OA 
ENDROOT
BRANCH   2   3
HETATM    3  C   UNL     1     -10.416  15.327  65.978  1.00  0.00    -0.317 A  
HETATM    4  C   UNL     1     -10.247  14.055  65.416  1.00  0.00    -0.368 A  
HETATM    5  C   UNL     1     -10.346  12.905  66.194  1.00  0.00    -0.286 A  
HETATM    6  C   UNL     1     -10.587  12.996  67.579  1.00  0.00    -0.237 A  
HETATM    7  C   UNL     1     -10.704  14.272  68.151  1.00  0.00    -0.249 A  
HETATM    8  H   UNL     1     -10.851  16.716  68.900  1.00  0.00     0.000 HD 
HETATM    9  O   UNL     1     -10.721  16.647  67.961  1.00  0.00    -0.330 OA 
HETATM   10  C   UNL     1     -10.609  15.428  67.358  1.00  0.00    -0.289 A  
BRANCH   6  11
HETATM   11  C   UNL     1     -10.874  11.732  68.374  1.00  0.00    -0.223 C  
HETATM   12  C   UNL     1     -12.104  11.972  69.234  1.00  0.00    -0.249 C  
HETATM   13  O   UNL     1     -13.599  10.302  70.003  1.00  0.00     0.207 OA 
HETATM   14  C   UNL     1     -12.431  10.677  69.918  1.00  0.00    -0.173 C  
HETATM   15  C   UNL     1     -11.280   9.930  70.455  1.00  0.00    -0.399 A  
HETATM   16  C   UNL     1     -10.002  10.334  70.059  1.00  0.00    -0.071 A  
HETATM   17  C   UNL     1      -8.870   9.686  70.570  1.00  0.00    -0.169 A  
HETATM   18  O   UNL     1      -9.747  11.377  69.193  1.00  0.00    -0.074 OA 
HETATM   19  C   UNL     1      -9.006   8.646  71.497  1.00  0.00    -0.234 A  
HETATM   20  O   UNL     1     -12.651   8.481  71.798  1.00  0.00    -0.313 OA 
HETATM   21  C   UNL     1     -10.286   8.232  71.877  1.00  0.00    -0.314 A  
HETATM   22  H   UNL     1     -12.743   7.766  72.418  1.00  0.00     0.000 HD 
HETATM   23  C   UNL     1     -11.415   8.876  71.369  1.00  0.00    -0.311 A  
BRANCH  19  24
HETATM   24  O   UNL     1      -7.976   7.943  72.071  1.00  0.00    -0.097 OA 
BRANCH  24  25
HETATM   25  C   UNL     1      -7.886   6.549  71.748  1.00  0.00    -0.103 C  
HETATM   26  C   UNL     1      -8.164   4.984  69.978  1.00  0.00    -0.081 C  
HETATM   27  O   UNL     1      -8.434   6.319  70.438  1.00  0.00    -0.130 OA 
HETATM   28  C   UNL     1      -8.860   3.964  70.892  1.00  0.00    -0.081 C  
HETATM   29  H   UNL     1      -8.963   3.495  74.121  1.00  0.00     0.000 HD 
HETATM   30  O   UNL     1      -8.214   5.911  74.104  1.00  0.00    -0.104 OA 
HETATM   31  C   UNL     1      -8.466   4.212  72.354  1.00  0.00    -0.103 C  
HETATM   32  O   UNL     1      -8.536   2.600  70.583  1.00  0.00    -0.051 OA 
HETATM   33  H   UNL     1      -8.696   5.378  74.726  1.00  0.00     0.000 HD 
HETATM   34  H   UNL     1      -8.966   1.969  71.148  1.00  0.00     0.000 HD 
HETATM   35  O   UNL     1      -9.207   3.341  73.215  1.00  0.00    -0.092 OA 
HETATM   36  C   UNL     1      -8.669   5.683  72.760  1.00  0.00    -0.119 C  
BRANCH  26  37
HETATM   37  C   UNL     1      -8.645   4.846  68.528  1.00  0.00    -0.093 C  
BRANCH  37  38
HETATM   38  O   UNL     1      -7.676   5.452  67.672  1.00  0.00    -0.090 OA 
BRANCH  38  39
HETATM   39  C   UNL     1      -7.967   6.830  67.414  1.00  0.00    -0.114 C  
HETATM   40  O   UNL     1      -8.734   6.912  66.213  1.00  0.00    -0.133 OA 
HETATM   41  C   UNL     1      -9.016   8.233  65.748  1.00  0.00    -0.138 C  
HETATM   42  C   UNL     1      -7.734   9.074  65.587  1.00  0.00    -0.091 C  
HETATM   43  C   UNL     1     -10.111   8.887  66.586  1.00  0.00    -0.357 C  
HETATM   44  O   UNL     1      -6.959   8.548  64.497  1.00  0.00    -0.072 OA 
HETATM   45  C   UNL     1      -6.845   9.036  66.834  1.00  0.00    -0.077 C  
HETATM   46  O   UNL     1      -7.353   9.873  67.886  1.00  0.00    -0.087 OA 
HETATM   47  H   UNL     1      -6.169   9.066  64.398  1.00  0.00     0.000 HD 
HETATM   48  C   UNL     1      -6.630   7.597  67.321  1.00  0.00    -0.063 C  
HETATM   49  H   UNL     1      -6.803   9.850  68.660  1.00  0.00     0.000 HD 
HETATM   50  O   UNL     1      -5.964   7.621  68.597  1.00  0.00    -0.029 OA 
HETATM   51  H   UNL     1      -5.142   8.092  68.540  1.00  0.00     0.000 HD 
ENDBRANCH  38  39
ENDBRANCH  37  38
ENDBRANCH  26  37
ENDBRANCH  24  25
ENDBRANCH  19  24
ENDBRANCH   6  11
ENDBRANCH   2   3
TORSDOF 7
ENDMDL
MODEL      129
REMARK 921   NORMALIZED FREE ENERGY PREDICTED BY IDOCK:   -5.13 KCAL/MOL
REMARK 922        TOTAL FREE ENERGY PREDICTED BY IDOCK:   -8.51 KCAL/MOL
REMARK 923 INTER-LIGAND FREE ENERGY PREDICTED BY IDOCK:   -7.64 KCAL/MOL
REMARK 924 INTRA-LIGAND FREE ENERGY PREDICTED BY IDOCK:   -0.86 KCAL/MOL
REMARK 927      BINDING AFFINITY PREDICTED BY RF-SCORE:    0.00 PKD
ROOT
HETATM    1  C   UNL     1     -10.127  16.346  66.165  1.00  0.00    -0.346 C  
HETATM    2  O   UNL     1     -10.886  16.471  67.363  1.00  0.00    -0.294 OA 
ENDROOT
BRANCH   2   3
HETATM    3  C   UNL     1     -11.169  15.294  68.003  1.00  0.00    -0.326 A  
HETATM    4  C   UNL     1     -10.764  14.144  67.314  1.00  0.00    -0.279 A  
HETATM    5  C   UNL     1     -11.014  12.873  67.824  1.00  0.00    -0.269 A  
HETATM    6  C   UNL     1     -11.655  12.714  69.069  1.00  0.00    -0.367 A  
HETATM    7  C   UNL     1     -12.013  13.867  69.784  1.00  0.00    -0.398 A  
HETATM    8  H   UNL     1     -12.525  16.138  70.851  1.00  0.00     0.000 HD 
HETATM    9  O   UNL     1     -12.121  16.238  69.996  1.00  0.00    -0.085 OA 
HETATM   10  C   UNL     1     -11.763  15.146  69.259  1.00  0.00    -0.329 A  
BRANCH   6  11
HETATM   11  C   UNL     1     -12.083  11.326  69.519  1.00  0.00    -0.317 C  
HETATM   12  C   UNL     1     -12.187  11.321  71.035  1.00  0.00    -0.417 C  
HETATM   13  O   UNL     1     -13.578   9.895  72.318  1.00  0.00    -0.402 OA 
HETATM   14  C   UNL     1     -12.720   9.979  71.441  1.00  0.00    -0.415 C  
HETATM   15  C   UNL     1     -12.146   8.822  70.731  1.00  0.00    -0.110 A  
HETATM   16  C   UNL     1     -11.384   9.076  69.587  1.00  0.00     0.121 A  
HETATM   17  C   UNL     1     -10.781   8.017  68.895  1.00  0.00    -0.091 A  
HETATM   18  O   UNL     1     -11.141  10.334  69.076  1.00  0.00    -0.225 OA 
HETATM   19  C   UNL     1     -10.917   6.702  69.353  1.00  0.00    -0.309 A  
HETATM   20  O   UNL     1     -13.009   7.227  72.311  1.00  0.00    -0.504 OA 
HETATM   21  C   UNL     1     -11.694   6.449  70.486  1.00  0.00    -0.385 A  
HETATM   22  H   UNL     1     -13.112   6.332  72.614  1.00  0.00     0.000 HD 
HETATM   23  C   UNL     1     -12.296   7.501  71.177  1.00  0.00    -0.291 A  
BRANCH  19  24
HETATM   24  O   UNL     1     -10.370   5.588  68.766  1.00  0.00    -0.195 OA 
BRANCH  24  25
HETATM   25  C   UNL     1      -9.023   5.702  68.289  1.00  0.00    -0.114 C  
HETATM   26  C   UNL     1      -6.773   6.004  68.999  1.00  0.00    -0.060 C  
HETATM   27  O   UNL     1      -8.158   6.093  69.370  1.00  0.00    -0.109 OA 
HETATM   28  C   UNL     1      -6.470   6.992  67.862  1.00  0.00    -0.051 C  
HETATM   29  H   UNL     1      -7.844   7.630  64.970  1.00  0.00     0.000 HD 
HETATM   30  O   UNL     1      -9.798   6.468  66.080  1.00  0.00    -0.399 OA 
HETATM   31  C   UNL     1      -7.444   6.770  66.697  1.00  0.00    -0.079 C  
HETATM   32  O   UNL     1      -5.139   6.875  67.338  1.00  0.00    -0.008 OA 
HETATM   33  H   UNL     1      -9.727   7.119  65.391  1.00  0.00     0.000 HD 
HETATM   34  H   UNL     1      -4.951   7.486  66.635  1.00  0.00     0.000 HD 
HETATM   35  O   UNL     1      -7.240   7.767  65.691  1.00  0.00    -0.065 OA 
HETATM   36  C   UNL     1      -8.909   6.762  67.169  1.00  0.00    -0.119 C  
BRANCH  26  37
HETATM   37  C   UNL     1      -5.903   6.292  70.228  1.00  0.00    -0.018 C  
BRANCH  37  38
HETATM   38  O   UNL     1      -5.454   5.048  70.765  1.00  0.00    -0.004 OA 
BRANCH  38  39
HETATM   39  C   UNL     1      -6.397   4.481  71.681  1.00  0.00    -0.019 C  
HETATM   40  O   UNL     1      -6.048   4.896  73.002  1.00  0.00    -0.024 OA 
HETATM   41  C   UNL     1      -6.826   4.324  74.056  1.00  0.00    -0.060 C  
HETATM   42  C   UNL     1      -6.835   2.783  73.995  1.00  0.00    -0.035 C  
HETATM   43  C   UNL     1      -8.206   4.971  74.131  1.00  0.00    -0.100 C  
HETATM   44  O   UNL     1      -5.522   2.291  74.312  1.00  0.00     0.000 OA 
HETATM   45  C   UNL     1      -7.195   2.251  72.605  1.00  0.00    -0.032 C  
HETATM   46  O   UNL     1      -8.604   2.346  72.337  1.00  0.00    -0.065 OA 
HETATM   47  H   UNL     1      -5.528   1.342  74.274  1.00  0.00     0.000 HD 
HETATM   48  C   UNL     1      -6.372   2.946  71.512  1.00  0.00    -0.018 C  
HETATM   49  H   UNL     1      -8.828   2.016  71.476  1.00  0.00     0.000 HD 
HETATM   50  O   UNL     1      -6.880   2.566  70.220  1.00  0.00    -0.033 OA 
HETATM   51  H   UNL     1      -6.864   1.622  70.116  1.00  0.00     0.000 HD 
ENDBRANCH  38  39
ENDBRANCH  37  38
ENDBRANCH  26  37
ENDBRANCH  24  25
ENDBRANCH  19  24
ENDBRANCH   6  11
ENDBRANCH   2   3
TORSDOF 7
ENDMDL
MODEL      130
REMARK 921   NORMALIZED FREE ENERGY PREDICTED BY IDOCK:   -5.10 KCAL/MOL
REMARK 922        TOTAL FREE ENERGY PREDICTED BY IDOCK:   -8.47 KCAL/MOL
REMARK 923 INTER-LIGAND FREE ENERGY PREDICTED BY IDOCK:   -6.99 KCAL/MOL
REMARK 924 INTRA-LIGAND FREE ENERGY PREDICTED BY IDOCK:   -1.48 KCAL/MOL
REMARK 927      BINDING AFFINITY PREDICTED BY RF-SCORE:    0.00 PKD
ROOT
HETATM    1  C   UNL     1     -13.023  14.324  65.435  1.00  0.00    -0.208 C  
HETATM    2  O   UNL     1     -12.094  14.047  66.478  1.00  0.00    -0.424 OA 
ENDROOT
BRANCH   2   3
HETATM    3  C   UNL     1     -11.356  12.904  66.318  1.00  0.00    -0.323 A  
HETATM    4  C   UNL     1     -11.625  11.900  67.256  1.00  0.00    -0.364 A  
HETATM    5  C   UNL     1     -10.929  10.694  67.240  1.00  0.00    -0.348 A  
HETATM    6  C   UNL     1      -9.955  10.443  66.254  1.00  0.00    -0.283 A  
HETATM    7  C   UNL     1      -9.722  11.428  65.283  1.00  0.00    -0.276 A  
HETATM    8  H   UNL     1      -9.536  13.392  63.651  1.00  0.00     0.000 HD 
HETATM    9  O   UNL     1     -10.170  13.569  64.337  1.00  0.00    -0.399 OA 
HETATM   10  C   UNL     1     -10.425  12.645  65.309  1.00  0.00    -0.289 A  
BRANCH   6  11
HETATM   11  C   UNL     1      -9.081   9.203  66.366  1.00  0.00    -0.170 C  
HETATM   12  C   UNL     1      -8.552   8.861  64.983  1.00  0.00    -0.202 C  
HETATM   13  O   UNL     1      -6.541   7.694  64.523  1.00  0.00    -0.047 OA 
HETATM   14  C   UNL     1      -7.605   7.707  65.140  1.00  0.00    -0.095 C  
HETATM   15  C   UNL     1      -8.045   6.639  66.055  1.00  0.00    -0.122 A  
HETATM   16  C   UNL     1      -9.139   6.905  66.883  1.00  0.00    -0.139 A  
HETATM   17  C   UNL     1      -9.626   5.912  67.744  1.00  0.00    -0.118 A  
HETATM   18  O   UNL     1      -9.827   8.100  66.907  1.00  0.00    -0.200 OA 
HETATM   19  C   UNL     1      -9.039   4.642  67.767  1.00  0.00    -0.119 A  
HETATM   20  O   UNL     1      -6.395   5.075  65.271  1.00  0.00    -0.033 OA 
HETATM   21  C   UNL     1      -7.933   4.386  66.950  1.00  0.00    -0.101 A  
HETATM   22  H   UNL     1      -5.989   4.217  65.296  1.00  0.00     0.000 HD 
HETATM   23  C   UNL     1      -7.446   5.372  66.092  1.00  0.00    -0.083 A  
BRANCH  19  24
HETATM   24  O   UNL     1      -9.429   3.591  68.558  1.00  0.00    -0.168 OA 
BRANCH  24  25
HETATM   25  C   UNL     1      -9.704   3.885  69.934  1.00  0.00    -0.164 C  
HETATM   26  C   UNL     1      -9.522   5.582  71.591  1.00  0.00    -0.147 C  
HETATM   27  O   UNL     1      -9.090   5.135  70.295  1.00  0.00    -0.120 OA 
HETATM   28  C   UNL     1      -9.068   4.584  72.667  1.00  0.00    -0.122 C  
HETATM   29  H   UNL     1      -9.307   1.347  73.020  1.00  0.00     0.000 HD 
HETATM   30  O   UNL     1      -9.674   1.493  70.522  1.00  0.00    -0.098 OA 
HETATM   31  C   UNL     1      -9.539   3.169  72.306  1.00  0.00    -0.137 C  
HETATM   32  O   UNL     1      -9.570   4.884  73.978  1.00  0.00    -0.126 OA 
HETATM   33  H   UNL     1      -9.333   0.817  71.096  1.00  0.00     0.000 HD 
HETATM   34  H   UNL     1      -9.290   4.268  74.644  1.00  0.00     0.000 HD 
HETATM   35  O   UNL     1      -9.015   2.223  73.244  1.00  0.00    -0.069 OA 
HETATM   36  C   UNL     1      -9.150   2.785  70.868  1.00  0.00    -0.114 C  
BRANCH  26  37
HETATM   37  C   UNL     1      -8.949   6.980  71.856  1.00  0.00    -0.132 C  
BRANCH  37  38
HETATM   38  O   UNL     1      -9.319   7.831  70.772  1.00  0.00    -0.160 OA 
BRANCH  38  39
HETATM   39  C   UNL     1      -8.181   8.402  70.117  1.00  0.00    -0.117 C  
HETATM   40  O   UNL     1      -7.003   7.791  70.647  1.00  0.00    -0.046 OA 
HETATM   41  C   UNL     1      -5.765   8.328  70.179  1.00  0.00    -0.022 C  
HETATM   42  C   UNL     1      -5.682   9.854  70.389  1.00  0.00    -0.060 C  
HETATM   43  C   UNL     1      -5.465   7.860  68.758  1.00  0.00    -0.027 C  
HETATM   44  O   UNL     1      -5.599  10.132  71.797  1.00  0.00    -0.255 OA 
HETATM   45  C   UNL     1      -6.913  10.590  69.854  1.00  0.00    -0.150 C  
HETATM   46  O   UNL     1      -6.893  10.709  68.422  1.00  0.00    -0.062 OA 
HETATM   47  H   UNL     1      -5.548  11.072  71.927  1.00  0.00     0.000 HD 
HETATM   48  C   UNL     1      -8.211   9.930  70.339  1.00  0.00     0.036 C  
HETATM   49  H   UNL     1      -7.656  11.165  68.089  1.00  0.00     0.000 HD 
HETATM   50  O   UNL     1      -9.331  10.523  69.657  1.00  0.00    -0.391 OA 
HETATM   51  H   UNL     1      -9.350  11.463  69.794  1.00  0.00     0.000 HD 
ENDBRANCH  38  39
ENDBRANCH  37  38
ENDBRANCH  26  37
ENDBRANCH  24  25
ENDBRANCH  19  24
ENDBRANCH   6  11
ENDBRANCH   2   3
TORSDOF 7
ENDMDL
MODEL      131
REMARK 921   NORMALIZED FREE ENERGY PREDICTED BY IDOCK:   -5.04 KCAL/MOL
REMARK 922        TOTAL FREE ENERGY PREDICTED BY IDOCK:   -8.38 KCAL/MOL
REMARK 923 INTER-LIGAND FREE ENERGY PREDICTED BY IDOCK:   -7.09 KCAL/MOL
REMARK 924 INTRA-LIGAND FREE ENERGY PREDICTED BY IDOCK:   -1.29 KCAL/MOL
REMARK 927      BINDING AFFINITY PREDICTED BY RF-SCORE:    0.00 PKD
ROOT
HETATM    1  C   UNL     1     -10.808   5.068  73.099  1.00  0.00    -0.286 C  
HETATM    2  O   UNL     1     -10.937   6.465  72.856  1.00  0.00    -0.244 OA 
ENDROOT
BRANCH   2   3
HETATM    3  C   UNL     1     -10.358   6.915  71.698  1.00  0.00    -0.199 A  
HETATM    4  C   UNL     1     -10.813   6.281  70.535  1.00  0.00    -0.348 A  
HETATM    5  C   UNL     1     -10.292   6.609  69.286  1.00  0.00    -0.228 A  
HETATM    6  C   UNL     1      -9.314   7.614  69.160  1.00  0.00    -0.147 A  
HETATM    7  C   UNL     1      -8.897   8.286  70.318  1.00  0.00    -0.141 A  
HETATM    8  H   UNL     1      -8.356   9.334  72.591  1.00  0.00     0.000 HD 
HETATM    9  O   UNL     1      -8.992   8.633  72.674  1.00  0.00    -0.351 OA 
HETATM   10  C   UNL     1      -9.423   7.945  71.577  1.00  0.00    -0.147 A  
BRANCH   6  11
HETATM   11  C   UNL     1      -8.628   7.826  67.819  1.00  0.00    -0.121 C  
HETATM   12  C   UNL     1      -7.165   8.150  68.072  1.00  0.00    -0.094 C  
HETATM   13  O   UNL     1      -5.380   7.739  66.569  1.00  0.00    -0.024 OA 
HETATM   14  C   UNL     1      -6.490   8.241  66.735  1.00  0.00    -0.056 C  
HETATM   15  C   UNL     1      -7.241   8.956  65.687  1.00  0.00    -0.085 A  
HETATM   16  C   UNL     1      -8.587   9.240  65.934  1.00  0.00    -0.148 A  
HETATM   17  C   UNL     1      -9.339   9.953  64.991  1.00  0.00    -0.323 A  
HETATM   18  O   UNL     1      -9.260   8.889  67.086  1.00  0.00    -0.134 OA 
HETATM   19  C   UNL     1      -8.746  10.406  63.807  1.00  0.00    -0.193 A  
HETATM   20  O   UNL     1      -5.331   9.157  64.240  1.00  0.00    -0.054 OA 
HETATM   21  C   UNL     1      -7.404  10.104  63.555  1.00  0.00    -0.127 A  
HETATM   22  H   UNL     1      -4.933   9.454  63.430  1.00  0.00     0.000 HD 
HETATM   23  C   UNL     1      -6.653   9.394  64.492  1.00  0.00    -0.089 A  
BRANCH  19  24
HETATM   24  O   UNL     1      -9.375  11.116  62.815  1.00  0.00    -0.327 OA 
BRANCH  24  25
HETATM   25  C   UNL     1     -10.257  12.166  63.231  1.00  0.00    -0.301 C  
HETATM   26  C   UNL     1     -10.410  14.076  64.640  1.00  0.00    -0.309 C  
HETATM   27  O   UNL     1      -9.673  12.881  64.334  1.00  0.00    -0.054 OA 
HETATM   28  C   UNL     1     -11.830  13.713  65.101  1.00  0.00    -0.348 C  
HETATM   29  H   UNL     1     -14.201  11.817  63.900  1.00  0.00     0.000 HD 
HETATM   30  O   UNL     1     -12.239  10.825  62.648  1.00  0.00     0.215 OA 
HETATM   31  C   UNL     1     -12.507  12.811  64.060  1.00  0.00    -0.360 C  
HETATM   32  O   UNL     1     -12.679  14.853  65.301  1.00  0.00    -0.051 OA 
HETATM   33  H   UNL     1     -13.080  10.481  62.927  1.00  0.00     0.000 HD 
HETATM   34  H   UNL     1     -13.557  14.629  65.586  1.00  0.00     0.000 HD 
HETATM   35  O   UNL     1     -13.782  12.375  64.544  1.00  0.00    -0.171 OA 
HETATM   36  C   UNL     1     -11.625  11.607  63.684  1.00  0.00    -0.334 C  
BRANCH  26  37
HETATM   37  C   UNL     1      -9.663  14.864  65.723  1.00  0.00    -0.324 C  
BRANCH  37  38
HETATM   38  O   UNL     1      -9.489  14.017  66.858  1.00  0.00    -0.245 OA 
BRANCH  38  39
HETATM   39  C   UNL     1     -10.000  14.607  68.058  1.00  0.00    -0.220 C  
HETATM   40  O   UNL     1     -11.035  15.525  67.705  1.00  0.00    -0.301 OA 
HETATM   41  C   UNL     1     -11.579  16.289  68.783  1.00  0.00    -0.223 C  
HETATM   42  C   UNL     1     -10.484  17.040  69.568  1.00  0.00    -0.182 C  
HETATM   43  C   UNL     1     -12.514  15.440  69.640  1.00  0.00    -0.171 C  
HETATM   44  O   UNL     1      -9.933  18.074  68.736  1.00  0.00    -0.361 OA 
HETATM   45  C   UNL     1      -9.326  16.127  69.982  1.00  0.00     0.608 C  
HETATM   46  O   UNL     1      -9.667  15.295  71.104  1.00  0.00     0.427 OA 
HETATM   47  H   UNL     1      -9.258  18.536  69.220  1.00  0.00     0.000 HD 
HETATM   48  C   UNL     1      -8.827  15.288  68.799  1.00  0.00    -0.192 C  
HETATM   49  H   UNL     1      -8.950  14.729  71.361  1.00  0.00     0.000 HD 
HETATM   50  O   UNL     1      -7.885  14.308  69.272  1.00  0.00    -0.321 OA 
HETATM   51  H   UNL     1      -7.163  14.727  69.727  1.00  0.00     0.000 HD 
ENDBRANCH  38  39
ENDBRANCH  37  38
ENDBRANCH  26  37
ENDBRANCH  24  25
ENDBRANCH  19  24
ENDBRANCH   6  11
ENDBRANCH   2   3
TORSDOF 7
ENDMDL
MODEL      132
REMARK 921   NORMALIZED FREE ENERGY PREDICTED BY IDOCK:   -5.00 KCAL/MOL
REMARK 922        TOTAL FREE ENERGY PREDICTED BY IDOCK:   -8.33 KCAL/MOL
REMARK 923 INTER-LIGAND FREE ENERGY PREDICTED BY IDOCK:   -7.14 KCAL/MOL
REMARK 924 INTRA-LIGAND FREE ENERGY PREDICTED BY IDOCK:   -1.18 KCAL/MOL
REMARK 927      BINDING AFFINITY PREDICTED BY RF-SCORE:    0.00 PKD
ROOT
HETATM    1  C   UNL     1      -7.144   6.425  73.772  1.00  0.00    -0.082 C  
HETATM    2  O   UNL     1      -6.372   7.395  73.071  1.00  0.00    -0.058 OA 
ENDROOT
BRANCH   2   3
HETATM    3  C   UNL     1      -6.510   7.381  71.708  1.00  0.00    -0.043 A  
HETATM    4  C   UNL     1      -6.956   8.587  71.154  1.00  0.00    -0.070 A  
HETATM    5  C   UNL     1      -7.176   8.714  69.785  1.00  0.00    -0.051 A  
HETATM    6  C   UNL     1      -6.921   7.634  68.917  1.00  0.00    -0.070 A  
HETATM    7  C   UNL     1      -6.424   6.442  69.465  1.00  0.00    -0.043 A  
HETATM    8  H   UNL     1      -5.514   4.423  70.749  1.00  0.00     0.000 HD 
HETATM    9  O   UNL     1      -5.718   5.144  71.334  1.00  0.00    -0.014 OA 
HETATM   10  C   UNL     1      -6.211   6.320  70.849  1.00  0.00    -0.039 A  
BRANCH   6  11
HETATM   11  C   UNL     1      -7.342   7.732  67.459  1.00  0.00    -0.092 C  
HETATM   12  C   UNL     1      -6.090   7.749  66.596  1.00  0.00    -0.048 C  
HETATM   13  O   UNL     1      -5.955   7.018  64.346  1.00  0.00    -0.035 OA 
HETATM   14  C   UNL     1      -6.535   7.730  65.164  1.00  0.00    -0.041 C  
HETATM   15  C   UNL     1      -7.676   8.605  64.837  1.00  0.00    -0.106 A  
HETATM   16  C   UNL     1      -8.400   9.149  65.901  1.00  0.00    -0.123 A  
HETATM   17  C   UNL     1      -9.470  10.020  65.650  1.00  0.00    -0.278 A  
HETATM   18  O   UNL     1      -8.125   8.917  67.233  1.00  0.00    -0.103 OA 
HETATM   19  C   UNL     1      -9.807  10.369  64.338  1.00  0.00    -0.328 A  
HETATM   20  O   UNL     1      -7.316   8.448  62.465  1.00  0.00    -0.094 OA 
HETATM   21  C   UNL     1      -9.092   9.808  63.276  1.00  0.00    -0.267 A  
HETATM   22  H   UNL     1      -7.555   8.675  61.573  1.00  0.00     0.000 HD 
HETATM   23  C   UNL     1      -8.028   8.941  63.523  1.00  0.00    -0.158 A  
BRANCH  19  24
HETATM   24  O   UNL     1     -10.825  11.213  63.969  1.00  0.00    -0.378 OA 
BRANCH  24  25
HETATM   25  C   UNL     1     -10.597  12.617  64.145  1.00  0.00    -0.407 C  
HETATM   26  C   UNL     1      -9.537  14.210  65.558  1.00  0.00    -0.018 C  
HETATM   27  O   UNL     1      -9.989  12.852  65.427  1.00  0.00    -0.266 OA 
HETATM   28  C   UNL     1     -10.736  15.169  65.498  1.00  0.00    -0.365 C  
HETATM   29  H   UNL     1     -13.250  15.550  63.449  1.00  0.00     0.000 HD 
HETATM   30  O   UNL     1     -12.615  13.177  62.847  1.00  0.00    -0.564 OA 
HETATM   31  C   UNL     1     -11.559  14.904  64.230  1.00  0.00    -0.191 C  
HETATM   32  O   UNL     1     -10.363  16.555  65.488  1.00  0.00    -0.509 OA 
HETATM   33  H   UNL     1     -13.427  13.668  62.808  1.00  0.00     0.000 HD 
HETATM   34  H   UNL     1     -11.103  17.149  65.450  1.00  0.00     0.000 HD 
HETATM   35  O   UNL     1     -12.739  15.715  64.234  1.00  0.00    -0.350 OA 
HETATM   36  C   UNL     1     -11.919  13.416  64.081  1.00  0.00    -0.450 C  
BRANCH  26  37
HETATM   37  C   UNL     1      -8.775  14.361  66.880  1.00  0.00    -0.193 C  
BRANCH  37  38
HETATM   38  O   UNL     1      -9.695  14.785  67.885  1.00  0.00    -0.207 OA 
BRANCH  38  39
HETATM   39  C   UNL     1     -10.143  13.699  68.704  1.00  0.00    -0.180 C  
HETATM   40  O   UNL     1      -9.611  12.485  68.173  1.00  0.00    -0.206 OA 
HETATM   41  C   UNL     1     -10.054  11.285  68.809  1.00  0.00    -0.194 C  
HETATM   42  C   UNL     1     -11.593  11.188  68.849  1.00  0.00    -0.317 C  
HETATM   43  C   UNL     1      -9.365  11.091  70.157  1.00  0.00     1.532 C  
HETATM   44  O   UNL     1     -12.088  11.001  67.513  1.00  0.00    -0.416 OA 
HETATM   45  C   UNL     1     -12.248  12.457  69.402  1.00  0.00    -0.065 C  
HETATM   46  O   UNL     1     -12.140  12.543  70.832  1.00  0.00    -0.447 OA 
HETATM   47  H   UNL     1     -13.036  10.942  67.537  1.00  0.00     0.000 HD 
HETATM   48  C   UNL     1     -11.687  13.714  68.725  1.00  0.00    -0.348 C  
HETATM   49  H   UNL     1     -12.547  13.329  71.176  1.00  0.00     0.000 HD 
HETATM   50  O   UNL     1     -12.177  14.883  69.407  1.00  0.00    -0.464 OA 
HETATM   51  H   UNL     1     -13.127  14.892  69.420  1.00  0.00     0.000 HD 
ENDBRANCH  38  39
ENDBRANCH  37  38
ENDBRANCH  26  37
ENDBRANCH  24  25
ENDBRANCH  19  24
ENDBRANCH   6  11
ENDBRANCH   2   3
TORSDOF 7
ENDMDL
MODEL      133
REMARK 921   NORMALIZED FREE ENERGY PREDICTED BY IDOCK:   -4.95 KCAL/MOL
REMARK 922        TOTAL FREE ENERGY PREDICTED BY IDOCK:   -8.25 KCAL/MOL
REMARK 923 INTER-LIGAND FREE ENERGY PREDICTED BY IDOCK:   -7.01 KCAL/MOL
REMARK 924 INTRA-LIGAND FREE ENERGY PREDICTED BY IDOCK:   -1.25 KCAL/MOL
REMARK 927      BINDING AFFINITY PREDICTED BY RF-SCORE:    0.00 PKD
ROOT
HETATM    1  C   UNL     1      -6.682  21.205  67.329  1.00  0.00    -0.351 C  
HETATM    2  O   UNL     1      -5.870  20.117  67.759  1.00  0.00    -0.188 OA 
ENDROOT
BRANCH   2   3
HETATM    3  C   UNL     1      -6.455  18.881  67.679  1.00  0.00    -0.202 A  
HETATM    4  C   UNL     1      -7.079  18.610  66.454  1.00  0.00    -0.263 A  
HETATM    5  C   UNL     1      -7.746  17.407  66.237  1.00  0.00    -0.340 A  
HETATM    6  C   UNL     1      -7.780  16.417  67.237  1.00  0.00    -0.194 A  
HETATM    7  C   UNL     1      -7.111  16.667  68.444  1.00  0.00    -0.167 A  
HETATM    8  H   UNL     1      -5.792  17.402  70.513  1.00  0.00     0.000 HD 
HETATM    9  O   UNL     1      -5.800  18.079  69.846  1.00  0.00    -0.238 OA 
HETATM   10  C   UNL     1      -6.445  17.886  68.659  1.00  0.00    -0.215 A  
BRANCH   6  11
HETATM   11  C   UNL     1      -8.666  15.194  67.050  1.00  0.00    -0.238 C  
HETATM   12  C   UNL     1      -9.812  15.272  68.045  1.00  0.00    -0.216 C  
HETATM   13  O   UNL     1     -11.947  14.281  67.772  1.00  0.00    -0.371 OA 
HETATM   14  C   UNL     1     -10.728  14.118  67.762  1.00  0.00    -0.247 C  
HETATM   15  C   UNL     1     -10.067  12.830  67.486  1.00  0.00    -0.213 A  
HETATM   16  C   UNL     1      -8.691  12.846  67.246  1.00  0.00    -0.204 A  
HETATM   17  C   UNL     1      -8.003  11.646  67.018  1.00  0.00    -0.164 A  
HETATM   18  O   UNL     1      -7.913  13.985  67.242  1.00  0.00    -0.179 OA 
HETATM   19  C   UNL     1      -8.682  10.423  67.050  1.00  0.00    -0.130 A  
HETATM   20  O   UNL     1     -12.089  11.558  67.762  1.00  0.00    -0.626 OA 
HETATM   21  C   UNL     1     -10.062  10.412  67.272  1.00  0.00    -0.244 A  
HETATM   22  H   UNL     1     -12.552  10.727  67.771  1.00  0.00     0.000 HD 
HETATM   23  C   UNL     1     -10.749  11.605  67.499  1.00  0.00    -0.215 A  
BRANCH  19  24
HETATM   24  O   UNL     1      -8.118   9.187  66.849  1.00  0.00    -0.110 OA 
BRANCH  24  25
HETATM   25  C   UNL     1      -9.012   8.068  66.811  1.00  0.00    -0.144 C  
HETATM   26  C   UNL     1     -10.017   6.388  68.163  1.00  0.00    -0.136 C  
HETATM   27  O   UNL     1      -8.978   7.377  68.073  1.00  0.00    -0.132 OA 
HETATM   28  C   UNL     1      -9.797   5.299  67.101  1.00  0.00    -0.164 C  
HETATM   29  H   UNL     1      -9.253   5.331  63.882  1.00  0.00     0.000 HD 
HETATM   30  O   UNL     1      -8.568   7.707  64.415  1.00  0.00    -0.373 OA 
HETATM   31  C   UNL     1      -9.661   5.937  65.712  1.00  0.00     0.196 C  
HETATM   32  O   UNL     1     -10.862   4.339  67.033  1.00  0.00     0.232 OA 
HETATM   33  H   UNL     1      -8.325   7.092  63.732  1.00  0.00     0.000 HD 
HETATM   34  H   UNL     1     -10.727   3.666  66.377  1.00  0.00     0.000 HD 
HETATM   35  O   UNL     1      -9.337   4.935  64.742  1.00  0.00    -0.113 OA 
HETATM   36  C   UNL     1      -8.617   7.067  65.700  1.00  0.00    -0.111 C  
BRANCH  26  37
HETATM   37  C   UNL     1     -10.020   5.790  69.575  1.00  0.00    -0.191 C  
BRANCH  37  38
HETATM   38  O   UNL     1      -8.723   5.968  70.143  1.00  0.00    -0.135 OA 
BRANCH  38  39
HETATM   39  C   UNL     1      -8.020   4.729  70.287  1.00  0.00    -0.068 C  
HETATM   40  O   UNL     1      -7.272   4.493  69.094  1.00  0.00    -0.051 OA 
HETATM   41  C   UNL     1      -6.596   3.236  69.026  1.00  0.00    -0.034 C  
HETATM   42  C   UNL     1      -7.556   2.052  69.264  1.00  0.00    -0.043 C  
HETATM   43  C   UNL     1      -5.348   3.236  69.903  1.00  0.00    -0.011 C  
HETATM   44  O   UNL     1      -8.462   1.949  68.153  1.00  0.00    -0.061 OA 
HETATM   45  C   UNL     1      -8.404   2.228  70.527  1.00  0.00    -0.049 C  
HETATM   46  O   UNL     1      -7.656   1.962  71.724  1.00  0.00    -0.039 OA 
HETATM   47  H   UNL     1      -9.053   1.219  68.301  1.00  0.00     0.000 HD 
HETATM   48  C   UNL     1      -9.053   3.618  70.573  1.00  0.00    -0.116 C  
HETATM   49  H   UNL     1      -8.182   2.070  72.507  1.00  0.00     0.000 HD 
HETATM   50  O   UNL     1      -9.671   3.813  71.858  1.00  0.00    -0.148 OA 
HETATM   51  H   UNL     1     -10.307   3.129  72.034  1.00  0.00     0.000 HD 
ENDBRANCH  38  39
ENDBRANCH  37  38
ENDBRANCH  26  37
ENDBRANCH  24  25
ENDBRANCH  19  24
ENDBRANCH   6  11
ENDBRANCH   2   3
TORSDOF 7
ENDMDL
MODEL      134
REMARK 921   NORMALIZED FREE ENERGY PREDICTED BY IDOCK:   -4.86 KCAL/MOL
REMARK 922        TOTAL FREE ENERGY PREDICTED BY IDOCK:   -8.13 KCAL/MOL
REMARK 923 INTER-LIGAND FREE ENERGY PREDICTED BY IDOCK:   -7.84 KCAL/MOL
REMARK 924 INTRA-LIGAND FREE ENERGY PREDICTED BY IDOCK:   -0.28 KCAL/MOL
REMARK 927      BINDING AFFINITY PREDICTED BY RF-SCORE:    0.00 PKD
ROOT
HETATM    1  C   UNL     1     -11.146   1.711  62.724  1.00  0.00    -0.219 C  
HETATM    2  O   UNL     1      -9.892   1.668  63.397  1.00  0.00    -0.106 OA 
ENDROOT
BRANCH   2   3
HETATM    3  C   UNL     1      -9.497   2.843  63.978  1.00  0.00    -0.129 A  
HETATM    4  C   UNL     1      -9.517   3.952  63.123  1.00  0.00    -0.128 A  
HETATM    5  C   UNL     1      -9.110   5.209  63.563  1.00  0.00     0.188 A  
HETATM    6  C   UNL     1      -8.698   5.401  64.896  1.00  0.00    -0.097 A  
HETATM    7  C   UNL     1      -8.729   4.302  65.768  1.00  0.00    -0.119 A  
HETATM    8  H   UNL     1      -8.911   2.129  67.110  1.00  0.00     0.000 HD 
HETATM    9  O   UNL     1      -9.157   1.998  66.201  1.00  0.00    -0.116 OA 
HETATM   10  C   UNL     1      -9.135   3.035  65.314  1.00  0.00    -0.149 A  
BRANCH   6  11
HETATM   11  C   UNL     1      -8.085   6.732  65.305  1.00  0.00    -0.130 C  
HETATM   12  C   UNL     1      -7.417   6.559  66.659  1.00  0.00    -0.079 C  
HETATM   13  O   UNL     1      -5.598   7.839  67.475  1.00  0.00    -0.034 OA 
HETATM   14  C   UNL     1      -6.725   7.850  66.984  1.00  0.00    -0.068 C  
HETATM   15  C   UNL     1      -7.483   9.076  66.679  1.00  0.00    -0.086 A  
HETATM   16  C   UNL     1      -8.628   8.950  65.887  1.00  0.00    -0.158 A  
HETATM   17  C   UNL     1      -9.410  10.076  65.598  1.00  0.00    -0.257 A  
HETATM   18  O   UNL     1      -9.089   7.759  65.366  1.00  0.00     0.040 OA 
HETATM   19  C   UNL     1      -9.067  11.330  66.117  1.00  0.00    -0.204 A  
HETATM   20  O   UNL     1      -6.034  10.482  67.985  1.00  0.00    -0.047 OA 
HETATM   21  C   UNL     1      -7.912  11.455  66.893  1.00  0.00    -0.158 A  
HETATM   22  H   UNL     1      -5.795  11.336  68.326  1.00  0.00     0.000 HD 
HETATM   23  C   UNL     1      -7.131  10.336  67.182  1.00  0.00    -0.089 A  
BRANCH  19  24
HETATM   24  O   UNL     1      -9.756  12.499  65.910  1.00  0.00    -0.256 OA 
BRANCH  24  25
HETATM   25  C   UNL     1     -10.468  13.037  67.032  1.00  0.00    -0.247 C  
HETATM   26  C   UNL     1     -10.332  14.644  68.780  1.00  0.00    -0.248 C  
HETATM   27  O   UNL     1      -9.605  13.909  67.782  1.00  0.00    -0.210 OA 
HETATM   28  C   UNL     1     -10.926  13.677  69.815  1.00  0.00     0.168 C  
HETATM   29  H   UNL     1     -12.719  10.955  69.625  1.00  0.00     0.000 HD 
HETATM   30  O   UNL     1     -11.785  10.969  67.274  1.00  0.00    -0.504 OA 
HETATM   31  C   UNL     1     -11.754  12.594  69.109  1.00  0.00    -0.321 C  
HETATM   32  O   UNL     1     -11.780  14.315  70.775  1.00  0.00    -0.432 OA 
HETATM   33  H   UNL     1     -12.090  10.281  67.853  1.00  0.00     0.000 HD 
HETATM   34  H   UNL     1     -12.147  13.717  71.416  1.00  0.00     0.000 HD 
HETATM   35  O   UNL     1     -12.206  11.625  70.062  1.00  0.00    -0.296 OA 
HETATM   36  C   UNL     1     -10.965  11.917  67.975  1.00  0.00    -0.224 C  
BRANCH  26  37
HETATM   37  C   UNL     1      -9.390  15.656  69.445  1.00  0.00    -0.279 C  
BRANCH  37  38
HETATM   38  O   UNL     1      -9.740  16.963  68.991  1.00  0.00    -0.260 OA 
BRANCH  38  39
HETATM   39  C   UNL     1      -8.620  17.662  68.437  1.00  0.00    -0.284 C  
HETATM   40  O   UNL     1      -7.424  17.097  68.975  1.00  0.00    -0.245 OA 
HETATM   41  C   UNL     1      -6.210  17.756  68.610  1.00  0.00    -0.196 C  
HETATM   42  C   UNL     1      -6.250  19.262  68.938  1.00  0.00    -0.247 C  
HETATM   43  C   UNL     1      -5.816  17.423  67.173  1.00  0.00    -0.173 C  
HETATM   44  O   UNL     1      -6.248  19.434  70.366  1.00  0.00    -0.202 OA 
HETATM   45  C   UNL     1      -7.509  19.948  68.401  1.00  0.00    -0.277 C  
HETATM   46  O   UNL     1      -7.436  20.181  66.985  1.00  0.00    -0.256 OA 
HETATM   47  H   UNL     1      -6.273  20.362  70.568  1.00  0.00     0.000 HD 
HETATM   48  C   UNL     1      -8.774  19.162  68.772  1.00  0.00    -0.330 C  
HETATM   49  H   UNL     1      -8.216  20.607  66.651  1.00  0.00     0.000 HD 
HETATM   50  O   UNL     1      -9.904  19.726  68.083  1.00  0.00    -0.380 OA 
HETATM   51  H   UNL     1      -9.999  20.649  68.289  1.00  0.00     0.000 HD 
ENDBRANCH  38  39
ENDBRANCH  37  38
ENDBRANCH  26  37
ENDBRANCH  24  25
ENDBRANCH  19  24
ENDBRANCH   6  11
ENDBRANCH   2   3
TORSDOF 7
ENDMDL
MODEL      135
REMARK 921   NORMALIZED FREE ENERGY PREDICTED BY IDOCK:   -4.83 KCAL/MOL
REMARK 922        TOTAL FREE ENERGY PREDICTED BY IDOCK:   -8.09 KCAL/MOL
REMARK 923 INTER-LIGAND FREE ENERGY PREDICTED BY IDOCK:   -7.61 KCAL/MOL
REMARK 924 INTRA-LIGAND FREE ENERGY PREDICTED BY IDOCK:   -0.48 KCAL/MOL
REMARK 927      BINDING AFFINITY PREDICTED BY RF-SCORE:    0.00 PKD
ROOT
HETATM    1  C   UNL     1     -10.165  16.704  66.318  1.00  0.00    -0.334 C  
HETATM    2  O   UNL     1     -10.626  16.908  67.649  1.00  0.00    -0.328 OA 
ENDROOT
BRANCH   2   3
HETATM    3  C   UNL     1     -11.000  15.775  68.320  1.00  0.00    -0.325 A  
HETATM    4  C   UNL     1     -11.070  14.623  67.526  1.00  0.00    -0.319 A  
HETATM    5  C   UNL     1     -11.469  13.402  68.062  1.00  0.00    -0.339 A  
HETATM    6  C   UNL     1     -11.783  13.289  69.431  1.00  0.00    -0.383 A  
HETATM    7  C   UNL     1     -11.662  14.430  70.237  1.00  0.00    -0.355 A  
HETATM    8  H   UNL     1     -11.333  16.664  71.445  1.00  0.00     0.000 HD 
HETATM    9  O   UNL     1     -11.153  16.742  70.514  1.00  0.00    -0.166 OA 
HETATM   10  C   UNL     1     -11.264  15.661  69.688  1.00  0.00    -0.310 A  
BRANCH   6  11
HETATM   11  C   UNL     1     -12.392  11.997  69.955  1.00  0.00    -0.074 C  
HETATM   12  C   UNL     1     -12.644  12.153  71.445  1.00  0.00    -0.314 C  
HETATM   13  O   UNL     1     -14.292  10.996  72.695  1.00  0.00     0.907 OA 
HETATM   14  C   UNL     1     -13.348  10.913  71.911  1.00  0.00    -0.324 C  
HETATM   15  C   UNL     1     -12.828   9.643  71.372  1.00  0.00    -0.471 A  
HETATM   16  C   UNL     1     -11.936   9.711  70.299  1.00  0.00    -0.041 A  
HETATM   17  C   UNL     1     -11.380   8.538  69.772  1.00  0.00     0.122 A  
HETATM   18  O   UNL     1     -11.518  10.884  69.705  1.00  0.00    -0.260 OA 
HETATM   19  C   UNL     1     -11.692   7.293  70.329  1.00  0.00    -0.126 A  
HETATM   20  O   UNL     1     -14.000   8.300  72.987  1.00  0.00    -0.437 OA 
HETATM   21  C   UNL     1     -12.599   7.227  71.391  1.00  0.00    -0.423 A  
HETATM   22  H   UNL     1     -14.222   7.453  73.356  1.00  0.00     0.000 HD 
HETATM   23  C   UNL     1     -13.156   8.393  71.916  1.00  0.00    -0.358 A  
BRANCH  19  24
HETATM   24  O   UNL     1     -11.207   6.080  69.906  1.00  0.00    -0.386 OA 
BRANCH  24  25
HETATM   25  C   UNL     1     -10.074   6.106  69.030  1.00  0.00    -0.173 C  
HETATM   26  C   UNL     1      -7.727   6.490  68.965  1.00  0.00    -0.109 C  
HETATM   27  O   UNL     1      -8.937   6.649  69.724  1.00  0.00    -0.142 OA 
HETATM   28  C   UNL     1      -7.820   7.288  67.656  1.00  0.00    -0.113 C  
HETATM   29  H   UNL     1     -10.030   7.489  65.260  1.00  0.00     0.000 HD 
HETATM   30  O   UNL     1     -11.510   6.531  67.074  1.00  0.00    -0.752 OA 
HETATM   31  C   UNL     1      -9.093   6.900  66.891  1.00  0.00    -0.139 C  
HETATM   32  O   UNL     1      -6.707   7.079  66.774  1.00  0.00    -0.056 OA 
HETATM   33  H   UNL     1     -11.676   7.068  66.308  1.00  0.00     0.000 HD 
HETATM   34  H   UNL     1      -6.764   7.573  65.965  1.00  0.00     0.000 HD 
HETATM   35  O   UNL     1      -9.241   7.730  65.733  1.00  0.00    -0.084 OA 
HETATM   36  C   UNL     1     -10.344   6.980  67.784  1.00  0.00    -0.202 C  
BRANCH  26  37
HETATM   37  C   UNL     1      -6.537   6.954  69.813  1.00  0.00    -0.045 C  
BRANCH  37  38
HETATM   38  O   UNL     1      -5.791   5.804  70.212  1.00  0.00    -0.022 OA 
BRANCH  38  39
HETATM   39  C   UNL     1      -6.296   5.223  71.419  1.00  0.00    -0.034 C  
HETATM   40  O   UNL     1      -7.485   4.496  71.107  1.00  0.00    -0.056 OA 
HETATM   41  C   UNL     1      -8.183   3.943  72.224  1.00  0.00    -0.092 C  
HETATM   42  C   UNL     1      -8.507   5.012  73.288  1.00  0.00    -0.110 C  
HETATM   43  C   UNL     1      -7.469   2.704  72.758  1.00  0.00    -0.045 C  
HETATM   44  O   UNL     1      -9.489   5.919  72.760  1.00  0.00    -0.149 OA 
HETATM   45  C   UNL     1      -7.283   5.845  73.677  1.00  0.00    -0.086 C  
HETATM   46  O   UNL     1      -6.398   5.130  74.555  1.00  0.00    -0.061 OA 
HETATM   47  H   UNL     1      -9.689   6.577  73.415  1.00  0.00     0.000 HD 
HETATM   48  C   UNL     1      -6.541   6.359  72.436  1.00  0.00    -0.060 C  
HETATM   49  H   UNL     1      -5.639   5.647  74.797  1.00  0.00     0.000 HD 
HETATM   50  O   UNL     1      -5.298   6.961  72.840  1.00  0.00    -0.037 OA 
HETATM   51  H   UNL     1      -5.449   7.659  73.465  1.00  0.00     0.000 HD 
ENDBRANCH  38  39
ENDBRANCH  37  38
ENDBRANCH  26  37
ENDBRANCH  24  25
ENDBRANCH  19  24
ENDBRANCH   6  11
ENDBRANCH   2   3
TORSDOF 7
ENDMDL
MODEL      136
REMARK 921   NORMALIZED FREE ENERGY PREDICTED BY IDOCK:   -4.72 KCAL/MOL
REMARK 922        TOTAL FREE ENERGY PREDICTED BY IDOCK:   -7.93 KCAL/MOL
REMARK 923 INTER-LIGAND FREE ENERGY PREDICTED BY IDOCK:   -6.76 KCAL/MOL
REMARK 924 INTRA-LIGAND FREE ENERGY PREDICTED BY IDOCK:   -1.17 KCAL/MOL
REMARK 927      BINDING AFFINITY PREDICTED BY RF-SCORE:    0.00 PKD
ROOT
HETATM    1  C   UNL     1     -10.299  20.586  66.795  1.00  0.00    -0.012 C  
HETATM    2  O   UNL     1     -10.591  19.415  66.039  1.00  0.00    -0.481 OA 
ENDROOT
BRANCH   2   3
HETATM    3  C   UNL     1      -9.920  18.285  66.426  1.00  0.00    -0.380 A  
HETATM    4  C   UNL     1     -10.728  17.152  66.582  1.00  0.00    -0.082 A  
HETATM    5  C   UNL     1     -10.193  15.938  67.004  1.00  0.00    -0.283 A  
HETATM    6  C   UNL     1      -8.812  15.813  67.253  1.00  0.00    -0.212 A  
HETATM    7  C   UNL     1      -7.994  16.933  67.045  1.00  0.00    -0.228 A  
HETATM    8  H   UNL     1      -6.769  19.130  66.563  1.00  0.00     0.000 HD 
HETATM    9  O   UNL     1      -7.706  19.217  66.428  1.00  0.00    -0.256 OA 
HETATM   10  C   UNL     1      -8.543  18.157  66.625  1.00  0.00    -0.267 A  
BRANCH   6  11
HETATM   11  C   UNL     1      -8.279  14.538  67.888  1.00  0.00    -0.153 C  
HETATM   12  C   UNL     1      -6.996  14.870  68.632  1.00  0.00    -0.108 C  
HETATM   13  O   UNL     1      -6.134  13.685  70.494  1.00  0.00    -0.163 OA 
HETATM   14  C   UNL     1      -6.555  13.623  69.341  1.00  0.00    -0.090 C  
HETATM   15  C   UNL     1      -6.664  12.374  68.565  1.00  0.00    -0.077 A  
HETATM   16  C   UNL     1      -7.399  12.412  67.377  1.00  0.00    -0.149 A  
HETATM   17  C   UNL     1      -7.503  11.265  66.578  1.00  0.00    -0.105 A  
HETATM   18  O   UNL     1      -8.035  13.534  66.888  1.00  0.00    -0.028 OA 
HETATM   19  C   UNL     1      -6.855  10.081  66.950  1.00  0.00    -0.087 A  
HETATM   20  O   UNL     1      -5.280  11.127  70.085  1.00  0.00    -0.052 OA 
HETATM   21  C   UNL     1      -6.136  10.042  68.148  1.00  0.00    -0.049 A  
HETATM   22  H   UNL     1      -4.851  10.319  70.343  1.00  0.00     0.000 HD 
HETATM   23  C   UNL     1      -6.032  11.183  68.945  1.00  0.00    -0.040 A  
BRANCH  19  24
HETATM   24  O   UNL     1      -6.877   8.901  66.250  1.00  0.00    -0.072 OA 
BRANCH  24  25
HETATM   25  C   UNL     1      -8.089   8.138  66.305  1.00  0.00    -0.107 C  
HETATM   26  C   UNL     1      -9.948   7.618  67.696  1.00  0.00    -0.175 C  
HETATM   27  O   UNL     1      -8.624   8.176  67.640  1.00  0.00    -0.129 OA 
HETATM   28  C   UNL     1      -9.905   6.129  67.320  1.00  0.00    -0.134 C  
HETATM   29  H   UNL     1      -8.629   4.441  64.834  1.00  0.00     0.000 HD 
HETATM   30  O   UNL     1      -7.248   6.550  64.620  1.00  0.00    -0.057 OA 
HETATM   31  C   UNL     1      -9.207   5.947  65.965  1.00  0.00    -0.128 C  
HETATM   32  O   UNL     1     -11.203   5.524  67.221  1.00  0.00    -0.219 OA 
HETATM   33  H   UNL     1      -7.098   5.642  64.385  1.00  0.00     0.000 HD 
HETATM   34  H   UNL     1     -11.177   4.603  66.989  1.00  0.00     0.000 HD 
HETATM   35  O   UNL     1      -9.061   4.553  65.673  1.00  0.00    -0.128 OA 
HETATM   36  C   UNL     1      -7.845   6.660  65.923  1.00  0.00    -0.102 C  
BRANCH  26  37
HETATM   37  C   UNL     1     -10.518   7.817  69.106  1.00  0.00    -0.211 C  
BRANCH  37  38
HETATM   38  O   UNL     1      -9.461   8.249  69.962  1.00  0.00    -0.165 OA 
BRANCH  38  39
HETATM   39  C   UNL     1      -9.373   7.463  71.155  1.00  0.00    -0.155 C  
HETATM   40  O   UNL     1     -10.126   8.113  72.180  1.00  0.00    -0.208 OA 
HETATM   41  C   UNL     1     -10.052   7.515  73.476  1.00  0.00    -0.323 C  
HETATM   42  C   UNL     1      -8.594   7.344  73.949  1.00  0.00    -0.203 C  
HETATM   43  C   UNL     1     -10.900   6.248  73.545  1.00  0.00    -0.199 C  
HETATM   44  O   UNL     1      -8.025   8.640  74.201  1.00  0.00    -0.391 OA 
HETATM   45  C   UNL     1      -7.712   6.658  72.903  1.00  0.00    -0.096 C  
HETATM   46  O   UNL     1      -7.940   5.240  72.847  1.00  0.00    -0.101 OA 
HETATM   47  H   UNL     1      -7.127   8.534  74.493  1.00  0.00     0.000 HD 
HETATM   48  C   UNL     1      -7.881   7.303  71.521  1.00  0.00    -0.092 C  
HETATM   49  H   UNL     1      -7.393   4.814  72.199  1.00  0.00     0.000 HD 
HETATM   50  O   UNL     1      -7.196   6.509  70.536  1.00  0.00    -0.070 OA 
HETATM   51  H   UNL     1      -6.278   6.412  70.761  1.00  0.00     0.000 HD 
ENDBRANCH  38  39
ENDBRANCH  37  38
ENDBRANCH  26  37
ENDBRANCH  24  25
ENDBRANCH  19  24
ENDBRANCH   6  11
ENDBRANCH   2   3
TORSDOF 7
ENDMDL
MODEL      137
REMARK 921   NORMALIZED FREE ENERGY PREDICTED BY IDOCK:   -4.54 KCAL/MOL
REMARK 922        TOTAL FREE ENERGY PREDICTED BY IDOCK:   -7.68 KCAL/MOL
REMARK 923 INTER-LIGAND FREE ENERGY PREDICTED BY IDOCK:   -7.33 KCAL/MOL
REMARK 924 INTRA-LIGAND FREE ENERGY PREDICTED BY IDOCK:   -0.34 KCAL/MOL
REMARK 927      BINDING AFFINITY PREDICTED BY RF-SCORE:    0.00 PKD
ROOT
HETATM    1  C   UNL     1     -10.792   3.657  73.637  1.00  0.00    -0.239 C  
HETATM    2  O   UNL     1     -11.512   4.778  73.134  1.00  0.00    -0.309 OA 
ENDROOT
BRANCH   2   3
HETATM    3  C   UNL     1     -10.882   5.481  72.141  1.00  0.00    -0.235 A  
HETATM    4  C   UNL     1     -11.745   6.106  71.232  1.00  0.00    -0.211 A  
HETATM    5  C   UNL     1     -11.250   6.829  70.150  1.00  0.00    -0.387 A  
HETATM    6  C   UNL     1      -9.862   6.976  69.962  1.00  0.00    -0.181 A  
HETATM    7  C   UNL     1      -8.998   6.394  70.901  1.00  0.00    -0.144 A  
HETATM    8  H   UNL     1      -7.688   5.243  72.777  1.00  0.00     0.000 HD 
HETATM    9  O   UNL     1      -8.625   5.120  72.881  1.00  0.00    -0.115 OA 
HETATM   10  C   UNL     1      -9.505   5.660  71.988  1.00  0.00    -0.150 A  
BRANCH   6  11
HETATM   11  C   UNL     1      -9.344   7.607  68.679  1.00  0.00    -0.147 C  
HETATM   12  C   UNL     1      -8.782   6.507  67.793  1.00  0.00    -0.115 C  
HETATM   13  O   UNL     1      -8.637   6.578  65.429  1.00  0.00    -0.141 OA 
HETATM   14  C   UNL     1      -8.384   7.141  66.492  1.00  0.00    -0.117 C  
HETATM   15  C   UNL     1      -7.692   8.438  66.599  1.00  0.00    -0.090 A  
HETATM   16  C   UNL     1      -7.708   9.081  67.839  1.00  0.00    -0.097 A  
HETATM   17  C   UNL     1      -7.032  10.297  68.009  1.00  0.00    -0.082 A  
HETATM   18  O   UNL     1      -8.333   8.588  68.966  1.00  0.00    -0.115 OA 
HETATM   19  C   UNL     1      -6.319  10.866  66.948  1.00  0.00    -0.088 A  
HETATM   20  O   UNL     1      -6.936   8.396  64.316  1.00  0.00    -0.078 OA 
HETATM   21  C   UNL     1      -6.321  10.229  65.703  1.00  0.00    -0.118 A  
HETATM   22  H   UNL     1      -6.462   8.789  63.593  1.00  0.00     0.000 HD 
HETATM   23  C   UNL     1      -6.993   9.019  65.531  1.00  0.00    -0.080 A  
BRANCH  19  24
HETATM   24  O   UNL     1      -5.616  12.044  66.994  1.00  0.00    -0.132 OA 
BRANCH  24  25
HETATM   25  C   UNL     1      -6.154  13.087  67.816  1.00  0.00    -0.151 C  
HETATM   26  C   UNL     1      -6.931  15.336  67.771  1.00  0.00    -0.165 C  
HETATM   27  O   UNL     1      -6.196  14.318  67.071  1.00  0.00    -0.023 OA 
HETATM   28  C   UNL     1      -6.221  15.684  69.087  1.00  0.00    -0.119 C  
HETATM   29  H   UNL     1      -5.063  13.931  71.587  1.00  0.00     0.000 HD 
HETATM   30  O   UNL     1      -5.154  12.103  69.840  1.00  0.00    -0.071 OA 
HETATM   31  C   UNL     1      -5.980  14.411  69.909  1.00  0.00    -0.132 C  
HETATM   32  O   UNL     1      -6.957  16.598  69.914  1.00  0.00     0.015 OA 
HETATM   33  H   UNL     1      -4.624  12.242  70.616  1.00  0.00     0.000 HD 
HETATM   34  H   UNL     1      -6.518  16.814  70.728  1.00  0.00     0.000 HD 
HETATM   35  O   UNL     1      -5.213  14.720  71.078  1.00  0.00    -0.123 OA 
HETATM   36  C   UNL     1      -5.292  13.314  69.078  1.00  0.00    -0.069 C  
BRANCH  26  37
HETATM   37  C   UNL     1      -7.062  16.570  66.870  1.00  0.00    -0.227 C  
BRANCH  37  38
HETATM   38  O   UNL     1      -6.793  17.731  67.654  1.00  0.00    -0.175 OA 
BRANCH  38  39
HETATM   39  C   UNL     1      -7.931  18.593  67.757  1.00  0.00    -0.250 C  
HETATM   40  O   UNL     1      -8.957  17.902  68.471  1.00  0.00    -0.286 OA 
HETATM   41  C   UNL     1     -10.210  18.581  68.566  1.00  0.00    -0.351 C  
HETATM   42  C   UNL     1     -10.748  18.994  67.181  1.00  0.00    -0.456 C  
HETATM   43  C   UNL     1     -10.146  19.710  69.591  1.00  0.00     0.027 C  
HETATM   44  O   UNL     1     -11.119  17.814  66.449  1.00  0.00     0.147 OA 
HETATM   45  C   UNL     1      -9.706  19.739  66.343  1.00  0.00    -0.428 C  
HETATM   46  O   UNL     1      -9.540  21.101  66.769  1.00  0.00    -0.538 OA 
HETATM   47  H   UNL     1     -11.451  18.069  65.595  1.00  0.00     0.000 HD 
HETATM   48  C   UNL     1      -8.365  18.993  66.330  1.00  0.00    -0.283 C  
HETATM   49  H   UNL     1      -8.894  21.564  66.249  1.00  0.00     0.000 HD 
HETATM   50  O   UNL     1      -7.365  19.819  65.705  1.00  0.00    -0.308 OA 
HETATM   51  H   UNL     1      -7.632  20.064  64.827  1.00  0.00     0.000 HD 
ENDBRANCH  38  39
ENDBRANCH  37  38
ENDBRANCH  26  37
ENDBRANCH  24  25
ENDBRANCH  19  24
ENDBRANCH   6  11
ENDBRANCH   2   3
TORSDOF 7
ENDMDL
MODEL      138
REMARK 921   NORMALIZED FREE ENERGY PREDICTED BY IDOCK:   -4.35 KCAL/MOL
REMARK 922        TOTAL FREE ENERGY PREDICTED BY IDOCK:   -7.41 KCAL/MOL
REMARK 923 INTER-LIGAND FREE ENERGY PREDICTED BY IDOCK:   -6.48 KCAL/MOL
REMARK 924 INTRA-LIGAND FREE ENERGY PREDICTED BY IDOCK:   -0.92 KCAL/MOL
REMARK 927      BINDING AFFINITY PREDICTED BY RF-SCORE:    0.00 PKD
ROOT
HETATM    1  C   UNL     1     -10.896  17.125  69.125  1.00  0.00    -0.082 C  
HETATM    2  O   UNL     1     -10.417  16.725  67.845  1.00  0.00    -0.309 OA 
ENDROOT
BRANCH   2   3
HETATM    3  C   UNL     1     -10.115  15.395  67.720  1.00  0.00    -0.227 A  
HETATM    4  C   UNL     1      -8.827  15.047  68.148  1.00  0.00    -0.167 A  
HETATM    5  C   UNL     1      -8.366  13.737  68.052  1.00  0.00    -0.171 A  
HETATM    6  C   UNL     1      -9.200  12.719  67.549  1.00  0.00    -0.191 A  
HETATM    7  C   UNL     1     -10.508  13.058  67.170  1.00  0.00    -0.243 A  
HETATM    8  H   UNL     1     -12.825  13.975  66.582  1.00  0.00     0.000 HD 
HETATM    9  O   UNL     1     -12.247  14.663  66.892  1.00  0.00    -0.311 OA 
HETATM   10  C   UNL     1     -10.964  14.384  67.264  1.00  0.00    -0.297 A  
BRANCH   6  11
HETATM   11  C   UNL     1      -8.619  11.340  67.280  1.00  0.00    -0.143 C  
HETATM   12  C   UNL     1      -7.723  11.425  66.055  1.00  0.00     0.155 C  
HETATM   13  O   UNL     1      -5.883  10.006  65.589  1.00  0.00    -0.061 OA 
HETATM   14  C   UNL     1      -7.075  10.083  65.881  1.00  0.00    -0.114 C  
HETATM   15  C   UNL     1      -7.956   8.918  66.080  1.00  0.00    -0.106 A  
HETATM   16  C   UNL     1      -9.206   9.143  66.662  1.00  0.00    -0.164 A  
HETATM   17  C   UNL     1     -10.101   8.079  66.838  1.00  0.00    -0.362 A  
HETATM   18  O   UNL     1      -9.666  10.377  67.071  1.00  0.00    -0.169 OA 
HETATM   19  C   UNL     1      -9.762   6.789  66.413  1.00  0.00    -0.064 A  
HETATM   20  O   UNL     1      -6.407   7.380  65.070  1.00  0.00    -0.037 OA 
HETATM   21  C   UNL     1      -8.503   6.565  65.847  1.00  0.00    -0.147 A  
HETATM   22  H   UNL     1      -6.173   6.502  64.794  1.00  0.00     0.000 HD 
HETATM   23  C   UNL     1      -7.610   7.623  65.672  1.00  0.00    -0.090 A  
BRANCH  19  24
HETATM   24  O   UNL     1     -10.553   5.673  66.525  1.00  0.00    -0.269 OA 
BRANCH  24  25
HETATM   25  C   UNL     1     -10.554   5.005  67.793  1.00  0.00     0.106 C  
HETATM   26  C   UNL     1     -10.640   5.379  70.140  1.00  0.00    -0.274 C  
HETATM   27  O   UNL     1     -10.419   5.972  68.849  1.00  0.00    -0.196 OA 
HETATM   28  C   UNL     1      -9.563   4.320  70.422  1.00  0.00    -0.195 C  
HETATM   29  H   UNL     1      -8.391   1.765  68.762  1.00  0.00     0.000 HD 
HETATM   30  O   UNL     1      -9.421   3.039  66.835  1.00  0.00    -0.344 OA 
HETATM   31  C   UNL     1      -9.507   3.307  69.271  1.00  0.00    -0.129 C  
HETATM   32  O   UNL     1      -9.784   3.584  71.634  1.00  0.00    -0.148 OA 
HETATM   33  H   UNL     1      -8.703   2.421  66.903  1.00  0.00     0.000 HD 
HETATM   34  H   UNL     1      -9.118   2.929  71.809  1.00  0.00     0.000 HD 
HETATM   35  O   UNL     1      -8.425   2.392  69.475  1.00  0.00    -0.047 OA 
HETATM   36  C   UNL     1      -9.385   4.000  67.902  1.00  0.00    -0.171 C  
BRANCH  26  37
HETATM   37  C   UNL     1     -10.625   6.480  71.208  1.00  0.00    -0.227 C  
BRANCH  37  38
HETATM   38  O   UNL     1      -9.406   6.377  71.945  1.00  0.00    -0.153 OA 
BRANCH  38  39
HETATM   39  C   UNL     1      -8.314   7.020  71.280  1.00  0.00    -0.114 C  
HETATM   40  O   UNL     1      -7.113   6.723  71.993  1.00  0.00    -0.073 OA 
HETATM   41  C   UNL     1      -5.936   7.383  71.524  1.00  0.00    -0.036 C  
HETATM   42  C   UNL     1      -6.120   8.913  71.459  1.00  0.00    -0.063 C  
HETATM   43  C   UNL     1      -5.424   6.744  70.236  1.00  0.00    -0.019 C  
HETATM   44  O   UNL     1      -6.225   9.432  72.796  1.00  0.00    -0.301 OA 
HETATM   45  C   UNL     1      -7.394   9.322  70.713  1.00  0.00    -0.123 C  
HETATM   46  O   UNL     1      -7.249   9.202  69.289  1.00  0.00    -0.063 OA 
HETATM   47  H   UNL     1      -6.338  10.375  72.755  1.00  0.00     0.000 HD 
HETATM   48  C   UNL     1      -8.611   8.535  71.217  1.00  0.00    -0.176 C  
HETATM   49  H   UNL     1      -8.038   9.455  68.826  1.00  0.00     0.000 HD 
HETATM   50  O   UNL     1      -9.737   8.800  70.361  1.00  0.00    -0.167 OA 
HETATM   51  H   UNL     1      -9.920   9.731  70.324  1.00  0.00     0.000 HD 
ENDBRANCH  38  39
ENDBRANCH  37  38
ENDBRANCH  26  37
ENDBRANCH  24  25
ENDBRANCH  19  24
ENDBRANCH   6  11
ENDBRANCH   2   3
TORSDOF 7
ENDMDL
MODEL      139
REMARK 921   NORMALIZED FREE ENERGY PREDICTED BY IDOCK:   -4.32 KCAL/MOL
REMARK 922        TOTAL FREE ENERGY PREDICTED BY IDOCK:   -7.37 KCAL/MOL
REMARK 923 INTER-LIGAND FREE ENERGY PREDICTED BY IDOCK:   -7.38 KCAL/MOL
REMARK 924 INTRA-LIGAND FREE ENERGY PREDICTED BY IDOCK:    0.01 KCAL/MOL
REMARK 927      BINDING AFFINITY PREDICTED BY RF-SCORE:    0.00 PKD
ROOT
HETATM    1  C   UNL     1     -10.110  16.204  66.327  1.00  0.00    -0.321 C  
HETATM    2  O   UNL     1     -10.794  16.213  67.576  1.00  0.00    -0.323 OA 
ENDROOT
BRANCH   2   3
HETATM    3  C   UNL     1     -11.018  14.981  68.130  1.00  0.00    -0.279 A  
HETATM    4  C   UNL     1     -10.597  13.901  67.343  1.00  0.00    -0.267 A  
HETATM    5  C   UNL     1     -10.790  12.587  67.760  1.00  0.00    -0.254 A  
HETATM    6  C   UNL     1     -11.387  12.312  69.006  1.00  0.00    -0.333 A  
HETATM    7  C   UNL     1     -11.761  13.393  69.818  1.00  0.00    -0.355 A  
HETATM    8  H   UNL     1     -12.314  15.556  71.072  1.00  0.00     0.000 HD 
HETATM    9  O   UNL     1     -11.940  15.736  70.216  1.00  0.00    -0.357 OA 
HETATM   10  C   UNL     1     -11.568  14.717  69.387  1.00  0.00    -0.310 A  
BRANCH   6  11
HETATM   11  C   UNL     1     -11.755  10.879  69.358  1.00  0.00    -0.325 C  
HETATM   12  C   UNL     1     -11.668  10.716  70.867  1.00  0.00    -0.387 C  
HETATM   13  O   UNL     1     -12.886   9.147  72.159  1.00  0.00    -0.371 OA 
HETATM   14  C   UNL     1     -12.145   9.332  71.195  1.00  0.00    -0.316 C  
HETATM   15  C   UNL     1     -11.666   8.262  70.301  1.00  0.00     0.105 A  
HETATM   16  C   UNL     1     -11.054   8.644  69.104  1.00  0.00     0.183 A  
HETATM   17  C   UNL     1     -10.543   7.670  68.235  1.00  0.00    -0.175 A  
HETATM   18  O   UNL     1     -10.877   9.950  68.700  1.00  0.00    -0.222 OA 
HETATM   19  C   UNL     1     -10.620   6.313  68.566  1.00  0.00    -0.262 A  
HETATM   20  O   UNL     1     -12.324   6.502  71.802  1.00  0.00    -0.347 OA 
HETATM   21  C   UNL     1     -11.249   5.934  69.756  1.00  0.00    -0.331 A  
HETATM   22  H   UNL     1     -12.387   5.579  72.020  1.00  0.00     0.000 HD 
HETATM   23  C   UNL     1     -11.759   6.901  70.623  1.00  0.00    -0.367 A  
BRANCH  19  24
HETATM   24  O   UNL     1     -10.152   5.272  67.803  1.00  0.00    -0.157 OA 
BRANCH  24  25
HETATM   25  C   UNL     1      -8.792   5.356  67.359  1.00  0.00    -0.105 C  
HETATM   26  C   UNL     1      -6.942   6.839  67.166  1.00  0.00    -0.074 C  
HETATM   27  O   UNL     1      -8.358   6.728  67.386  1.00  0.00    -0.120 OA 
HETATM   28  C   UNL     1      -6.588   6.331  65.760  1.00  0.00    -0.047 C  
HETATM   29  H   UNL     1      -7.260   3.612  64.083  1.00  0.00     0.000 HD 
HETATM   30  O   UNL     1      -9.112   3.476  65.800  1.00  0.00    -0.138 OA 
HETATM   31  C   UNL     1      -7.142   4.914  65.557  1.00  0.00    -0.067 C  
HETATM   32  O   UNL     1      -5.176   6.283  65.505  1.00  0.00    -0.013 OA 
HETATM   33  H   UNL     1      -9.016   3.150  64.913  1.00  0.00     0.000 HD 
HETATM   34  H   UNL     1      -4.957   5.969  64.636  1.00  0.00     0.000 HD 
HETATM   35  O   UNL     1      -6.917   4.489  64.208  1.00  0.00    -0.044 OA 
HETATM   36  C   UNL     1      -8.636   4.827  65.915  1.00  0.00    -0.119 C  
BRANCH  26  37
HETATM   37  C   UNL     1      -6.518   8.302  67.348  1.00  0.00    -0.058 C  
BRANCH  37  38
HETATM   38  O   UNL     1      -5.313   8.330  68.113  1.00  0.00    -0.032 OA 
BRANCH  38  39
HETATM   39  C   UNL     1      -5.557   8.188  69.516  1.00  0.00    -0.026 C  
HETATM   40  O   UNL     1      -6.068   6.876  69.755  1.00  0.00    -0.028 OA 
HETATM   41  C   UNL     1      -6.473   6.604  71.097  1.00  0.00    -0.049 C  
HETATM   42  C   UNL     1      -7.488   7.644  71.615  1.00  0.00    -0.076 C  
HETATM   43  C   UNL     1      -5.263   6.385  72.001  1.00  0.00    -0.027 C  
HETATM   44  O   UNL     1      -8.728   7.485  70.906  1.00  0.00    -0.139 OA 
HETATM   45  C   UNL     1      -7.020   9.084  71.392  1.00  0.00    -0.060 C  
HETATM   46  O   UNL     1      -6.015   9.481  72.340  1.00  0.00    -0.286 OA 
HETATM   47  H   UNL     1      -9.353   8.125  71.225  1.00  0.00     0.000 HD 
HETATM   48  C   UNL     1      -6.540   9.298  69.950  1.00  0.00    -0.049 C  
HETATM   49  H   UNL     1      -5.725  10.374  72.203  1.00  0.00     0.000 HD 
HETATM   50  O   UNL     1      -5.927  10.595  69.839  1.00  0.00    -0.055 OA 
HETATM   51  H   UNL     1      -6.531  11.278  70.106  1.00  0.00     0.000 HD 
ENDBRANCH  38  39
ENDBRANCH  37  38
ENDBRANCH  26  37
ENDBRANCH  24  25
ENDBRANCH  19  24
ENDBRANCH   6  11
ENDBRANCH   2   3
TORSDOF 7
ENDMDL
MODEL      140
REMARK 921   NORMALIZED FREE ENERGY PREDICTED BY IDOCK:   -4.15 KCAL/MOL
REMARK 922        TOTAL FREE ENERGY PREDICTED BY IDOCK:   -7.12 KCAL/MOL
REMARK 923 INTER-LIGAND FREE ENERGY PREDICTED BY IDOCK:   -5.68 KCAL/MOL
REMARK 924 INTRA-LIGAND FREE ENERGY PREDICTED BY IDOCK:   -1.44 KCAL/MOL
REMARK 927      BINDING AFFINITY PREDICTED BY RF-SCORE:    0.00 PKD
ROOT
HETATM    1  C   UNL     1     -12.236  16.159  69.693  1.00  0.00     0.174 C  
HETATM    2  O   UNL     1     -11.738  15.925  68.379  1.00  0.00    -0.358 OA 
ENDROOT
BRANCH   2   3
HETATM    3  C   UNL     1     -10.976  14.796  68.234  1.00  0.00    -0.258 A  
HETATM    4  C   UNL     1     -11.595  13.762  67.521  1.00  0.00    -0.387 A  
HETATM    5  C   UNL     1     -10.957  12.541  67.322  1.00  0.00    -0.300 A  
HETATM    6  C   UNL     1      -9.652  12.328  67.808  1.00  0.00    -0.200 A  
HETATM    7  C   UNL     1      -9.010  13.382  68.476  1.00  0.00    -0.071 A  
HETATM    8  H   UNL     1      -8.103  15.482  69.628  1.00  0.00     0.000 HD 
HETATM    9  O   UNL     1      -8.996  15.608  69.326  1.00  0.00    -0.238 OA 
HETATM   10  C   UNL     1      -9.664  14.610  68.678  1.00  0.00    -0.220 A  
BRANCH   6  11
HETATM   11  C   UNL     1      -9.047  10.934  67.743  1.00  0.00    -0.149 C  
HETATM   12  C   UNL     1      -9.937  10.063  66.871  1.00  0.00    -0.263 C  
HETATM   13  O   UNL     1      -9.231   8.165  65.640  1.00  0.00    -0.108 OA 
HETATM   14  C   UNL     1      -9.259   8.732  66.731  1.00  0.00    -0.169 C  
HETATM   15  C   UNL     1      -8.661   8.187  67.963  1.00  0.00    -0.128 A  
HETATM   16  C   UNL     1      -8.536   9.047  69.057  1.00  0.00    -0.132 A  
HETATM   17  C   UNL     1      -8.011   8.572  70.267  1.00  0.00    -0.103 A  
HETATM   18  O   UNL     1      -8.925  10.370  69.059  1.00  0.00    -0.161 OA 
HETATM   19  C   UNL     1      -7.630   7.231  70.397  1.00  0.00    -0.088 A  
HETATM   20  O   UNL     1      -8.403   5.979  67.045  1.00  0.00    -0.106 OA 
HETATM   21  C   UNL     1      -7.740   6.379  69.295  1.00  0.00    -0.101 A  
HETATM   22  H   UNL     1      -8.132   5.072  67.130  1.00  0.00     0.000 HD 
HETATM   23  C   UNL     1      -8.261   6.849  68.089  1.00  0.00    -0.119 A  
BRANCH  19  24
HETATM   24  O   UNL     1      -7.112   6.651  71.528  1.00  0.00    -0.076 OA 
BRANCH  24  25
HETATM   25  C   UNL     1      -7.583   5.337  71.855  1.00  0.00    -0.097 C  
HETATM   26  C   UNL     1      -9.544   4.092  72.369  1.00  0.00    -0.139 C  
HETATM   27  O   UNL     1      -8.965   5.403  72.249  1.00  0.00    -0.129 OA 
HETATM   28  C   UNL     1      -8.841   3.309  73.488  1.00  0.00    -0.080 C  
HETATM   29  H   UNL     1      -5.722   2.674  74.214  1.00  0.00     0.000 HD 
HETATM   30  O   UNL     1      -5.371   4.683  72.718  1.00  0.00    -0.007 OA 
HETATM   31  C   UNL     1      -7.324   3.303  73.255  1.00  0.00    -0.051 C  
HETATM   32  O   UNL     1      -9.268   1.942  73.589  1.00  0.00    -0.073 OA 
HETATM   33  H   UNL     1      -4.874   4.304  73.434  1.00  0.00     0.000 HD 
HETATM   34  H   UNL     1      -8.834   1.458  74.281  1.00  0.00     0.000 HD 
HETATM   35  O   UNL     1      -6.661   2.677  74.359  1.00  0.00    -0.027 OA 
HETATM   36  C   UNL     1      -6.775   4.720  73.019  1.00  0.00    -0.065 C  
BRANCH  26  37
HETATM   37  C   UNL     1     -11.045   4.230  72.649  1.00  0.00     0.087 C  
BRANCH  37  38
HETATM   38  O   UNL     1     -11.272   5.491  73.279  1.00  0.00    -0.286 OA 
BRANCH  38  39
HETATM   39  C   UNL     1     -11.891   6.434  72.396  1.00  0.00    -0.213 C  
HETATM   40  O   UNL     1     -11.156   7.658  72.456  1.00  0.00    -0.281 OA 
HETATM   41  C   UNL     1     -11.709   8.747  71.716  1.00  0.00    -0.346 C  
HETATM   42  C   UNL     1     -13.177   9.020  72.100  1.00  0.00    -0.446 C  
HETATM   43  C   UNL     1     -11.458   8.577  70.220  1.00  0.00    -0.064 C  
HETATM   44  O   UNL     1     -13.226   9.533  73.441  1.00  0.00    -0.038 OA 
HETATM   45  C   UNL     1     -14.038   7.754  72.067  1.00  0.00    -0.276 C  
HETATM   46  O   UNL     1     -14.381   7.366  70.726  1.00  0.00    -0.499 OA 
HETATM   47  H   UNL     1     -14.132   9.701  73.677  1.00  0.00     0.000 HD 
HETATM   48  C   UNL     1     -13.365   6.602  72.825  1.00  0.00     1.184 C  
HETATM   49  H   UNL     1     -14.915   6.581  70.706  1.00  0.00     0.000 HD 
HETATM   50  O   UNL     1     -14.104   5.388  72.601  1.00  0.00    -0.267 OA 
HETATM   51  H   UNL     1     -15.010   5.491  72.865  1.00  0.00     0.000 HD 
ENDBRANCH  38  39
ENDBRANCH  37  38
ENDBRANCH  26  37
ENDBRANCH  24  25
ENDBRANCH  19  24
ENDBRANCH   6  11
ENDBRANCH   2   3
TORSDOF 7
ENDMDL
MODEL      141
REMARK 921   NORMALIZED FREE ENERGY PREDICTED BY IDOCK:   -3.93 KCAL/MOL
REMARK 922        TOTAL FREE ENERGY PREDICTED BY IDOCK:   -6.81 KCAL/MOL
REMARK 923 INTER-LIGAND FREE ENERGY PREDICTED BY IDOCK:   -6.07 KCAL/MOL
REMARK 924 INTRA-LIGAND FREE ENERGY PREDICTED BY IDOCK:   -0.74 KCAL/MOL
REMARK 927      BINDING AFFINITY PREDICTED BY RF-SCORE:    0.00 PKD
ROOT
HETATM    1  C   UNL     1     -10.071   1.710  63.216  1.00  0.00    -0.120 C  
HETATM    2  O   UNL     1      -8.828   1.892  63.886  1.00  0.00    -0.088 OA 
ENDROOT
BRANCH   2   3
HETATM    3  C   UNL     1      -8.607   3.151  64.378  1.00  0.00    -0.094 A  
HETATM    4  C   UNL     1      -9.357   3.473  65.516  1.00  0.00    -0.158 A  
HETATM    5  C   UNL     1      -9.264   4.729  66.109  1.00  0.00    -0.144 A  
HETATM    6  C   UNL     1      -8.383   5.700  65.594  1.00  0.00    -0.135 A  
HETATM    7  C   UNL     1      -7.592   5.361  64.486  1.00  0.00    -0.078 A  
HETATM    8  H   UNL     1      -6.281   4.445  62.486  1.00  0.00     0.000 HD 
HETATM    9  O   UNL     1      -6.900   3.805  62.818  1.00  0.00    -0.033 OA 
HETATM   10  C   UNL     1      -7.697   4.092  63.889  1.00  0.00    -0.082 A  
BRANCH   6  11
HETATM   11  C   UNL     1      -8.432   7.119  66.139  1.00  0.00    -0.142 C  
HETATM   12  C   UNL     1      -8.477   7.051  67.656  1.00  0.00    -0.123 C  
HETATM   13  O   UNL     1      -7.702   8.731  69.137  1.00  0.00    -0.089 OA 
HETATM   14  C   UNL     1      -8.410   8.460  68.169  1.00  0.00    -0.128 C  
HETATM   15  C   UNL     1      -9.233   9.444  67.443  1.00  0.00    -0.145 A  
HETATM   16  C   UNL     1      -9.773   9.056  66.214  1.00  0.00    -0.275 A  
HETATM   17  C   UNL     1     -10.596   9.937  65.498  1.00  0.00     0.303 A  
HETATM   18  O   UNL     1      -9.581   7.820  65.632  1.00  0.00     0.187 OA 
HETATM   19  C   UNL     1     -10.903  11.199  66.017  1.00  0.00    -0.166 A  
HETATM   20  O   UNL     1      -9.036  11.110  69.166  1.00  0.00    -0.376 OA 
HETATM   21  C   UNL     1     -10.346  11.591  67.238  1.00  0.00    -0.236 A  
HETATM   22  H   UNL     1      -9.235  11.973  69.511  1.00  0.00     0.000 HD 
HETATM   23  C   UNL     1      -9.525  10.717  67.951  1.00  0.00    -0.159 A  
BRANCH  19  24
HETATM   24  O   UNL     1     -11.699  12.142  65.415  1.00  0.00    -0.364 OA 
BRANCH  24  25
HETATM   25  C   UNL     1     -11.188  13.480  65.360  1.00  0.00    -0.289 C  
HETATM   26  C   UNL     1     -10.284  15.228  66.697  1.00  0.00    -0.271 C  
HETATM   27  O   UNL     1     -11.001  13.983  66.695  1.00  0.00    -0.295 OA 
HETATM   28  C   UNL     1     -11.103  16.306  65.971  1.00  0.00     0.114 C  
HETATM   29  H   UNL     1     -12.607  16.463  63.077  1.00  0.00     0.000 HD 
HETATM   30  O   UNL     1     -12.444  13.948  63.293  1.00  0.00    -1.113 OA 
HETATM   31  C   UNL     1     -11.499  15.814  64.572  1.00  0.00    -0.289 C  
HETATM   32  O   UNL     1     -10.404  17.549  65.809  1.00  0.00    -0.560 OA 
HETATM   33  H   UNL     1     -13.041  14.529  62.837  1.00  0.00     0.000 HD 
HETATM   34  H   UNL     1     -10.911  18.216  65.361  1.00  0.00     0.000 HD 
HETATM   35  O   UNL     1     -12.362  16.768  63.943  1.00  0.00     0.152 OA 
HETATM   36  C   UNL     1     -12.160  14.426  64.618  1.00  0.00    -0.471 C  
BRANCH  26  37
HETATM   37  C   UNL     1      -9.991  15.638  68.145  1.00  0.00    -0.217 C  
BRANCH  37  38
HETATM   38  O   UNL     1     -11.205  16.099  68.737  1.00  0.00    -0.331 OA 
BRANCH  38  39
HETATM   39  C   UNL     1     -11.499  15.427  69.966  1.00  0.00    -0.316 C  
HETATM   40  O   UNL     1     -12.741  14.737  69.818  1.00  0.00    -0.188 OA 
HETATM   41  C   UNL     1     -13.240  14.102  70.996  1.00  0.00    -0.272 C  
HETATM   42  C   UNL     1     -13.344  15.084  72.181  1.00  0.00    -0.387 C  
HETATM   43  C   UNL     1     -12.470  12.818  71.294  1.00  0.00    -0.284 C  
HETATM   44  O   UNL     1     -14.384  16.039  71.911  1.00  0.00    -0.217 OA 
HETATM   45  C   UNL     1     -12.052  15.873  72.407  1.00  0.00    -0.506 C  
HETATM   46  O   UNL     1     -11.041  15.082  73.053  1.00  0.00     0.057 OA 
HETATM   47  H   UNL     1     -14.449  16.644  72.641  1.00  0.00     0.000 HD 
HETATM   48  C   UNL     1     -11.532  16.479  71.096  1.00  0.00    -0.046 C  
HETATM   49  H   UNL     1     -10.239  15.571  73.194  1.00  0.00     0.000 HD 
HETATM   50  O   UNL     1     -10.223  17.036  71.315  1.00  0.00     2.305 OA 
HETATM   51  H   UNL     1     -10.244  17.683  72.010  1.00  0.00     0.000 HD 
ENDBRANCH  38  39
ENDBRANCH  37  38
ENDBRANCH  26  37
ENDBRANCH  24  25
ENDBRANCH  19  24
ENDBRANCH   6  11
ENDBRANCH   2   3
TORSDOF 7
ENDMDL
MODEL      142
REMARK 921   NORMALIZED FREE ENERGY PREDICTED BY IDOCK:   -3.91 KCAL/MOL
REMARK 922        TOTAL FREE ENERGY PREDICTED BY IDOCK:   -6.79 KCAL/MOL
REMARK 923 INTER-LIGAND FREE ENERGY PREDICTED BY IDOCK:   -4.87 KCAL/MOL
REMARK 924 INTRA-LIGAND FREE ENERGY PREDICTED BY IDOCK:   -1.92 KCAL/MOL
REMARK 927      BINDING AFFINITY PREDICTED BY RF-SCORE:    0.00 PKD
ROOT
HETATM    1  C   UNL     1      -9.885   4.094  72.971  1.00  0.00    -0.133 C  
HETATM    2  O   UNL     1      -8.562   4.615  73.050  1.00  0.00    -0.112 OA 
ENDROOT
BRANCH   2   3
HETATM    3  C   UNL     1      -8.193   5.437  72.018  1.00  0.00    -0.115 A  
HETATM    4  C   UNL     1      -7.837   6.735  72.405  1.00  0.00    -0.094 A  
HETATM    5  C   UNL     1      -7.472   7.693  71.463  1.00  0.00    -0.079 A  
HETATM    6  C   UNL     1      -7.420   7.367  70.094  1.00  0.00    -0.087 A  
HETATM    7  C   UNL     1      -7.726   6.052  69.711  1.00  0.00    -0.096 A  
HETATM    8  H   UNL     1      -8.315   3.590  69.329  1.00  0.00     0.000 HD 
HETATM    9  O   UNL     1      -8.379   3.824  70.248  1.00  0.00    -0.056 OA 
HETATM   10  C   UNL     1      -8.099   5.092  70.667  1.00  0.00    -0.106 A  
BRANCH   6  11
HETATM   11  C   UNL     1      -7.201   8.470  69.070  1.00  0.00    -0.073 C  
HETATM   12  C   UNL     1      -6.076   8.047  68.140  1.00  0.00    -0.046 C  
HETATM   13  O   UNL     1      -5.790   8.771  65.901  1.00  0.00    -0.049 OA 
HETATM   14  C   UNL     1      -5.959   9.098  67.075  1.00  0.00    -0.056 C  
HETATM   15  C   UNL     1      -6.056  10.493  67.540  1.00  0.00    -0.052 A  
HETATM   16  C   UNL     1      -6.509  10.711  68.844  1.00  0.00    -0.049 A  
HETATM   17  C   UNL     1      -6.583  12.015  69.353  1.00  0.00    -0.100 A  
HETATM   18  O   UNL     1      -6.878   9.711  69.719  1.00  0.00    -0.055 OA 
HETATM   19  C   UNL     1      -6.185  13.105  68.571  1.00  0.00    -0.079 A  
HETATM   20  O   UNL     1      -5.199  11.401  65.484  1.00  0.00    -0.469 OA 
HETATM   21  C   UNL     1      -5.750  12.885  67.261  1.00  0.00     0.050 A  
HETATM   22  H   UNL     1      -4.941  12.143  64.950  1.00  0.00     0.000 HD 
HETATM   23  C   UNL     1      -5.676  11.588  66.752  1.00  0.00    -0.139 A  
BRANCH  19  24
HETATM   24  O   UNL     1      -6.206  14.422  68.960  1.00  0.00    -0.087 OA 
BRANCH  24  25
HETATM   25  C   UNL     1      -7.475  15.086  68.926  1.00  0.00    -0.143 C  
HETATM   26  C   UNL     1      -9.674  14.944  68.029  1.00  0.00    -0.212 C  
HETATM   27  O   UNL     1      -8.322  14.462  67.945  1.00  0.00    -0.143 OA 
HETATM   28  C   UNL     1      -9.716  16.445  67.703  1.00  0.00    -0.238 C  
HETATM   29  H   UNL     1      -8.064  19.055  68.759  1.00  0.00     0.000 HD 
HETATM   30  O   UNL     1      -6.432  17.253  69.459  1.00  0.00    -0.240 OA 
HETATM   31  C   UNL     1      -8.725  17.206  68.594  1.00  0.00    -0.266 C  
HETATM   32  O   UNL     1     -11.010  17.038  67.892  1.00  0.00    -0.337 OA 
HETATM   33  H   UNL     1      -6.337  18.171  69.230  1.00  0.00     0.000 HD 
HETATM   34  H   UNL     1     -11.036  17.966  67.691  1.00  0.00     0.000 HD 
HETATM   35  O   UNL     1      -8.678  18.584  68.208  1.00  0.00    -0.294 OA 
HETATM   36  C   UNL     1      -7.321  16.579  68.554  1.00  0.00    -0.186 C  
BRANCH  26  37
HETATM   37  C   UNL     1     -10.554  14.143  67.062  1.00  0.00    -0.276 C  
BRANCH  37  38
HETATM   38  O   UNL     1     -11.795  13.862  67.709  1.00  0.00    -0.344 OA 
BRANCH  38  39
HETATM   39  C   UNL     1     -11.629  13.028  68.861  1.00  0.00    -0.311 C  
HETATM   40  O   UNL     1     -11.476  11.678  68.421  1.00  0.00    -0.246 OA 
HETATM   41  C   UNL     1     -11.412  10.694  69.455  1.00  0.00    -0.291 C  
HETATM   42  C   UNL     1     -12.620  10.781  70.410  1.00  0.00    -0.314 C  
HETATM   43  C   UNL     1     -10.049  10.709  70.143  1.00  0.00     0.321 C  
HETATM   44  O   UNL     1     -13.806  10.377  69.707  1.00  0.00     0.163 OA 
HETATM   45  C   UNL     1     -12.860  12.202  70.926  1.00  0.00    -0.102 C  
HETATM   46  O   UNL     1     -11.925  12.572  71.953  1.00  0.00     0.623 OA 
HETATM   47  H   UNL     1     -14.550  10.431  70.295  1.00  0.00     0.000 HD 
HETATM   48  C   UNL     1     -12.857  13.220  69.778  1.00  0.00     0.543 C  
HETATM   49  H   UNL     1     -12.074  13.453  72.273  1.00  0.00     0.000 HD 
HETATM   50  O   UNL     1     -12.885  14.553  70.322  1.00  0.00    -0.495 OA 
HETATM   51  H   UNL     1     -13.640  14.671  70.885  1.00  0.00     0.000 HD 
ENDBRANCH  38  39
ENDBRANCH  37  38
ENDBRANCH  26  37
ENDBRANCH  24  25
ENDBRANCH  19  24
ENDBRANCH   6  11
ENDBRANCH   2   3
TORSDOF 7
ENDMDL
MODEL      143
REMARK 921   NORMALIZED FREE ENERGY PREDICTED BY IDOCK:   -3.85 KCAL/MOL
REMARK 922        TOTAL FREE ENERGY PREDICTED BY IDOCK:   -6.70 KCAL/MOL
REMARK 923 INTER-LIGAND FREE ENERGY PREDICTED BY IDOCK:   -6.38 KCAL/MOL
REMARK 924 INTRA-LIGAND FREE ENERGY PREDICTED BY IDOCK:   -0.33 KCAL/MOL
REMARK 927      BINDING AFFINITY PREDICTED BY RF-SCORE:    0.00 PKD
ROOT
HETATM    1  C   UNL     1      -9.930   3.956  73.073  1.00  0.00    -0.137 C  
HETATM    2  O   UNL     1      -8.604   4.475  73.108  1.00  0.00    -0.101 OA 
ENDROOT
BRANCH   2   3
HETATM    3  C   UNL     1      -8.282   5.331  72.089  1.00  0.00    -0.114 A  
HETATM    4  C   UNL     1      -7.987   6.638  72.496  1.00  0.00    -0.102 A  
HETATM    5  C   UNL     1      -7.675   7.628  71.568  1.00  0.00    -0.085 A  
HETATM    6  C   UNL     1      -7.617   7.329  70.193  1.00  0.00    -0.090 A  
HETATM    7  C   UNL     1      -7.860   6.007  69.790  1.00  0.00    -0.101 A  
HETATM    8  H   UNL     1      -8.331   3.526  69.368  1.00  0.00     0.000 HD 
HETATM    9  O   UNL     1      -8.400   3.741  70.291  1.00  0.00    -0.056 OA 
HETATM   10  C   UNL     1      -8.180   5.014  70.732  1.00  0.00    -0.100 A  
BRANCH   6  11
HETATM   11  C   UNL     1      -7.458   8.458  69.187  1.00  0.00    -0.089 C  
HETATM   12  C   UNL     1      -6.299   8.122  68.263  1.00  0.00    -0.051 C  
HETATM   13  O   UNL     1      -6.038   8.895  66.039  1.00  0.00    -0.051 OA 
HETATM   14  C   UNL     1      -6.239   9.193  67.215  1.00  0.00    -0.058 C  
HETATM   15  C   UNL     1      -6.429  10.572  67.698  1.00  0.00    -0.057 A  
HETATM   16  C   UNL     1      -6.908  10.742  69.000  1.00  0.00    -0.075 A  
HETATM   17  C   UNL     1      -7.070  12.031  69.527  1.00  0.00     0.162 A  
HETATM   18  O   UNL     1      -7.221   9.708  69.858  1.00  0.00    -0.076 OA 
HETATM   19  C   UNL     1      -6.734  13.155  68.765  1.00  0.00    -0.100 A  
HETATM   20  O   UNL     1      -5.612  11.563  65.665  1.00  0.00    -0.502 OA 
HETATM   21  C   UNL     1      -6.273  12.982  67.457  1.00  0.00    -0.143 A  
HETATM   22  H   UNL     1      -5.396  12.327  65.144  1.00  0.00     0.000 HD 
HETATM   23  C   UNL     1      -6.111  11.701  66.930  1.00  0.00    -0.148 A  
BRANCH  19  24
HETATM   24  O   UNL     1      -6.843  14.462  69.172  1.00  0.00    -0.107 OA 
BRANCH  24  25
HETATM   25  C   UNL     1      -8.139  14.902  69.595  1.00  0.00     0.018 C  
HETATM   26  C   UNL     1     -10.423  14.248  69.723  1.00  0.00     0.236 C  
HETATM   27  O   UNL     1      -9.139  13.975  69.138  1.00  0.00     0.081 OA 
HETATM   28  C   UNL     1     -10.920  15.631  69.275  1.00  0.00    -0.267 C  
HETATM   29  H   UNL     1      -9.610  18.621  69.235  1.00  0.00     0.000 HD 
HETATM   30  O   UNL     1      -7.479  17.267  69.390  1.00  0.00    -0.118 OA 
HETATM   31  C   UNL     1      -9.856  16.696  69.575  1.00  0.00    -0.038 C  
HETATM   32  O   UNL     1     -12.135  16.042  69.918  1.00  0.00    -0.285 OA 
HETATM   33  H   UNL     1      -7.686  18.125  69.039  1.00  0.00     0.000 HD 
HETATM   34  H   UNL     1     -12.443  16.897  69.641  1.00  0.00     0.000 HD 
HETATM   35  O   UNL     1     -10.268  17.962  69.049  1.00  0.00    -0.378 OA 
HETATM   36  C   UNL     1      -8.476  16.299  69.024  1.00  0.00    -0.244 C  
BRANCH  26  37
HETATM   37  C   UNL     1     -11.408  13.147  69.312  1.00  0.00    -0.253 C  
BRANCH  37  38
HETATM   38  O   UNL     1     -10.818  12.386  68.259  1.00  0.00    -0.217 OA 
BRANCH  38  39
HETATM   39  C   UNL     1     -11.061  12.963  66.971  1.00  0.00    -0.275 C  
HETATM   40  O   UNL     1     -12.420  12.711  66.612  1.00  0.00    -0.368 OA 
HETATM   41  C   UNL     1     -12.800  13.126  65.299  1.00  0.00    -0.266 C  
HETATM   42  C   UNL     1     -11.873  12.534  64.217  1.00  0.00    -0.395 C  
HETATM   43  C   UNL     1     -12.979  14.640  65.232  1.00  0.00     0.139 C  
HETATM   44  O   UNL     1     -12.085  11.115  64.140  1.00  0.00     0.075 OA 
HETATM   45  C   UNL     1     -10.390  12.755  64.528  1.00  0.00    -0.349 C  
HETATM   46  O   UNL     1      -9.975  14.104  64.255  1.00  0.00    -0.616 OA 
HETATM   47  H   UNL     1     -11.514  10.751  63.473  1.00  0.00     0.000 HD 
HETATM   48  C   UNL     1     -10.057  12.351  65.970  1.00  0.00    -0.251 C  
HETATM   49  H   UNL     1      -9.055  14.241  64.447  1.00  0.00     0.000 HD 
HETATM   50  O   UNL     1      -8.712  12.759  66.281  1.00  0.00    -0.422 OA 
HETATM   51  H   UNL     1      -8.094  12.382  65.665  1.00  0.00     0.000 HD 
ENDBRANCH  38  39
ENDBRANCH  37  38
ENDBRANCH  26  37
ENDBRANCH  24  25
ENDBRANCH  19  24
ENDBRANCH   6  11
ENDBRANCH   2   3
TORSDOF 7
ENDMDL
MODEL      144
REMARK 921   NORMALIZED FREE ENERGY PREDICTED BY IDOCK:   -2.74 KCAL/MOL
REMARK 922        TOTAL FREE ENERGY PREDICTED BY IDOCK:   -5.15 KCAL/MOL
REMARK 923 INTER-LIGAND FREE ENERGY PREDICTED BY IDOCK:   -5.59 KCAL/MOL
REMARK 924 INTRA-LIGAND FREE ENERGY PREDICTED BY IDOCK:    0.44 KCAL/MOL
REMARK 927      BINDING AFFINITY PREDICTED BY RF-SCORE:    0.00 PKD
ROOT
HETATM    1  C   UNL     1      -5.258   2.997  67.879  1.00  0.00    -0.012 C  
HETATM    2  O   UNL     1      -5.977   3.666  68.910  1.00  0.00    -0.022 OA 
ENDROOT
BRANCH   2   3
HETATM    3  C   UNL     1      -6.583   4.836  68.537  1.00  0.00    -0.046 A  
HETATM    4  C   UNL     1      -5.871   5.995  68.874  1.00  0.00    -0.016 A  
HETATM    5  C   UNL     1      -6.378   7.260  68.590  1.00  0.00    -0.036 A  
HETATM    6  C   UNL     1      -7.611   7.404  67.923  1.00  0.00    -0.114 A  
HETATM    7  C   UNL     1      -8.299   6.244  67.538  1.00  0.00    -0.113 A  
HETATM    8  H   UNL     1      -9.301   3.961  66.953  1.00  0.00     0.000 HD 
HETATM    9  O   UNL     1      -8.485   3.870  67.432  1.00  0.00    -0.097 OA 
HETATM   10  C   UNL     1      -7.784   4.970  67.834  1.00  0.00    -0.084 A  
BRANCH   6  11
HETATM   11  C   UNL     1      -8.231   8.786  67.788  1.00  0.00    -0.111 C  
HETATM   12  C   UNL     1      -9.104   8.804  66.545  1.00  0.00    -0.203 C  
HETATM   13  O   UNL     1     -10.980  10.209  66.195  1.00  0.00     0.089 OA 
HETATM   14  C   UNL     1      -9.791  10.137  66.500  1.00  0.00    -0.212 C  
HETATM   15  C   UNL     1      -8.951  11.300  66.836  1.00  0.00    -0.163 A  
HETATM   16  C   UNL     1      -7.704  11.052  67.416  1.00  0.00    -0.114 A  
HETATM   17  C   UNL     1      -6.846  12.119  67.719  1.00  0.00    -0.106 A  
HETATM   18  O   UNL     1      -7.211   9.796  67.702  1.00  0.00    -0.087 OA 
HETATM   19  C   UNL     1      -7.219  13.435  67.425  1.00  0.00    -0.103 A  
HETATM   20  O   UNL     1     -10.531  12.889  65.964  1.00  0.00    -0.267 OA 
HETATM   21  C   UNL     1      -8.475  13.680  66.862  1.00  0.00    -0.073 A  
HETATM   22  H   UNL     1     -10.789  13.784  65.776  1.00  0.00     0.000 HD 
HETATM   23  C   UNL     1      -9.331  12.621  66.559  1.00  0.00    -0.228 A  
BRANCH  19  24
HETATM   24  O   UNL     1      -6.465  14.556  67.668  1.00  0.00    -0.175 OA 
BRANCH  24  25
HETATM   25  C   UNL     1      -7.135  15.666  68.279  1.00  0.00    -0.113 C  
HETATM   26  C   UNL     1      -8.924  17.207  67.983  1.00  0.00    -0.233 C  
HETATM   27  O   UNL     1      -8.070  16.239  67.348  1.00  0.00    -0.144 OA 
HETATM   28  C   UNL     1      -8.086  18.389  68.493  1.00  0.00    -0.319 C  
HETATM   29  H   UNL     1      -5.390  18.655  70.316  1.00  0.00     0.000 HD 
HETATM   30  O   UNL     1      -5.129  16.247  69.585  1.00  0.00    -0.114 OA 
HETATM   31  C   UNL     1      -6.946  17.881  69.386  1.00  0.00    -0.071 C  
HETATM   32  O   UNL     1      -8.841  19.341  69.258  1.00  0.00    -0.201 OA 
HETATM   33  H   UNL     1      -4.514  16.923  69.845  1.00  0.00     0.000 HD 
HETATM   34  H   UNL     1      -8.324  20.072  69.574  1.00  0.00     0.000 HD 
HETATM   35  O   UNL     1      -6.096  18.970  69.763  1.00  0.00    -0.256 OA 
HETATM   36  C   UNL     1      -6.135  16.767  68.701  1.00  0.00    -0.145 C  
BRANCH  26  37
HETATM   37  C   UNL     1      -9.986  17.673  66.981  1.00  0.00    -0.320 C  
BRANCH  37  38
HETATM   38  O   UNL     1     -11.191  17.946  67.696  1.00  0.00    -0.074 OA 
BRANCH  38  39
HETATM   39  C   UNL     1     -11.584  16.853  68.534  1.00  0.00     0.360 C  
HETATM   40  O   UNL     1     -10.872  16.953  69.768  1.00  0.00    -0.281 OA 
HETATM   41  C   UNL     1     -11.064  15.871  70.681  1.00  0.00    -0.346 C  
HETATM   42  C   UNL     1     -10.759  14.507  70.031  1.00  0.00     0.075 C  
HETATM   43  C   UNL     1     -12.425  15.965  71.366  1.00  0.00    -0.459 C  
HETATM   44  O   UNL     1      -9.348  14.413  69.771  1.00  0.00    -0.169 OA 
HETATM   45  C   UNL     1     -11.480  14.318  68.693  1.00  0.00    -0.296 C  
HETATM   46  O   UNL     1     -12.873  14.010  68.867  1.00  0.00    -0.128 OA 
HETATM   47  H   UNL     1      -9.161  13.572  69.370  1.00  0.00     0.000 HD 
HETATM   48  C   UNL     1     -11.289  15.537  67.781  1.00  0.00    -0.286 C  
HETATM   49  H   UNL     1     -13.320  13.893  68.038  1.00  0.00     0.000 HD 
HETATM   50  O   UNL     1     -12.140  15.407  66.627  1.00  0.00     0.220 OA 
HETATM   51  H   UNL     1     -11.958  14.598  66.164  1.00  0.00     0.000 HD 
ENDBRANCH  38  39
ENDBRANCH  37  38
ENDBRANCH  26  37
ENDBRANCH  24  25
ENDBRANCH  19  24
ENDBRANCH   6  11
ENDBRANCH   2   3
TORSDOF 7
ENDMDL
MODEL      145
REMARK 921   NORMALIZED FREE ENERGY PREDICTED BY IDOCK:   -2.50 KCAL/MOL
REMARK 922        TOTAL FREE ENERGY PREDICTED BY IDOCK:   -4.81 KCAL/MOL
REMARK 923 INTER-LIGAND FREE ENERGY PREDICTED BY IDOCK:   -4.18 KCAL/MOL
REMARK 924 INTRA-LIGAND FREE ENERGY PREDICTED BY IDOCK:   -0.63 KCAL/MOL
REMARK 927      BINDING AFFINITY PREDICTED BY RF-SCORE:    0.00 PKD
ROOT
HETATM    1  C   UNL     1     -13.589   5.759  71.354  1.00  0.00     2.692 C  
HETATM    2  O   UNL     1     -12.424   6.407  70.854  1.00  0.00    -0.114 OA 
ENDROOT
BRANCH   2   3
HETATM    3  C   UNL     1     -12.413   7.771  70.978  1.00  0.00    -0.148 A  
HETATM    4  C   UNL     1     -11.370   8.410  70.295  1.00  0.00    -0.131 A  
HETATM    5  C   UNL     1     -11.209   9.792  70.357  1.00  0.00    -0.362 A  
HETATM    6  C   UNL     1     -12.117  10.586  71.084  1.00  0.00    -0.473 A  
HETATM    7  C   UNL     1     -13.192   9.952  71.724  1.00  0.00    -0.535 A  
HETATM    8  H   UNL     1     -15.044   8.520  72.760  1.00  0.00     0.000 HD 
HETATM    9  O   UNL     1     -14.410   7.985  72.295  1.00  0.00    -0.325 OA 
HETATM   10  C   UNL     1     -13.344   8.556  71.663  1.00  0.00    -0.343 A  
BRANCH   6  11
HETATM   11  C   UNL     1     -11.818  12.064  71.290  1.00  0.00     0.914 C  
HETATM   12  C   UNL     1     -12.887  12.648  72.198  1.00  0.00    -0.205 C  
HETATM   13  O   UNL     1     -12.619  14.531  73.612  1.00  0.00    -0.410 OA 
HETATM   14  C   UNL     1     -12.506  14.073  72.477  1.00  0.00    -0.021 C  
HETATM   15  C   UNL     1     -12.011  14.840  71.320  1.00  0.00    -0.404 A  
HETATM   16  C   UNL     1     -11.687  14.128  70.162  1.00  0.00    -0.280 A  
HETATM   17  C   UNL     1     -11.250  14.809  69.018  1.00  0.00    -0.286 A  
HETATM   18  O   UNL     1     -11.791  12.759  70.032  1.00  0.00    -0.325 OA 
HETATM   19  C   UNL     1     -11.155  16.205  69.016  1.00  0.00    -0.336 A  
HETATM   20  O   UNL     1     -12.238  16.960  72.431  1.00  0.00    -0.249 OA 
HETATM   21  C   UNL     1     -11.463  16.912  70.182  1.00  0.00     0.662 A  
HETATM   22  H   UNL     1     -12.161  17.907  72.434  1.00  0.00     0.000 HD 
HETATM   23  C   UNL     1     -11.898  16.237  71.323  1.00  0.00    -0.299 A  
BRANCH  19  24
HETATM   24  O   UNL     1     -10.748  16.981  67.960  1.00  0.00    -0.357 OA 
BRANCH  24  25
HETATM   25  C   UNL     1      -9.376  16.864  67.562  1.00  0.00    -0.232 C  
HETATM   26  C   UNL     1      -7.661  15.286  67.084  1.00  0.00    -0.189 C  
HETATM   27  O   UNL     1      -8.952  15.494  67.681  1.00  0.00    -0.180 OA 
HETATM   28  C   UNL     1      -6.599  16.103  67.836  1.00  0.00    -0.139 C  
HETATM   29  H   UNL     1      -6.356  19.226  68.757  1.00  0.00     0.000 HD 
HETATM   30  O   UNL     1      -8.861  19.112  68.428  1.00  0.00    -0.322 OA 
HETATM   31  C   UNL     1      -7.022  17.576  67.909  1.00  0.00    -0.181 C  
HETATM   32  O   UNL     1      -5.300  16.058  67.225  1.00  0.00    -0.289 OA 
HETATM   33  H   UNL     1      -8.295  19.647  68.972  1.00  0.00     0.000 HD 
HETATM   34  H   UNL     1      -4.643  16.562  67.689  1.00  0.00     0.000 HD 
HETATM   35  O   UNL     1      -6.093  18.313  68.711  1.00  0.00    -0.195 OA 
HETATM   36  C   UNL     1      -8.455  17.734  68.448  1.00  0.00    -0.295 C  
BRANCH  26  37
HETATM   37  C   UNL     1      -7.330  13.789  67.114  1.00  0.00     0.167 C  
BRANCH  37  38
HETATM   38  O   UNL     1      -7.669  13.277  68.403  1.00  0.00    -0.128 OA 
BRANCH  38  39
HETATM   39  C   UNL     1      -7.385  11.879  68.524  1.00  0.00    -0.111 C  
HETATM   40  O   UNL     1      -5.979  11.689  68.362  1.00  0.00    -0.049 OA 
HETATM   41  C   UNL     1      -5.537  10.331  68.342  1.00  0.00    -0.037 C  
HETATM   42  C   UNL     1      -6.286   9.496  67.283  1.00  0.00    -0.064 C  
HETATM   43  C   UNL     1      -5.537   9.734  69.747  1.00  0.00    -0.037 C  
HETATM   44  O   UNL     1      -5.898   9.940  65.972  1.00  0.00    -0.059 OA 
HETATM   45  C   UNL     1      -7.806   9.647  67.382  1.00  0.00    -0.095 C  
HETATM   46  O   UNL     1      -8.356   8.894  68.475  1.00  0.00    -0.122 OA 
HETATM   47  H   UNL     1      -6.360   9.425  65.320  1.00  0.00     0.000 HD 
HETATM   48  C   UNL     1      -8.215  11.124  67.462  1.00  0.00    -0.119 C  
HETATM   49  H   UNL     1      -9.299   8.987  68.537  1.00  0.00     0.000 HD 
HETATM   50  O   UNL     1      -9.622  11.214  67.754  1.00  0.00    -0.167 OA 
HETATM   51  H   UNL     1     -10.132  10.750  67.101  1.00  0.00     0.000 HD 
ENDBRANCH  38  39
ENDBRANCH  37  38
ENDBRANCH  26  37
ENDBRANCH  24  25
ENDBRANCH  19  24
ENDBRANCH   6  11
ENDBRANCH   2   3
TORSDOF 7
ENDMDL
MODEL      146
REMARK 921   NORMALIZED FREE ENERGY PREDICTED BY IDOCK:   -2.42 KCAL/MOL
REMARK 922        TOTAL FREE ENERGY PREDICTED BY IDOCK:   -4.68 KCAL/MOL
REMARK 923 INTER-LIGAND FREE ENERGY PREDICTED BY IDOCK:   -5.70 KCAL/MOL
REMARK 924 INTRA-LIGAND FREE ENERGY PREDICTED BY IDOCK:    1.01 KCAL/MOL
REMARK 927      BINDING AFFINITY PREDICTED BY RF-SCORE:    0.00 PKD
ROOT
HETATM    1  C   UNL     1      -8.888   2.161  72.804  1.00  0.00    -0.066 C  
HETATM    2  O   UNL     1      -9.784   3.066  72.168  1.00  0.00    -0.138 OA 
ENDROOT
BRANCH   2   3
HETATM    3  C   UNL     1      -9.228   3.853  71.194  1.00  0.00    -0.132 A  
HETATM    4  C   UNL     1     -10.148   4.398  70.289  1.00  0.00    -0.173 A  
HETATM    5  C   UNL     1      -9.729   5.192  69.225  1.00  0.00    -0.242 A  
HETATM    6  C   UNL     1      -8.364   5.494  69.052  1.00  0.00    -0.102 A  
HETATM    7  C   UNL     1      -7.447   4.991  69.988  1.00  0.00    -0.060 A  
HETATM    8  H   UNL     1      -6.032   3.954  71.854  1.00  0.00     0.000 HD 
HETATM    9  O   UNL     1      -6.951   3.728  71.947  1.00  0.00    -0.029 OA 
HETATM   10  C   UNL     1      -7.878   4.186  71.057  1.00  0.00    -0.063 A  
BRANCH   6  11
HETATM   11  C   UNL     1      -7.909   6.203  67.786  1.00  0.00    -0.105 C  
HETATM   12  C   UNL     1      -6.837   5.358  67.118  1.00  0.00    -0.063 C  
HETATM   13  O   UNL     1      -6.331   5.346  64.803  1.00  0.00    -0.032 OA 
HETATM   14  C   UNL     1      -6.490   6.021  65.818  1.00  0.00    -0.043 C  
HETATM   15  C   UNL     1      -6.359   7.489  65.865  1.00  0.00    -0.042 A  
HETATM   16  C   UNL     1      -6.822   8.144  67.009  1.00  0.00    -0.070 A  
HETATM   17  C   UNL     1      -6.687   9.535  67.125  1.00  0.00    -0.072 A  
HETATM   18  O   UNL     1      -7.400   7.513  68.090  1.00  0.00    -0.090 OA 
HETATM   19  C   UNL     1      -6.069  10.274  66.111  1.00  0.00    -0.087 A  
HETATM   20  O   UNL     1      -5.267   7.614  63.726  1.00  0.00    -0.033 OA 
HETATM   21  C   UNL     1      -5.624   9.617  64.960  1.00  0.00    -0.062 A  
HETATM   22  H   UNL     1      -4.859   8.119  63.032  1.00  0.00     0.000 HD 
HETATM   23  C   UNL     1      -5.758   8.234  64.841  1.00  0.00    -0.044 A  
BRANCH  19  24
HETATM   24  O   UNL     1      -5.874  11.633  66.113  1.00  0.00    -0.174 OA 
BRANCH  24  25
HETATM   25  C   UNL     1      -6.399  12.360  67.231  1.00  0.00    -0.142 C  
HETATM   26  C   UNL     1      -7.165  14.506  67.915  1.00  0.00    -0.158 C  
HETATM   27  O   UNL     1      -6.442  13.764  66.919  1.00  0.00     0.187 OA 
HETATM   28  C   UNL     1      -6.441  14.414  69.267  1.00  0.00    -0.117 C  
HETATM   29  H   UNL     1      -5.268  11.953  71.062  1.00  0.00     0.000 HD 
HETATM   30  O   UNL     1      -5.384  10.779  68.825  1.00  0.00    -0.042 OA 
HETATM   31  C   UNL     1      -6.198  12.945  69.636  1.00  0.00    -0.114 C  
HETATM   32  O   UNL     1      -7.164  15.017  70.350  1.00  0.00    -0.147 OA 
HETATM   33  H   UNL     1      -4.846  10.662  69.599  1.00  0.00     0.000 HD 
HETATM   34  H   UNL     1      -6.717  14.961  71.185  1.00  0.00     0.000 HD 
HETATM   35  O   UNL     1      -5.418  12.863  70.834  1.00  0.00    -0.167 OA 
HETATM   36  C   UNL     1      -5.524  12.170  68.491  1.00  0.00    -0.053 C  
BRANCH  26  37
HETATM   37  C   UNL     1      -7.299  15.963  67.457  1.00  0.00    -0.171 C  
BRANCH  37  38
HETATM   38  O   UNL     1      -8.680  16.323  67.499  1.00  0.00    -0.179 OA 
BRANCH  38  39
HETATM   39  C   UNL     1      -9.537  15.228  67.157  1.00  0.00    -0.217 C  
HETATM   40  O   UNL     1      -9.452  15.012  65.748  1.00  0.00    -0.319 OA 
HETATM   41  C   UNL     1     -10.335  14.021  65.220  1.00  0.00    -0.383 C  
HETATM   42  C   UNL     1     -11.804  14.296  65.602  1.00  0.00    -0.373 C  
HETATM   43  C   UNL     1      -9.840  12.615  65.547  1.00  0.00    -0.177 C  
HETATM   44  O   UNL     1     -12.257  15.475  64.916  1.00  0.00     0.045 OA 
HETATM   45  C   UNL     1     -11.985  14.546  67.102  1.00  0.00    -0.345 C  
HETATM   46  O   UNL     1     -11.935  13.329  67.864  1.00  0.00    -0.345 OA 
HETATM   47  H   UNL     1     -13.162  15.644  65.152  1.00  0.00     0.000 HD 
HETATM   48  C   UNL     1     -10.969  15.572  67.622  1.00  0.00    -0.315 C  
HETATM   49  H   UNL     1     -12.047  13.484  68.794  1.00  0.00     0.000 HD 
HETATM   50  O   UNL     1     -11.040  15.627  69.059  1.00  0.00    -0.243 OA 
HETATM   51  H   UNL     1     -11.921  15.839  69.344  1.00  0.00     0.000 HD 
ENDBRANCH  38  39
ENDBRANCH  37  38
ENDBRANCH  26  37
ENDBRANCH  24  25
ENDBRANCH  19  24
ENDBRANCH   6  11
ENDBRANCH   2   3
TORSDOF 7
ENDMDL
MODEL      147
REMARK 921   NORMALIZED FREE ENERGY PREDICTED BY IDOCK:   -2.05 KCAL/MOL
REMARK 922        TOTAL FREE ENERGY PREDICTED BY IDOCK:   -4.16 KCAL/MOL
REMARK 923 INTER-LIGAND FREE ENERGY PREDICTED BY IDOCK:   -4.75 KCAL/MOL
REMARK 924 INTRA-LIGAND FREE ENERGY PREDICTED BY IDOCK:    0.59 KCAL/MOL
REMARK 927      BINDING AFFINITY PREDICTED BY RF-SCORE:    0.00 PKD
ROOT
HETATM    1  C   UNL     1      -9.461   2.752  66.667  1.00  0.00     0.065 C  
HETATM    2  O   UNL     1      -9.430   3.589  65.516  1.00  0.00    -0.159 OA 
ENDROOT
BRANCH   2   3
HETATM    3  C   UNL     1      -9.366   4.933  65.770  1.00  0.00    -0.161 A  
HETATM    4  C   UNL     1      -9.961   5.328  66.975  1.00  0.00    -0.214 A  
HETATM    5  C   UNL     1     -10.003   6.667  67.353  1.00  0.00    -0.185 A  
HETATM    6  C   UNL     1      -9.415   7.658  66.544  1.00  0.00    -0.250 A  
HETATM    7  C   UNL     1      -8.772   7.258  65.363  1.00  0.00     0.009 A  
HETATM    8  H   UNL     1      -7.668   6.223  63.297  1.00  0.00     0.000 HD 
HETATM    9  O   UNL     1      -8.094   5.562  63.832  1.00  0.00    -0.114 OA 
HETATM   10  C   UNL     1      -8.739   5.904  64.985  1.00  0.00    -0.003 A  
BRANCH   6  11
HETATM   11  C   UNL     1      -9.633   9.126  66.880  1.00  0.00    -0.178 C  
HETATM   12  C   UNL     1     -10.067   9.850  65.616  1.00  0.00    -0.307 C  
HETATM   13  O   UNL     1     -11.378  11.822  65.537  1.00  0.00    -0.300 OA 
HETATM   14  C   UNL     1     -10.384  11.266  66.000  1.00  0.00    -0.252 C  
HETATM   15  C   UNL     1      -9.440  11.901  66.936  1.00  0.00    -0.205 A  
HETATM   16  C   UNL     1      -8.514  11.077  67.582  1.00  0.00    -0.121 A  
HETATM   17  C   UNL     1      -7.567  11.632  68.453  1.00  0.00    -0.126 A  
HETATM   18  O   UNL     1      -8.432   9.711  67.409  1.00  0.00    -0.124 OA 
HETATM   19  C   UNL     1      -7.523  13.014  68.665  1.00  0.00    -0.093 A  
HETATM   20  O   UNL     1     -10.280  14.116  66.522  1.00  0.00    -0.267 OA 
HETATM   21  C   UNL     1      -8.462  13.834  68.031  1.00  0.00    -0.176 A  
HETATM   22  H   UNL     1     -10.257  15.053  66.677  1.00  0.00     0.000 HD 
HETATM   23  C   UNL     1      -9.407  13.284  67.165  1.00  0.00    -0.240 A  
BRANCH  19  24
HETATM   24  O   UNL     1      -6.640  13.673  69.485  1.00  0.00    -0.112 OA 
BRANCH  24  25
HETATM   25  C   UNL     1      -6.967  15.024  69.835  1.00  0.00    -0.149 C  
HETATM   26  C   UNL     1      -7.946  17.023  68.996  1.00  0.00    -0.153 C  
HETATM   27  O   UNL     1      -7.396  15.738  68.662  1.00  0.00    -0.126 OA 
HETATM   28  C   UNL     1      -6.863  17.907  69.633  1.00  0.00     0.070 C  
HETATM   29  H   UNL     1      -4.729  17.498  72.070  1.00  0.00     0.000 HD 
HETATM   30  O   UNL     1      -5.226  15.067  71.577  1.00  0.00    -0.145 OA 
HETATM   31  C   UNL     1      -6.217  17.177  70.818  1.00  0.00     1.029 C  
HETATM   32  O   UNL     1      -7.359  19.164  70.119  1.00  0.00     0.375 OA 
HETATM   33  H   UNL     1      -4.478  15.521  71.945  1.00  0.00     0.000 HD 
HETATM   34  H   UNL     1      -6.690  19.711  70.513  1.00  0.00     0.000 HD 
HETATM   35  O   UNL     1      -5.129  17.950  71.336  1.00  0.00    -0.479 OA 
HETATM   36  C   UNL     1      -5.749  15.763  70.434  1.00  0.00    -0.114 C  
BRANCH  26  37
HETATM   37  C   UNL     1      -8.513  17.672  67.727  1.00  0.00    -0.227 C  
BRANCH  37  38
HETATM   38  O   UNL     1      -7.863  17.093  66.596  1.00  0.00    -0.210 OA 
BRANCH  38  39
HETATM   39  C   UNL     1      -7.351  18.084  65.699  1.00  0.00     0.005 C  
HETATM   40  O   UNL     1      -5.925  18.002  65.701  1.00  0.00    -0.204 OA 
HETATM   41  C   UNL     1      -5.247  19.003  64.940  1.00  0.00    -0.183 C  
HETATM   42  C   UNL     1      -5.673  20.427  65.350  1.00  0.00    -0.189 C  
HETATM   43  C   UNL     1      -5.340  18.711  63.445  1.00  0.00     0.045 C  
HETATM   44  O   UNL     1      -5.187  20.701  66.675  1.00  0.00    -0.160 OA 
HETATM   45  C   UNL     1      -7.193  20.602  65.379  1.00  0.00     0.046 C  
HETATM   46  O   UNL     1      -7.749  20.733  64.060  1.00  0.00     0.205 OA 
HETATM   47  H   UNL     1      -5.450  21.579  66.928  1.00  0.00     0.000 HD 
HETATM   48  C   UNL     1      -7.870  19.465  66.157  1.00  0.00    -0.307 C  
HETATM   49  H   UNL     1      -8.692  20.841  64.078  1.00  0.00     0.000 HD 
HETATM   50  O   UNL     1      -9.296  19.556  65.990  1.00  0.00    -0.374 OA 
HETATM   51  H   UNL     1      -9.615  20.405  66.273  1.00  0.00     0.000 HD 
ENDBRANCH  38  39
ENDBRANCH  37  38
ENDBRANCH  26  37
ENDBRANCH  24  25
ENDBRANCH  19  24
ENDBRANCH   6  11
ENDBRANCH   2   3
TORSDOF 7
ENDMDL
MODEL      148
REMARK 921   NORMALIZED FREE ENERGY PREDICTED BY IDOCK:   -1.70 KCAL/MOL
REMARK 922        TOTAL FREE ENERGY PREDICTED BY IDOCK:   -3.68 KCAL/MOL
REMARK 923 INTER-LIGAND FREE ENERGY PREDICTED BY IDOCK:   -2.24 KCAL/MOL
REMARK 924 INTRA-LIGAND FREE ENERGY PREDICTED BY IDOCK:   -1.44 KCAL/MOL
REMARK 927      BINDING AFFINITY PREDICTED BY RF-SCORE:    0.00 PKD
ROOT
HETATM    1  C   UNL     1      -7.114   5.543  68.181  1.00  0.00    -0.067 C  
HETATM    2  O   UNL     1      -7.387   5.640  66.787  1.00  0.00    -0.080 OA 
ENDROOT
BRANCH   2   3
HETATM    3  C   UNL     1      -7.942   6.824  66.379  1.00  0.00    -0.106 A  
HETATM    4  C   UNL     1      -8.635   7.518  67.380  1.00  0.00    -0.118 A  
HETATM    5  C   UNL     1      -9.281   8.720  67.107  1.00  0.00    -0.167 A  
HETATM    6  C   UNL     1      -9.224   9.287  65.818  1.00  0.00    -0.283 A  
HETATM    7  C   UNL     1      -8.486   8.620  64.830  1.00  0.00    -0.168 A  
HETATM    8  H   UNL     1      -7.059   7.189  63.257  1.00  0.00     0.000 HD 
HETATM    9  O   UNL     1      -7.128   6.795  64.120  1.00  0.00    -0.051 OA 
HETATM   10  C   UNL     1      -7.841   7.402  65.112  1.00  0.00    -0.123 A  
BRANCH   6  11
HETATM   11  C   UNL     1     -10.086  10.498  65.495  1.00  0.00    -0.283 C  
HETATM   12  C   UNL     1     -10.604  10.355  64.074  1.00  0.00     0.479 C  
HETATM   13  O   UNL     1     -12.600  11.313  63.230  1.00  0.00     0.042 OA 
HETATM   14  C   UNL     1     -11.540  11.501  63.822  1.00  0.00    -0.233 C  
HETATM   15  C   UNL     1     -11.092  12.813  64.323  1.00  0.00    -0.410 A  
HETATM   16  C   UNL     1     -10.005  12.835  65.201  1.00  0.00    -0.166 A  
HETATM   17  C   UNL     1      -9.512  14.057  65.678  1.00  0.00     0.027 A  
HETATM   18  O   UNL     1      -9.330  11.713  65.636  1.00  0.00    -0.225 OA 
HETATM   19  C   UNL     1     -10.085  15.264  65.263  1.00  0.00    -0.327 A  
HETATM   20  O   UNL     1     -12.722  14.031  63.042  1.00  0.00    -0.891 OA 
HETATM   21  C   UNL     1     -11.184  15.237  64.399  1.00  0.00    -0.191 A  
HETATM   22  H   UNL     1     -13.119  14.851  62.771  1.00  0.00     0.000 HD 
HETATM   23  C   UNL     1     -11.678  14.022  63.924  1.00  0.00    -0.150 A  
BRANCH  19  24
HETATM   24  O   UNL     1      -9.687  16.518  65.654  1.00  0.00    -0.513 OA 
BRANCH  24  25
HETATM   25  C   UNL     1      -8.813  16.596  66.787  1.00  0.00    -0.231 C  
HETATM   26  C   UNL     1      -8.783  16.670  69.165  1.00  0.00    -0.127 C  
HETATM   27  O   UNL     1      -9.587  16.809  67.981  1.00  0.00    -0.228 OA 
HETATM   28  C   UNL     1      -7.695  17.754  69.190  1.00  0.00    -0.017 C  
HETATM   29  H   UNL     1      -5.461  18.791  67.046  1.00  0.00     0.000 HD 
HETATM   30  O   UNL     1      -7.041  17.646  65.437  1.00  0.00    -0.290 OA 
HETATM   31  C   UNL     1      -6.892  17.724  67.882  1.00  0.00    -0.192 C  
HETATM   32  O   UNL     1      -6.762  17.608  70.272  1.00  0.00     0.469 OA 
HETATM   33  H   UNL     1      -6.423  18.362  65.350  1.00  0.00     0.000 HD 
HETATM   34  H   UNL     1      -6.089  18.278  70.288  1.00  0.00     0.000 HD 
HETATM   35  O   UNL     1      -5.958  18.810  67.856  1.00  0.00    -0.191 OA 
HETATM   36  C   UNL     1      -7.807  17.761  66.646  1.00  0.00    -0.244 C  
BRANCH  26  37
HETATM   37  C   UNL     1      -9.687  16.765  70.400  1.00  0.00     1.775 C  
BRANCH  37  38
HETATM   38  O   UNL     1      -9.559  15.555  71.147  1.00  0.00     1.321 OA 
BRANCH  38  39
HETATM   39  C   UNL     1     -10.670  14.675  70.947  1.00  0.00     0.509 C  
HETATM   40  O   UNL     1     -11.160  14.861  69.619  1.00  0.00    -0.257 OA 
HETATM   41  C   UNL     1     -12.345  14.135  69.289  1.00  0.00    -0.169 C  
HETATM   42  C   UNL     1     -13.485  14.407  70.292  1.00  0.00     0.530 C  
HETATM   43  C   UNL     1     -12.037  12.659  69.054  1.00  0.00    -0.183 C  
HETATM   44  O   UNL     1     -13.932  15.764  70.141  1.00  0.00    -0.120 OA 
HETATM   45  C   UNL     1     -13.042  14.235  71.748  1.00  0.00    -0.359 C  
HETATM   46  O   UNL     1     -12.939  12.851  72.123  1.00  0.00    -0.317 OA 
HETATM   47  H   UNL     1     -14.634  15.932  70.759  1.00  0.00     0.000 HD 
HETATM   48  C   UNL     1     -11.732  14.986  72.024  1.00  0.00    -0.366 C  
HETATM   49  H   UNL     1     -12.664  12.744  73.026  1.00  0.00     0.000 HD 
HETATM   50  O   UNL     1     -11.250  14.636  73.334  1.00  0.00     0.446 OA 
HETATM   51  H   UNL     1     -11.903  14.828  73.996  1.00  0.00     0.000 HD 
ENDBRANCH  38  39
ENDBRANCH  37  38
ENDBRANCH  26  37
ENDBRANCH  24  25
ENDBRANCH  19  24
ENDBRANCH   6  11
ENDBRANCH   2   3
TORSDOF 7
ENDMDL
MODEL      149
REMARK 921   NORMALIZED FREE ENERGY PREDICTED BY IDOCK:   -1.32 KCAL/MOL
REMARK 922        TOTAL FREE ENERGY PREDICTED BY IDOCK:   -3.14 KCAL/MOL
REMARK 923 INTER-LIGAND FREE ENERGY PREDICTED BY IDOCK:   -1.49 KCAL/MOL
REMARK 924 INTRA-LIGAND FREE ENERGY PREDICTED BY IDOCK:   -1.65 KCAL/MOL
REMARK 927      BINDING AFFINITY PREDICTED BY RF-SCORE:    0.00 PKD
ROOT
HETATM    1  C   UNL     1      -5.130   5.212  71.602  1.00  0.00    -0.005 C  
HETATM    2  O   UNL     1      -5.250   6.146  70.535  1.00  0.00    -0.012 OA 
ENDROOT
BRANCH   2   3
HETATM    3  C   UNL     1      -6.342   6.971  70.598  1.00  0.00    -0.043 A  
HETATM    4  C   UNL     1      -6.278   7.948  71.599  1.00  0.00    -0.036 A  
HETATM    5  C   UNL     1      -7.328   8.837  71.807  1.00  0.00    -0.074 A  
HETATM    6  C   UNL     1      -8.473   8.796  70.987  1.00  0.00    -0.219 A  
HETATM    7  C   UNL     1      -8.515   7.852  69.950  1.00  0.00    -0.127 A  
HETATM    8  H   UNL     1      -8.292   6.048  68.146  1.00  0.00     0.000 HD 
HETATM    9  O   UNL     1      -7.536   6.059  68.723  1.00  0.00    -0.083 OA 
HETATM   10  C   UNL     1      -7.453   6.954  69.751  1.00  0.00    -0.095 A  
BRANCH   6  11
HETATM   11  C   UNL     1      -9.681   9.648  71.346  1.00  0.00     0.436 C  
HETATM   12  C   UNL     1     -10.902   8.746  71.419  1.00  0.00    -0.359 C  
HETATM   13  O   UNL     1     -12.841   9.149  72.720  1.00  0.00    -0.311 OA 
HETATM   14  C   UNL     1     -12.053   9.589  71.885  1.00  0.00    -0.337 C  
HETATM   15  C   UNL     1     -12.151  10.928  71.277  1.00  0.00    -0.322 A  
HETATM   16  C   UNL     1     -11.051  11.392  70.550  1.00  0.00     0.724 A  
HETATM   17  C   UNL     1     -11.104  12.641  69.917  1.00  0.00     0.253 A  
HETATM   18  O   UNL     1      -9.880  10.686  70.372  1.00  0.00     0.474 OA 
HETATM   19  C   UNL     1     -12.263  13.423  69.987  1.00  0.00    -0.298 A  
HETATM   20  O   UNL     1     -14.405  11.277  72.038  1.00  0.00     0.684 OA 
HETATM   21  C   UNL     1     -13.354  12.963  70.729  1.00  0.00     0.453 A  
HETATM   22  H   UNL     1     -15.187  11.814  72.096  1.00  0.00     0.000 HD 
HETATM   23  C   UNL     1     -13.304  11.720  71.361  1.00  0.00     0.074 A  
BRANCH  19  24
HETATM   24  O   UNL     1     -12.436  14.654  69.405  1.00  0.00    -0.209 OA 
BRANCH  24  25
HETATM   25  C   UNL     1     -11.314  15.201  68.701  1.00  0.00    -0.310 C  
HETATM   26  C   UNL     1     -10.123  15.098  66.644  1.00  0.00    -0.264 C  
HETATM   27  O   UNL     1     -11.090  14.455  67.492  1.00  0.00    -0.285 OA 
HETATM   28  C   UNL     1      -8.758  15.146  67.348  1.00  0.00    -0.190 C  
HETATM   29  H   UNL     1      -7.745  16.126  70.293  1.00  0.00     0.000 HD 
HETATM   30  O   UNL     1     -10.201  15.813  70.812  1.00  0.00     0.068 OA 
HETATM   31  C   UNL     1      -8.902  15.792  68.733  1.00  0.00    -0.207 C  
HETATM   32  O   UNL     1      -7.765  15.890  66.626  1.00  0.00    -0.234 OA 
HETATM   33  H   UNL     1      -9.410  15.774  71.337  1.00  0.00     0.000 HD 
HETATM   34  H   UNL     1      -6.921  15.920  67.061  1.00  0.00     0.000 HD 
HETATM   35  O   UNL     1      -7.656  15.727  69.435  1.00  0.00    -0.214 OA 
HETATM   36  C   UNL     1     -10.027  15.139  69.555  1.00  0.00    -0.201 C  
BRANCH  26  37
HETATM   37  C   UNL     1     -10.034  14.337  65.316  1.00  0.00    -0.279 C  
BRANCH  37  38
HETATM   38  O   UNL     1      -8.925  13.441  65.384  1.00  0.00     0.734 OA 
BRANCH  38  39
HETATM   39  C   UNL     1      -9.337  12.072  65.453  1.00  0.00     0.017 C  
HETATM   40  O   UNL     1      -9.326  11.665  66.822  1.00  0.00    -0.177 OA 
HETATM   41  C   UNL     1      -9.606  10.285  67.060  1.00  0.00    -0.171 C  
HETATM   42  C   UNL     1      -8.674   9.360  66.250  1.00  0.00    -0.140 C  
HETATM   43  C   UNL     1     -11.095   9.992  66.902  1.00  0.00     0.048 C  
HETATM   44  O   UNL     1      -7.336   9.472  66.765  1.00  0.00    -0.089 OA 
HETATM   45  C   UNL     1      -8.622   9.731  64.766  1.00  0.00    -0.179 C  
HETATM   46  O   UNL     1      -9.794   9.296  64.057  1.00  0.00    -0.088 OA 
HETATM   47  H   UNL     1      -6.762   8.902  66.266  1.00  0.00     0.000 HD 
HETATM   48  C   UNL     1      -8.381  11.234  64.575  1.00  0.00     0.551 C  
HETATM   49  H   UNL     1      -9.762   9.526  63.137  1.00  0.00     0.000 HD 
HETATM   50  O   UNL     1      -8.539  11.570  63.184  1.00  0.00    -0.450 OA 
HETATM   51  H   UNL     1      -7.950  11.055  62.645  1.00  0.00     0.000 HD 
ENDBRANCH  38  39
ENDBRANCH  37  38
ENDBRANCH  26  37
ENDBRANCH  24  25
ENDBRANCH  19  24
ENDBRANCH   6  11
ENDBRANCH   2   3
TORSDOF 7
ENDMDL
MODEL      150
REMARK 921   NORMALIZED FREE ENERGY PREDICTED BY IDOCK:   -0.87 KCAL/MOL
REMARK 922        TOTAL FREE ENERGY PREDICTED BY IDOCK:   -2.51 KCAL/MOL
REMARK 923 INTER-LIGAND FREE ENERGY PREDICTED BY IDOCK:   -1.77 KCAL/MOL
REMARK 924 INTRA-LIGAND FREE ENERGY PREDICTED BY IDOCK:   -0.74 KCAL/MOL
REMARK 927      BINDING AFFINITY PREDICTED BY RF-SCORE:    0.00 PKD
ROOT
HETATM    1  C   UNL     1      -6.225  15.655  69.406  1.00  0.00    -0.136 C  
HETATM    2  O   UNL     1      -6.065  14.782  70.520  1.00  0.00    -0.163 OA 
ENDROOT
BRANCH   2   3
HETATM    3  C   UNL     1      -6.299  13.457  70.265  1.00  0.00     0.055 A  
HETATM    4  C   UNL     1      -5.888  12.586  71.282  1.00  0.00     0.423 A  
HETATM    5  C   UNL     1      -6.030  11.207  71.150  1.00  0.00     0.306 A  
HETATM    6  C   UNL     1      -6.623  10.655  69.998  1.00  0.00    -0.149 A  
HETATM    7  C   UNL     1      -7.083  11.530  69.002  1.00  0.00    -0.115 A  
HETATM    8  H   UNL     1      -7.831  13.367  67.383  1.00  0.00     0.000 HD 
HETATM    9  O   UNL     1      -7.401  13.732  68.148  1.00  0.00    -0.097 OA 
HETATM   10  C   UNL     1      -6.930  12.921  69.140  1.00  0.00    -0.015 A  
BRANCH   6  11
HETATM   11  C   UNL     1      -6.600   9.148  69.793  1.00  0.00    -0.046 C  
HETATM   12  C   UNL     1      -5.404   8.579  70.537  1.00  0.00    -0.021 C  
HETATM   13  O   UNL     1      -5.227   6.374  71.386  1.00  0.00    -0.021 OA 
HETATM   14  C   UNL     1      -5.470   7.085  70.413  1.00  0.00    -0.023 C  
HETATM   15  C   UNL     1      -5.832   6.570  69.081  1.00  0.00    -0.021 A  
HETATM   16  C   UNL     1      -6.335   7.482  68.148  1.00  0.00    -0.048 A  
HETATM   17  C   UNL     1      -6.659   7.055  66.853  1.00  0.00    -0.055 A  
HETATM   18  O   UNL     1      -6.523   8.826  68.394  1.00  0.00    -0.054 OA 
HETATM   19  C   UNL     1      -6.460   5.723  66.475  1.00  0.00    -0.047 A  
HETATM   20  O   UNL     1      -5.132   4.326  69.588  1.00  0.00     0.000 OA 
HETATM   21  C   UNL     1      -5.974   4.810  67.415  1.00  0.00    -0.023 A  
HETATM   22  H   UNL     1      -5.009   3.419  69.334  1.00  0.00     0.000 HD 
HETATM   23  C   UNL     1      -5.652   5.232  68.706  1.00  0.00    -0.015 A  
BRANCH  19  24
HETATM   24  O   UNL     1      -6.731   5.190  65.239  1.00  0.00    -0.046 OA 
BRANCH  24  25
HETATM   25  C   UNL     1      -8.107   5.148  64.840  1.00  0.00    -0.119 C  
HETATM   26  C   UNL     1     -10.296   5.826  65.482  1.00  0.00     0.790 C  
HETATM   27  O   UNL     1      -8.936   5.637  65.910  1.00  0.00    -0.152 OA 
HETATM   28  C   UNL     1     -10.911   4.477  65.079  1.00  0.00    -0.020 C  
HETATM   29  H   UNL     1      -9.978   2.044  63.112  1.00  0.00     0.000 HD 
HETATM   30  O   UNL     1      -7.724   3.131  63.479  1.00  0.00    -0.066 OA 
HETATM   31  C   UNL     1     -10.020   3.781  64.040  1.00  0.00    -0.190 C  
HETATM   32  O   UNL     1     -12.225   4.590  64.513  1.00  0.00     0.267 OA 
HETATM   33  H   UNL     1      -7.998   2.246  63.270  1.00  0.00     0.000 HD 
HETATM   34  H   UNL     1     -12.605   3.757  64.263  1.00  0.00     0.000 HD 
HETATM   35  O   UNL     1     -10.529   2.474  63.755  1.00  0.00    -0.162 OA 
HETATM   36  C   UNL     1      -8.554   3.708  64.500  1.00  0.00    -0.097 C  
BRANCH  26  37
HETATM   37  C   UNL     1     -11.093   6.480  66.617  1.00  0.00     0.010 C  
BRANCH  37  38
HETATM   38  O   UNL     1     -10.182   6.858  67.648  1.00  0.00    -0.157 OA 
BRANCH  38  39
HETATM   39  C   UNL     1     -10.849   7.428  68.779  1.00  0.00    -0.043 C  
HETATM   40  O   UNL     1     -10.502   8.811  68.859  1.00  0.00    -0.215 OA 
HETATM   41  C   UNL     1     -10.997   9.508  70.003  1.00  0.00    -0.251 C  
HETATM   42  C   UNL     1     -10.599   8.811  71.320  1.00  0.00    -0.262 C  
HETATM   43  C   UNL     1     -12.487   9.808  69.861  1.00  0.00     0.414 C  
HETATM   44  O   UNL     1      -9.179   8.931  71.506  1.00  0.00    -0.243 OA 
HETATM   45  C   UNL     1     -10.932   7.316  71.318  1.00  0.00    -0.243 C  
HETATM   46  O   UNL     1     -12.333   7.073  71.524  1.00  0.00    -0.339 OA 
HETATM   47  H   UNL     1      -8.934   8.501  72.317  1.00  0.00     0.000 HD 
HETATM   48  C   UNL     1     -10.430   6.636  70.037  1.00  0.00    -0.212 C  
HETATM   49  H   UNL     1     -12.540   6.146  71.523  1.00  0.00     0.000 HD 
HETATM   50  O   UNL     1     -10.935   5.289  69.984  1.00  0.00    -0.169 OA 
HETATM   51  H   UNL     1     -10.677   4.802  70.758  1.00  0.00     0.000 HD 
ENDBRANCH  38  39
ENDBRANCH  37  38
ENDBRANCH  26  37
ENDBRANCH  24  25
ENDBRANCH  19  24
ENDBRANCH   6  11
ENDBRANCH   2   3
TORSDOF 7
ENDMDL
MODEL      151
REMARK 921   NORMALIZED FREE ENERGY PREDICTED BY IDOCK:   -0.76 KCAL/MOL
REMARK 922        TOTAL FREE ENERGY PREDICTED BY IDOCK:   -2.35 KCAL/MOL
REMARK 923 INTER-LIGAND FREE ENERGY PREDICTED BY IDOCK:   -4.93 KCAL/MOL
REMARK 924 INTRA-LIGAND FREE ENERGY PREDICTED BY IDOCK:    2.58 KCAL/MOL
REMARK 927      BINDING AFFINITY PREDICTED BY RF-SCORE:    0.00 PKD
ROOT
HETATM    1  C   UNL     1     -11.417  17.541  73.715  1.00  0.00     0.988 C  
HETATM    2  O   UNL     1     -12.659  16.845  73.692  1.00  0.00    -0.195 OA 
ENDROOT
BRANCH   2   3
HETATM    3  C   UNL     1     -12.686  15.720  72.912  1.00  0.00    -0.468 A  
HETATM    4  C   UNL     1     -13.543  14.712  73.372  1.00  0.00     0.409 A  
HETATM    5  C   UNL     1     -13.651  13.496  72.702  1.00  0.00    -0.572 A  
HETATM    6  C   UNL     1     -12.920  13.263  71.520  1.00  0.00    -0.426 A  
HETATM    7  C   UNL     1     -12.103  14.292  71.030  1.00  0.00    -0.416 A  
HETATM    8  H   UNL     1     -10.723  16.350  70.380  1.00  0.00     0.000 HD 
HETATM    9  O   UNL     1     -11.193  16.489  71.195  1.00  0.00    -0.229 OA 
HETATM   10  C   UNL     1     -11.995  15.515  71.716  1.00  0.00    -0.419 A  
BRANCH   6  11
HETATM   11  C   UNL     1     -12.909  11.870  70.910  1.00  0.00    -0.130 C  
HETATM   12  C   UNL     1     -13.233  10.863  72.001  1.00  0.00    -0.456 C  
HETATM   13  O   UNL     1     -14.227   8.738  71.668  1.00  0.00    -0.393 OA 
HETATM   14  C   UNL     1     -13.328   9.515  71.350  1.00  0.00    -0.361 C  
HETATM   15  C   UNL     1     -12.293   9.216  70.345  1.00  0.00     0.251 A  
HETATM   16  C   UNL     1     -11.501  10.277  69.895  1.00  0.00    -0.273 A  
HETATM   17  C   UNL     1     -10.475  10.044  68.969  1.00  0.00    -0.233 A  
HETATM   18  O   UNL     1     -11.629  11.582  70.322  1.00  0.00    -0.304 OA 
HETATM   19  C   UNL     1     -10.219   8.749  68.505  1.00  0.00    -0.195 A  
HETATM   20  O   UNL     1     -12.785   6.863  70.311  1.00  0.00    -0.539 OA 
HETATM   21  C   UNL     1     -11.024   7.694  68.943  1.00  0.00     0.058 A  
HETATM   22  H   UNL     1     -12.619   5.985  69.986  1.00  0.00     0.000 HD 
HETATM   23  C   UNL     1     -12.047   7.922  69.864  1.00  0.00     0.838 A  
BRANCH  19  24
HETATM   24  O   UNL     1      -9.241   8.397  67.608  1.00  0.00    -0.133 OA 
BRANCH  24  25
HETATM   25  C   UNL     1      -8.075   7.756  68.139  1.00  0.00    -0.123 C  
HETATM   26  C   UNL     1      -6.334   6.225  67.605  1.00  0.00    -0.033 C  
HETATM   27  O   UNL     1      -7.622   6.740  67.228  1.00  0.00    -0.099 OA 
HETATM   28  C   UNL     1      -6.428   5.529  68.972  1.00  0.00    -0.042 C  
HETATM   29  H   UNL     1      -7.631   6.379  71.885  1.00  0.00     0.000 HD 
HETATM   30  O   UNL     1      -8.888   8.038  70.447  1.00  0.00    -0.138 OA 
HETATM   31  C   UNL     1      -7.049   6.479  70.005  1.00  0.00    -0.074 C  
HETATM   32  O   UNL     1      -5.158   5.101  69.487  1.00  0.00     0.000 OA 
HETATM   33  H   UNL     1      -9.068   7.628  71.285  1.00  0.00     0.000 HD 
HETATM   34  H   UNL     1      -5.216   4.671  70.332  1.00  0.00     0.000 HD 
HETATM   35  O   UNL     1      -7.246   5.791  71.245  1.00  0.00    -0.070 OA 
HETATM   36  C   UNL     1      -8.369   7.089  69.502  1.00  0.00    -0.133 C  
BRANCH  26  37
HETATM   37  C   UNL     1      -5.843   5.256  66.523  1.00  0.00    -0.018 C  
BRANCH  37  38
HETATM   38  O   UNL     1      -6.766   5.291  65.434  1.00  0.00    -0.043 OA 
BRANCH  38  39
HETATM   39  C   UNL     1      -8.009   4.658  65.757  1.00  0.00    -0.099 C  
HETATM   40  O   UNL     1      -7.839   3.245  65.646  1.00  0.00    -0.084 OA 
HETATM   41  C   UNL     1      -9.021   2.463  65.827  1.00  0.00    -0.121 C  
HETATM   42  C   UNL     1     -10.157   2.910  64.885  1.00  0.00     0.242 C  
HETATM   43  C   UNL     1      -9.405   2.382  67.301  1.00  0.00    -0.094 C  
HETATM   44  O   UNL     1      -9.803   2.583  63.531  1.00  0.00    -0.114 OA 
HETATM   45  C   UNL     1     -10.404   4.420  64.936  1.00  0.00    -0.106 C  
HETATM   46  O   UNL     1     -11.125   4.812  66.116  1.00  0.00    -0.576 OA 
HETATM   47  H   UNL     1     -10.503   2.858  62.950  1.00  0.00     0.000 HD 
HETATM   48  C   UNL     1      -9.091   5.205  64.800  1.00  0.00     0.002 C  
HETATM   49  H   UNL     1     -11.278   5.748  66.148  1.00  0.00     0.000 HD 
HETATM   50  O   UNL     1      -9.341   6.599  65.053  1.00  0.00    -0.006 OA 
HETATM   51  H   UNL     1     -10.006   6.935  64.464  1.00  0.00     0.000 HD 
ENDBRANCH  38  39
ENDBRANCH  37  38
ENDBRANCH  26  37
ENDBRANCH  24  25
ENDBRANCH  19  24
ENDBRANCH   6  11
ENDBRANCH   2   3
TORSDOF 7
ENDMDL
MODEL      152
REMARK 921   NORMALIZED FREE ENERGY PREDICTED BY IDOCK:   -0.50 KCAL/MOL
REMARK 922        TOTAL FREE ENERGY PREDICTED BY IDOCK:   -1.98 KCAL/MOL
REMARK 923 INTER-LIGAND FREE ENERGY PREDICTED BY IDOCK:   -0.36 KCAL/MOL
REMARK 924 INTRA-LIGAND FREE ENERGY PREDICTED BY IDOCK:   -1.62 KCAL/MOL
REMARK 927      BINDING AFFINITY PREDICTED BY RF-SCORE:    0.00 PKD
ROOT
HETATM    1  C   UNL     1      -8.460   4.434  72.835  1.00  0.00    -0.102 C  
HETATM    2  O   UNL     1      -7.194   5.082  72.758  1.00  0.00    -0.080 OA 
ENDROOT
BRANCH   2   3
HETATM    3  C   UNL     1      -6.993   5.845  71.638  1.00  0.00    -0.073 A  
HETATM    4  C   UNL     1      -6.593   7.162  71.895  1.00  0.00    -0.051 A  
HETATM    5  C   UNL     1      -6.384   8.066  70.857  1.00  0.00    -0.037 A  
HETATM    6  C   UNL     1      -6.538   7.664  69.515  1.00  0.00    -0.036 A  
HETATM    7  C   UNL     1      -6.887   6.330  69.256  1.00  0.00    -0.062 A  
HETATM    8  H   UNL     1      -7.506   3.850  69.104  1.00  0.00     0.000 HD 
HETATM    9  O   UNL     1      -7.432   4.136  70.008  1.00  0.00    -0.045 OA 
HETATM   10  C   UNL     1      -7.103   5.425  70.310  1.00  0.00    -0.062 A  
BRANCH   6  11
HETATM   11  C   UNL     1      -6.486   8.709  68.411  1.00  0.00    -0.056 C  
HETATM   12  C   UNL     1      -5.597   8.186  67.295  1.00  0.00    -0.038 C  
HETATM   13  O   UNL     1      -5.747   8.796  65.010  1.00  0.00    -0.050 OA 
HETATM   14  C   UNL     1      -5.655   9.182  66.174  1.00  0.00    -0.048 C  
HETATM   15  C   UNL     1      -5.593  10.599  66.574  1.00  0.00    -0.073 A  
HETATM   16  C   UNL     1      -5.757  10.897  67.930  1.00  0.00    -0.042 A  
HETATM   17  C   UNL     1      -5.667  12.224  68.373  1.00  0.00    -0.055 A  
HETATM   18  O   UNL     1      -5.981   9.958  68.914  1.00  0.00    -0.038 OA 
HETATM   19  C   UNL     1      -5.390  13.256  67.470  1.00  0.00     0.037 A  
HETATM   20  O   UNL     1      -5.139  11.369  64.342  1.00  0.00    -0.428 OA 
HETATM   21  C   UNL     1      -5.245  12.956  66.112  1.00  0.00     2.961 A  
HETATM   22  H   UNL     1      -4.964  12.072  63.727  1.00  0.00     0.000 HD 
HETATM   23  C   UNL     1      -5.335  11.636  65.668  1.00  0.00     0.816 A  
BRANCH  19  24
HETATM   24  O   UNL     1      -5.272  14.587  67.784  1.00  0.00    -0.257 OA 
BRANCH  24  25
HETATM   25  C   UNL     1      -6.488  15.337  67.894  1.00  0.00    -0.156 C  
HETATM   26  C   UNL     1      -8.535  15.817  66.780  1.00  0.00    -0.269 C  
HETATM   27  O   UNL     1      -7.210  15.274  66.651  1.00  0.00     0.012 OA 
HETATM   28  C   UNL     1      -8.457  17.312  67.126  1.00  0.00    -0.205 C  
HETATM   29  H   UNL     1      -6.855  19.049  69.379  1.00  0.00     0.000 HD 
HETATM   30  O   UNL     1      -5.433  16.958  69.419  1.00  0.00    -0.140 OA 
HETATM   31  C   UNL     1      -7.573  17.521  68.363  1.00  0.00    -0.254 C  
HETATM   32  O   UNL     1      -9.734  17.905  67.403  1.00  0.00    -0.276 OA 
HETATM   33  H   UNL     1      -5.262  17.871  69.618  1.00  0.00     0.000 HD 
HETATM   34  H   UNL     1      -9.686  18.829  67.617  1.00  0.00     0.000 HD 
HETATM   35  O   UNL     1      -7.403  18.920  68.613  1.00  0.00    -0.288 OA 
HETATM   36  C   UNL     1      -6.209  16.822  68.218  1.00  0.00    -0.132 C  
BRANCH  26  37
HETATM   37  C   UNL     1      -9.300  15.592  65.470  1.00  0.00    -0.027 C  
BRANCH  37  38
HETATM   38  O   UNL     1     -10.646  15.240  65.789  1.00  0.00    -0.308 OA 
BRANCH  38  39
HETATM   39  C   UNL     1     -10.780  13.853  66.118  1.00  0.00    -0.283 C  
HETATM   40  O   UNL     1     -10.383  13.080  64.985  1.00  0.00    -0.307 OA 
HETATM   41  C   UNL     1     -10.563  11.667  65.106  1.00  0.00    -0.290 C  
HETATM   42  C   UNL     1     -12.013  11.302  65.485  1.00  0.00     1.100 C  
HETATM   43  C   UNL     1      -9.492  11.052  66.002  1.00  0.00    -0.235 C  
HETATM   44  O   UNL     1     -12.880  11.605  64.380  1.00  0.00    -0.129 OA 
HETATM   45  C   UNL     1     -12.523  12.093  66.693  1.00  0.00     1.135 C  
HETATM   46  O   UNL     1     -11.992  11.594  67.931  1.00  0.00    -0.599 OA 
HETATM   47  H   UNL     1     -13.773  11.380  64.614  1.00  0.00     0.000 HD 
HETATM   48  C   UNL     1     -12.245  13.594  66.533  1.00  0.00    -0.404 C  
HETATM   49  H   UNL     1     -12.308  12.085  68.680  1.00  0.00     0.000 HD 
HETATM   50  O   UNL     1     -12.554  14.270  67.765  1.00  0.00    -0.487 OA 
HETATM   51  H   UNL     1     -13.456  14.112  68.019  1.00  0.00     0.000 HD 
ENDBRANCH  38  39
ENDBRANCH  37  38
ENDBRANCH  26  37
ENDBRANCH  24  25
ENDBRANCH  19  24
ENDBRANCH   6  11
ENDBRANCH   2   3
TORSDOF 7
ENDMDL
MODEL      153
REMARK 921   NORMALIZED FREE ENERGY PREDICTED BY IDOCK:    0.12 KCAL/MOL
REMARK 922        TOTAL FREE ENERGY PREDICTED BY IDOCK:   -1.11 KCAL/MOL
REMARK 923 INTER-LIGAND FREE ENERGY PREDICTED BY IDOCK:   -5.81 KCAL/MOL
REMARK 924 INTRA-LIGAND FREE ENERGY PREDICTED BY IDOCK:    4.70 KCAL/MOL
REMARK 927      BINDING AFFINITY PREDICTED BY RF-SCORE:    0.00 PKD
ROOT
HETATM    1  C   UNL     1      -6.422   5.749  67.355  1.00  0.00    -0.044 C  
HETATM    2  O   UNL     1      -6.046   7.120  67.440  1.00  0.00    -0.034 OA 
ENDROOT
BRANCH   2   3
HETATM    3  C   UNL     1      -6.964   8.011  66.953  1.00  0.00    -0.074 A  
HETATM    4  C   UNL     1      -6.581   9.355  67.051  1.00  0.00    -0.068 A  
HETATM    5  C   UNL     1      -7.426  10.377  66.628  1.00  0.00    -0.114 A  
HETATM    6  C   UNL     1      -8.679  10.080  66.057  1.00  0.00    -0.152 A  
HETATM    7  C   UNL     1      -9.040   8.733  65.909  1.00  0.00    -0.271 A  
HETATM    8  H   UNL     1      -9.406   6.203  65.758  1.00  0.00     0.000 HD 
HETATM    9  O   UNL     1      -8.576   6.410  66.172  1.00  0.00    -0.133 OA 
HETATM   10  C   UNL     1      -8.184   7.706  66.345  1.00  0.00    -0.124 A  
BRANCH   6  11
HETATM   11  C   UNL     1      -9.658  11.209  65.773  1.00  0.00    -0.221 C  
HETATM   12  C   UNL     1      -9.525  11.607  64.313  1.00  0.00    -0.045 C  
HETATM   13  O   UNL     1     -11.227  12.592  62.990  1.00  0.00    -0.208 OA 
HETATM   14  C   UNL     1     -10.578  12.639  64.034  1.00  0.00    -0.427 C  
HETATM   15  C   UNL     1     -10.756  13.669  65.073  1.00  0.00    -0.374 A  
HETATM   16  C   UNL     1     -10.146  13.451  66.312  1.00  0.00    -0.299 A  
HETATM   17  C   UNL     1     -10.248  14.414  67.324  1.00  0.00    -0.252 A  
HETATM   18  O   UNL     1      -9.399  12.335  66.628  1.00  0.00    -0.218 OA 
HETATM   19  C   UNL     1     -10.939  15.610  67.098  1.00  0.00    -0.270 A  
HETATM   20  O   UNL     1     -12.042  15.111  63.643  1.00  0.00    -0.917 OA 
HETATM   21  C   UNL     1     -11.563  15.817  65.865  1.00  0.00     0.390 A  
HETATM   22  H   UNL     1     -12.522  15.918  63.495  1.00  0.00     0.000 HD 
HETATM   23  C   UNL     1     -11.464  14.859  64.855  1.00  0.00    -0.407 A  
BRANCH  19  24
HETATM   24  O   UNL     1     -11.100  16.628  68.006  1.00  0.00    -0.343 OA 
BRANCH  24  25
HETATM   25  C   UNL     1     -10.043  17.592  68.092  1.00  0.00    -0.341 C  
HETATM   26  C   UNL     1      -7.797  17.893  68.817  1.00  0.00    -0.253 C  
HETATM   27  O   UNL     1      -8.967  17.061  68.886  1.00  0.00    -0.267 OA 
HETATM   28  C   UNL     1      -8.100  19.274  69.417  1.00  0.00     0.067 C  
HETATM   29  H   UNL     1     -10.458  21.487  68.971  1.00  0.00     0.000 HD 
HETATM   30  O   UNL     1     -11.648  19.459  68.039  1.00  0.00     0.282 OA 
HETATM   31  C   UNL     1      -9.339  19.881  68.745  1.00  0.00    -0.136 C  
HETATM   32  O   UNL     1      -7.025  20.214  69.269  1.00  0.00    -0.246 OA 
HETATM   33  H   UNL     1     -11.946  20.266  68.442  1.00  0.00     0.000 HD 
HETATM   34  H   UNL     1      -7.211  21.068  69.640  1.00  0.00     0.000 HD 
HETATM   35  O   UNL     1      -9.691  21.112  69.387  1.00  0.00     1.467 OA 
HETATM   36  C   UNL     1     -10.528  18.905  68.747  1.00  0.00     0.022 C  
BRANCH  26  37
HETATM   37  C   UNL     1      -6.647  17.206  69.562  1.00  0.00    -0.181 C  
BRANCH  37  38
HETATM   38  O   UNL     1      -5.418  17.796  69.137  1.00  0.00    -0.180 OA 
BRANCH  38  39
HETATM   39  C   UNL     1      -5.460  18.207  67.766  1.00  0.00    -0.151 C  
HETATM   40  O   UNL     1      -6.211  19.418  67.681  1.00  0.00    -0.201 OA 
HETATM   41  C   UNL     1      -6.447  19.909  66.360  1.00  0.00    -0.191 C  
HETATM   42  C   UNL     1      -7.101  18.843  65.458  1.00  0.00    -0.125 C  
HETATM   43  C   UNL     1      -5.190  20.554  65.783  1.00  0.00    -0.207 C  
HETATM   44  O   UNL     1      -8.442  18.599  65.913  1.00  0.00    -0.491 OA 
HETATM   45  C   UNL     1      -6.359  17.504  65.494  1.00  0.00     0.274 C  
HETATM   46  O   UNL     1      -5.151  17.533  64.715  1.00  0.00     0.144 OA 
HETATM   47  H   UNL     1      -8.845  17.942  65.357  1.00  0.00     0.000 HD 
HETATM   48  C   UNL     1      -6.080  17.061  66.937  1.00  0.00    -0.200 C  
HETATM   49  H   UNL     1      -4.690  16.703  64.738  1.00  0.00     0.000 HD 
HETATM   50  O   UNL     1      -5.213  15.913  66.924  1.00  0.00    -0.295 OA 
HETATM   51  H   UNL     1      -5.595  15.208  66.414  1.00  0.00     0.000 HD 
ENDBRANCH  38  39
ENDBRANCH  37  38
ENDBRANCH  26  37
ENDBRANCH  24  25
ENDBRANCH  19  24
ENDBRANCH   6  11
ENDBRANCH   2   3
TORSDOF 7
ENDMDL
MODEL      154
REMARK 921   NORMALIZED FREE ENERGY PREDICTED BY IDOCK:    1.17 KCAL/MOL
REMARK 922        TOTAL FREE ENERGY PREDICTED BY IDOCK:    0.37 KCAL/MOL
REMARK 923 INTER-LIGAND FREE ENERGY PREDICTED BY IDOCK:    0.59 KCAL/MOL
REMARK 924 INTRA-LIGAND FREE ENERGY PREDICTED BY IDOCK:   -0.21 KCAL/MOL
REMARK 927      BINDING AFFINITY PREDICTED BY RF-SCORE:    0.00 PKD
ROOT
HETATM    1  C   UNL     1      -5.126  16.099  70.427  1.00  0.00    -0.173 C  
HETATM    2  O   UNL     1      -5.497  15.194  71.462  1.00  0.00    -0.059 OA 
ENDROOT
BRANCH   2   3
HETATM    3  C   UNL     1      -5.770  13.916  71.053  1.00  0.00    -0.216 A  
HETATM    4  C   UNL     1      -6.158  13.045  72.079  1.00  0.00     1.653 A  
HETATM    5  C   UNL     1      -6.434  11.706  71.821  1.00  0.00     3.297 A  
HETATM    6  C   UNL     1      -6.361  11.199  70.508  1.00  0.00     0.065 A  
HETATM    7  C   UNL     1      -6.024  12.083  69.472  1.00  0.00    -0.100 A  
HETATM    8  H   UNL     1      -5.405  13.928  67.808  1.00  0.00     0.000 HD 
HETATM    9  O   UNL     1      -5.425  14.257  68.700  1.00  0.00    -0.081 OA 
HETATM   10  C   UNL     1      -5.740  13.433  69.742  1.00  0.00    -0.112 A  
BRANCH   6  11
HETATM   11  C   UNL     1      -6.485   9.701  70.276  1.00  0.00    -0.083 C  
HETATM   12  C   UNL     1      -5.872   8.978  71.464  1.00  0.00    -0.062 C  
HETATM   13  O   UNL     1      -6.459   6.806  72.209  1.00  0.00    -0.056 OA 
HETATM   14  C   UNL     1      -6.109   7.510  71.263  1.00  0.00    -0.035 C  
HETATM   15  C   UNL     1      -5.893   7.009  69.894  1.00  0.00    -0.023 A  
HETATM   16  C   UNL     1      -5.759   7.953  68.872  1.00  0.00    -0.031 A  
HETATM   17  C   UNL     1      -5.512   7.535  67.557  1.00  0.00    -0.034 A  
HETATM   18  O   UNL     1      -5.824   9.318  69.058  1.00  0.00    -0.039 OA 
HETATM   19  C   UNL     1      -5.375   6.175  67.260  1.00  0.00    -0.005 A  
HETATM   20  O   UNL     1      -5.870   4.703  70.575  1.00  0.00    -0.015 OA 
HETATM   21  C   UNL     1      -5.528   5.233  68.281  1.00  0.00    -0.011 A  
HETATM   22  H   UNL     1      -5.790   3.779  70.370  1.00  0.00     0.000 HD 
HETATM   23  C   UNL     1      -5.775   5.646  69.590  1.00  0.00    -0.012 A  
BRANCH  19  24
HETATM   24  O   UNL     1      -5.127   5.647  66.017  1.00  0.00    -0.008 OA 
BRANCH  24  25
HETATM   25  C   UNL     1      -5.936   6.127  64.936  1.00  0.00    -0.026 C  
HETATM   26  C   UNL     1      -7.507   7.810  64.337  1.00  0.00    -0.099 C  
HETATM   27  O   UNL     1      -6.835   7.141  65.418  1.00  0.00    -0.050 OA 
HETATM   28  C   UNL     1      -8.394   6.813  63.575  1.00  0.00     0.202 C  
HETATM   29  H   UNL     1      -7.903   3.863  62.266  1.00  0.00     0.000 HD 
HETATM   30  O   UNL     1      -5.944   3.908  63.866  1.00  0.00    -0.014 OA 
HETATM   31  C   UNL     1      -7.565   5.597  63.139  1.00  0.00    -0.077 C  
HETATM   32  O   UNL     1      -9.000   7.367  62.398  1.00  0.00    -0.278 OA 
HETATM   33  H   UNL     1      -6.461   3.209  63.482  1.00  0.00     0.000 HD 
HETATM   34  H   UNL     1      -9.549   6.751  61.927  1.00  0.00     0.000 HD 
HETATM   35  O   UNL     1      -8.416   4.616  62.536  1.00  0.00    -0.090 OA 
HETATM   36  C   UNL     1      -6.777   4.990  64.313  1.00  0.00    -0.047 C  
BRANCH  26  37
HETATM   37  C   UNL     1      -8.337   8.969  64.902  1.00  0.00    -0.169 C  
BRANCH  37  38
HETATM   38  O   UNL     1      -7.491  10.112  65.022  1.00  0.00    -0.136 OA 
BRANCH  38  39
HETATM   39  C   UNL     1      -8.235  11.319  65.223  1.00  0.00     0.324 C  
HETATM   40  O   UNL     1      -8.597  11.402  66.602  1.00  0.00    -0.161 OA 
HETATM   41  C   UNL     1      -9.444  12.497  66.954  1.00  0.00    -0.219 C  
HETATM   42  C   UNL     1     -10.722  12.537  66.091  1.00  0.00    -0.261 C  
HETATM   43  C   UNL     1      -8.660  13.805  66.998  1.00  0.00    -0.182 C  
HETATM   44  O   UNL     1     -11.554  11.414  66.429  1.00  0.00    -0.369 OA 
HETATM   45  C   UNL     1     -10.424  12.446  64.592  1.00  0.00    -0.309 C  
HETATM   46  O   UNL     1      -9.935  13.689  64.061  1.00  0.00    -0.679 OA 
HETATM   47  H   UNL     1     -12.341  11.439  65.897  1.00  0.00     0.000 HD 
HETATM   48  C   UNL     1      -9.461  11.292  64.285  1.00  0.00    -0.178 C  
HETATM   49  H   UNL     1      -9.750  13.633  63.131  1.00  0.00     0.000 HD 
HETATM   50  O   UNL     1      -9.053  11.366  62.907  1.00  0.00    -0.454 OA 
HETATM   51  H   UNL     1      -9.807  11.349  62.330  1.00  0.00     0.000 HD 
ENDBRANCH  38  39
ENDBRANCH  37  38
ENDBRANCH  26  37
ENDBRANCH  24  25
ENDBRANCH  19  24
ENDBRANCH   6  11
ENDBRANCH   2   3
TORSDOF 7
ENDMDL
MODEL      155
REMARK 921   NORMALIZED FREE ENERGY PREDICTED BY IDOCK:    1.77 KCAL/MOL
REMARK 922        TOTAL FREE ENERGY PREDICTED BY IDOCK:    1.22 KCAL/MOL
REMARK 923 INTER-LIGAND FREE ENERGY PREDICTED BY IDOCK:    1.77 KCAL/MOL
REMARK 924 INTRA-LIGAND FREE ENERGY PREDICTED BY IDOCK:   -0.55 KCAL/MOL
REMARK 927      BINDING AFFINITY PREDICTED BY RF-SCORE:    0.00 PKD
ROOT
HETATM    1  C   UNL     1      -7.731  20.012  70.203  1.00  0.00     0.786 C  
HETATM    2  O   UNL     1      -8.238  18.819  70.792  1.00  0.00     3.134 OA 
ENDROOT
BRANCH   2   3
HETATM    3  C   UNL     1      -8.696  17.878  69.908  1.00  0.00     1.710 A  
HETATM    4  C   UNL     1      -7.695  17.088  69.328  1.00  0.00    -0.019 A  
HETATM    5  C   UNL     1      -8.004  16.112  68.384  1.00  0.00    -0.162 A  
HETATM    6  C   UNL     1      -9.342  15.872  68.015  1.00  0.00    -0.201 A  
HETATM    7  C   UNL     1     -10.349  16.626  68.635  1.00  0.00    -0.304 A  
HETATM    8  H   UNL     1     -11.950  18.137  69.944  1.00  0.00     0.000 HD 
HETATM    9  O   UNL     1     -11.043  18.316  70.165  1.00  0.00     1.775 OA 
HETATM   10  C   UNL     1     -10.028  17.614  69.582  1.00  0.00     0.299 A  
BRANCH   6  11
HETATM   11  C   UNL     1      -9.641  14.936  66.854  1.00  0.00    -0.245 C  
HETATM   12  C   UNL     1     -10.966  15.346  66.233  1.00  0.00    -0.278 C  
HETATM   13  O   UNL     1     -11.610  14.974  63.983  1.00  0.00    -0.123 OA 
HETATM   14  C   UNL     1     -11.179  14.482  65.025  1.00  0.00    -0.382 C  
HETATM   15  C   UNL     1     -10.845  13.057  65.191  1.00  0.00    -0.320 A  
HETATM   16  C   UNL     1     -10.123  12.689  66.330  1.00  0.00    -0.253 A  
HETATM   17  C   UNL     1      -9.812  11.342  66.561  1.00  0.00    -0.237 A  
HETATM   18  O   UNL     1      -9.696  13.571  67.302  1.00  0.00    -0.225 OA 
HETATM   19  C   UNL     1     -10.239  10.353  65.668  1.00  0.00    -0.238 A  
HETATM   20  O   UNL     1     -11.990  12.394  63.183  1.00  0.00    -0.700 OA 
HETATM   21  C   UNL     1     -10.945  10.726  64.521  1.00  0.00     0.168 A  
HETATM   22  H   UNL     1     -12.269  11.723  62.571  1.00  0.00     0.000 HD 
HETATM   23  C   UNL     1     -11.256  12.066  64.288  1.00  0.00    -0.357 A  
BRANCH  19  24
HETATM   24  O   UNL     1     -10.003   9.006  65.789  1.00  0.00    -0.241 OA 
BRANCH  24  25
HETATM   25  C   UNL     1      -9.390   8.564  67.007  1.00  0.00    -0.161 C  
HETATM   26  C   UNL     1      -7.528   7.364  67.873  1.00  0.00    -0.101 C  
HETATM   27  O   UNL     1      -8.314   7.658  66.706  1.00  0.00    -0.119 OA 
HETATM   28  C   UNL     1      -8.390   6.635  68.916  1.00  0.00    -0.120 C  
HETATM   29  H   UNL     1     -11.307   7.209  70.265  1.00  0.00     0.000 HD 
HETATM   30  O   UNL     1     -11.541   8.657  68.204  1.00  0.00     0.375 OA 
HETATM   31  C   UNL     1      -9.661   7.444  69.206  1.00  0.00    -0.165 C  
HETATM   32  O   UNL     1      -7.720   6.420  70.167  1.00  0.00    -0.094 OA 
HETATM   33  H   UNL     1     -12.164   8.205  68.762  1.00  0.00     0.000 HD 
HETATM   34  H   UNL     1      -8.253   5.969  70.811  1.00  0.00     0.000 HD 
HETATM   35  O   UNL     1     -10.520   6.708  70.085  1.00  0.00    -0.197 OA 
HETATM   36  C   UNL     1     -10.403   7.829  67.915  1.00  0.00    -0.217 C  
BRANCH  26  37
HETATM   37  C   UNL     1      -6.319   6.514  67.464  1.00  0.00    -0.043 C  
BRANCH  37  38
HETATM   38  O   UNL     1      -5.967   6.849  66.122  1.00  0.00    -0.032 OA 
BRANCH  38  39
HETATM   39  C   UNL     1      -6.933   6.382  65.174  1.00  0.00    -0.052 C  
HETATM   40  O   UNL     1      -6.961   4.955  65.224  1.00  0.00    -0.059 OA 
HETATM   41  C   UNL     1      -7.797   4.319  64.256  1.00  0.00    -0.085 C  
HETATM   42  C   UNL     1      -7.462   4.769  62.819  1.00  0.00    -0.052 C  
HETATM   43  C   UNL     1      -9.269   4.441  64.638  1.00  0.00    -0.156 C  
HETATM   44  O   UNL     1      -6.168   4.260  62.456  1.00  0.00    -0.017 OA 
HETATM   45  C   UNL     1      -7.405   6.293  62.678  1.00  0.00    -0.058 C  
HETATM   46  O   UNL     1      -8.716   6.882  62.638  1.00  0.00    -0.346 OA 
HETATM   47  H   UNL     1      -5.961   4.538  61.571  1.00  0.00     0.000 HD 
HETATM   48  C   UNL     1      -6.544   6.923  63.781  1.00  0.00    -0.043 C  
HETATM   49  H   UNL     1      -8.681   7.827  62.551  1.00  0.00     0.000 HD 
HETATM   50  O   UNL     1      -6.681   8.355  63.732  1.00  0.00    -0.075 OA 
HETATM   51  H   UNL     1      -6.441   8.688  62.876  1.00  0.00     0.000 HD 
ENDBRANCH  38  39
ENDBRANCH  37  38
ENDBRANCH  26  37
ENDBRANCH  24  25
ENDBRANCH  19  24
ENDBRANCH   6  11
ENDBRANCH   2   3
TORSDOF 7
ENDMDL
MODEL      156
REMARK 921   NORMALIZED FREE ENERGY PREDICTED BY IDOCK:    1.79 KCAL/MOL
REMARK 922        TOTAL FREE ENERGY PREDICTED BY IDOCK:    1.24 KCAL/MOL
REMARK 923 INTER-LIGAND FREE ENERGY PREDICTED BY IDOCK:   -0.57 KCAL/MOL
REMARK 924 INTRA-LIGAND FREE ENERGY PREDICTED BY IDOCK:    1.81 KCAL/MOL
REMARK 927      BINDING AFFINITY PREDICTED BY RF-SCORE:    0.00 PKD
ROOT
HETATM    1  C   UNL     1      -6.917   5.554  67.964  1.00  0.00    -0.065 C  
HETATM    2  O   UNL     1      -6.473   6.846  67.562  1.00  0.00    -0.046 OA 
ENDROOT
BRANCH   2   3
HETATM    3  C   UNL     1      -7.429   7.642  66.987  1.00  0.00    -0.095 A  
HETATM    4  C   UNL     1      -6.962   8.884  66.539  1.00  0.00    -0.080 A  
HETATM    5  C   UNL     1      -7.824   9.813  65.964  1.00  0.00    -0.107 A  
HETATM    6  C   UNL     1      -9.189   9.511  65.789  1.00  0.00    -0.267 A  
HETATM    7  C   UNL     1      -9.647   8.246  66.189  1.00  0.00    -0.217 A  
HETATM    8  H   UNL     1     -10.174   5.873  66.994  1.00  0.00     0.000 HD 
HETATM    9  O   UNL     1      -9.261   6.095  67.140  1.00  0.00    -0.116 OA 
HETATM   10  C   UNL     1      -8.771   7.316  66.775  1.00  0.00    -0.130 A  
BRANCH   6  11
HETATM   11  C   UNL     1     -10.144  10.602  65.332  1.00  0.00    -0.291 C  
HETATM   12  C   UNL     1     -10.588  10.292  63.912  1.00  0.00     0.872 C  
HETATM   13  O   UNL     1     -12.627  10.980  62.922  1.00  0.00     0.605 OA 
HETATM   14  C   UNL     1     -11.614  11.318  63.531  1.00  0.00     0.190 C  
HETATM   15  C   UNL     1     -11.311  12.704  63.930  1.00  0.00    -0.501 A  
HETATM   16  C   UNL     1     -10.268  12.903  64.838  1.00  0.00    -0.275 A  
HETATM   17  C   UNL     1      -9.909  14.202  65.223  1.00  0.00    -0.199 A  
HETATM   18  O   UNL     1      -9.511  11.891  65.392  1.00  0.00    -0.207 OA 
HETATM   19  C   UNL     1     -10.575  15.310  64.685  1.00  0.00    -0.121 A  
HETATM   20  O   UNL     1     -12.991  13.649  62.493  1.00  0.00     0.196 OA 
HETATM   21  C   UNL     1     -11.629  15.106  63.791  1.00  0.00     0.644 A  
HETATM   22  H   UNL     1     -13.451  14.401  62.138  1.00  0.00     0.000 HD 
HETATM   23  C   UNL     1     -11.989  13.813  63.407  1.00  0.00    -0.015 A  
BRANCH  19  24
HETATM   24  O   UNL     1     -10.311  16.625  64.978  1.00  0.00    -0.623 OA 
BRANCH  24  25
HETATM   25  C   UNL     1      -9.657  16.891  66.225  1.00  0.00    -0.276 C  
HETATM   26  C   UNL     1      -9.962  16.836  68.584  1.00  0.00    -0.276 C  
HETATM   27  O   UNL     1     -10.608  16.800  67.300  1.00  0.00    -0.320 OA 
HETATM   28  C   UNL     1      -9.261  18.188  68.780  1.00  0.00    -0.233 C  
HETATM   29  H   UNL     1      -7.179  19.957  66.991  1.00  0.00     0.000 HD 
HETATM   30  O   UNL     1      -8.118  18.491  65.156  1.00  0.00     0.593 OA 
HETATM   31  C   UNL     1      -8.321  18.471  67.599  1.00  0.00    -0.255 C  
HETATM   32  O   UNL     1      -8.478  18.262  69.980  1.00  0.00     1.349 OA 
HETATM   33  H   UNL     1      -7.737  19.361  65.169  1.00  0.00     0.000 HD 
HETATM   34  H   UNL     1      -8.045  19.098  70.102  1.00  0.00     0.000 HD 
HETATM   35  O   UNL     1      -7.760  19.782  67.722  1.00  0.00    -0.275 OA 
HETATM   36  C   UNL     1      -9.036  18.307  66.246  1.00  0.00    -0.181 C  
BRANCH  26  37
HETATM   37  C   UNL     1     -11.007  16.591  69.679  1.00  0.00    -0.287 C  
BRANCH  37  38
HETATM   38  O   UNL     1     -10.401  15.821  70.717  1.00  0.00    -0.011 OA 
BRANCH  38  39
HETATM   39  C   UNL     1      -9.630  14.730  70.202  1.00  0.00     0.619 C  
HETATM   40  O   UNL     1      -8.278  15.165  70.049  1.00  0.00     0.005 OA 
HETATM   41  C   UNL     1      -7.392  14.226  69.436  1.00  0.00    -0.011 C  
HETATM   42  C   UNL     1      -7.923  13.737  68.073  1.00  0.00    -0.156 C  
HETATM   43  C   UNL     1      -7.009  13.116  70.411  1.00  0.00     1.261 C  
HETATM   44  O   UNL     1      -7.881  14.823  67.133  1.00  0.00    -0.213 OA 
HETATM   45  C   UNL     1      -9.375  13.256  68.146  1.00  0.00    -0.220 C  
HETATM   46  O   UNL     1      -9.485  11.953  68.743  1.00  0.00    -0.366 OA 
HETATM   47  H   UNL     1      -8.209  14.521  66.294  1.00  0.00     0.000 HD 
HETATM   48  C   UNL     1     -10.265  14.277  68.869  1.00  0.00    -0.200 C  
HETATM   49  H   UNL     1     -10.385  11.655  68.788  1.00  0.00     0.000 HD 
HETATM   50  O   UNL     1     -11.565  13.702  69.091  1.00  0.00    -0.266 OA 
HETATM   51  H   UNL     1     -11.956  13.424  68.271  1.00  0.00     0.000 HD 
ENDBRANCH  38  39
ENDBRANCH  37  38
ENDBRANCH  26  37
ENDBRANCH  24  25
ENDBRANCH  19  24
ENDBRANCH   6  11
ENDBRANCH   2   3
TORSDOF 7
ENDMDL
MODEL      157
REMARK 921   NORMALIZED FREE ENERGY PREDICTED BY IDOCK:    2.31 KCAL/MOL
REMARK 922        TOTAL FREE ENERGY PREDICTED BY IDOCK:    1.98 KCAL/MOL
REMARK 923 INTER-LIGAND FREE ENERGY PREDICTED BY IDOCK:   -2.57 KCAL/MOL
REMARK 924 INTRA-LIGAND FREE ENERGY PREDICTED BY IDOCK:    4.55 KCAL/MOL
REMARK 927      BINDING AFFINITY PREDICTED BY RF-SCORE:    0.00 PKD
ROOT
HETATM    1  C   UNL     1     -11.512  14.297  63.196  1.00  0.00     1.943 C  
HETATM    2  O   UNL     1     -10.715  14.470  64.363  1.00  0.00    -0.270 OA 
ENDROOT
BRANCH   2   3
HETATM    3  C   UNL     1     -11.155  13.807  65.478  1.00  0.00    -0.298 A  
HETATM    4  C   UNL     1     -10.157  13.116  66.178  1.00  0.00    -0.291 A  
HETATM    5  C   UNL     1     -10.460  12.368  67.312  1.00  0.00    -0.237 A  
HETATM    6  C   UNL     1     -11.779  12.316  67.804  1.00  0.00    -0.403 A  
HETATM    7  C   UNL     1     -12.769  13.051  67.134  1.00  0.00     1.033 A  
HETATM    8  H   UNL     1     -14.337  14.498  65.719  1.00  0.00     0.000 HD 
HETATM    9  O   UNL     1     -13.452  14.504  65.374  1.00  0.00    -0.379 OA 
HETATM   10  C   UNL     1     -12.456  13.798  65.986  1.00  0.00    -0.445 A  
BRANCH   6  11
HETATM   11  C   UNL     1     -12.120  11.350  68.929  1.00  0.00    -0.219 C  
HETATM   12  C   UNL     1     -12.154  12.124  70.236  1.00  0.00    -0.385 C  
HETATM   13  O   UNL     1     -13.415  11.539  72.155  1.00  0.00    -0.410 OA 
HETATM   14  C   UNL     1     -12.603  11.174  71.306  1.00  0.00    -0.398 C  
HETATM   15  C   UNL     1     -12.009   9.826  71.254  1.00  0.00    -0.471 A  
HETATM   16  C   UNL     1     -11.314   9.469  70.096  1.00  0.00    -0.199 A  
HETATM   17  C   UNL     1     -10.694   8.214  70.008  1.00  0.00    -0.243 A  
HETATM   18  O   UNL     1     -11.154  10.287  68.998  1.00  0.00    -0.225 OA 
HETATM   19  C   UNL     1     -10.746   7.320  71.083  1.00  0.00    -0.228 A  
HETATM   20  O   UNL     1     -12.723   9.258  73.479  1.00  0.00     0.403 OA 
HETATM   21  C   UNL     1     -11.458   7.674  72.233  1.00  0.00    -0.366 A  
HETATM   22  H   UNL     1     -12.769   8.645  74.204  1.00  0.00     0.000 HD 
HETATM   23  C   UNL     1     -12.076   8.922  72.323  1.00  0.00    -0.322 A  
BRANCH  19  24
HETATM   24  O   UNL     1     -10.176   6.072  71.117  1.00  0.00    -0.195 OA 
BRANCH  24  25
HETATM   25  C   UNL     1     -10.209   5.312  69.902  1.00  0.00    -0.294 C  
HETATM   26  C   UNL     1      -8.831   4.168  68.336  1.00  0.00    -0.105 C  
HETATM   27  O   UNL     1      -8.868   5.109  69.421  1.00  0.00    -0.097 OA 
HETATM   28  C   UNL     1      -9.611   4.723  67.134  1.00  0.00    -0.167 C  
HETATM   29  H   UNL     1     -12.591   6.000  66.744  1.00  0.00     0.000 HD 
HETATM   30  O   UNL     1     -12.350   6.334  69.240  1.00  0.00     0.541 OA 
HETATM   31  C   UNL     1     -11.029   5.124  67.566  1.00  0.00     0.611 C  
HETATM   32  O   UNL     1      -9.739   3.790  66.051  1.00  0.00    -0.278 OA 
HETATM   33  H   UNL     1     -12.844   6.782  68.563  1.00  0.00     0.000 HD 
HETATM   34  H   UNL     1     -10.221   4.133  65.308  1.00  0.00     0.000 HD 
HETATM   35  O   UNL     1     -11.713   5.751  66.476  1.00  0.00     0.705 OA 
HETATM   36  C   UNL     1     -11.013   6.041  68.802  1.00  0.00    -0.312 C  
BRANCH  26  37
HETATM   37  C   UNL     1      -7.371   3.886  67.964  1.00  0.00    -0.062 C  
BRANCH  37  38
HETATM   38  O   UNL     1      -6.563   4.088  69.124  1.00  0.00    -0.038 OA 
BRANCH  38  39
HETATM   39  C   UNL     1      -7.254   3.747  70.331  1.00  0.00    -0.041 C  
HETATM   40  O   UNL     1      -6.676   4.488  71.407  1.00  0.00    -0.029 OA 
HETATM   41  C   UNL     1      -7.176   4.180  72.709  1.00  0.00    -0.067 C  
HETATM   42  C   UNL     1      -7.079   2.673  73.023  1.00  0.00    -0.032 C  
HETATM   43  C   UNL     1      -8.558   4.792  72.924  1.00  0.00    -0.111 C  
HETATM   44  O   UNL     1      -5.695   2.308  73.157  1.00  0.00     0.000 OA 
HETATM   45  C   UNL     1      -7.673   1.801  71.913  1.00  0.00    -0.041 C  
HETATM   46  O   UNL     1      -9.110   1.792  71.942  1.00  0.00    -0.073 OA 
HETATM   47  H   UNL     1      -5.636   1.380  73.350  1.00  0.00     0.000 HD 
HETATM   48  C   UNL     1      -7.146   2.219  70.534  1.00  0.00    -0.033 C  
HETATM   49  H   UNL     1      -9.478   1.251  71.254  1.00  0.00     0.000 HD 
HETATM   50  O   UNL     1      -7.874   1.515  69.512  1.00  0.00    -0.042 OA 
HETATM   51  H   UNL     1      -7.807   0.576  69.636  1.00  0.00     0.000 HD 
ENDBRANCH  38  39
ENDBRANCH  37  38
ENDBRANCH  26  37
ENDBRANCH  24  25
ENDBRANCH  19  24
ENDBRANCH   6  11
ENDBRANCH   2   3
TORSDOF 7
ENDMDL
MODEL      158
REMARK 921   NORMALIZED FREE ENERGY PREDICTED BY IDOCK:    5.05 KCAL/MOL
REMARK 922        TOTAL FREE ENERGY PREDICTED BY IDOCK:    5.84 KCAL/MOL
REMARK 923 INTER-LIGAND FREE ENERGY PREDICTED BY IDOCK:    6.61 KCAL/MOL
REMARK 924 INTRA-LIGAND FREE ENERGY PREDICTED BY IDOCK:   -0.77 KCAL/MOL
REMARK 927      BINDING AFFINITY PREDICTED BY RF-SCORE:    0.00 PKD
ROOT
HETATM    1  C   UNL     1      -5.126  16.095  70.433  1.00  0.00    -0.173 C  
HETATM    2  O   UNL     1      -5.400  15.215  71.519  1.00  0.00    -0.105 OA 
ENDROOT
BRANCH   2   3
HETATM    3  C   UNL     1      -5.663  13.917  71.170  1.00  0.00    -0.220 A  
HETATM    4  C   UNL     1      -5.866  13.051  72.252  1.00  0.00     1.083 A  
HETATM    5  C   UNL     1      -6.109  11.695  72.054  1.00  0.00     2.254 A  
HETATM    6  C   UNL     1      -6.191  11.165  70.751  1.00  0.00     0.191 A  
HETATM    7  C   UNL     1      -6.040  12.041  69.666  1.00  0.00    -0.129 A  
HETATM    8  H   UNL     1      -5.744  13.877  67.906  1.00  0.00     0.000 HD 
HETATM    9  O   UNL     1      -5.658  14.223  68.787  1.00  0.00    -0.081 OA 
HETATM   10  C   UNL     1      -5.788  13.409  69.874  1.00  0.00    -0.127 A  
BRANCH   6  11
HETATM   11  C   UNL     1      -6.272   9.659  70.560  1.00  0.00    -0.078 C  
HETATM   12  C   UNL     1      -5.388   8.993  71.601  1.00  0.00    -0.049 C  
HETATM   13  O   UNL     1      -5.681   6.806  72.467  1.00  0.00    -0.037 OA 
HETATM   14  C   UNL     1      -5.575   7.510  71.464  1.00  0.00    -0.035 C  
HETATM   15  C   UNL     1      -5.617   6.996  70.083  1.00  0.00    -0.023 A  
HETATM   16  C   UNL     1      -5.751   7.927  69.050  1.00  0.00    -0.034 A  
HETATM   17  C   UNL     1      -5.755   7.499  67.715  1.00  0.00    -0.035 A  
HETATM   18  O   UNL     1      -5.855   9.290  69.235  1.00  0.00    -0.035 OA 
HETATM   19  C   UNL     1      -5.604   6.143  67.405  1.00  0.00    -0.009 A  
HETATM   20  O   UNL     1      -5.320   4.708  70.762  1.00  0.00    -0.003 OA 
HETATM   21  C   UNL     1      -5.488   5.213  68.442  1.00  0.00    -0.011 A  
HETATM   22  H   UNL     1      -5.230   3.786  70.551  1.00  0.00     0.000 HD 
HETATM   23  C   UNL     1      -5.484   5.636  69.772  1.00  0.00    -0.004 A  
BRANCH  19  24
HETATM   24  O   UNL     1      -5.586   5.605  66.142  1.00  0.00    -0.012 OA 
BRANCH  24  25
HETATM   25  C   UNL     1      -6.709   5.895  65.300  1.00  0.00    -0.044 C  
HETATM   26  C   UNL     1      -8.759   7.099  65.209  1.00  0.00     0.096 C  
HETATM   27  O   UNL     1      -7.715   6.590  66.057  1.00  0.00    -0.088 OA 
HETATM   28  C   UNL     1      -9.497   5.935  64.530  1.00  0.00     1.102 C  
HETATM   29  H   UNL     1      -8.545   3.313  62.832  1.00  0.00     0.000 HD 
HETATM   30  O   UNL     1      -6.367   3.822  64.014  1.00  0.00    -0.028 OA 
HETATM   31  C   UNL     1      -8.493   5.024  63.808  1.00  0.00    -0.128 C  
HETATM   32  O   UNL     1     -10.469   6.356  63.562  1.00  0.00     4.797 OA 
HETATM   33  H   UNL     1      -6.752   3.027  63.664  1.00  0.00     0.000 HD 
HETATM   34  H   UNL     1     -10.925   5.637  63.142  1.00  0.00     0.000 HD 
HETATM   35  O   UNL     1      -9.166   3.877  63.279  1.00  0.00    -0.108 OA 
HETATM   36  C   UNL     1      -7.337   4.602  64.731  1.00  0.00    -0.071 C  
BRANCH  26  37
HETATM   37  C   UNL     1      -9.720   7.948  66.049  1.00  0.00     0.101 C  
BRANCH  37  38
HETATM   38  O   UNL     1      -8.960   8.940  66.739  1.00  0.00    -0.124 OA 
BRANCH  38  39
HETATM   39  C   UNL     1      -9.785   9.982  67.270  1.00  0.00    -0.167 C  
HETATM   40  O   UNL     1      -9.882  11.021  66.295  1.00  0.00    -0.202 OA 
HETATM   41  C   UNL     1     -10.582  12.196  66.710  1.00  0.00    -0.226 C  
HETATM   42  C   UNL     1     -10.005  12.779  68.016  1.00  0.00    -0.225 C  
HETATM   43  C   UNL     1     -12.090  11.959  66.725  1.00  0.00     0.267 C  
HETATM   44  O   UNL     1      -8.694  13.307  67.757  1.00  0.00    -0.170 OA 
HETATM   45  C   UNL     1      -9.861  11.727  69.118  1.00  0.00     0.223 C  
HETATM   46  O   UNL     1     -11.121  11.405  69.729  1.00  0.00    -0.410 OA 
HETATM   47  H   UNL     1      -8.338  13.667  68.562  1.00  0.00     0.000 HD 
HETATM   48  C   UNL     1      -9.158  10.466  68.596  1.00  0.00    -0.157 C  
HETATM   49  H   UNL     1     -11.032  10.752  70.413  1.00  0.00     0.000 HD 
HETATM   50  O   UNL     1      -9.222   9.435  69.598  1.00  0.00    -0.161 OA 
HETATM   51  H   UNL     1      -8.836   9.732  70.413  1.00  0.00     0.000 HD 
ENDBRANCH  38  39
ENDBRANCH  37  38
ENDBRANCH  26  37
ENDBRANCH  24  25
ENDBRANCH  19  24
ENDBRANCH   6  11
ENDBRANCH   2   3
TORSDOF 7
ENDMDL
MODEL      159
REMARK 921   NORMALIZED FREE ENERGY PREDICTED BY IDOCK:    5.91 KCAL/MOL
REMARK 922        TOTAL FREE ENERGY PREDICTED BY IDOCK:    7.06 KCAL/MOL
REMARK 923 INTER-LIGAND FREE ENERGY PREDICTED BY IDOCK:   -5.36 KCAL/MOL
REMARK 924 INTRA-LIGAND FREE ENERGY PREDICTED BY IDOCK:   12.41 KCAL/MOL
REMARK 927      BINDING AFFINITY PREDICTED BY RF-SCORE:    0.00 PKD
ROOT
HETATM    1  C   UNL     1     -10.978  17.911  69.453  1.00  0.00     1.062 C  
HETATM    2  O   UNL     1     -10.049  17.474  68.467  1.00  0.00    -0.319 OA 
ENDROOT
BRANCH   2   3
HETATM    3  C   UNL     1      -9.860  16.119  68.398  1.00  0.00    -0.222 A  
HETATM    4  C   UNL     1      -8.858  15.626  69.243  1.00  0.00    -0.264 A  
HETATM    5  C   UNL     1      -8.529  14.273  69.259  1.00  0.00     0.243 A  
HETATM    6  C   UNL     1      -9.224  13.359  68.443  1.00  0.00    -0.149 A  
HETATM    7  C   UNL     1     -10.264  13.844  67.636  1.00  0.00    -0.242 A  
HETATM    8  H   UNL     1     -12.104  15.018  66.297  1.00  0.00     0.000 HD 
HETATM    9  O   UNL     1     -11.610  15.635  66.826  1.00  0.00    -0.000 OA 
HETATM   10  C   UNL     1     -10.585  15.212  67.621  1.00  0.00    -0.263 A  
BRANCH   6  11
HETATM   11  C   UNL     1      -8.729  11.925  68.338  1.00  0.00    -0.157 C  
HETATM   12  C   UNL     1      -7.737  11.841  67.190  1.00  0.00    -0.162 C  
HETATM   13  O   UNL     1      -5.979  10.264  66.997  1.00  0.00    -0.050 OA 
HETATM   14  C   UNL     1      -7.180  10.447  67.181  1.00  0.00    -0.091 C  
HETATM   15  C   UNL     1      -8.159   9.367  67.400  1.00  0.00    -0.110 A  
HETATM   16  C   UNL     1      -9.430   9.727  67.856  1.00  0.00    -0.130 A  
HETATM   17  C   UNL     1     -10.413   8.746  68.043  1.00  0.00    -0.260 A  
HETATM   18  O   UNL     1      -9.826  11.021  68.122  1.00  0.00    -0.166 OA 
HETATM   19  C   UNL     1     -10.140   7.404  67.755  1.00  0.00    -0.184 A  
HETATM   20  O   UNL     1      -6.656   7.644  66.653  1.00  0.00    -0.054 OA 
HETATM   21  C   UNL     1      -8.862   7.045  67.317  1.00  0.00    -0.119 A  
HETATM   22  H   UNL     1      -6.468   6.731  66.470  1.00  0.00     0.000 HD 
HETATM   23  C   UNL     1      -7.881   8.020  67.130  1.00  0.00    -0.105 A  
BRANCH  19  24
HETATM   24  O   UNL     1     -11.019   6.359  67.892  1.00  0.00    -0.301 OA 
BRANCH  24  25
HETATM   25  C   UNL     1     -11.432   6.030  69.224  1.00  0.00     0.031 C  
HETATM   26  C   UNL     1     -12.370   6.952  71.207  1.00  0.00    -0.375 C  
HETATM   27  O   UNL     1     -11.740   7.236  69.947  1.00  0.00    -0.071 OA 
HETATM   28  C   UNL     1     -11.404   6.173  72.113  1.00  0.00    -0.299 C  
HETATM   29  H   UNL     1      -9.568   3.502  71.725  1.00  0.00     0.000 HD 
HETATM   30  O   UNL     1      -9.918   4.089  69.289  1.00  0.00    -0.103 OA 
HETATM   31  C   UNL     1     -10.882   4.930  71.381  1.00  0.00     0.136 C  
HETATM   32  O   UNL     1     -11.998   5.732  73.343  1.00  0.00    -0.153 OA 
HETATM   33  H   UNL     1      -9.235   3.625  69.760  1.00  0.00     0.000 HD 
HETATM   34  H   UNL     1     -11.400   5.251  73.903  1.00  0.00     0.000 HD 
HETATM   35  O   UNL     1      -9.891   4.272  72.178  1.00  0.00    -0.152 OA 
HETATM   36  C   UNL     1     -10.321   5.276  69.990  1.00  0.00    -0.295 C  
BRANCH  26  37
HETATM   37  C   UNL     1     -12.802   8.269  71.861  1.00  0.00    -0.344 C  
BRANCH  37  38
HETATM   38  O   UNL     1     -11.673   8.831  72.531  1.00  0.00    -0.326 OA 
BRANCH  38  39
HETATM   39  C   UNL     1     -10.463   8.121  72.243  1.00  0.00    -0.302 C  
HETATM   40  O   UNL     1      -9.679   8.062  73.435  1.00  0.00    -0.280 OA 
HETATM   41  C   UNL     1      -8.382   7.481  73.294  1.00  0.00    -0.129 C  
HETATM   42  C   UNL     1      -7.561   8.166  72.182  1.00  0.00    -0.115 C  
HETATM   43  C   UNL     1      -8.470   5.962  73.182  1.00  0.00    -0.116 C  
HETATM   44  O   UNL     1      -7.231   9.503  72.596  1.00  0.00     0.329 OA 
HETATM   45  C   UNL     1      -8.333   8.277  70.864  1.00  0.00    -0.130 C  
HETATM   46  O   UNL     1      -8.385   7.025  70.160  1.00  0.00    -0.133 OA 
HETATM   47  H   UNL     1      -6.726   9.925  71.910  1.00  0.00     0.000 HD 
HETATM   48  C   UNL     1      -9.740   8.848  71.088  1.00  0.00    -0.274 C  
HETATM   49  H   UNL     1      -8.863   7.093  69.343  1.00  0.00     0.000 HD 
HETATM   50  O   UNL     1     -10.495   8.748  69.867  1.00  0.00    -0.211 OA 
HETATM   51  H   UNL     1     -10.050   9.196  69.158  1.00  0.00     0.000 HD 
ENDBRANCH  38  39
ENDBRANCH  37  38
ENDBRANCH  26  37
ENDBRANCH  24  25
ENDBRANCH  19  24
ENDBRANCH   6  11
ENDBRANCH   2   3
TORSDOF 7
ENDMDL
MODEL      160
REMARK 921   NORMALIZED FREE ENERGY PREDICTED BY IDOCK:    6.99 KCAL/MOL
REMARK 922        TOTAL FREE ENERGY PREDICTED BY IDOCK:    8.57 KCAL/MOL
REMARK 923 INTER-LIGAND FREE ENERGY PREDICTED BY IDOCK:    4.35 KCAL/MOL
REMARK 924 INTRA-LIGAND FREE ENERGY PREDICTED BY IDOCK:    4.23 KCAL/MOL
REMARK 927      BINDING AFFINITY PREDICTED BY RF-SCORE:    0.00 PKD
ROOT
HETATM    1  C   UNL     1     -11.576   3.761  65.025  1.00  0.00     2.193 C  
HETATM    2  O   UNL     1     -10.334   3.815  65.721  1.00  0.00     0.044 OA 
ENDROOT
BRANCH   2   3
HETATM    3  C   UNL     1     -10.030   5.026  66.283  1.00  0.00    -0.224 A  
HETATM    4  C   UNL     1     -11.035   5.559  67.101  1.00  0.00    -0.002 A  
HETATM    5  C   UNL     1     -10.883   6.799  67.714  1.00  0.00    -0.339 A  
HETATM    6  C   UNL     1      -9.693   7.537  67.552  1.00  0.00    -0.190 A  
HETATM    7  C   UNL     1      -8.666   6.980  66.777  1.00  0.00    -0.124 A  
HETATM    8  H   UNL     1      -6.981   5.703  65.332  1.00  0.00     0.000 HD 
HETATM    9  O   UNL     1      -7.798   5.225  65.418  1.00  0.00    -0.089 OA 
HETATM   10  C   UNL     1      -8.829   5.729  66.155  1.00  0.00    -0.145 A  
BRANCH   6  11
HETATM   11  C   UNL     1      -9.621   8.963  68.075  1.00  0.00    -0.148 C  
HETATM   12  C   UNL     1     -10.981   9.614  67.890  1.00  0.00    -0.205 C  
HETATM   13  O   UNL     1     -11.850  11.390  69.196  1.00  0.00    -0.299 OA 
HETATM   14  C   UNL     1     -10.913  10.976  68.516  1.00  0.00    -0.228 C  
HETATM   15  C   UNL     1      -9.681  11.740  68.252  1.00  0.00    -0.199 A  
HETATM   16  C   UNL     1      -8.600  11.053  67.692  1.00  0.00    -0.125 A  
HETATM   17  C   UNL     1      -7.417  11.737  67.383  1.00  0.00    -0.143 A  
HETATM   18  O   UNL     1      -8.607   9.710  67.380  1.00  0.00    -0.125 OA 
HETATM   19  C   UNL     1      -7.314  13.114  67.610  1.00  0.00    -0.154 A  
HETATM   20  O   UNL     1     -10.621  13.818  69.013  1.00  0.00    -0.327 OA 
HETATM   21  C   UNL     1      -8.390  13.794  68.186  1.00  0.00    -0.165 A  
HETATM   22  H   UNL     1     -10.546  14.751  69.178  1.00  0.00     0.000 HD 
HETATM   23  C   UNL     1      -9.569  13.116  68.496  1.00  0.00    -0.117 A  
BRANCH  19  24
HETATM   24  O   UNL     1      -6.214  13.891  67.343  1.00  0.00    -0.335 OA 
BRANCH  24  25
HETATM   25  C   UNL     1      -6.137  15.155  68.014  1.00  0.00    -0.148 C  
HETATM   26  C   UNL     1      -7.089  16.432  69.782  1.00  0.00     0.148 C  
HETATM   27  O   UNL     1      -7.242  15.288  68.926  1.00  0.00    -0.120 OA 
HETATM   28  C   UNL     1      -7.100  17.719  68.944  1.00  0.00    -0.262 C  
HETATM   29  H   UNL     1      -5.496  18.720  66.282  1.00  0.00     0.000 HD 
HETATM   30  O   UNL     1      -5.149  16.228  66.029  1.00  0.00     0.626 OA 
HETATM   31  C   UNL     1      -6.052  17.630  67.826  1.00  0.00    -0.151 C  
HETATM   32  O   UNL     1      -6.819  18.904  69.704  1.00  0.00    -0.193 OA 
HETATM   33  H   UNL     1      -5.182  16.950  65.413  1.00  0.00     0.000 HD 
HETATM   34  H   UNL     1      -6.826  19.700  69.186  1.00  0.00     0.000 HD 
HETATM   35  O   UNL     1      -6.145  18.776  66.974  1.00  0.00    -0.166 OA 
HETATM   36  C   UNL     1      -6.191  16.331  67.013  1.00  0.00    -0.070 C  
BRANCH  26  37
HETATM   37  C   UNL     1      -8.217  16.438  70.820  1.00  0.00     3.927 C  
BRANCH  37  38
HETATM   38  O   UNL     1      -9.260  17.290  70.347  1.00  0.00     2.220 OA 
BRANCH  38  39
HETATM   39  C   UNL     1      -9.761  16.877  69.071  1.00  0.00    -0.231 C  
HETATM   40  O   UNL     1      -9.058  17.594  68.056  1.00  0.00    -0.254 OA 
HETATM   41  C   UNL     1      -9.515  17.381  66.719  1.00  0.00    -0.273 C  
HETATM   42  C   UNL     1     -11.026  17.655  66.576  1.00  0.00     0.251 C  
HETATM   43  C   UNL     1      -9.056  16.025  66.191  1.00  0.00    -0.387 C  
HETATM   44  O   UNL     1     -11.268  19.062  66.740  1.00  0.00    -0.066 OA 
HETATM   45  C   UNL     1     -11.858  16.926  67.635  1.00  0.00     1.084 C  
HETATM   46  O   UNL     1     -12.006  15.527  67.339  1.00  0.00    -0.107 OA 
HETATM   47  H   UNL     1     -12.199  19.230  66.652  1.00  0.00     0.000 HD 
HETATM   48  C   UNL     1     -11.283  17.140  69.041  1.00  0.00     0.295 C  
HETATM   49  H   UNL     1     -12.522  15.075  67.996  1.00  0.00     0.000 HD 
HETATM   50  O   UNL     1     -11.968  16.284  69.972  1.00  0.00    -0.331 OA 
HETATM   51  H   UNL     1     -12.904  16.446  69.954  1.00  0.00     0.000 HD 
ENDBRANCH  38  39
ENDBRANCH  37  38
ENDBRANCH  26  37
ENDBRANCH  24  25
ENDBRANCH  19  24
ENDBRANCH   6  11
ENDBRANCH   2   3
TORSDOF 7
ENDMDL
MODEL      161
REMARK 921   NORMALIZED FREE ENERGY PREDICTED BY IDOCK:    8.04 KCAL/MOL
REMARK 922        TOTAL FREE ENERGY PREDICTED BY IDOCK:   10.06 KCAL/MOL
REMARK 923 INTER-LIGAND FREE ENERGY PREDICTED BY IDOCK:   10.60 KCAL/MOL
REMARK 924 INTRA-LIGAND FREE ENERGY PREDICTED BY IDOCK:   -0.54 KCAL/MOL
REMARK 927      BINDING AFFINITY PREDICTED BY RF-SCORE:    0.00 PKD
ROOT
HETATM    1  C   UNL     1      -7.755  19.999  70.279  1.00  0.00     0.894 C  
HETATM    2  O   UNL     1      -8.228  18.937  71.101  1.00  0.00     4.158 OA 
ENDROOT
BRANCH   2   3
HETATM    3  C   UNL     1      -8.776  17.876  70.430  1.00  0.00     3.674 A  
HETATM    4  C   UNL     1      -7.843  16.974  69.904  1.00  0.00     1.249 A  
HETATM    5  C   UNL     1      -8.249  15.864  69.168  1.00  0.00    -0.240 A  
HETATM    6  C   UNL     1      -9.618  15.604  68.962  1.00  0.00    -0.243 A  
HETATM    7  C   UNL     1     -10.555  16.478  69.534  1.00  0.00    -0.321 A  
HETATM    8  H   UNL     1     -12.011  18.228  70.707  1.00  0.00     0.000 HD 
HETATM    9  O   UNL     1     -11.085  18.416  70.815  1.00  0.00     2.242 OA 
HETATM   10  C   UNL     1     -10.136  17.600  70.270  1.00  0.00     1.385 A  
BRANCH   6  11
HETATM   11  C   UNL     1     -10.033  14.497  68.005  1.00  0.00    -0.222 C  
HETATM   12  C   UNL     1     -11.412  14.826  67.457  1.00  0.00    -0.369 C  
HETATM   13  O   UNL     1     -12.278  14.106  65.373  1.00  0.00    -0.395 OA 
HETATM   14  C   UNL     1     -11.747  13.782  66.433  1.00  0.00    -0.379 C  
HETATM   15  C   UNL     1     -11.401  12.396  66.797  1.00  0.00    -0.391 A  
HETATM   16  C   UNL     1     -10.571  12.205  67.904  1.00  0.00    -0.207 A  
HETATM   17  C   UNL     1     -10.241  10.908  68.320  1.00  0.00    -0.191 A  
HETATM   18  O   UNL     1     -10.047  13.224  68.672  1.00  0.00    -0.221 OA 
HETATM   19  C   UNL     1     -10.758   9.795  67.647  1.00  0.00    -0.274 A  
HETATM   20  O   UNL     1     -12.742  11.438  65.046  1.00  0.00     0.749 OA 
HETATM   21  C   UNL     1     -11.574   9.990  66.529  1.00  0.00     1.830 A  
HETATM   22  H   UNL     1     -13.082  10.682  64.581  1.00  0.00     0.000 HD 
HETATM   23  C   UNL     1     -11.902  11.281  66.112  1.00  0.00     0.869 A  
BRANCH  19  24
HETATM   24  O   UNL     1     -10.514   8.481  67.963  1.00  0.00    -0.221 OA 
BRANCH  24  25
HETATM   25  C   UNL     1      -9.784   8.231  69.171  1.00  0.00    -0.171 C  
HETATM   26  C   UNL     1      -7.843   7.159  70.033  1.00  0.00    -0.113 C  
HETATM   27  O   UNL     1      -8.740   7.274  68.916  1.00  0.00    -0.129 OA 
HETATM   28  C   UNL     1      -8.597   6.619  71.258  1.00  0.00    -0.126 C  
HETATM   29  H   UNL     1     -11.369   7.442  72.774  1.00  0.00     0.000 HD 
HETATM   30  O   UNL     1     -11.807   8.545  70.540  1.00  0.00    -0.470 OA 
HETATM   31  C   UNL     1      -9.836   7.481  71.537  1.00  0.00    -0.166 C  
HETATM   32  O   UNL     1      -7.808   6.597  72.456  1.00  0.00    -0.101 OA 
HETATM   33  H   UNL     1     -12.371   8.198  71.221  1.00  0.00     0.000 HD 
HETATM   34  H   UNL     1      -8.274   6.263  73.214  1.00  0.00     0.000 HD 
HETATM   35  O   UNL     1     -10.602   6.908  72.602  1.00  0.00    -0.211 OA 
HETATM   36  C   UNL     1     -10.701   7.666  70.278  1.00  0.00    -0.239 C  
BRANCH  26  37
HETATM   37  C   UNL     1      -6.679   6.238  69.650  1.00  0.00    -0.053 C  
BRANCH  37  38
HETATM   38  O   UNL     1      -6.456   6.353  68.245  1.00  0.00    -0.045 OA 
BRANCH  38  39
HETATM   39  C   UNL     1      -7.513   5.765  67.478  1.00  0.00    -0.078 C  
HETATM   40  O   UNL     1      -7.546   4.365  67.756  1.00  0.00    -0.075 OA 
HETATM   41  C   UNL     1      -8.476   3.603  66.984  1.00  0.00    -0.105 C  
HETATM   42  C   UNL     1      -8.276   3.814  65.469  1.00  0.00    -0.101 C  
HETATM   43  C   UNL     1      -9.904   3.816  67.478  1.00  0.00    -0.026 C  
HETATM   44  O   UNL     1      -7.027   3.225  65.072  1.00  0.00    -0.054 OA 
HETATM   45  C   UNL     1      -8.222   5.295  65.083  1.00  0.00    -0.135 C  
HETATM   46  O   UNL     1      -9.526   5.899  65.073  1.00  0.00    -0.237 OA 
HETATM   47  H   UNL     1      -6.904   3.355  64.138  1.00  0.00     0.000 HD 
HETATM   48  C   UNL     1      -7.255   6.071  65.987  1.00  0.00    -0.075 C  
HETATM   49  H   UNL     1      -9.493   6.818  64.833  1.00  0.00     0.000 HD 
HETATM   50  O   UNL     1      -7.385   7.480  65.724  1.00  0.00    -0.067 OA 
HETATM   51  H   UNL     1      -7.226   7.668  64.807  1.00  0.00     0.000 HD 
ENDBRANCH  38  39
ENDBRANCH  37  38
ENDBRANCH  26  37
ENDBRANCH  24  25
ENDBRANCH  19  24
ENDBRANCH   6  11
ENDBRANCH   2   3
TORSDOF 7
ENDMDL
MODEL      162
REMARK 921   NORMALIZED FREE ENERGY PREDICTED BY IDOCK:   12.03 KCAL/MOL
REMARK 922        TOTAL FREE ENERGY PREDICTED BY IDOCK:   15.67 KCAL/MOL
REMARK 923 INTER-LIGAND FREE ENERGY PREDICTED BY IDOCK:   11.55 KCAL/MOL
REMARK 924 INTRA-LIGAND FREE ENERGY PREDICTED BY IDOCK:    4.12 KCAL/MOL
REMARK 927      BINDING AFFINITY PREDICTED BY RF-SCORE:    0.00 PKD
ROOT
HETATM    1  C   UNL     1     -11.598   3.747  65.043  1.00  0.00     2.193 C  
HETATM    2  O   UNL     1     -10.406   3.848  65.815  1.00  0.00    -0.041 OA 
ENDROOT
BRANCH   2   3
HETATM    3  C   UNL     1     -10.252   5.022  66.503  1.00  0.00    -0.271 A  
HETATM    4  C   UNL     1     -11.323   5.351  67.343  1.00  0.00     1.284 A  
HETATM    5  C   UNL     1     -11.324   6.532  68.081  1.00  0.00    -0.105 A  
HETATM    6  C   UNL     1     -10.226   7.412  68.024  1.00  0.00    -0.234 A  
HETATM    7  C   UNL     1      -9.130   7.058  67.224  1.00  0.00    -0.130 A  
HETATM    8  H   UNL     1      -7.288   6.135  65.703  1.00  0.00     0.000 HD 
HETATM    9  O   UNL     1      -8.045   5.561  65.720  1.00  0.00    -0.104 OA 
HETATM   10  C   UNL     1      -9.139   5.867  66.477  1.00  0.00    -0.143 A  
BRANCH   6  11
HETATM   11  C   UNL     1     -10.327   8.777  68.688  1.00  0.00    -0.205 C  
HETATM   12  C   UNL     1     -11.760   9.268  68.567  1.00  0.00     1.126 C  
HETATM   13  O   UNL     1     -12.830  10.781  70.044  1.00  0.00    -0.230 OA 
HETATM   14  C   UNL     1     -11.856  10.558  69.327  1.00  0.00    -0.170 C  
HETATM   15  C   UNL     1     -10.731  11.492  69.144  1.00  0.00    -0.210 A  
HETATM   16  C   UNL     1      -9.579  11.006  68.520  1.00  0.00    -0.187 A  
HETATM   17  C   UNL     1      -8.494  11.860  68.284  1.00  0.00    -0.161 A  
HETATM   18  O   UNL     1      -9.422   9.710  68.074  1.00  0.00    -0.132 OA 
HETATM   19  C   UNL     1      -8.561  13.210  68.649  1.00  0.00     0.036 A  
HETATM   20  O   UNL     1     -11.916  13.349  70.109  1.00  0.00    -0.327 OA 
HETATM   21  C   UNL     1      -9.708  13.689  69.289  1.00  0.00     0.470 A  
HETATM   22  H   UNL     1     -11.956  14.263  70.367  1.00  0.00     0.000 HD 
HETATM   23  C   UNL     1     -10.790  12.840  69.526  1.00  0.00     0.217 A  
BRANCH  19  24
HETATM   24  O   UNL     1      -7.570  14.141  68.464  1.00  0.00    -0.116 OA 
BRANCH  24  25
HETATM   25  C   UNL     1      -7.657  15.341  69.243  1.00  0.00    -0.213 C  
HETATM   26  C   UNL     1      -9.065  17.197  69.729  1.00  0.00     1.022 C  
HETATM   27  O   UNL     1      -8.807  16.103  68.833  1.00  0.00    -0.222 OA 
HETATM   28  C   UNL     1      -7.892  18.188  69.697  1.00  0.00     0.717 C  
HETATM   29  H   UNL     1      -4.653  17.898  69.994  1.00  0.00     0.000 HD 
HETATM   30  O   UNL     1      -5.204  15.503  69.394  1.00  0.00    -0.094 OA 
HETATM   31  C   UNL     1      -6.573  17.453  69.972  1.00  0.00     0.331 C  
HETATM   32  O   UNL     1      -8.006  19.244  70.662  1.00  0.00     1.588 OA 
HETATM   33  H   UNL     1      -4.432  16.046  69.283  1.00  0.00     0.000 HD 
HETATM   34  H   UNL     1      -7.281  19.858  70.643  1.00  0.00     0.000 HD 
HETATM   35  O   UNL     1      -5.470  18.353  69.824  1.00  0.00    -0.199 OA 
HETATM   36  C   UNL     1      -6.401  16.224  69.062  1.00  0.00    -0.153 C  
BRANCH  26  37
HETATM   37  C   UNL     1     -10.377  17.879  69.324  1.00  0.00     0.000 C  
BRANCH  37  38
HETATM   38  O   UNL     1     -10.066  18.985  68.476  1.00  0.00    -0.378 OA 
BRANCH  38  39
HETATM   39  C   UNL     1      -9.274  18.598  67.348  1.00  0.00    -0.279 C  
HETATM   40  O   UNL     1      -7.896  18.749  67.691  1.00  0.00    -0.236 OA 
HETATM   41  C   UNL     1      -6.966  18.510  66.634  1.00  0.00    -0.204 C  
HETATM   42  C   UNL     1      -7.275  19.369  65.390  1.00  0.00    -0.045 C  
HETATM   43  C   UNL     1      -6.818  17.016  66.360  1.00  0.00    -0.248 C  
HETATM   44  O   UNL     1      -7.012  20.749  65.693  1.00  0.00    -0.481 OA 
HETATM   45  C   UNL     1      -8.739  19.270  64.956  1.00  0.00     2.418 C  
HETATM   46  O   UNL     1      -9.019  18.039  64.269  1.00  0.00     6.362 OA 
HETATM   47  H   UNL     1      -7.202  21.278  64.927  1.00  0.00     0.000 HD 
HETATM   48  C   UNL     1      -9.688  19.473  66.145  1.00  0.00    -0.387 C  
HETATM   49  H   UNL     1      -9.928  17.978  63.999  1.00  0.00     0.000 HD 
HETATM   50  O   UNL     1     -11.035  19.176  65.735  1.00  0.00    -0.304 OA 
HETATM   51  H   UNL     1     -11.290  19.714  64.996  1.00  0.00     0.000 HD 
ENDBRANCH  38  39
ENDBRANCH  37  38
ENDBRANCH  26  37
ENDBRANCH  24  25
ENDBRANCH  19  24
ENDBRANCH   6  11
ENDBRANCH   2   3
TORSDOF 7
ENDMDL
MODEL      163
REMARK 921   NORMALIZED FREE ENERGY PREDICTED BY IDOCK:   15.50 KCAL/MOL
REMARK 922        TOTAL FREE ENERGY PREDICTED BY IDOCK:   20.56 KCAL/MOL
REMARK 923 INTER-LIGAND FREE ENERGY PREDICTED BY IDOCK:   10.81 KCAL/MOL
REMARK 924 INTRA-LIGAND FREE ENERGY PREDICTED BY IDOCK:    9.75 KCAL/MOL
REMARK 927      BINDING AFFINITY PREDICTED BY RF-SCORE:    0.00 PKD
ROOT
HETATM    1  C   UNL     1      -9.557  20.175  69.889  1.00  0.00     0.642 C  
HETATM    2  O   UNL     1     -10.876  19.653  69.773  1.00  0.00     0.903 OA 
ENDROOT
BRANCH   2   3
HETATM    3  C   UNL     1     -10.998  18.537  68.988  1.00  0.00     1.240 A  
HETATM    4  C   UNL     1      -9.988  17.584  69.168  1.00  0.00    -0.197 A  
HETATM    5  C   UNL     1      -9.960  16.413  68.416  1.00  0.00    -0.238 A  
HETATM    6  C   UNL     1     -10.972  16.143  67.473  1.00  0.00    -0.238 A  
HETATM    7  C   UNL     1     -12.013  17.073  67.330  1.00  0.00     1.776 A  
HETATM    8  H   UNL     1     -13.771  18.934  67.310  1.00  0.00     0.000 HD 
HETATM    9  O   UNL     1     -13.069  19.126  67.921  1.00  0.00     4.956 OA 
HETATM   10  C   UNL     1     -12.031  18.256  68.089  1.00  0.00     3.048 A  
BRANCH   6  11
HETATM   11  C   UNL     1     -10.823  14.955  66.536  1.00  0.00    -0.322 C  
HETATM   12  C   UNL     1     -11.737  15.167  65.340  1.00  0.00    -0.092 C  
HETATM   13  O   UNL     1     -11.409  14.264  63.174  1.00  0.00     1.231 OA 
HETATM   14  C   UNL     1     -11.486  14.041  64.381  1.00  0.00    -0.344 C  
HETATM   15  C   UNL     1     -11.350  12.704  64.986  1.00  0.00    -0.345 A  
HETATM   16  C   UNL     1     -11.196  12.634  66.373  1.00  0.00    -0.305 A  
HETATM   17  C   UNL     1     -11.102  11.387  67.007  1.00  0.00    -0.364 A  
HETATM   18  O   UNL     1     -11.153  13.729  67.210  1.00  0.00    -0.292 OA 
HETATM   19  C   UNL     1     -11.185  10.205  66.263  1.00  0.00     0.684 A  
HETATM   20  O   UNL     1     -11.597  11.559  62.886  1.00  0.00    -0.810 OA 
HETATM   21  C   UNL     1     -11.322  10.280  64.874  1.00  0.00     2.124 A  
HETATM   22  H   UNL     1     -11.640  10.756  62.380  1.00  0.00     0.000 HD 
HETATM   23  C   UNL     1     -11.414  11.519  64.240  1.00  0.00    -0.191 A  
BRANCH  19  24
HETATM   24  O   UNL     1     -11.114   8.931  66.770  1.00  0.00     0.168 OA 
BRANCH  24  25
HETATM   25  C   UNL     1     -10.662   8.798  68.123  1.00  0.00    -0.073 C  
HETATM   26  C   UNL     1      -9.593   7.303  69.634  1.00  0.00    -0.155 C  
HETATM   27  O   UNL     1     -10.260   7.438  68.368  1.00  0.00    -0.173 OA 
HETATM   28  C   UNL     1     -10.560   7.649  70.776  1.00  0.00    -0.221 C  
HETATM   29  H   UNL     1     -12.551  10.162  71.394  1.00  0.00     0.000 HD 
HETATM   30  O   UNL     1     -12.274  10.491  68.901  1.00  0.00    -0.753 OA 
HETATM   31  C   UNL     1     -11.179   9.034  70.541  1.00  0.00    -0.260 C  
HETATM   32  O   UNL     1      -9.939   7.669  72.070  1.00  0.00    -0.168 OA 
HETATM   33  H   UNL     1     -12.960  10.715  69.519  1.00  0.00     0.000 HD 
HETATM   34  H   UNL     1     -10.536   7.883  72.776  1.00  0.00     0.000 HD 
HETATM   35  O   UNL     1     -12.168   9.305  71.539  1.00  0.00    -0.318 OA 
HETATM   36  C   UNL     1     -11.778   9.162  69.129  1.00  0.00     0.861 C  
BRANCH  26  37
HETATM   37  C   UNL     1      -9.064   5.870  69.772  1.00  0.00    -0.138 C  
BRANCH  37  38
HETATM   38  O   UNL     1      -7.827   5.776  69.066  1.00  0.00    -0.091 OA 
BRANCH  38  39
HETATM   39  C   UNL     1      -7.602   6.904  68.215  1.00  0.00    -0.107 C  
HETATM   40  O   UNL     1      -8.553   6.865  67.151  1.00  0.00    -0.119 OA 
HETATM   41  C   UNL     1      -8.395   7.864  66.142  1.00  0.00    -0.127 C  
HETATM   42  C   UNL     1      -6.972   7.864  65.548  1.00  0.00    -0.059 C  
HETATM   43  C   UNL     1      -8.884   9.224  66.636  1.00  0.00    -0.146 C  
HETATM   44  O   UNL     1      -6.779   6.660  64.788  1.00  0.00    -0.044 OA 
HETATM   45  C   UNL     1      -5.885   7.899  66.625  1.00  0.00    -0.044 C  
HETATM   46  O   UNL     1      -5.729   9.209  67.196  1.00  0.00    -0.044 OA 
HETATM   47  H   UNL     1      -5.902   6.660  64.422  1.00  0.00     0.000 HD 
HETATM   48  C   UNL     1      -6.143   6.846  67.712  1.00  0.00    -0.033 C  
HETATM   49  H   UNL     1      -5.054   9.231  67.864  1.00  0.00     0.000 HD 
HETATM   50  O   UNL     1      -5.219   7.046  68.798  1.00  0.00    -0.015 OA 
HETATM   51  H   UNL     1      -4.322   7.009  68.488  1.00  0.00     0.000 HD 
ENDBRANCH  38  39
ENDBRANCH  37  38
ENDBRANCH  26  37
ENDBRANCH  24  25
ENDBRANCH  19  24
ENDBRANCH   6  11
ENDBRANCH   2   3
TORSDOF 7
ENDMDL
MODEL      164
REMARK 921   NORMALIZED FREE ENERGY PREDICTED BY IDOCK:   16.47 KCAL/MOL
REMARK 922        TOTAL FREE ENERGY PREDICTED BY IDOCK:   21.93 KCAL/MOL
REMARK 923 INTER-LIGAND FREE ENERGY PREDICTED BY IDOCK:    8.20 KCAL/MOL
REMARK 924 INTRA-LIGAND FREE ENERGY PREDICTED BY IDOCK:   13.73 KCAL/MOL
REMARK 927      BINDING AFFINITY PREDICTED BY RF-SCORE:    0.00 PKD
ROOT
HETATM    1  C   UNL     1     -11.559  20.847  67.952  1.00  0.00     3.745 C  
HETATM    2  O   UNL     1     -11.855  20.031  66.824  1.00  0.00     1.007 OA 
ENDROOT
BRANCH   2   3
HETATM    3  C   UNL     1     -11.102  18.893  66.710  1.00  0.00     0.133 A  
HETATM    4  C   UNL     1     -11.489  17.850  67.561  1.00  0.00     0.881 A  
HETATM    5  C   UNL     1     -10.797  16.643  67.583  1.00  0.00    -0.258 A  
HETATM    6  C   UNL     1      -9.703  16.429  66.721  1.00  0.00    -0.263 A  
HETATM    7  C   UNL     1      -9.348  17.453  65.831  1.00  0.00     0.008 A  
HETATM    8  H   UNL     1      -8.954  19.486  64.323  1.00  0.00     0.000 HD 
HETATM    9  O   UNL     1      -9.671  19.636  64.930  1.00  0.00     0.911 OA 
HETATM   10  C   UNL     1     -10.048  18.672  65.819  1.00  0.00    -0.013 A  
BRANCH   6  11
HETATM   11  C   UNL     1      -8.850  15.181  66.890  1.00  0.00    -0.256 C  
HETATM   12  C   UNL     1      -7.497  15.432  66.245  1.00  0.00     1.378 C  
HETATM   13  O   UNL     1      -5.463  14.379  66.851  1.00  0.00     0.471 OA 
HETATM   14  C   UNL     1      -6.639  14.233  66.525  1.00  0.00     2.974 C  
HETATM   15  C   UNL     1      -7.303  12.925  66.380  1.00  0.00     1.478 A  
HETATM   16  C   UNL     1      -8.695  12.914  66.266  1.00  0.00     0.275 A  
HETATM   17  C   UNL     1      -9.376  11.702  66.086  1.00  0.00    -0.237 A  
HETATM   18  O   UNL     1      -9.490  14.041  66.291  1.00  0.00    -0.278 OA 
HETATM   19  C   UNL     1      -8.668  10.498  65.994  1.00  0.00    -0.164 A  
HETATM   20  O   UNL     1      -5.232  11.702  66.383  1.00  0.00    -0.248 OA 
HETATM   21  C   UNL     1      -7.277  10.511  66.126  1.00  0.00    -0.136 A  
HETATM   22  H   UNL     1      -4.754  10.882  66.333  1.00  0.00     0.000 HD 
HETATM   23  C   UNL     1      -6.597  11.716  66.307  1.00  0.00     0.243 A  
BRANCH  19  24
HETATM   24  O   UNL     1      -9.220   9.255  65.811  1.00  0.00    -0.190 OA 
BRANCH  24  25
HETATM   25  C   UNL     1      -9.741   8.600  66.976  1.00  0.00    -0.201 C  
HETATM   26  C   UNL     1      -9.988   8.821  69.332  1.00  0.00    -0.196 C  
HETATM   27  O   UNL     1      -9.313   9.301  68.157  1.00  0.00    -0.134 OA 
HETATM   28  C   UNL     1      -9.623   7.350  69.581  1.00  0.00    -0.156 C  
HETATM   29  H   UNL     1      -9.612   4.659  67.732  1.00  0.00     0.000 HD 
HETATM   30  O   UNL     1      -9.582   6.394  65.891  1.00  0.00    -0.387 OA 
HETATM   31  C   UNL     1      -9.895   6.518  68.320  1.00  0.00    -0.132 C  
HETATM   32  O   UNL     1     -10.356   6.750  70.659  1.00  0.00    -0.198 OA 
HETATM   33  H   UNL     1      -9.277   5.496  65.951  1.00  0.00     0.000 HD 
HETATM   34  H   UNL     1     -10.131   5.841  70.814  1.00  0.00     0.000 HD 
HETATM   35  O   UNL     1      -9.444   5.174  68.513  1.00  0.00    -0.120 OA 
HETATM   36  C   UNL     1      -9.244   7.140  67.072  1.00  0.00    -0.144 C  
BRANCH  26  37
HETATM   37  C   UNL     1      -9.599   9.698  70.528  1.00  0.00    -0.199 C  
BRANCH  37  38
HETATM   38  O   UNL     1      -9.090   8.852  71.560  1.00  0.00    -0.233 OA 
BRANCH  38  39
HETATM   39  C   UNL     1      -9.733   7.573  71.578  1.00  0.00    -0.165 C  
HETATM   40  O   UNL     1     -10.938   7.684  72.336  1.00  0.00    -0.255 OA 
HETATM   41  C   UNL     1     -11.650   6.464  72.549  1.00  0.00    -0.222 C  
HETATM   42  C   UNL     1     -10.755   5.378  73.180  1.00  0.00    -0.266 C  
HETATM   43  C   UNL     1     -12.389   6.032  71.286  1.00  0.00     0.514 C  
HETATM   44  O   UNL     1     -10.432   5.758  74.528  1.00  0.00    -0.252 OA 
HETATM   45  C   UNL     1      -9.433   5.196  72.430  1.00  0.00    -0.143 C  
HETATM   46  O   UNL     1      -9.599   4.458  71.209  1.00  0.00    -0.150 OA 
HETATM   47  H   UNL     1      -9.880   5.088  74.916  1.00  0.00     0.000 HD 
HETATM   48  C   UNL     1      -8.747   6.545  72.176  1.00  0.00    -0.131 C  
HETATM   49  H   UNL     1      -8.779   4.345  70.743  1.00  0.00     0.000 HD 
HETATM   50  O   UNL     1      -7.620   6.350  71.302  1.00  0.00    -0.091 OA 
HETATM   51  H   UNL     1      -7.014   5.718  71.670  1.00  0.00     0.000 HD 
ENDBRANCH  38  39
ENDBRANCH  37  38
ENDBRANCH  26  37
ENDBRANCH  24  25
ENDBRANCH  19  24
ENDBRANCH   6  11
ENDBRANCH   2   3
TORSDOF 7
ENDMDL
MODEL      165
REMARK 921   NORMALIZED FREE ENERGY PREDICTED BY IDOCK:   17.17 KCAL/MOL
REMARK 922        TOTAL FREE ENERGY PREDICTED BY IDOCK:   22.92 KCAL/MOL
REMARK 923 INTER-LIGAND FREE ENERGY PREDICTED BY IDOCK:    9.85 KCAL/MOL
REMARK 924 INTRA-LIGAND FREE ENERGY PREDICTED BY IDOCK:   13.07 KCAL/MOL
REMARK 927      BINDING AFFINITY PREDICTED BY RF-SCORE:    0.00 PKD
ROOT
HETATM    1  C   UNL     1      -9.854  18.463  68.132  1.00  0.00    -0.342 C  
HETATM    2  O   UNL     1     -11.217  18.111  67.917  1.00  0.00    -0.052 OA 
ENDROOT
BRANCH   2   3
HETATM    3  C   UNL     1     -11.572  16.856  68.338  1.00  0.00     0.357 A  
HETATM    4  C   UNL     1     -10.971  16.452  69.536  1.00  0.00    -0.317 A  
HETATM    5  C   UNL     1     -11.208  15.188  70.071  1.00  0.00    -0.301 A  
HETATM    6  C   UNL     1     -12.090  14.295  69.431  1.00  0.00    -0.361 A  
HETATM    7  C   UNL     1     -12.733  14.720  68.259  1.00  0.00     0.908 A  
HETATM    8  H   UNL     1     -13.760  15.780  66.166  1.00  0.00     0.000 HD 
HETATM    9  O   UNL     1     -13.139  16.366  66.585  1.00  0.00     4.435 OA 
HETATM   10  C   UNL     1     -12.483  15.995  67.722  1.00  0.00     1.638 A  
BRANCH   6  11
HETATM   11  C   UNL     1     -12.192  12.861  69.928  1.00  0.00    -0.188 C  
HETATM   12  C   UNL     1     -12.386  12.885  71.435  1.00  0.00    -0.086 C  
HETATM   13  O   UNL     1     -13.462  11.206  72.715  1.00  0.00     0.422 OA 
HETATM   14  C   UNL     1     -12.598  11.468  71.880  1.00  0.00     0.002 C  
HETATM   15  C   UNL     1     -11.715  10.464  71.259  1.00  0.00    -0.320 A  
HETATM   16  C   UNL     1     -10.969  10.859  70.145  1.00  0.00    -0.079 A  
HETATM   17  C   UNL     1     -10.083   9.958  69.539  1.00  0.00    -0.240 A  
HETATM   18  O   UNL     1     -11.010  12.118  69.584  1.00  0.00    -0.063 OA 
HETATM   19  C   UNL     1      -9.920   8.667  70.055  1.00  0.00    -0.185 A  
HETATM   20  O   UNL     1     -12.258   8.764  72.870  1.00  0.00    -0.294 OA 
HETATM   21  C   UNL     1     -10.681   8.271  71.158  1.00  0.00    -0.270 A  
HETATM   22  H   UNL     1     -12.156   7.883  73.212  1.00  0.00     0.000 HD 
HETATM   23  C   UNL     1     -11.565   9.165  71.763  1.00  0.00    -0.387 A  
BRANCH  19  24
HETATM   24  O   UNL     1      -9.081   7.703  69.554  1.00  0.00    -0.146 OA 
BRANCH  24  25
HETATM   25  C   UNL     1      -9.172   6.398  70.141  1.00  0.00    -0.158 C  
HETATM   26  C   UNL     1      -9.738   4.136  69.672  1.00  0.00    -0.199 C  
HETATM   27  O   UNL     1      -9.824   5.500  69.226  1.00  0.00    -0.146 OA 
HETATM   28  C   UNL     1     -10.489   3.972  71.002  1.00  0.00     0.499 C  
HETATM   29  H   UNL     1     -10.444   5.558  73.855  1.00  0.00     0.000 HD 
HETATM   30  O   UNL     1      -9.425   7.356  72.396  1.00  0.00    -0.146 OA 
HETATM   31  C   UNL     1      -9.979   4.997  72.025  1.00  0.00    -0.184 C  
HETATM   32  O   UNL     1     -10.343   2.669  71.588  1.00  0.00     0.031 OA 
HETATM   33  H   UNL     1      -9.925   7.373  73.204  1.00  0.00     0.000 HD 
HETATM   34  H   UNL     1     -10.807   2.567  72.410  1.00  0.00     0.000 HD 
HETATM   35  O   UNL     1     -10.760   4.923  73.223  1.00  0.00    -0.204 OA 
HETATM   36  C   UNL     1      -9.985   6.426  71.455  1.00  0.00    -0.180 C  
BRANCH  26  37
HETATM   37  C   UNL     1     -10.321   3.216  68.592  1.00  0.00     1.792 C  
BRANCH  37  38
HETATM   38  O   UNL     1      -9.399   3.161  67.502  1.00  0.00    -0.191 OA 
BRANCH  38  39
HETATM   39  C   UNL     1      -9.115   4.458  66.967  1.00  0.00    -0.130 C  
HETATM   40  O   UNL     1     -10.159   5.349  67.362  1.00  0.00    -0.154 OA 
HETATM   41  C   UNL     1     -10.089   6.667  66.815  1.00  0.00    -0.175 C  
HETATM   42  C   UNL     1      -9.995   6.648  65.276  1.00  0.00     1.804 C  
HETATM   43  C   UNL     1      -9.011   7.493  67.513  1.00  0.00    -0.127 C  
HETATM   44  O   UNL     1     -11.242   6.182  64.734  1.00  0.00     3.824 OA 
HETATM   45  C   UNL     1      -8.899   5.709  64.764  1.00  0.00     0.065 C  
HETATM   46  O   UNL     1      -7.587   6.276  64.913  1.00  0.00    -0.079 OA 
HETATM   47  H   UNL     1     -11.184   6.170  63.785  1.00  0.00     0.000 HD 
HETATM   48  C   UNL     1      -8.989   4.331  65.433  1.00  0.00    -0.134 C  
HETATM   49  H   UNL     1      -6.907   5.694  64.595  1.00  0.00     0.000 HD 
HETATM   50  O   UNL     1      -7.832   3.552  65.078  1.00  0.00    -0.084 OA 
HETATM   51  H   UNL     1      -7.755   3.474  64.135  1.00  0.00     0.000 HD 
ENDBRANCH  38  39
ENDBRANCH  37  38
ENDBRANCH  26  37
ENDBRANCH  24  25
ENDBRANCH  19  24
ENDBRANCH   6  11
ENDBRANCH   2   3
TORSDOF 7
ENDMDL
MODEL      166
REMARK 921   NORMALIZED FREE ENERGY PREDICTED BY IDOCK:   20.43 KCAL/MOL
REMARK 922        TOTAL FREE ENERGY PREDICTED BY IDOCK:   27.51 KCAL/MOL
REMARK 923 INTER-LIGAND FREE ENERGY PREDICTED BY IDOCK:   27.86 KCAL/MOL
REMARK 924 INTRA-LIGAND FREE ENERGY PREDICTED BY IDOCK:   -0.35 KCAL/MOL
REMARK 927      BINDING AFFINITY PREDICTED BY RF-SCORE:    0.00 PKD
ROOT
HETATM    1  C   UNL     1      -9.972  14.787  63.034  1.00  0.00    10.191 C  
HETATM    2  O   UNL     1      -9.243  14.854  64.256  1.00  0.00     2.394 OA 
ENDROOT
BRANCH   2   3
HETATM    3  C   UNL     1      -9.988  14.687  65.393  1.00  0.00    -0.330 A  
HETATM    4  C   UNL     1      -9.335  13.999  66.423  1.00  0.00    -0.242 A  
HETATM    5  C   UNL     1      -9.977  13.724  67.627  1.00  0.00    -0.238 A  
HETATM    6  C   UNL     1     -11.297  14.163  67.850  1.00  0.00    -0.318 A  
HETATM    7  C   UNL     1     -11.934  14.898  66.839  1.00  0.00    -0.118 A  
HETATM    8  H   UNL     1     -12.817  16.218  64.830  1.00  0.00     0.000 HD 
HETATM    9  O   UNL     1     -11.938  15.892  64.673  1.00  0.00    -0.110 OA 
HETATM   10  C   UNL     1     -11.281  15.166  65.624  1.00  0.00    -0.296 A  
BRANCH   6  11
HETATM   11  C   UNL     1     -12.042  13.694  69.091  1.00  0.00    -0.319 C  
HETATM   12  C   UNL     1     -12.103  14.847  70.080  1.00  0.00    -0.379 C  
HETATM   13  O   UNL     1     -13.766  15.155  71.740  1.00  0.00    -0.394 OA 
HETATM   14  C   UNL     1     -12.938  14.394  71.242  1.00  0.00    -0.344 C  
HETATM   15  C   UNL     1     -12.686  13.021  71.713  1.00  0.00    -0.260 A  
HETATM   16  C   UNL     1     -11.916  12.187  70.898  1.00  0.00     0.108 A  
HETATM   17  C   UNL     1     -11.612  10.884  71.314  1.00  0.00     0.308 A  
HETATM   18  O   UNL     1     -11.386  12.559  69.681  1.00  0.00    -0.211 OA 
HETATM   19  C   UNL     1     -12.054  10.414  72.556  1.00  0.00     1.796 A  
HETATM   20  O   UNL     1     -13.872  13.348  73.779  1.00  0.00     1.953 OA 
HETATM   21  C   UNL     1     -12.839  11.245  73.361  1.00  0.00     6.801 A  
HETATM   22  H   UNL     1     -14.183  13.024  74.617  1.00  0.00     0.000 HD 
HETATM   23  C   UNL     1     -13.145  12.543  72.948  1.00  0.00     1.502 A  
BRANCH  19  24
HETATM   24  O   UNL     1     -11.815   9.166  73.074  1.00  0.00     0.568 OA 
BRANCH  24  25
HETATM   25  C   UNL     1     -11.778   8.076  72.144  1.00  0.00    -0.344 C  
HETATM   26  C   UNL     1     -10.310   6.756  70.817  1.00  0.00    -0.204 C  
HETATM   27  O   UNL     1     -10.459   7.964  71.581  1.00  0.00    -0.202 OA 
HETATM   28  C   UNL     1     -11.263   6.776  69.612  1.00  0.00    -0.292 C  
HETATM   29  H   UNL     1     -14.455   7.350  69.240  1.00  0.00     0.000 HD 
HETATM   30  O   UNL     1     -14.118   8.469  71.484  1.00  0.00    -0.452 OA 
HETATM   31  C   UNL     1     -12.699   7.045  70.081  1.00  0.00     0.748 C  
HETATM   32  O   UNL     1     -11.275   5.548  68.868  1.00  0.00     0.042 OA 
HETATM   33  H   UNL     1     -14.736   8.598  70.773  1.00  0.00     0.000 HD 
HETATM   34  H   UNL     1     -11.864   5.560  68.123  1.00  0.00     0.000 HD 
HETATM   35  O   UNL     1     -13.566   7.183  68.950  1.00  0.00     7.429 OA 
HETATM   36  C   UNL     1     -12.783   8.285  70.988  1.00  0.00    -0.011 C  
BRANCH  26  37
HETATM   37  C   UNL     1      -8.850   6.624  70.365  1.00  0.00    -0.152 C  
BRANCH  37  38
HETATM   38  O   UNL     1      -8.169   7.838  70.680  1.00  0.00    -0.111 OA 
BRANCH  38  39
HETATM   39  C   UNL     1      -7.683   8.506  69.511  1.00  0.00    -0.091 C  
HETATM   40  O   UNL     1      -8.334   7.949  68.369  1.00  0.00    -0.123 OA 
HETATM   41  C   UNL     1      -7.879   8.427  67.102  1.00  0.00    -0.100 C  
HETATM   42  C   UNL     1      -6.353   8.271  66.941  1.00  0.00    -0.056 C  
HETATM   43  C   UNL     1      -8.412   9.830  66.822  1.00  0.00    -0.125 C  
HETATM   44  O   UNL     1      -6.030   6.873  66.850  1.00  0.00    -0.024 OA 
HETATM   45  C   UNL     1      -5.574   8.839  68.131  1.00  0.00    -0.035 C  
HETATM   46  O   UNL     1      -5.507  10.274  68.098  1.00  0.00    -0.035 OA 
HETATM   47  H   UNL     1      -5.090   6.777  66.750  1.00  0.00     0.000 HD 
HETATM   48  C   UNL     1      -6.148   8.339  69.463  1.00  0.00    -0.036 C  
HETATM   49  H   UNL     1      -5.024  10.627  68.835  1.00  0.00     0.000 HD 
HETATM   50  O   UNL     1      -5.522   9.048  70.548  1.00  0.00    -0.026 OA 
HETATM   51  H   UNL     1      -4.578   8.944  70.518  1.00  0.00     0.000 HD 
ENDBRANCH  38  39
ENDBRANCH  37  38
ENDBRANCH  26  37
ENDBRANCH  24  25
ENDBRANCH  19  24
ENDBRANCH   6  11
ENDBRANCH   2   3
TORSDOF 7
ENDMDL
MODEL      167
REMARK 921   NORMALIZED FREE ENERGY PREDICTED BY IDOCK:   21.05 KCAL/MOL
REMARK 922        TOTAL FREE ENERGY PREDICTED BY IDOCK:   28.39 KCAL/MOL
REMARK 923 INTER-LIGAND FREE ENERGY PREDICTED BY IDOCK:   27.96 KCAL/MOL
REMARK 924 INTRA-LIGAND FREE ENERGY PREDICTED BY IDOCK:    0.42 KCAL/MOL
REMARK 927      BINDING AFFINITY PREDICTED BY RF-SCORE:    0.00 PKD
ROOT
HETATM    1  C   UNL     1      -9.972  14.787  63.034  1.00  0.00    10.191 C  
HETATM    2  O   UNL     1      -9.243  14.854  64.256  1.00  0.00     2.394 OA 
ENDROOT
BRANCH   2   3
HETATM    3  C   UNL     1      -9.988  14.687  65.393  1.00  0.00    -0.330 A  
HETATM    4  C   UNL     1      -9.335  13.999  66.423  1.00  0.00    -0.242 A  
HETATM    5  C   UNL     1      -9.977  13.724  67.627  1.00  0.00    -0.238 A  
HETATM    6  C   UNL     1     -11.297  14.163  67.850  1.00  0.00    -0.318 A  
HETATM    7  C   UNL     1     -11.934  14.898  66.839  1.00  0.00    -0.118 A  
HETATM    8  H   UNL     1     -12.817  16.218  64.830  1.00  0.00     0.000 HD 
HETATM    9  O   UNL     1     -11.938  15.892  64.673  1.00  0.00    -0.110 OA 
HETATM   10  C   UNL     1     -11.281  15.166  65.624  1.00  0.00    -0.296 A  
BRANCH   6  11
HETATM   11  C   UNL     1     -12.042  13.694  69.091  1.00  0.00    -0.319 C  
HETATM   12  C   UNL     1     -12.103  14.847  70.080  1.00  0.00    -0.379 C  
HETATM   13  O   UNL     1     -13.766  15.155  71.740  1.00  0.00    -0.394 OA 
HETATM   14  C   UNL     1     -12.938  14.394  71.242  1.00  0.00    -0.344 C  
HETATM   15  C   UNL     1     -12.686  13.021  71.713  1.00  0.00    -0.260 A  
HETATM   16  C   UNL     1     -11.916  12.187  70.898  1.00  0.00     0.108 A  
HETATM   17  C   UNL     1     -11.612  10.884  71.314  1.00  0.00     0.308 A  
HETATM   18  O   UNL     1     -11.386  12.559  69.681  1.00  0.00    -0.211 OA 
HETATM   19  C   UNL     1     -12.054  10.414  72.556  1.00  0.00     1.796 A  
HETATM   20  O   UNL     1     -13.872  13.348  73.779  1.00  0.00     1.953 OA 
HETATM   21  C   UNL     1     -12.839  11.245  73.361  1.00  0.00     6.801 A  
HETATM   22  H   UNL     1     -14.183  13.024  74.617  1.00  0.00     0.000 HD 
HETATM   23  C   UNL     1     -13.145  12.543  72.948  1.00  0.00     1.502 A  
BRANCH  19  24
HETATM   24  O   UNL     1     -11.815   9.166  73.074  1.00  0.00     0.568 OA 
BRANCH  24  25
HETATM   25  C   UNL     1     -11.778   8.076  72.144  1.00  0.00    -0.344 C  
HETATM   26  C   UNL     1     -10.310   6.756  70.817  1.00  0.00    -0.204 C  
HETATM   27  O   UNL     1     -10.459   7.964  71.581  1.00  0.00    -0.202 OA 
HETATM   28  C   UNL     1     -11.263   6.776  69.612  1.00  0.00    -0.292 C  
HETATM   29  H   UNL     1     -14.455   7.350  69.240  1.00  0.00     0.000 HD 
HETATM   30  O   UNL     1     -14.118   8.469  71.484  1.00  0.00    -0.452 OA 
HETATM   31  C   UNL     1     -12.699   7.045  70.081  1.00  0.00     0.748 C  
HETATM   32  O   UNL     1     -11.275   5.548  68.868  1.00  0.00     0.042 OA 
HETATM   33  H   UNL     1     -14.736   8.598  70.773  1.00  0.00     0.000 HD 
HETATM   34  H   UNL     1     -11.864   5.560  68.123  1.00  0.00     0.000 HD 
HETATM   35  O   UNL     1     -13.566   7.183  68.950  1.00  0.00     7.429 OA 
HETATM   36  C   UNL     1     -12.783   8.285  70.988  1.00  0.00    -0.011 C  
BRANCH  26  37
HETATM   37  C   UNL     1      -8.850   6.624  70.365  1.00  0.00    -0.152 C  
BRANCH  37  38
HETATM   38  O   UNL     1      -8.829   6.488  68.944  1.00  0.00    -0.126 OA 
BRANCH  38  39
HETATM   39  C   UNL     1      -8.283   5.232  68.528  1.00  0.00    -0.090 C  
HETATM   40  O   UNL     1      -8.262   4.353  69.653  1.00  0.00    -0.060 OA 
HETATM   41  C   UNL     1      -7.639   3.086  69.437  1.00  0.00    -0.044 C  
HETATM   42  C   UNL     1      -6.207   3.234  68.884  1.00  0.00    -0.029 C  
HETATM   43  C   UNL     1      -8.546   2.160  68.631  1.00  0.00    -0.103 C  
HETATM   44  O   UNL     1      -5.363   3.794  69.903  1.00  0.00    -0.007 OA 
HETATM   45  C   UNL     1      -6.138   4.168  67.673  1.00  0.00    -0.032 C  
HETATM   46  O   UNL     1      -6.618   3.538  66.474  1.00  0.00    -0.039 OA 
HETATM   47  H   UNL     1      -4.481   3.885  69.562  1.00  0.00     0.000 HD 
HETATM   48  C   UNL     1      -6.876   5.486  67.943  1.00  0.00    -0.064 C  
HETATM   49  H   UNL     1      -6.575   4.117  65.723  1.00  0.00     0.000 HD 
HETATM   50  O   UNL     1      -6.959   6.245  66.723  1.00  0.00    -0.064 OA 
HETATM   51  H   UNL     1      -6.094   6.402  66.364  1.00  0.00     0.000 HD 
ENDBRANCH  38  39
ENDBRANCH  37  38
ENDBRANCH  26  37
ENDBRANCH  24  25
ENDBRANCH  19  24
ENDBRANCH   6  11
ENDBRANCH   2   3
TORSDOF 7
ENDMDL
MODEL      168
REMARK 921   NORMALIZED FREE ENERGY PREDICTED BY IDOCK:   21.88 KCAL/MOL
REMARK 922        TOTAL FREE ENERGY PREDICTED BY IDOCK:   29.55 KCAL/MOL
REMARK 923 INTER-LIGAND FREE ENERGY PREDICTED BY IDOCK:   28.01 KCAL/MOL
REMARK 924 INTRA-LIGAND FREE ENERGY PREDICTED BY IDOCK:    1.55 KCAL/MOL
REMARK 927      BINDING AFFINITY PREDICTED BY RF-SCORE:    0.00 PKD
ROOT
HETATM    1  C   UNL     1      -9.972  14.787  63.034  1.00  0.00    10.191 C  
HETATM    2  O   UNL     1      -9.243  14.854  64.256  1.00  0.00     2.394 OA 
ENDROOT
BRANCH   2   3
HETATM    3  C   UNL     1      -9.988  14.687  65.393  1.00  0.00    -0.330 A  
HETATM    4  C   UNL     1      -9.335  13.999  66.423  1.00  0.00    -0.242 A  
HETATM    5  C   UNL     1      -9.977  13.724  67.627  1.00  0.00    -0.238 A  
HETATM    6  C   UNL     1     -11.297  14.163  67.850  1.00  0.00    -0.318 A  
HETATM    7  C   UNL     1     -11.934  14.898  66.839  1.00  0.00    -0.118 A  
HETATM    8  H   UNL     1     -12.817  16.218  64.830  1.00  0.00     0.000 HD 
HETATM    9  O   UNL     1     -11.938  15.892  64.673  1.00  0.00    -0.110 OA 
HETATM   10  C   UNL     1     -11.281  15.166  65.624  1.00  0.00    -0.296 A  
BRANCH   6  11
HETATM   11  C   UNL     1     -12.042  13.694  69.091  1.00  0.00    -0.319 C  
HETATM   12  C   UNL     1     -12.103  14.847  70.080  1.00  0.00    -0.379 C  
HETATM   13  O   UNL     1     -13.766  15.155  71.740  1.00  0.00    -0.394 OA 
HETATM   14  C   UNL     1     -12.938  14.394  71.242  1.00  0.00    -0.344 C  
HETATM   15  C   UNL     1     -12.686  13.021  71.713  1.00  0.00    -0.260 A  
HETATM   16  C   UNL     1     -11.916  12.187  70.898  1.00  0.00     0.108 A  
HETATM   17  C   UNL     1     -11.612  10.884  71.314  1.00  0.00     0.308 A  
HETATM   18  O   UNL     1     -11.386  12.559  69.681  1.00  0.00    -0.211 OA 
HETATM   19  C   UNL     1     -12.054  10.414  72.556  1.00  0.00     1.796 A  
HETATM   20  O   UNL     1     -13.872  13.348  73.779  1.00  0.00     1.953 OA 
HETATM   21  C   UNL     1     -12.839  11.245  73.361  1.00  0.00     6.801 A  
HETATM   22  H   UNL     1     -14.183  13.024  74.617  1.00  0.00     0.000 HD 
HETATM   23  C   UNL     1     -13.145  12.543  72.948  1.00  0.00     1.502 A  
BRANCH  19  24
HETATM   24  O   UNL     1     -11.815   9.166  73.074  1.00  0.00     0.568 OA 
BRANCH  24  25
HETATM   25  C   UNL     1     -11.778   8.076  72.144  1.00  0.00    -0.344 C  
HETATM   26  C   UNL     1     -10.310   6.756  70.817  1.00  0.00    -0.204 C  
HETATM   27  O   UNL     1     -10.459   7.964  71.581  1.00  0.00    -0.202 OA 
HETATM   28  C   UNL     1     -11.263   6.776  69.612  1.00  0.00    -0.292 C  
HETATM   29  H   UNL     1     -14.455   7.350  69.240  1.00  0.00     0.000 HD 
HETATM   30  O   UNL     1     -14.118   8.469  71.484  1.00  0.00    -0.452 OA 
HETATM   31  C   UNL     1     -12.699   7.045  70.081  1.00  0.00     0.748 C  
HETATM   32  O   UNL     1     -11.275   5.548  68.868  1.00  0.00     0.042 OA 
HETATM   33  H   UNL     1     -14.736   8.598  70.773  1.00  0.00     0.000 HD 
HETATM   34  H   UNL     1     -11.864   5.560  68.123  1.00  0.00     0.000 HD 
HETATM   35  O   UNL     1     -13.566   7.183  68.950  1.00  0.00     7.429 OA 
HETATM   36  C   UNL     1     -12.783   8.285  70.988  1.00  0.00    -0.011 C  
BRANCH  26  37
HETATM   37  C   UNL     1      -8.850   6.624  70.365  1.00  0.00    -0.152 C  
BRANCH  37  38
HETATM   38  O   UNL     1      -8.692   5.362  69.715  1.00  0.00    -0.104 OA 
BRANCH  38  39
HETATM   39  C   UNL     1      -7.768   4.511  70.402  1.00  0.00    -0.053 C  
HETATM   40  O   UNL     1      -7.968   3.171  69.951  1.00  0.00    -0.046 OA 
HETATM   41  C   UNL     1      -7.199   2.171  70.621  1.00  0.00    -0.033 C  
HETATM   42  C   UNL     1      -7.392   2.224  72.150  1.00  0.00    -0.039 C  
HETATM   43  C   UNL     1      -5.745   2.195  70.158  1.00  0.00    -0.017 C  
HETATM   44  O   UNL     1      -8.732   1.814  72.471  1.00  0.00    -0.060 OA 
HETATM   45  C   UNL     1      -7.201   3.632  72.719  1.00  0.00    -0.050 C  
HETATM   46  O   UNL     1      -5.814   3.998  72.805  1.00  0.00    -0.013 OA 
HETATM   47  H   UNL     1      -8.851   1.847  73.413  1.00  0.00     0.000 HD 
HETATM   48  C   UNL     1      -8.002   4.670  71.920  1.00  0.00    -0.100 C  
HETATM   49  H   UNL     1      -5.695   4.872  73.158  1.00  0.00     0.000 HD 
HETATM   50  O   UNL     1      -7.639   5.992  72.358  1.00  0.00    -0.097 OA 
HETATM   51  H   UNL     1      -7.783   6.090  73.292  1.00  0.00     0.000 HD 
ENDBRANCH  38  39
ENDBRANCH  37  38
ENDBRANCH  26  37
ENDBRANCH  24  25
ENDBRANCH  19  24
ENDBRANCH   6  11
ENDBRANCH   2   3
TORSDOF 7
ENDMDL
MODEL      169
REMARK 921   NORMALIZED FREE ENERGY PREDICTED BY IDOCK:   24.67 KCAL/MOL
REMARK 922        TOTAL FREE ENERGY PREDICTED BY IDOCK:   33.48 KCAL/MOL
REMARK 923 INTER-LIGAND FREE ENERGY PREDICTED BY IDOCK:   15.56 KCAL/MOL
REMARK 924 INTRA-LIGAND FREE ENERGY PREDICTED BY IDOCK:   17.92 KCAL/MOL
REMARK 927      BINDING AFFINITY PREDICTED BY RF-SCORE:    0.00 PKD
ROOT
HETATM    1  C   UNL     1      -6.382   5.134  67.067  1.00  0.00    -0.040 C  
HETATM    2  O   UNL     1      -6.189   6.544  67.130  1.00  0.00    -0.033 OA 
ENDROOT
BRANCH   2   3
HETATM    3  C   UNL     1      -7.206   7.298  66.607  1.00  0.00    -0.080 A  
HETATM    4  C   UNL     1      -7.021   8.682  66.719  1.00  0.00    -0.077 A  
HETATM    5  C   UNL     1      -7.986   9.576  66.263  1.00  0.00    -0.107 A  
HETATM    6  C   UNL     1      -9.162   9.107  65.645  1.00  0.00    -0.296 A  
HETATM    7  C   UNL     1      -9.323   7.723  65.485  1.00  0.00     0.306 A  
HETATM    8  H   UNL     1      -9.320   5.167  65.324  1.00  0.00     0.000 HD 
HETATM    9  O   UNL     1      -8.544   5.488  65.768  1.00  0.00    -0.134 OA 
HETATM   10  C   UNL     1      -8.347   6.826  65.954  1.00  0.00    -0.137 A  
BRANCH   6  11
HETATM   11  C   UNL     1     -10.280  10.087  65.324  1.00  0.00    -0.126 C  
HETATM   12  C   UNL     1     -10.128  10.536  63.880  1.00  0.00    -0.288 C  
HETATM   13  O   UNL     1     -11.881  11.292  62.477  1.00  0.00     0.921 OA 
HETATM   14  C   UNL     1     -11.305  11.408  63.557  1.00  0.00    -0.162 C  
HETATM   15  C   UNL     1     -11.689  12.375  64.601  1.00  0.00    -0.426 A  
HETATM   16  C   UNL     1     -11.122  12.219  65.869  1.00  0.00    -0.322 A  
HETATM   17  C   UNL     1     -11.421  13.132  66.889  1.00  0.00    -0.384 A  
HETATM   18  O   UNL     1     -10.237  11.218  66.210  1.00  0.00    -0.221 OA 
HETATM   19  C   UNL     1     -12.267  14.219  66.643  1.00  0.00    -0.381 A  
HETATM   20  O   UNL     1     -13.094  13.648  63.122  1.00  0.00     0.077 OA 
HETATM   21  C   UNL     1     -12.846  14.362  65.379  1.00  0.00    -0.235 A  
HETATM   22  H   UNL     1     -13.679  14.379  62.959  1.00  0.00     0.000 HD 
HETATM   23  C   UNL     1     -12.552  13.454  64.361  1.00  0.00    -0.190 A  
BRANCH  19  24
HETATM   24  O   UNL     1     -12.626  15.180  67.556  1.00  0.00     0.584 OA 
BRANCH  24  25
HETATM   25  C   UNL     1     -11.734  16.290  67.711  1.00  0.00     0.278 C  
HETATM   26  C   UNL     1      -9.888  17.085  68.985  1.00  0.00    -0.240 C  
HETATM   27  O   UNL     1     -10.949  16.118  68.904  1.00  0.00    -0.282 OA 
HETATM   28  C   UNL     1     -10.477  18.500  69.090  1.00  0.00     0.270 C  
HETATM   29  H   UNL     1     -12.709  20.173  67.394  1.00  0.00     0.000 HD 
HETATM   30  O   UNL     1     -13.364  17.831  66.694  1.00  0.00     9.217 OA 
HETATM   31  C   UNL     1     -11.462  18.748  67.940  1.00  0.00     1.029 C  
HETATM   32  O   UNL     1      -9.488  19.539  69.042  1.00  0.00    -0.393 OA 
HETATM   33  H   UNL     1     -13.840  18.651  66.766  1.00  0.00     0.000 HD 
HETATM   34  H   UNL     1      -9.851  20.414  69.107  1.00  0.00     0.000 HD 
HETATM   35  O   UNL     1     -12.099  20.019  68.106  1.00  0.00     2.261 OA 
HETATM   36  C   UNL     1     -12.507  17.624  67.828  1.00  0.00     4.177 C  
BRANCH  26  37
HETATM   37  C   UNL     1      -9.005  16.762  70.196  1.00  0.00     1.908 C  
BRANCH  37  38
HETATM   38  O   UNL     1      -7.693  17.264  69.943  1.00  0.00     0.715 OA 
BRANCH  38  39
HETATM   39  C   UNL     1      -7.355  17.222  68.553  1.00  0.00    -0.235 C  
HETATM   40  O   UNL     1      -6.086  17.852  68.377  1.00  0.00    -0.173 OA 
HETATM   41  C   UNL     1      -5.648  17.997  67.025  1.00  0.00    -0.136 C  
HETATM   42  C   UNL     1      -6.697  18.719  66.154  1.00  0.00    -0.231 C  
HETATM   43  C   UNL     1      -5.155  16.667  66.462  1.00  0.00     0.218 C  
HETATM   44  O   UNL     1      -6.790  20.092  66.571  1.00  0.00    -0.208 OA 
HETATM   45  C   UNL     1      -8.094  18.109  66.287  1.00  0.00    -0.221 C  
HETATM   46  O   UNL     1      -8.220  16.879  65.554  1.00  0.00    -0.144 OA 
HETATM   47  H   UNL     1      -7.436  20.537  66.034  1.00  0.00     0.000 HD 
HETATM   48  C   UNL     1      -8.482  17.920  67.760  1.00  0.00    -0.242 C  
HETATM   49  H   UNL     1      -9.087  16.500  65.636  1.00  0.00     0.000 HD 
HETATM   50  O   UNL     1      -9.705  17.166  67.839  1.00  0.00    -0.258 OA 
HETATM   51  H   UNL     1     -10.398  17.596  67.352  1.00  0.00     0.000 HD 
ENDBRANCH  38  39
ENDBRANCH  37  38
ENDBRANCH  26  37
ENDBRANCH  24  25
ENDBRANCH  19  24
ENDBRANCH   6  11
ENDBRANCH   2   3
TORSDOF 7
ENDMDL
MODEL      170
REMARK 921   NORMALIZED FREE ENERGY PREDICTED BY IDOCK:   39.78 KCAL/MOL
REMARK 922        TOTAL FREE ENERGY PREDICTED BY IDOCK:   54.78 KCAL/MOL
REMARK 923 INTER-LIGAND FREE ENERGY PREDICTED BY IDOCK:   54.27 KCAL/MOL
REMARK 924 INTRA-LIGAND FREE ENERGY PREDICTED BY IDOCK:    0.51 KCAL/MOL
REMARK 927      BINDING AFFINITY PREDICTED BY RF-SCORE:    0.00 PKD
ROOT
HETATM    1  C   UNL     1      -8.330   4.462  64.925  1.00  0.00    -0.118 C  
HETATM    2  O   UNL     1      -9.091   5.323  64.084  1.00  0.00     0.039 OA 
ENDROOT
BRANCH   2   3
HETATM    3  C   UNL     1      -9.392   6.548  64.618  1.00  0.00     1.365 A  
HETATM    4  C   UNL     1      -9.428   6.581  66.018  1.00  0.00     0.008 A  
HETATM    5  C   UNL     1      -9.754   7.748  66.703  1.00  0.00    -0.292 A  
HETATM    6  C   UNL     1     -10.023   8.939  66.000  1.00  0.00    -0.199 A  
HETATM    7  C   UNL     1      -9.935   8.920  64.600  1.00  0.00     1.744 A  
HETATM    8  H   UNL     1      -9.678   8.575  62.075  1.00  0.00     0.000 HD 
HETATM    9  O   UNL     1      -9.529   7.768  62.553  1.00  0.00     1.406 OA 
HETATM   10  C   UNL     1      -9.612   7.735  63.915  1.00  0.00     3.407 A  
BRANCH   6  11
HETATM   11  C   UNL     1     -10.555  10.149  66.753  1.00  0.00    -0.169 C  
HETATM   12  C   UNL     1     -11.189  11.099  65.751  1.00  0.00    -0.001 C  
HETATM   13  O   UNL     1     -12.915  12.652  66.224  1.00  0.00     0.337 OA 
HETATM   14  C   UNL     1     -11.805  12.224  66.531  1.00  0.00    -0.306 C  
HETATM   15  C   UNL     1     -10.994  12.748  67.645  1.00  0.00    -0.274 A  
HETATM   16  C   UNL     1      -9.882  12.001  68.043  1.00  0.00    -0.199 A  
HETATM   17  C   UNL     1      -9.052  12.471  69.071  1.00  0.00     0.477 A  
HETATM   18  O   UNL     1      -9.498  10.806  67.472  1.00  0.00    -0.153 OA 
HETATM   19  C   UNL     1      -9.315  13.699  69.689  1.00  0.00     1.393 A  
HETATM   20  O   UNL     1     -12.329  14.733  67.886  1.00  0.00    -0.582 OA 
HETATM   21  C   UNL     1     -10.438  14.434  69.300  1.00  0.00    -0.154 A  
HETATM   22  H   UNL     1     -12.514  15.561  68.315  1.00  0.00     0.000 HD 
HETATM   23  C   UNL     1     -11.266  13.968  68.278  1.00  0.00    -0.268 A  
BRANCH  19  24
HETATM   24  O   UNL     1      -8.574  14.265  70.697  1.00  0.00     2.172 OA 
BRANCH  24  25
HETATM   25  C   UNL     1      -8.802  15.654  70.966  1.00  0.00     3.109 C  
HETATM   26  C   UNL     1      -9.454  17.706  69.954  1.00  0.00     1.216 C  
HETATM   27  O   UNL     1      -9.000  16.361  69.729  1.00  0.00     0.170 OA 
HETATM   28  C   UNL     1      -8.377  18.503  70.707  1.00  0.00     4.705 C  
HETATM   29  H   UNL     1      -6.629  17.979  73.414  1.00  0.00     0.000 HD 
HETATM   30  O   UNL     1      -7.306  15.592  72.922  1.00  0.00     5.805 OA 
HETATM   31  C   UNL     1      -7.969  17.759  71.986  1.00  0.00    12.470 C  
HETATM   32  O   UNL     1      -8.800  19.820  71.091  1.00  0.00     1.887 OA 
HETATM   33  H   UNL     1      -6.569  15.984  73.375  1.00  0.00     0.000 HD 
HETATM   34  H   UNL     1      -8.135  20.313  71.556  1.00  0.00     0.000 HD 
HETATM   35  O   UNL     1      -6.882  18.440  72.623  1.00  0.00     3.917 OA 
HETATM   36  C   UNL     1      -7.602  16.291  71.702  1.00  0.00     6.874 C  
BRANCH  26  37
HETATM   37  C   UNL     1      -9.783  18.358  68.606  1.00  0.00    -0.361 C  
BRANCH  37  38
HETATM   38  O   UNL     1      -9.576  17.392  67.576  1.00  0.00    -0.251 OA 
BRANCH  38  39
HETATM   39  C   UNL     1      -8.353  17.612  66.864  1.00  0.00    -0.236 C  
HETATM   40  O   UNL     1      -7.515  16.470  67.043  1.00  0.00    -0.160 OA 
HETATM   41  C   UNL     1      -6.203  16.572  66.487  1.00  0.00     0.275 C  
HETATM   42  C   UNL     1      -5.461  17.828  66.988  1.00  0.00    -0.142 C  
HETATM   43  C   UNL     1      -6.236  16.410  64.970  1.00  0.00     6.437 C  
HETATM   44  O   UNL     1      -5.166  17.674  68.386  1.00  0.00    -0.147 OA 
HETATM   45  C   UNL     1      -6.295  19.103  66.838  1.00  0.00    -0.186 C  
HETATM   46  O   UNL     1      -6.328  19.572  65.480  1.00  0.00    -0.206 OA 
HETATM   47  H   UNL     1      -4.709  18.448  68.695  1.00  0.00     0.000 HD 
HETATM   48  C   UNL     1      -7.712  18.912  67.396  1.00  0.00    -0.231 C  
HETATM   49  H   UNL     1      -6.845  20.363  65.386  1.00  0.00     0.000 HD 
HETATM   50  O   UNL     1      -8.516  20.056  67.056  1.00  0.00    -0.308 OA 
HETATM   51  H   UNL     1      -8.122  20.855  67.384  1.00  0.00     0.000 HD 
ENDBRANCH  38  39
ENDBRANCH  37  38
ENDBRANCH  26  37
ENDBRANCH  24  25
ENDBRANCH  19  24
ENDBRANCH   6  11
ENDBRANCH   2   3
TORSDOF 7
ENDMDL
