MODEL        1
REMARK 921   NORMALIZED FREE ENERGY PREDICTED BY IDOCK:   -5.15 KCAL/MOL
REMARK 922        TOTAL FREE ENERGY PREDICTED BY IDOCK:   -8.65 KCAL/MOL
REMARK 923 INTER-LIGAND FREE ENERGY PREDICTED BY IDOCK:   -8.17 KCAL/MOL
REMARK 924 INTRA-LIGAND FREE ENERGY PREDICTED BY IDOCK:   -0.48 KCAL/MOL
REMARK 927      BINDING AFFINITY PREDICTED BY RF-SCORE:    0.00 PKD
ROOT
HETATM    1  N   UNL     1     -11.622  16.375  63.834  1.00  0.00    -1.602 NA 
HETATM    2  C   UNL     1     -11.429  15.310  64.818  1.00  0.00    -0.363 C  
HETATM    3  H1  UNL     1     -11.073  17.197  64.087  1.00  0.00     0.000 HD 
HETATM    4  H2  UNL     1     -12.608  16.600  63.706  1.00  0.00     0.000 HD 
ENDROOT
BRANCH   2   5
HETATM    5  C   UNL     1     -12.252  14.075  64.438  1.00  0.00    -0.426 C  
HETATM    6  O   UNL     1     -12.673  13.897  63.296  1.00  0.00    -0.775 OA 
BRANCH   5   7
HETATM    7  C   UNL     1     -12.440  13.057  65.541  1.00  0.00    -0.496 C  
BRANCH   7   8
HETATM    8  C   UNL     1     -11.602  13.369  66.774  1.00  0.00    -0.404 C  
BRANCH   8   9
HETATM    9  C   UNL     1     -11.741  12.347  67.879  1.00  0.00    -0.360 C  
HETATM   10  O   UNL     1     -11.984  11.165  67.693  1.00  0.00    -0.613 OA 
BRANCH   9  11
HETATM   11  O   UNL     1     -11.740  12.958  69.097  1.00  0.00    -0.290 OA 
BRANCH  11  12
HETATM   12  C   UNL     1     -11.966  14.368  69.048  1.00  0.00    -0.307 C  
BRANCH  12  13
HETATM   13  C   UNL     1     -11.286  15.089  70.200  1.00  0.00    -0.303 C  
BRANCH  13  14
HETATM   14  C   UNL     1     -12.332  15.889  70.973  1.00  0.00    -0.404 C  
BRANCH  14  15
HETATM   15  C   UNL     1     -13.617  15.101  71.207  1.00  0.00    -0.559 C  
BRANCH  15  16
HETATM   16  C   UNL     1     -13.512  14.272  72.488  1.00  0.00    -0.613 C  
HETATM   17  C   UNL     1     -12.776  15.031  73.582  1.00  0.00    -0.650 C  
ENDBRANCH  15  16
ENDBRANCH  14  15
ENDBRANCH  13  14
ENDBRANCH  12  13
ENDBRANCH  11  12
ENDBRANCH   9  11
ENDBRANCH   8   9
ENDBRANCH   7   8
ENDBRANCH   5   7
ENDBRANCH   2   5
TORSDOF 10
ENDMDL
MODEL        2
REMARK 921   NORMALIZED FREE ENERGY PREDICTED BY IDOCK:   -4.91 KCAL/MOL
REMARK 922        TOTAL FREE ENERGY PREDICTED BY IDOCK:   -8.27 KCAL/MOL
REMARK 923 INTER-LIGAND FREE ENERGY PREDICTED BY IDOCK:   -7.85 KCAL/MOL
REMARK 924 INTRA-LIGAND FREE ENERGY PREDICTED BY IDOCK:   -0.42 KCAL/MOL
REMARK 927      BINDING AFFINITY PREDICTED BY RF-SCORE:    0.00 PKD
ROOT
HETATM    1  N   UNL     1     -12.308  13.722  63.139  1.00  0.00    -1.106 NA 
HETATM    2  C   UNL     1     -12.376  14.338  64.464  1.00  0.00    -0.410 C  
HETATM    3  H1  UNL     1     -12.943  12.924  63.085  1.00  0.00     0.000 HD 
HETATM    4  H2  UNL     1     -11.353  13.465  62.888  1.00  0.00     0.000 HD 
ENDROOT
BRANCH   2   5
HETATM    5  C   UNL     1     -11.424  15.535  64.545  1.00  0.00    -0.308 C  
HETATM    6  O   UNL     1     -11.604  16.560  63.888  1.00  0.00    -1.175 OA 
BRANCH   5   7
HETATM    7  C   UNL     1     -10.296  15.399  65.545  1.00  0.00    -0.412 C  
BRANCH   7   8
HETATM    8  C   UNL     1     -10.008  16.700  66.283  1.00  0.00    -0.336 C  
BRANCH   8   9
HETATM    9  C   UNL     1     -10.580  16.745  67.681  1.00  0.00    -0.325 C  
HETATM   10  O   UNL     1     -10.294  17.595  68.511  1.00  0.00    -0.351 OA 
BRANCH   9  11
HETATM   11  O   UNL     1     -11.302  15.619  67.939  1.00  0.00    -0.344 OA 
BRANCH  11  12
HETATM   12  C   UNL     1     -11.727  15.491  69.296  1.00  0.00    -0.365 C  
BRANCH  12  13
HETATM   13  C   UNL     1     -12.159  14.070  69.621  1.00  0.00    -0.408 C  
BRANCH  13  14
HETATM   14  C   UNL     1     -12.592  14.004  71.084  1.00  0.00    -0.445 C  
BRANCH  14  15
HETATM   15  C   UNL     1     -13.834  14.845  71.365  1.00  0.00    -0.537 C  
BRANCH  15  16
HETATM   16  C   UNL     1     -13.686  15.592  72.691  1.00  0.00    -0.666 C  
HETATM   17  C   UNL     1     -12.558  15.014  73.532  1.00  0.00    -0.664 C  
ENDBRANCH  15  16
ENDBRANCH  14  15
ENDBRANCH  13  14
ENDBRANCH  12  13
ENDBRANCH  11  12
ENDBRANCH   9  11
ENDBRANCH   8   9
ENDBRANCH   7   8
ENDBRANCH   5   7
ENDBRANCH   2   5
TORSDOF 10
ENDMDL
MODEL        3
REMARK 921   NORMALIZED FREE ENERGY PREDICTED BY IDOCK:   -4.88 KCAL/MOL
REMARK 922        TOTAL FREE ENERGY PREDICTED BY IDOCK:   -8.21 KCAL/MOL
REMARK 923 INTER-LIGAND FREE ENERGY PREDICTED BY IDOCK:   -7.65 KCAL/MOL
REMARK 924 INTRA-LIGAND FREE ENERGY PREDICTED BY IDOCK:   -0.56 KCAL/MOL
REMARK 927      BINDING AFFINITY PREDICTED BY RF-SCORE:    0.00 PKD
ROOT
HETATM    1  N   UNL     1     -10.631  10.940  62.912  1.00  0.00    -0.776 NA 
HETATM    2  C   UNL     1     -10.664  12.286  63.484  1.00  0.00    -0.451 C  
HETATM    3  H1  UNL     1      -9.682  10.701  62.622  1.00  0.00     0.000 HD 
HETATM    4  H2  UNL     1     -11.299  10.835  62.149  1.00  0.00     0.000 HD 
ENDROOT
BRANCH   2   5
HETATM    5  C   UNL     1     -12.088  12.646  63.919  1.00  0.00    -0.487 C  
HETATM    6  O   UNL     1     -13.075  12.062  63.474  1.00  0.00    -0.764 OA 
BRANCH   5   7
HETATM    7  C   UNL     1     -12.188  13.712  64.988  1.00  0.00    -0.450 C  
BRANCH   7   8
HETATM    8  C   UNL     1     -10.907  14.524  65.126  1.00  0.00    -0.407 C  
BRANCH   8   9
HETATM    9  C   UNL     1     -11.089  15.999  64.855  1.00  0.00    -0.370 C  
HETATM   10  O   UNL     1     -11.638  16.452  63.862  1.00  0.00    -1.100 OA 
BRANCH   9  11
HETATM   11  O   UNL     1     -10.400  16.741  65.767  1.00  0.00    -0.429 OA 
BRANCH  11  12
HETATM   12  C   UNL     1      -9.214  16.116  66.259  1.00  0.00    -0.331 C  
BRANCH  12  13
HETATM   13  C   UNL     1      -8.018  17.052  66.208  1.00  0.00    -0.343 C  
BRANCH  13  14
HETATM   14  C   UNL     1      -8.249  18.209  67.176  1.00  0.00    -0.237 C  
BRANCH  14  15
HETATM   15  C   UNL     1      -8.298  19.561  66.471  1.00  0.00    -0.352 C  
BRANCH  15  16
HETATM   16  C   UNL     1      -9.677  20.201  66.634  1.00  0.00    -0.568 C  
HETATM   17  C   UNL     1     -10.388  19.681  67.873  1.00  0.00    -0.583 C  
ENDBRANCH  15  16
ENDBRANCH  14  15
ENDBRANCH  13  14
ENDBRANCH  12  13
ENDBRANCH  11  12
ENDBRANCH   9  11
ENDBRANCH   8   9
ENDBRANCH   7   8
ENDBRANCH   5   7
ENDBRANCH   2   5
TORSDOF 10
ENDMDL
MODEL        4
REMARK 921   NORMALIZED FREE ENERGY PREDICTED BY IDOCK:   -4.84 KCAL/MOL
REMARK 922        TOTAL FREE ENERGY PREDICTED BY IDOCK:   -8.15 KCAL/MOL
REMARK 923 INTER-LIGAND FREE ENERGY PREDICTED BY IDOCK:   -7.62 KCAL/MOL
REMARK 924 INTRA-LIGAND FREE ENERGY PREDICTED BY IDOCK:   -0.54 KCAL/MOL
REMARK 927      BINDING AFFINITY PREDICTED BY RF-SCORE:    0.00 PKD
ROOT
HETATM    1  N   UNL     1     -14.052   8.999  73.086  1.00  0.00    -1.223 NA 
HETATM    2  C   UNL     1     -14.086   8.048  71.974  1.00  0.00    -0.337 C  
HETATM    3  H1  UNL     1     -14.997   9.193  73.416  1.00  0.00     0.000 HD 
HETATM    4  H2  UNL     1     -13.551   9.853  72.839  1.00  0.00     0.000 HD 
ENDROOT
BRANCH   2   5
HETATM    5  C   UNL     1     -12.666   7.756  71.478  1.00  0.00    -0.332 C  
HETATM    6  O   UNL     1     -12.397   6.750  70.821  1.00  0.00    -0.377 OA 
BRANCH   5   7
HETATM    7  C   UNL     1     -11.640   8.825  71.783  1.00  0.00    -0.416 C  
BRANCH   7   8
HETATM    8  C   UNL     1     -11.265   9.643  70.554  1.00  0.00    -0.359 C  
BRANCH   8   9
HETATM    9  C   UNL     1     -12.295  10.684  70.178  1.00  0.00    -0.295 C  
HETATM   10  O   UNL     1     -12.517  11.048  69.034  1.00  0.00    -0.449 OA 
BRANCH   9  11
HETATM   11  O   UNL     1     -12.800  11.280  71.294  1.00  0.00    -0.393 OA 
BRANCH  11  12
HETATM   12  C   UNL     1     -12.877  12.704  71.217  1.00  0.00    -0.250 C  
BRANCH  12  13
HETATM   13  C   UNL     1     -13.591  13.298  72.419  1.00  0.00    -0.694 C  
BRANCH  13  14
HETATM   14  C   UNL     1     -14.023  14.725  72.088  1.00  0.00    -0.590 C  
BRANCH  14  15
HETATM   15  C   UNL     1     -12.924  15.523  71.394  1.00  0.00    -0.553 C  
BRANCH  15  16
HETATM   16  C   UNL     1     -11.960  16.115  72.424  1.00  0.00    -0.649 C  
HETATM   17  C   UNL     1     -12.576  16.135  73.814  1.00  0.00    -0.698 C  
ENDBRANCH  15  16
ENDBRANCH  14  15
ENDBRANCH  13  14
ENDBRANCH  12  13
ENDBRANCH  11  12
ENDBRANCH   9  11
ENDBRANCH   8   9
ENDBRANCH   7   8
ENDBRANCH   5   7
ENDBRANCH   2   5
TORSDOF 10
ENDMDL
MODEL        5
REMARK 921   NORMALIZED FREE ENERGY PREDICTED BY IDOCK:   -4.79 KCAL/MOL
REMARK 922        TOTAL FREE ENERGY PREDICTED BY IDOCK:   -8.08 KCAL/MOL
REMARK 923 INTER-LIGAND FREE ENERGY PREDICTED BY IDOCK:   -7.54 KCAL/MOL
REMARK 924 INTRA-LIGAND FREE ENERGY PREDICTED BY IDOCK:   -0.54 KCAL/MOL
REMARK 927      BINDING AFFINITY PREDICTED BY RF-SCORE:    0.00 PKD
ROOT
HETATM    1  N   UNL     1     -12.504  13.403  63.137  1.00  0.00    -0.904 NA 
HETATM    2  C   UNL     1     -11.608  13.492  64.290  1.00  0.00    -0.397 C  
HETATM    3  H1  UNL     1     -11.997  13.065  62.318  1.00  0.00     0.000 HD 
HETATM    4  H2  UNL     1     -12.975  14.289  62.953  1.00  0.00     0.000 HD 
ENDROOT
BRANCH   2   5
HETATM    5  C   UNL     1     -12.367  13.999  65.519  1.00  0.00    -0.483 C  
HETATM    6  O   UNL     1     -13.594  14.100  65.534  1.00  0.00    -0.568 OA 
BRANCH   5   7
HETATM    7  C   UNL     1     -11.513  14.291  66.734  1.00  0.00    -0.380 C  
BRANCH   7   8
HETATM    8  C   UNL     1     -12.132  13.765  68.022  1.00  0.00    -0.315 C  
BRANCH   8   9
HETATM    9  C   UNL     1     -11.852  12.302  68.279  1.00  0.00    -0.310 C  
HETATM   10  O   UNL     1     -12.033  11.415  67.459  1.00  0.00    -0.626 OA 
BRANCH   9  11
HETATM   11  O   UNL     1     -11.551  12.096  69.592  1.00  0.00    -0.298 OA 
BRANCH  11  12
HETATM   12  C   UNL     1     -12.171  13.019  70.489  1.00  0.00    -0.313 C  
BRANCH  12  13
HETATM   13  C   UNL     1     -12.915  12.309  71.607  1.00  0.00    -0.416 C  
BRANCH  13  14
HETATM   14  C   UNL     1     -13.822  13.310  72.317  1.00  0.00    -0.637 C  
BRANCH  14  15
HETATM   15  C   UNL     1     -13.793  14.690  71.666  1.00  0.00    -0.522 C  
BRANCH  15  16
HETATM   16  C   UNL     1     -13.628  15.779  72.727  1.00  0.00    -0.662 C  
HETATM   17  C   UNL     1     -12.499  15.450  73.690  1.00  0.00    -0.715 C  
ENDBRANCH  15  16
ENDBRANCH  14  15
ENDBRANCH  13  14
ENDBRANCH  12  13
ENDBRANCH  11  12
ENDBRANCH   9  11
ENDBRANCH   8   9
ENDBRANCH   7   8
ENDBRANCH   5   7
ENDBRANCH   2   5
TORSDOF 10
ENDMDL
MODEL        6
REMARK 921   NORMALIZED FREE ENERGY PREDICTED BY IDOCK:   -4.76 KCAL/MOL
REMARK 922        TOTAL FREE ENERGY PREDICTED BY IDOCK:   -8.02 KCAL/MOL
REMARK 923 INTER-LIGAND FREE ENERGY PREDICTED BY IDOCK:   -7.52 KCAL/MOL
REMARK 924 INTRA-LIGAND FREE ENERGY PREDICTED BY IDOCK:   -0.50 KCAL/MOL
REMARK 927      BINDING AFFINITY PREDICTED BY RF-SCORE:    0.00 PKD
ROOT
HETATM    1  N   UNL     1     -12.475  11.344  62.947  1.00  0.00    -0.863 NA 
HETATM    2  C   UNL     1     -11.518  12.121  63.735  1.00  0.00    -0.465 C  
HETATM    3  H1  UNL     1     -12.048  10.475  62.626  1.00  0.00     0.000 HD 
HETATM    4  H2  UNL     1     -12.861  11.887  62.175  1.00  0.00     0.000 HD 
ENDROOT
BRANCH   2   5
HETATM    5  C   UNL     1     -12.158  13.425  64.219  1.00  0.00    -0.424 C  
HETATM    6  O   UNL     1     -12.471  14.327  63.442  1.00  0.00    -0.761 OA 
BRANCH   5   7
HETATM    7  C   UNL     1     -12.450  13.493  65.702  1.00  0.00    -0.528 C  
BRANCH   7   8
HETATM    8  C   UNL     1     -11.201  13.302  66.553  1.00  0.00    -0.329 C  
BRANCH   8   9
HETATM    9  C   UNL     1     -11.383  12.323  67.690  1.00  0.00    -0.311 C  
HETATM   10  O   UNL     1     -11.959  11.251  67.587  1.00  0.00    -0.634 OA 
BRANCH   9  11
HETATM   11  O   UNL     1     -10.984  12.881  68.867  1.00  0.00    -0.243 OA 
BRANCH  11  12
HETATM   12  C   UNL     1     -12.033  13.511  69.605  1.00  0.00    -0.337 C  
BRANCH  12  13
HETATM   13  C   UNL     1     -11.799  15.005  69.756  1.00  0.00    -0.357 C  
BRANCH  13  14
HETATM   14  C   UNL     1     -12.787  15.563  70.777  1.00  0.00    -0.513 C  
BRANCH  14  15
HETATM   15  C   UNL     1     -13.503  14.467  71.559  1.00  0.00    -0.443 C  
BRANCH  15  16
HETATM   16  C   UNL     1     -13.152  14.552  73.045  1.00  0.00    -0.611 C  
HETATM   17  C   UNL     1     -12.903  15.989  73.475  1.00  0.00    -0.701 C  
ENDBRANCH  15  16
ENDBRANCH  14  15
ENDBRANCH  13  14
ENDBRANCH  12  13
ENDBRANCH  11  12
ENDBRANCH   9  11
ENDBRANCH   8   9
ENDBRANCH   7   8
ENDBRANCH   5   7
ENDBRANCH   2   5
TORSDOF 10
ENDMDL
MODEL        7
REMARK 921   NORMALIZED FREE ENERGY PREDICTED BY IDOCK:   -4.67 KCAL/MOL
REMARK 922        TOTAL FREE ENERGY PREDICTED BY IDOCK:   -7.88 KCAL/MOL
REMARK 923 INTER-LIGAND FREE ENERGY PREDICTED BY IDOCK:   -7.29 KCAL/MOL
REMARK 924 INTRA-LIGAND FREE ENERGY PREDICTED BY IDOCK:   -0.59 KCAL/MOL
REMARK 927      BINDING AFFINITY PREDICTED BY RF-SCORE:    0.00 PKD
ROOT
HETATM    1  N   UNL     1     -13.922   8.935  73.147  1.00  0.00    -1.215 NA 
HETATM    2  C   UNL     1     -13.517   9.124  71.754  1.00  0.00    -0.416 C  
HETATM    3  H1  UNL     1     -14.334   8.011  73.275  1.00  0.00     0.000 HD 
HETATM    4  H2  UNL     1     -14.545   9.677  73.465  1.00  0.00     0.000 HD 
ENDROOT
BRANCH   2   5
HETATM    5  C   UNL     1     -12.897  10.511  71.562  1.00  0.00    -0.463 C  
HETATM    6  O   UNL     1     -13.365  11.516  72.096  1.00  0.00    -0.477 OA 
BRANCH   5   7
HETATM    7  C   UNL     1     -11.629  10.546  70.738  1.00  0.00    -0.432 C  
BRANCH   7   8
HETATM    8  C   UNL     1     -11.905  10.573  69.240  1.00  0.00    -0.242 C  
BRANCH   8   9
HETATM    9  C   UNL     1     -11.892  11.962  68.645  1.00  0.00    -0.308 C  
HETATM   10  O   UNL     1     -11.969  12.197  67.448  1.00  0.00    -0.563 OA 
BRANCH   9  11
HETATM   11  O   UNL     1     -11.598  12.888  69.600  1.00  0.00    -0.283 OA 
BRANCH  11  12
HETATM   12  C   UNL     1     -11.055  14.107  69.091  1.00  0.00    -0.262 C  
BRANCH  12  13
HETATM   13  C   UNL     1     -11.144  15.234  70.107  1.00  0.00    -0.312 C  
BRANCH  13  14
HETATM   14  C   UNL     1     -12.016  14.783  71.276  1.00  0.00    -0.404 C  
BRANCH  14  15
HETATM   15  C   UNL     1     -13.333  15.549  71.354  1.00  0.00    -0.592 C  
BRANCH  15  16
HETATM   16  C   UNL     1     -13.751  15.749  72.812  1.00  0.00    -0.639 C  
HETATM   17  C   UNL     1     -12.561  16.111  73.686  1.00  0.00    -0.684 C  
ENDBRANCH  15  16
ENDBRANCH  14  15
ENDBRANCH  13  14
ENDBRANCH  12  13
ENDBRANCH  11  12
ENDBRANCH   9  11
ENDBRANCH   8   9
ENDBRANCH   7   8
ENDBRANCH   5   7
ENDBRANCH   2   5
TORSDOF 10
ENDMDL
MODEL        8
REMARK 921   NORMALIZED FREE ENERGY PREDICTED BY IDOCK:   -4.63 KCAL/MOL
REMARK 922        TOTAL FREE ENERGY PREDICTED BY IDOCK:   -7.82 KCAL/MOL
REMARK 923 INTER-LIGAND FREE ENERGY PREDICTED BY IDOCK:   -6.93 KCAL/MOL
REMARK 924 INTRA-LIGAND FREE ENERGY PREDICTED BY IDOCK:   -0.88 KCAL/MOL
REMARK 927      BINDING AFFINITY PREDICTED BY RF-SCORE:    0.00 PKD
ROOT
HETATM    1  N   UNL     1     -12.321  11.680  63.183  1.00  0.00    -0.966 NA 
HETATM    2  C   UNL     1     -11.324  11.599  64.250  1.00  0.00    -0.284 C  
HETATM    3  H1  UNL     1     -11.981  11.211  62.342  1.00  0.00     0.000 HD 
HETATM    4  H2  UNL     1     -12.598  12.643  62.995  1.00  0.00     0.000 HD 
ENDROOT
BRANCH   2   5
HETATM    5  C   UNL     1     -11.834  12.302  65.512  1.00  0.00    -0.359 C  
HETATM    6  O   UNL     1     -11.871  11.738  66.605  1.00  0.00    -0.569 OA 
BRANCH   5   7
HETATM    7  C   UNL     1     -12.212  13.756  65.334  1.00  0.00    -0.465 C  
BRANCH   7   8
HETATM    8  C   UNL     1     -11.000  14.653  65.121  1.00  0.00    -0.395 C  
BRANCH   8   9
HETATM    9  C   UNL     1     -11.347  16.035  64.617  1.00  0.00    -0.306 C  
HETATM   10  O   UNL     1     -12.143  16.258  63.718  1.00  0.00    -0.959 OA 
BRANCH   9  11
HETATM   11  O   UNL     1     -10.523  16.967  65.173  1.00  0.00    -0.667 OA 
BRANCH  11  12
HETATM   12  C   UNL     1      -9.660  16.457  66.191  1.00  0.00    -0.325 C  
BRANCH  12  13
HETATM   13  C   UNL     1      -9.800  17.230  67.491  1.00  0.00    -0.275 C  
BRANCH  13  14
HETATM   14  C   UNL     1     -10.918  16.607  68.324  1.00  0.00    -0.341 C  
BRANCH  14  15
HETATM   15  C   UNL     1     -10.568  15.207  68.818  1.00  0.00    -0.236 C  
BRANCH  15  16
HETATM   16  C   UNL     1     -11.836  14.375  69.015  1.00  0.00    -0.358 C  
HETATM   17  C   UNL     1     -12.248  14.327  70.478  1.00  0.00    -0.427 C  
ENDBRANCH  15  16
ENDBRANCH  14  15
ENDBRANCH  13  14
ENDBRANCH  12  13
ENDBRANCH  11  12
ENDBRANCH   9  11
ENDBRANCH   8   9
ENDBRANCH   7   8
ENDBRANCH   5   7
ENDBRANCH   2   5
TORSDOF 10
ENDMDL
MODEL        9
REMARK 921   NORMALIZED FREE ENERGY PREDICTED BY IDOCK:   -4.61 KCAL/MOL
REMARK 922        TOTAL FREE ENERGY PREDICTED BY IDOCK:   -7.79 KCAL/MOL
REMARK 923 INTER-LIGAND FREE ENERGY PREDICTED BY IDOCK:   -7.33 KCAL/MOL
REMARK 924 INTRA-LIGAND FREE ENERGY PREDICTED BY IDOCK:   -0.46 KCAL/MOL
REMARK 927      BINDING AFFINITY PREDICTED BY RF-SCORE:    0.00 PKD
ROOT
HETATM    1  N   UNL     1     -12.375  13.597  62.966  1.00  0.00    -1.004 NA 
HETATM    2  C   UNL     1     -12.392  12.342  63.719  1.00  0.00    -0.528 C  
HETATM    3  H1  UNL     1     -12.445  13.412  61.965  1.00  0.00     0.000 HD 
HETATM    4  H2  UNL     1     -11.558  14.164  63.192  1.00  0.00     0.000 HD 
ENDROOT
BRANCH   2   5
HETATM    5  C   UNL     1     -12.288  12.619  65.221  1.00  0.00    -0.466 C  
HETATM    6  O   UNL     1     -11.922  11.758  66.021  1.00  0.00    -0.435 OA 
BRANCH   5   7
HETATM    7  C   UNL     1     -12.588  14.042  65.640  1.00  0.00    -0.542 C  
BRANCH   7   8
HETATM    8  C   UNL     1     -11.327  14.838  65.950  1.00  0.00    -0.331 C  
BRANCH   8   9
HETATM    9  C   UNL     1     -10.991  14.897  67.422  1.00  0.00    -0.314 C  
HETATM   10  O   UNL     1      -9.906  15.240  67.865  1.00  0.00    -0.215 OA 
BRANCH   9  11
HETATM   11  O   UNL     1     -11.993  14.346  68.163  1.00  0.00    -0.328 OA 
BRANCH  11  12
HETATM   12  C   UNL     1     -11.546  13.471  69.200  1.00  0.00    -0.310 C  
BRANCH  12  13
HETATM   13  C   UNL     1     -12.367  13.632  70.468  1.00  0.00    -0.425 C  
BRANCH  13  14
HETATM   14  C   UNL     1     -12.598  15.119  70.728  1.00  0.00    -0.452 C  
BRANCH  14  15
HETATM   15  C   UNL     1     -13.562  15.369  71.883  1.00  0.00    -0.590 C  
BRANCH  15  16
HETATM   16  C   UNL     1     -13.112  14.607  73.131  1.00  0.00    -0.580 C  
HETATM   17  C   UNL     1     -12.522  15.544  74.172  1.00  0.00    -0.805 C  
ENDBRANCH  15  16
ENDBRANCH  14  15
ENDBRANCH  13  14
ENDBRANCH  12  13
ENDBRANCH  11  12
ENDBRANCH   9  11
ENDBRANCH   8   9
ENDBRANCH   7   8
ENDBRANCH   5   7
ENDBRANCH   2   5
TORSDOF 10
ENDMDL
MODEL       10
REMARK 921   NORMALIZED FREE ENERGY PREDICTED BY IDOCK:   -4.59 KCAL/MOL
REMARK 922        TOTAL FREE ENERGY PREDICTED BY IDOCK:   -7.76 KCAL/MOL
REMARK 923 INTER-LIGAND FREE ENERGY PREDICTED BY IDOCK:   -7.24 KCAL/MOL
REMARK 924 INTRA-LIGAND FREE ENERGY PREDICTED BY IDOCK:   -0.52 KCAL/MOL
REMARK 927      BINDING AFFINITY PREDICTED BY RF-SCORE:    0.00 PKD
ROOT
HETATM    1  N   UNL     1     -11.738  11.397  67.234  1.00  0.00    -0.583 NA 
HETATM    2  C   UNL     1     -11.234  11.919  65.964  1.00  0.00    -0.324 C  
HETATM    3  H1  UNL     1     -11.015  10.851  67.706  1.00  0.00     0.000 HD 
HETATM    4  H2  UNL     1     -12.598  10.863  67.111  1.00  0.00     0.000 HD 
ENDROOT
BRANCH   2   5
HETATM    5  C   UNL     1     -12.318  12.738  65.256  1.00  0.00    -0.488 C  
HETATM    6  O   UNL     1     -13.146  12.219  64.508  1.00  0.00    -0.791 OA 
BRANCH   5   7
HETATM    7  C   UNL     1     -12.347  14.211  65.603  1.00  0.00    -0.473 C  
BRANCH   7   8
HETATM    8  C   UNL     1     -10.975  14.864  65.495  1.00  0.00    -0.355 C  
BRANCH   8   9
HETATM    9  C   UNL     1     -11.016  16.283  64.979  1.00  0.00    -0.298 C  
HETATM   10  O   UNL     1     -11.647  16.638  63.995  1.00  0.00    -1.197 OA 
BRANCH   9  11
HETATM   11  O   UNL     1     -10.117  17.060  65.646  1.00  0.00    -0.554 OA 
BRANCH  11  12
HETATM   12  C   UNL     1      -9.029  16.337  66.224  1.00  0.00    -0.331 C  
BRANCH  12  13
HETATM   13  C   UNL     1      -8.092  17.249  66.999  1.00  0.00    -0.237 C  
BRANCH  13  14
HETATM   14  C   UNL     1      -8.808  17.752  68.250  1.00  0.00    -0.277 C  
BRANCH  14  15
HETATM   15  C   UNL     1      -8.606  19.247  68.477  1.00  0.00    -0.400 C  
BRANCH  15  16
HETATM   16  C   UNL     1      -8.874  20.027  67.189  1.00  0.00    -0.429 C  
HETATM   17  C   UNL     1     -10.364  20.178  66.930  1.00  0.00    -0.503 C  
ENDBRANCH  15  16
ENDBRANCH  14  15
ENDBRANCH  13  14
ENDBRANCH  12  13
ENDBRANCH  11  12
ENDBRANCH   9  11
ENDBRANCH   8   9
ENDBRANCH   7   8
ENDBRANCH   5   7
ENDBRANCH   2   5
TORSDOF 10
ENDMDL
MODEL       11
REMARK 921   NORMALIZED FREE ENERGY PREDICTED BY IDOCK:   -4.59 KCAL/MOL
REMARK 922        TOTAL FREE ENERGY PREDICTED BY IDOCK:   -7.76 KCAL/MOL
REMARK 923 INTER-LIGAND FREE ENERGY PREDICTED BY IDOCK:   -7.36 KCAL/MOL
REMARK 924 INTRA-LIGAND FREE ENERGY PREDICTED BY IDOCK:   -0.40 KCAL/MOL
REMARK 927      BINDING AFFINITY PREDICTED BY RF-SCORE:    0.00 PKD
ROOT
HETATM    1  N   UNL     1     -13.955   8.903  73.165  1.00  0.00    -1.215 NA 
HETATM    2  C   UNL     1     -13.776   9.198  71.743  1.00  0.00    -0.404 C  
HETATM    3  H1  UNL     1     -14.486   8.041  73.285  1.00  0.00     0.000 HD 
HETATM    4  H2  UNL     1     -14.380   9.685  73.664  1.00  0.00     0.000 HD 
ENDROOT
BRANCH   2   5
HETATM    5  C   UNL     1     -12.978  10.493  71.563  1.00  0.00    -0.460 C  
HETATM    6  O   UNL     1     -13.323  11.552  72.087  1.00  0.00    -0.477 OA 
BRANCH   5   7
HETATM    7  C   UNL     1     -11.700  10.361  70.764  1.00  0.00    -0.464 C  
BRANCH   7   8
HETATM    8  C   UNL     1     -11.537  11.470  69.733  1.00  0.00    -0.401 C  
BRANCH   8   9
HETATM    9  C   UNL     1     -11.638  10.991  68.303  1.00  0.00    -0.284 C  
HETATM   10  O   UNL     1     -11.113   9.972  67.882  1.00  0.00    -0.275 OA 
BRANCH   9  11
HETATM   11  O   UNL     1     -12.230  11.939  67.523  1.00  0.00    -0.510 OA 
BRANCH  11  12
HETATM   12  C   UNL     1     -11.651  13.239  67.635  1.00  0.00    -0.346 C  
BRANCH  12  13
HETATM   13  C   UNL     1     -12.144  14.174  66.543  1.00  0.00    -0.481 C  
BRANCH  13  14
HETATM   14  C   UNL     1     -12.781  13.346  65.429  1.00  0.00    -0.484 C  
BRANCH  14  15
HETATM   15  C   UNL     1     -11.975  13.389  64.134  1.00  0.00    -0.505 C  
BRANCH  15  16
HETATM   16  C   UNL     1     -11.883  11.994  63.514  1.00  0.00    -0.587 C  
HETATM   17  C   UNL     1     -10.440  11.524  63.417  1.00  0.00    -0.466 C  
ENDBRANCH  15  16
ENDBRANCH  14  15
ENDBRANCH  13  14
ENDBRANCH  12  13
ENDBRANCH  11  12
ENDBRANCH   9  11
ENDBRANCH   8   9
ENDBRANCH   7   8
ENDBRANCH   5   7
ENDBRANCH   2   5
TORSDOF 10
ENDMDL
MODEL       12
REMARK 921   NORMALIZED FREE ENERGY PREDICTED BY IDOCK:   -4.54 KCAL/MOL
REMARK 922        TOTAL FREE ENERGY PREDICTED BY IDOCK:   -7.68 KCAL/MOL
REMARK 923 INTER-LIGAND FREE ENERGY PREDICTED BY IDOCK:   -7.12 KCAL/MOL
REMARK 924 INTRA-LIGAND FREE ENERGY PREDICTED BY IDOCK:   -0.55 KCAL/MOL
REMARK 927      BINDING AFFINITY PREDICTED BY RF-SCORE:    0.00 PKD
ROOT
HETATM    1  N   UNL     1     -11.554  11.348  62.861  1.00  0.00    -0.710 NA 
HETATM    2  C   UNL     1     -10.970  12.316  63.790  1.00  0.00    -0.435 C  
HETATM    3  H1  UNL     1     -10.918  10.563  62.720  1.00  0.00     0.000 HD 
HETATM    4  H2  UNL     1     -11.824  11.783  61.979  1.00  0.00     0.000 HD 
ENDROOT
BRANCH   2   5
HETATM    5  C   UNL     1     -11.925  13.495  64.002  1.00  0.00    -0.449 C  
HETATM    6  O   UNL     1     -12.782  13.800  63.174  1.00  0.00    -0.743 OA 
BRANCH   5   7
HETATM    7  C   UNL     1     -11.791  14.205  65.332  1.00  0.00    -0.362 C  
BRANCH   7   8
HETATM    8  C   UNL     1     -10.581  15.129  65.382  1.00  0.00    -0.410 C  
BRANCH   8   9
HETATM    9  C   UNL     1     -10.888  16.555  64.988  1.00  0.00    -0.229 C  
HETATM   10  O   UNL     1     -11.628  16.869  64.069  1.00  0.00    -1.123 OA 
BRANCH   9  11
HETATM   11  O   UNL     1     -10.092  17.422  65.675  1.00  0.00    -0.566 OA 
BRANCH  11  12
HETATM   12  C   UNL     1     -10.652  18.724  65.849  1.00  0.00    -0.352 C  
BRANCH  12  13
HETATM   13  C   UNL     1     -10.644  19.152  67.307  1.00  0.00    -0.573 C  
BRANCH  13  14
HETATM   14  C   UNL     1      -9.552  18.383  68.047  1.00  0.00    -0.316 C  
BRANCH  14  15
HETATM   15  C   UNL     1      -8.291  19.215  68.258  1.00  0.00    -0.370 C  
BRANCH  15  16
HETATM   16  C   UNL     1      -7.042  18.361  68.033  1.00  0.00    -0.237 C  
HETATM   17  C   UNL     1      -6.747  18.188  66.551  1.00  0.00    -0.247 C  
ENDBRANCH  15  16
ENDBRANCH  14  15
ENDBRANCH  13  14
ENDBRANCH  12  13
ENDBRANCH  11  12
ENDBRANCH   9  11
ENDBRANCH   8   9
ENDBRANCH   7   8
ENDBRANCH   5   7
ENDBRANCH   2   5
TORSDOF 10
ENDMDL
MODEL       13
REMARK 921   NORMALIZED FREE ENERGY PREDICTED BY IDOCK:   -4.49 KCAL/MOL
REMARK 922        TOTAL FREE ENERGY PREDICTED BY IDOCK:   -7.59 KCAL/MOL
REMARK 923 INTER-LIGAND FREE ENERGY PREDICTED BY IDOCK:   -7.18 KCAL/MOL
REMARK 924 INTRA-LIGAND FREE ENERGY PREDICTED BY IDOCK:   -0.42 KCAL/MOL
REMARK 927      BINDING AFFINITY PREDICTED BY RF-SCORE:    0.00 PKD
ROOT
HETATM    1  N   UNL     1     -12.964  15.848  74.256  1.00  0.00    -0.895 NA 
HETATM    2  C   UNL     1     -13.610  15.791  72.944  1.00  0.00    -0.577 C  
HETATM    3  H1  UNL     1     -13.111  16.762  74.685  1.00  0.00     0.000 HD 
HETATM    4  H2  UNL     1     -11.974  15.608  74.202  1.00  0.00     0.000 HD 
ENDROOT
BRANCH   2   5
HETATM    5  C   UNL     1     -13.390  14.419  72.300  1.00  0.00    -0.421 C  
HETATM    6  O   UNL     1     -14.084  13.444  72.585  1.00  0.00    -0.767 OA 
BRANCH   5   7
HETATM    7  C   UNL     1     -12.316  14.369  71.235  1.00  0.00    -0.432 C  
BRANCH   7   8
HETATM    8  C   UNL     1     -11.940  15.751  70.718  1.00  0.00    -0.444 C  
BRANCH   8   9
HETATM    9  C   UNL     1     -11.601  15.779  69.245  1.00  0.00    -0.373 C  
HETATM   10  O   UNL     1     -11.061  16.719  68.683  1.00  0.00    -0.326 OA 
BRANCH   9  11
HETATM   11  O   UNL     1     -12.142  14.701  68.611  1.00  0.00    -0.285 OA 
BRANCH  11  12
HETATM   12  C   UNL     1     -11.625  14.469  67.300  1.00  0.00    -0.385 C  
BRANCH  12  13
HETATM   13  C   UNL     1     -11.068  13.063  67.153  1.00  0.00    -0.304 C  
BRANCH  13  14
HETATM   14  C   UNL     1     -11.771  12.368  65.989  1.00  0.00    -0.469 C  
BRANCH  14  15
HETATM   15  C   UNL     1     -10.825  11.491  65.174  1.00  0.00    -0.326 C  
BRANCH  15  16
HETATM   16  C   UNL     1     -11.151  11.594  63.683  1.00  0.00    -0.506 C  
HETATM   17  C   UNL     1     -12.535  12.180  63.456  1.00  0.00    -0.666 C  
ENDBRANCH  15  16
ENDBRANCH  14  15
ENDBRANCH  13  14
ENDBRANCH  12  13
ENDBRANCH  11  12
ENDBRANCH   9  11
ENDBRANCH   8   9
ENDBRANCH   7   8
ENDBRANCH   5   7
ENDBRANCH   2   5
TORSDOF 10
ENDMDL
MODEL       14
REMARK 921   NORMALIZED FREE ENERGY PREDICTED BY IDOCK:   -4.48 KCAL/MOL
REMARK 922        TOTAL FREE ENERGY PREDICTED BY IDOCK:   -7.59 KCAL/MOL
REMARK 923 INTER-LIGAND FREE ENERGY PREDICTED BY IDOCK:   -6.77 KCAL/MOL
REMARK 924 INTRA-LIGAND FREE ENERGY PREDICTED BY IDOCK:   -0.82 KCAL/MOL
REMARK 927      BINDING AFFINITY PREDICTED BY RF-SCORE:    0.00 PKD
ROOT
HETATM    1  N   UNL     1     -11.636  16.307  63.816  1.00  0.00    -1.482 NA 
HETATM    2  C   UNL     1     -11.027  16.661  65.099  1.00  0.00    -0.151 C  
HETATM    3  H1  UNL     1     -12.354  16.987  63.564  1.00  0.00     0.000 HD 
HETATM    4  H2  UNL     1     -11.999  15.354  63.819  1.00  0.00     0.000 HD 
ENDROOT
BRANCH   2   5
HETATM    5  C   UNL     1      -9.949  15.641  65.477  1.00  0.00    -0.329 C  
HETATM    6  O   UNL     1      -8.976  15.943  66.167  1.00  0.00    -0.317 OA 
BRANCH   5   7
HETATM    7  C   UNL     1     -10.206  14.224  65.012  1.00  0.00    -0.402 C  
BRANCH   7   8
HETATM    8  C   UNL     1     -10.797  13.347  66.107  1.00  0.00    -0.287 C  
BRANCH   8   9
HETATM    9  C   UNL     1     -12.262  13.605  66.369  1.00  0.00    -0.423 C  
HETATM   10  O   UNL     1     -13.085  13.839  65.497  1.00  0.00    -0.671 OA 
BRANCH   9  11
HETATM   11  O   UNL     1     -12.495  13.722  67.707  1.00  0.00    -0.126 OA 
BRANCH  11  12
HETATM   12  C   UNL     1     -11.330  14.004  68.484  1.00  0.00    -0.277 C  
BRANCH  12  13
HETATM   13  C   UNL     1     -11.465  15.308  69.253  1.00  0.00    -0.334 C  
BRANCH  13  14
HETATM   14  C   UNL     1     -12.648  15.200  70.212  1.00  0.00    -0.370 C  
BRANCH  14  15
HETATM   15  C   UNL     1     -12.500  14.043  71.195  1.00  0.00    -0.447 C  
BRANCH  15  16
HETATM   16  C   UNL     1     -13.175  14.380  72.526  1.00  0.00    -0.558 C  
HETATM   17  C   UNL     1     -12.975  15.841  72.895  1.00  0.00    -0.600 C  
ENDBRANCH  15  16
ENDBRANCH  14  15
ENDBRANCH  13  14
ENDBRANCH  12  13
ENDBRANCH  11  12
ENDBRANCH   9  11
ENDBRANCH   8   9
ENDBRANCH   7   8
ENDBRANCH   5   7
ENDBRANCH   2   5
TORSDOF 10
ENDMDL
MODEL       15
REMARK 921   NORMALIZED FREE ENERGY PREDICTED BY IDOCK:   -4.45 KCAL/MOL
REMARK 922        TOTAL FREE ENERGY PREDICTED BY IDOCK:   -7.53 KCAL/MOL
REMARK 923 INTER-LIGAND FREE ENERGY PREDICTED BY IDOCK:   -7.21 KCAL/MOL
REMARK 924 INTRA-LIGAND FREE ENERGY PREDICTED BY IDOCK:   -0.32 KCAL/MOL
REMARK 927      BINDING AFFINITY PREDICTED BY RF-SCORE:    0.00 PKD
ROOT
HETATM    1  N   UNL     1     -11.489  16.368  63.985  1.00  0.00    -1.573 NA 
HETATM    2  C   UNL     1     -11.319  15.329  65.001  1.00  0.00    -0.358 C  
HETATM    3  H1  UNL     1     -10.960  17.203  64.239  1.00  0.00     0.000 HD 
HETATM    4  H2  UNL     1     -12.473  16.578  63.818  1.00  0.00     0.000 HD 
ENDROOT
BRANCH   2   5
HETATM    5  C   UNL     1     -12.113  14.076  64.621  1.00  0.00    -0.440 C  
HETATM    6  O   UNL     1     -12.648  13.949  63.520  1.00  0.00    -0.842 OA 
BRANCH   5   7
HETATM    7  C   UNL     1     -12.125  12.977  65.661  1.00  0.00    -0.507 C  
BRANCH   7   8
HETATM    8  C   UNL     1     -11.988  13.513  67.080  1.00  0.00    -0.440 C  
BRANCH   8   9
HETATM    9  C   UNL     1     -11.234  12.590  68.009  1.00  0.00    -0.270 C  
HETATM   10  O   UNL     1     -10.307  11.875  67.663  1.00  0.00    -0.196 OA 
BRANCH   9  11
HETATM   11  O   UNL     1     -11.847  12.533  69.225  1.00  0.00    -0.304 OA 
BRANCH  11  12
HETATM   12  C   UNL     1     -11.588  11.336  69.959  1.00  0.00    -0.321 C  
BRANCH  12  13
HETATM   13  C   UNL     1     -12.715  11.009  70.924  1.00  0.00    -0.452 C  
BRANCH  13  14
HETATM   14  C   UNL     1     -12.476   9.623  71.519  1.00  0.00    -0.476 C  
BRANCH  14  15
HETATM   15  C   UNL     1     -11.008   9.209  71.467  1.00  0.00    -0.434 C  
BRANCH  15  16
HETATM   16  C   UNL     1     -10.879   7.742  71.054  1.00  0.00    -0.253 C  
HETATM   17  C   UNL     1     -11.720   6.839  71.943  1.00  0.00    -0.349 C  
ENDBRANCH  15  16
ENDBRANCH  14  15
ENDBRANCH  13  14
ENDBRANCH  12  13
ENDBRANCH  11  12
ENDBRANCH   9  11
ENDBRANCH   8   9
ENDBRANCH   7   8
ENDBRANCH   5   7
ENDBRANCH   2   5
TORSDOF 10
ENDMDL
MODEL       16
REMARK 921   NORMALIZED FREE ENERGY PREDICTED BY IDOCK:   -4.44 KCAL/MOL
REMARK 922        TOTAL FREE ENERGY PREDICTED BY IDOCK:   -7.53 KCAL/MOL
REMARK 923 INTER-LIGAND FREE ENERGY PREDICTED BY IDOCK:   -7.00 KCAL/MOL
REMARK 924 INTRA-LIGAND FREE ENERGY PREDICTED BY IDOCK:   -0.53 KCAL/MOL
REMARK 927      BINDING AFFINITY PREDICTED BY RF-SCORE:    0.00 PKD
ROOT
HETATM    1  N   UNL     1      -9.634  14.246  65.423  1.00  0.00    -0.538 NA 
HETATM    2  C   UNL     1     -10.792  15.135  65.338  1.00  0.00    -0.381 C  
HETATM    3  H1  UNL     1      -8.817  14.757  65.758  1.00  0.00     0.000 HD 
HETATM    4  H2  UNL     1      -9.451  13.775  64.537  1.00  0.00     0.000 HD 
ENDROOT
BRANCH   2   5
HETATM    5  C   UNL     1     -12.019  14.368  64.836  1.00  0.00    -0.426 C  
HETATM    6  O   UNL     1     -12.712  14.779  63.906  1.00  0.00    -0.794 OA 
BRANCH   5   7
HETATM    7  C   UNL     1     -12.270  13.036  65.509  1.00  0.00    -0.521 C  
BRANCH   7   8
HETATM    8  C   UNL     1     -12.274  13.140  67.029  1.00  0.00    -0.271 C  
BRANCH   8   9
HETATM    9  C   UNL     1     -11.415  12.102  67.712  1.00  0.00    -0.332 C  
HETATM   10  O   UNL     1     -10.238  11.905  67.451  1.00  0.00    -0.194 OA 
BRANCH   9  11
HETATM   11  O   UNL     1     -12.176  11.306  68.515  1.00  0.00    -0.588 OA 
BRANCH  11  12
HETATM   12  C   UNL     1     -11.748  11.264  69.877  1.00  0.00    -0.352 C  
BRANCH  12  13
HETATM   13  C   UNL     1     -12.716  10.482  70.749  1.00  0.00    -0.471 C  
BRANCH  13  14
HETATM   14  C   UNL     1     -13.268  11.406  71.832  1.00  0.00    -0.485 C  
BRANCH  14  15
HETATM   15  C   UNL     1     -12.915  12.870  71.589  1.00  0.00    -0.410 C  
BRANCH  15  16
HETATM   16  C   UNL     1     -13.998  13.785  72.161  1.00  0.00    -0.638 C  
HETATM   17  C   UNL     1     -13.864  15.203  71.630  1.00  0.00    -0.597 C  
ENDBRANCH  15  16
ENDBRANCH  14  15
ENDBRANCH  13  14
ENDBRANCH  12  13
ENDBRANCH  11  12
ENDBRANCH   9  11
ENDBRANCH   8   9
ENDBRANCH   7   8
ENDBRANCH   5   7
ENDBRANCH   2   5
TORSDOF 10
ENDMDL
MODEL       17
REMARK 921   NORMALIZED FREE ENERGY PREDICTED BY IDOCK:   -4.44 KCAL/MOL
REMARK 922        TOTAL FREE ENERGY PREDICTED BY IDOCK:   -7.52 KCAL/MOL
REMARK 923 INTER-LIGAND FREE ENERGY PREDICTED BY IDOCK:   -7.10 KCAL/MOL
REMARK 924 INTRA-LIGAND FREE ENERGY PREDICTED BY IDOCK:   -0.42 KCAL/MOL
REMARK 927      BINDING AFFINITY PREDICTED BY RF-SCORE:    0.00 PKD
ROOT
HETATM    1  N   UNL     1     -12.335  11.705  63.023  1.00  0.00    -0.956 NA 
HETATM    2  C   UNL     1     -11.418  12.619  63.705  1.00  0.00    -0.470 C  
HETATM    3  H1  UNL     1     -11.814  10.967  62.549  1.00  0.00     0.000 HD 
HETATM    4  H2  UNL     1     -12.959  12.200  62.386  1.00  0.00     0.000 HD 
ENDROOT
BRANCH   2   5
HETATM    5  C   UNL     1     -12.199  13.727  64.417  1.00  0.00    -0.399 C  
HETATM    6  O   UNL     1     -12.429  14.812  63.884  1.00  0.00    -0.811 OA 
BRANCH   5   7
HETATM    7  C   UNL     1     -12.734  13.365  65.786  1.00  0.00    -0.383 C  
BRANCH   7   8
HETATM    8  C   UNL     1     -11.669  13.456  66.872  1.00  0.00    -0.434 C  
BRANCH   8   9
HETATM    9  C   UNL     1     -11.409  12.145  67.579  1.00  0.00    -0.326 C  
HETATM   10  O   UNL     1     -11.710  11.051  67.128  1.00  0.00    -0.456 OA 
BRANCH   9  11
HETATM   11  O   UNL     1     -10.968  12.368  68.849  1.00  0.00    -0.229 OA 
BRANCH  11  12
HETATM   12  C   UNL     1     -11.968  12.208  69.855  1.00  0.00    -0.309 C  
BRANCH  12  13
HETATM   13  C   UNL     1     -11.790  10.912  70.629  1.00  0.00    -0.453 C  
BRANCH  13  14
HETATM   14  C   UNL     1     -13.013  10.689  71.515  1.00  0.00    -0.566 C  
BRANCH  14  15
HETATM   15  C   UNL     1     -13.042   9.294  72.132  1.00  0.00    -0.520 C  
BRANCH  15  16
HETATM   16  C   UNL     1     -11.797   8.504  71.728  1.00  0.00    -0.395 C  
HETATM   17  C   UNL     1     -12.141   7.064  71.381  1.00  0.00    -0.396 C  
ENDBRANCH  15  16
ENDBRANCH  14  15
ENDBRANCH  13  14
ENDBRANCH  12  13
ENDBRANCH  11  12
ENDBRANCH   9  11
ENDBRANCH   8   9
ENDBRANCH   7   8
ENDBRANCH   5   7
ENDBRANCH   2   5
TORSDOF 10
ENDMDL
MODEL       18
REMARK 921   NORMALIZED FREE ENERGY PREDICTED BY IDOCK:   -4.43 KCAL/MOL
REMARK 922        TOTAL FREE ENERGY PREDICTED BY IDOCK:   -7.50 KCAL/MOL
REMARK 923 INTER-LIGAND FREE ENERGY PREDICTED BY IDOCK:   -6.88 KCAL/MOL
REMARK 924 INTRA-LIGAND FREE ENERGY PREDICTED BY IDOCK:   -0.62 KCAL/MOL
REMARK 927      BINDING AFFINITY PREDICTED BY RF-SCORE:    0.00 PKD
ROOT
HETATM    1  N   UNL     1     -11.896  11.694  67.061  1.00  0.00    -0.575 NA 
HETATM    2  C   UNL     1     -11.427  11.935  65.696  1.00  0.00    -0.255 C  
HETATM    3  H1  UNL     1     -11.183  11.202  67.600  1.00  0.00     0.000 HD 
HETATM    4  H2  UNL     1     -12.789  11.204  67.075  1.00  0.00     0.000 HD 
ENDROOT
BRANCH   2   5
HETATM    5  C   UNL     1     -12.497  12.675  64.887  1.00  0.00    -0.494 C  
HETATM    6  O   UNL     1     -13.377  12.078  64.268  1.00  0.00    -0.709 OA 
BRANCH   5   7
HETATM    7  C   UNL     1     -12.442  14.185  64.968  1.00  0.00    -0.434 C  
BRANCH   7   8
HETATM    8  C   UNL     1     -11.064  14.699  65.364  1.00  0.00    -0.349 C  
BRANCH   8   9
HETATM    9  C   UNL     1     -10.842  16.158  65.039  1.00  0.00    -0.363 C  
HETATM   10  O   UNL     1     -11.357  16.736  64.094  1.00  0.00    -1.194 OA 
BRANCH   9  11
HETATM   11  O   UNL     1      -9.859  16.679  65.826  1.00  0.00    -0.482 OA 
BRANCH  11  12
HETATM   12  C   UNL     1     -10.267  17.799  66.612  1.00  0.00    -0.361 C  
BRANCH  12  13
HETATM   13  C   UNL     1     -10.619  17.394  68.034  1.00  0.00    -0.389 C  
BRANCH  13  14
HETATM   14  C   UNL     1      -9.700  16.256  68.470  1.00  0.00    -0.224 C  
BRANCH  14  15
HETATM   15  C   UNL     1     -10.430  15.194  69.287  1.00  0.00    -0.261 C  
BRANCH  15  16
HETATM   16  C   UNL     1     -11.308  15.849  70.354  1.00  0.00    -0.399 C  
HETATM   17  C   UNL     1     -12.380  14.893  70.854  1.00  0.00    -0.392 C  
ENDBRANCH  15  16
ENDBRANCH  14  15
ENDBRANCH  13  14
ENDBRANCH  12  13
ENDBRANCH  11  12
ENDBRANCH   9  11
ENDBRANCH   8   9
ENDBRANCH   7   8
ENDBRANCH   5   7
ENDBRANCH   2   5
TORSDOF 10
ENDMDL
MODEL       19
REMARK 921   NORMALIZED FREE ENERGY PREDICTED BY IDOCK:   -4.40 KCAL/MOL
REMARK 922        TOTAL FREE ENERGY PREDICTED BY IDOCK:   -7.46 KCAL/MOL
REMARK 923 INTER-LIGAND FREE ENERGY PREDICTED BY IDOCK:   -6.94 KCAL/MOL
REMARK 924 INTRA-LIGAND FREE ENERGY PREDICTED BY IDOCK:   -0.52 KCAL/MOL
REMARK 927      BINDING AFFINITY PREDICTED BY RF-SCORE:    0.00 PKD
ROOT
HETATM    1  N   UNL     1     -12.339  14.067  63.106  1.00  0.00    -1.094 NA 
HETATM    2  C   UNL     1     -12.266  14.477  64.509  1.00  0.00    -0.465 C  
HETATM    3  H1  UNL     1     -13.004  13.302  62.994  1.00  0.00     0.000 HD 
HETATM    4  H2  UNL     1     -11.420  13.831  62.732  1.00  0.00     0.000 HD 
ENDROOT
BRANCH   2   5
HETATM    5  C   UNL     1     -11.267  15.626  64.678  1.00  0.00    -0.369 C  
HETATM    6  O   UNL     1     -11.320  16.645  63.991  1.00  0.00    -1.120 OA 
BRANCH   5   7
HETATM    7  C   UNL     1     -10.265  15.453  65.799  1.00  0.00    -0.378 C  
BRANCH   7   8
HETATM    8  C   UNL     1     -10.177  16.679  66.698  1.00  0.00    -0.304 C  
BRANCH   8   9
HETATM    9  C   UNL     1     -10.620  16.424  68.120  1.00  0.00    -0.318 C  
HETATM   10  O   UNL     1     -10.077  16.903  69.104  1.00  0.00    -0.278 OA 
BRANCH   9  11
HETATM   11  O   UNL     1     -11.577  15.455  68.155  1.00  0.00    -0.347 OA 
BRANCH  11  12
HETATM   12  C   UNL     1     -11.420  14.511  69.216  1.00  0.00    -0.288 C  
BRANCH  12  13
HETATM   13  C   UNL     1     -11.027  13.138  68.698  1.00  0.00    -0.296 C  
BRANCH  13  14
HETATM   14  C   UNL     1     -11.973  12.094  69.285  1.00  0.00    -0.318 C  
BRANCH  14  15
HETATM   15  C   UNL     1     -11.260  10.795  69.648  1.00  0.00    -0.355 C  
BRANCH  15  16
HETATM   16  C   UNL     1     -11.668  10.333  71.048  1.00  0.00    -0.461 C  
HETATM   17  C   UNL     1     -12.945  11.018  71.509  1.00  0.00    -0.553 C  
ENDBRANCH  15  16
ENDBRANCH  14  15
ENDBRANCH  13  14
ENDBRANCH  12  13
ENDBRANCH  11  12
ENDBRANCH   9  11
ENDBRANCH   8   9
ENDBRANCH   7   8
ENDBRANCH   5   7
ENDBRANCH   2   5
TORSDOF 10
ENDMDL
MODEL       20
REMARK 921   NORMALIZED FREE ENERGY PREDICTED BY IDOCK:   -4.40 KCAL/MOL
REMARK 922        TOTAL FREE ENERGY PREDICTED BY IDOCK:   -7.46 KCAL/MOL
REMARK 923 INTER-LIGAND FREE ENERGY PREDICTED BY IDOCK:   -6.56 KCAL/MOL
REMARK 924 INTRA-LIGAND FREE ENERGY PREDICTED BY IDOCK:   -0.90 KCAL/MOL
REMARK 927      BINDING AFFINITY PREDICTED BY RF-SCORE:    0.00 PKD
ROOT
HETATM    1  N   UNL     1     -10.642  19.678  65.903  1.00  0.00    -0.510 NA 
HETATM    2  C   UNL     1     -10.736  19.334  67.322  1.00  0.00    -0.488 C  
HETATM    3  H1  UNL     1     -10.917  20.649  65.753  1.00  0.00     0.000 HD 
HETATM    4  H2  UNL     1     -11.181  19.036  65.320  1.00  0.00     0.000 HD 
ENDROOT
BRANCH   2   5
HETATM    5  C   UNL     1     -10.324  17.876  67.547  1.00  0.00    -0.377 C  
HETATM    6  O   UNL     1     -10.634  17.259  68.565  1.00  0.00    -0.354 OA 
BRANCH   5   7
HETATM    7  C   UNL     1      -9.580  17.229  66.399  1.00  0.00    -0.290 C  
BRANCH   7   8
HETATM    8  C   UNL     1     -10.152  15.867  66.026  1.00  0.00    -0.359 C  
BRANCH   8   9
HETATM    9  C   UNL     1     -11.068  15.900  64.825  1.00  0.00    -0.384 C  
HETATM   10  O   UNL     1     -11.400  16.921  64.243  1.00  0.00    -1.202 OA 
BRANCH   9  11
HETATM   11  O   UNL     1     -11.610  14.669  64.604  1.00  0.00    -0.394 OA 
BRANCH  11  12
HETATM   12  C   UNL     1     -10.992  13.614  65.341  1.00  0.00    -0.298 C  
BRANCH  12  13
HETATM   13  C   UNL     1     -12.015  12.758  66.069  1.00  0.00    -0.491 C  
BRANCH  13  14
HETATM   14  C   UNL     1     -11.313  11.974  67.175  1.00  0.00    -0.396 C  
BRANCH  14  15
HETATM   15  C   UNL     1     -10.747  12.879  68.265  1.00  0.00    -0.261 C  
BRANCH  15  16
HETATM   16  C   UNL     1     -11.874  13.632  68.975  1.00  0.00    -0.393 C  
HETATM   17  C   UNL     1     -12.257  12.956  70.282  1.00  0.00    -0.362 C  
ENDBRANCH  15  16
ENDBRANCH  14  15
ENDBRANCH  13  14
ENDBRANCH  12  13
ENDBRANCH  11  12
ENDBRANCH   9  11
ENDBRANCH   8   9
ENDBRANCH   7   8
ENDBRANCH   5   7
ENDBRANCH   2   5
TORSDOF 10
ENDMDL
MODEL       21
REMARK 921   NORMALIZED FREE ENERGY PREDICTED BY IDOCK:   -4.40 KCAL/MOL
REMARK 922        TOTAL FREE ENERGY PREDICTED BY IDOCK:   -7.45 KCAL/MOL
REMARK 923 INTER-LIGAND FREE ENERGY PREDICTED BY IDOCK:   -6.96 KCAL/MOL
REMARK 924 INTRA-LIGAND FREE ENERGY PREDICTED BY IDOCK:   -0.49 KCAL/MOL
REMARK 927      BINDING AFFINITY PREDICTED BY RF-SCORE:    0.00 PKD
ROOT
HETATM    1  N   UNL     1     -11.655  16.244  63.843  1.00  0.00    -1.573 NA 
HETATM    2  C   UNL     1     -11.527  15.263  64.922  1.00  0.00    -0.343 C  
HETATM    3  H1  UNL     1     -11.395  17.173  64.174  1.00  0.00     0.000 HD 
HETATM    4  H2  UNL     1     -12.588  16.234  63.431  1.00  0.00     0.000 HD 
ENDROOT
BRANCH   2   5
HETATM    5  C   UNL     1     -11.918  13.868  64.425  1.00  0.00    -0.450 C  
HETATM    6  O   UNL     1     -12.571  13.700  63.396  1.00  0.00    -0.799 OA 
BRANCH   5   7
HETATM    7  C   UNL     1     -11.378  12.715  65.242  1.00  0.00    -0.350 C  
BRANCH   7   8
HETATM    8  C   UNL     1     -11.988  12.651  66.637  1.00  0.00    -0.382 C  
BRANCH   8   9
HETATM    9  C   UNL     1     -10.971  12.747  67.750  1.00  0.00    -0.237 C  
HETATM   10  O   UNL     1     -11.036  12.119  68.796  1.00  0.00    -0.223 OA 
BRANCH   9  11
HETATM   11  O   UNL     1     -10.087  13.755  67.504  1.00  0.00    -0.236 OA 
BRANCH  11  12
HETATM   12  C   UNL     1     -10.006  14.733  68.541  1.00  0.00    -0.228 C  
BRANCH  12  13
HETATM   13  C   UNL     1      -9.532  16.078  68.014  1.00  0.00    -0.207 C  
BRANCH  13  14
HETATM   14  C   UNL     1     -10.674  17.086  68.121  1.00  0.00    -0.374 C  
BRANCH  14  15
HETATM   15  C   UNL     1     -10.177  18.525  68.221  1.00  0.00    -0.412 C  
BRANCH  15  16
HETATM   16  C   UNL     1     -10.763  19.373  67.092  1.00  0.00    -0.593 C  
HETATM   17  C   UNL     1      -9.670  19.964  66.215  1.00  0.00    -0.551 C  
ENDBRANCH  15  16
ENDBRANCH  14  15
ENDBRANCH  13  14
ENDBRANCH  12  13
ENDBRANCH  11  12
ENDBRANCH   9  11
ENDBRANCH   8   9
ENDBRANCH   7   8
ENDBRANCH   5   7
ENDBRANCH   2   5
TORSDOF 10
ENDMDL
MODEL       22
REMARK 921   NORMALIZED FREE ENERGY PREDICTED BY IDOCK:   -4.39 KCAL/MOL
REMARK 922        TOTAL FREE ENERGY PREDICTED BY IDOCK:   -7.44 KCAL/MOL
REMARK 923 INTER-LIGAND FREE ENERGY PREDICTED BY IDOCK:   -7.05 KCAL/MOL
REMARK 924 INTRA-LIGAND FREE ENERGY PREDICTED BY IDOCK:   -0.39 KCAL/MOL
REMARK 927      BINDING AFFINITY PREDICTED BY RF-SCORE:    0.00 PKD
ROOT
HETATM    1  N   UNL     1     -14.262   8.892  73.050  1.00  0.00    -1.158 NA 
HETATM    2  C   UNL     1     -13.292   8.467  72.040  1.00  0.00    -0.369 C  
HETATM    3  H1  UNL     1     -14.887   8.122  73.287  1.00  0.00     0.000 HD 
HETATM    4  H2  UNL     1     -14.775   9.723  72.757  1.00  0.00     0.000 HD 
ENDROOT
BRANCH   2   5
HETATM    5  C   UNL     1     -12.352   9.623  71.683  1.00  0.00    -0.404 C  
HETATM    6  O   UNL     1     -11.139   9.463  71.553  1.00  0.00    -0.355 OA 
BRANCH   5   7
HETATM    7  C   UNL     1     -13.029  10.952  71.425  1.00  0.00    -0.527 C  
BRANCH   7   8
HETATM    8  C   UNL     1     -12.239  11.833  70.466  1.00  0.00    -0.438 C  
BRANCH   8   9
HETATM    9  C   UNL     1     -12.511  13.310  70.633  1.00  0.00    -0.298 C  
HETATM   10  O   UNL     1     -12.999  13.809  71.636  1.00  0.00    -0.337 OA 
BRANCH   9  11
HETATM   11  O   UNL     1     -12.312  13.969  69.457  1.00  0.00    -0.332 OA 
BRANCH  11  12
HETATM   12  C   UNL     1     -11.591  13.219  68.478  1.00  0.00    -0.333 C  
BRANCH  12  13
HETATM   13  C   UNL     1     -11.837  13.740  67.072  1.00  0.00    -0.445 C  
BRANCH  13  14
HETATM   14  C   UNL     1     -11.708  12.585  66.082  1.00  0.00    -0.466 C  
BRANCH  14  15
HETATM   15  C   UNL     1     -12.629  12.743  64.876  1.00  0.00    -0.541 C  
BRANCH  15  16
HETATM   16  C   UNL     1     -11.906  12.332  63.593  1.00  0.00    -0.610 C  
HETATM   17  C   UNL     1     -10.453  11.976  63.863  1.00  0.00    -0.440 C  
ENDBRANCH  15  16
ENDBRANCH  14  15
ENDBRANCH  13  14
ENDBRANCH  12  13
ENDBRANCH  11  12
ENDBRANCH   9  11
ENDBRANCH   8   9
ENDBRANCH   7   8
ENDBRANCH   5   7
ENDBRANCH   2   5
TORSDOF 10
ENDMDL
MODEL       23
REMARK 921   NORMALIZED FREE ENERGY PREDICTED BY IDOCK:   -4.38 KCAL/MOL
REMARK 922        TOTAL FREE ENERGY PREDICTED BY IDOCK:   -7.43 KCAL/MOL
REMARK 923 INTER-LIGAND FREE ENERGY PREDICTED BY IDOCK:   -7.02 KCAL/MOL
REMARK 924 INTRA-LIGAND FREE ENERGY PREDICTED BY IDOCK:   -0.41 KCAL/MOL
REMARK 927      BINDING AFFINITY PREDICTED BY RF-SCORE:    0.00 PKD
ROOT
HETATM    1  N   UNL     1     -10.488  10.869  62.738  1.00  0.00    -0.781 NA 
HETATM    2  C   UNL     1     -10.613  11.988  63.672  1.00  0.00    -0.454 C  
HETATM    3  H1  UNL     1      -9.541  10.491  62.761  1.00  0.00     0.000 HD 
HETATM    4  H2  UNL     1     -10.772  11.129  61.794  1.00  0.00     0.000 HD 
ENDROOT
BRANCH   2   5
HETATM    5  C   UNL     1     -12.035  12.556  63.638  1.00  0.00    -0.537 C  
HETATM    6  O   UNL     1     -12.989  11.905  63.212  1.00  0.00    -0.707 OA 
BRANCH   5   7
HETATM    7  C   UNL     1     -12.196  13.937  64.236  1.00  0.00    -0.447 C  
BRANCH   7   8
HETATM    8  C   UNL     1     -12.784  13.901  65.640  1.00  0.00    -0.534 C  
BRANCH   8   9
HETATM    9  C   UNL     1     -11.848  13.324  66.677  1.00  0.00    -0.395 C  
HETATM   10  O   UNL     1     -12.052  12.282  67.281  1.00  0.00    -0.548 OA 
BRANCH   9  11
HETATM   11  O   UNL     1     -10.855  14.211  66.970  1.00  0.00    -0.289 OA 
BRANCH  11  12
HETATM   12  C   UNL     1     -11.163  15.107  68.038  1.00  0.00    -0.323 C  
BRANCH  12  13
HETATM   13  C   UNL     1      -9.922  15.503  68.820  1.00  0.00    -0.214 C  
BRANCH  13  14
HETATM   14  C   UNL     1      -9.682  17.001  68.649  1.00  0.00    -0.282 C  
BRANCH  14  15
HETATM   15  C   UNL     1     -10.644  17.638  67.650  1.00  0.00    -0.364 C  
BRANCH  15  16
HETATM   16  C   UNL     1     -10.379  19.139  67.533  1.00  0.00    -0.524 C  
HETATM   17  C   UNL     1     -10.455  19.605  66.087  1.00  0.00    -0.624 C  
ENDBRANCH  15  16
ENDBRANCH  14  15
ENDBRANCH  13  14
ENDBRANCH  12  13
ENDBRANCH  11  12
ENDBRANCH   9  11
ENDBRANCH   8   9
ENDBRANCH   7   8
ENDBRANCH   5   7
ENDBRANCH   2   5
TORSDOF 10
ENDMDL
MODEL       24
REMARK 921   NORMALIZED FREE ENERGY PREDICTED BY IDOCK:   -4.38 KCAL/MOL
REMARK 922        TOTAL FREE ENERGY PREDICTED BY IDOCK:   -7.42 KCAL/MOL
REMARK 923 INTER-LIGAND FREE ENERGY PREDICTED BY IDOCK:   -6.85 KCAL/MOL
REMARK 924 INTRA-LIGAND FREE ENERGY PREDICTED BY IDOCK:   -0.57 KCAL/MOL
REMARK 927      BINDING AFFINITY PREDICTED BY RF-SCORE:    0.00 PKD
ROOT
HETATM    1  N   UNL     1     -12.366  13.784  63.252  1.00  0.00    -1.124 NA 
HETATM    2  C   UNL     1     -12.077  12.370  63.490  1.00  0.00    -0.558 C  
HETATM    3  H1  UNL     1     -13.360  13.917  63.062  1.00  0.00     0.000 HD 
HETATM    4  H2  UNL     1     -11.782  14.171  62.511  1.00  0.00     0.000 HD 
ENDROOT
BRANCH   2   5
HETATM    5  C   UNL     1     -10.586  12.170  63.776  1.00  0.00    -0.439 C  
HETATM    6  O   UNL     1      -9.753  12.079  62.874  1.00  0.00    -0.334 OA 
BRANCH   5   7
HETATM    7  C   UNL     1     -10.201  12.173  65.239  1.00  0.00    -0.304 C  
BRANCH   7   8
HETATM    8  C   UNL     1     -11.402  12.005  66.160  1.00  0.00    -0.407 C  
BRANCH   8   9
HETATM    9  C   UNL     1     -11.781  13.266  66.902  1.00  0.00    -0.388 C  
HETATM   10  O   UNL     1     -12.285  14.247  66.375  1.00  0.00    -0.436 OA 
BRANCH   9  11
HETATM   11  O   UNL     1     -11.319  13.224  68.183  1.00  0.00    -0.255 OA 
BRANCH  11  12
HETATM   12  C   UNL     1     -12.053  14.037  69.100  1.00  0.00    -0.337 C  
BRANCH  12  13
HETATM   13  C   UNL     1     -12.209  13.362  70.453  1.00  0.00    -0.415 C  
BRANCH  13  14
HETATM   14  C   UNL     1     -12.098  11.850  70.271  1.00  0.00    -0.409 C  
BRANCH  14  15
HETATM   15  C   UNL     1     -12.794  11.074  71.386  1.00  0.00    -0.548 C  
BRANCH  15  16
HETATM   16  C   UNL     1     -12.271   9.638  71.446  1.00  0.00    -0.471 C  
HETATM   17  C   UNL     1     -13.321   8.688  71.999  1.00  0.00    -0.428 C  
ENDBRANCH  15  16
ENDBRANCH  14  15
ENDBRANCH  13  14
ENDBRANCH  12  13
ENDBRANCH  11  12
ENDBRANCH   9  11
ENDBRANCH   8   9
ENDBRANCH   7   8
ENDBRANCH   5   7
ENDBRANCH   2   5
TORSDOF 10
ENDMDL
MODEL       25
REMARK 921   NORMALIZED FREE ENERGY PREDICTED BY IDOCK:   -4.35 KCAL/MOL
REMARK 922        TOTAL FREE ENERGY PREDICTED BY IDOCK:   -7.37 KCAL/MOL
REMARK 923 INTER-LIGAND FREE ENERGY PREDICTED BY IDOCK:   -6.79 KCAL/MOL
REMARK 924 INTRA-LIGAND FREE ENERGY PREDICTED BY IDOCK:   -0.58 KCAL/MOL
REMARK 927      BINDING AFFINITY PREDICTED BY RF-SCORE:    0.00 PKD
ROOT
HETATM    1  N   UNL     1     -12.347  11.554  62.956  1.00  0.00    -0.935 NA 
HETATM    2  C   UNL     1     -11.428  12.519  63.560  1.00  0.00    -0.496 C  
HETATM    3  H1  UNL     1     -11.825  10.821  62.474  1.00  0.00     0.000 HD 
HETATM    4  H2  UNL     1     -13.023  12.007  62.341  1.00  0.00     0.000 HD 
ENDROOT
BRANCH   2   5
HETATM    5  C   UNL     1     -12.211  13.620  64.283  1.00  0.00    -0.396 C  
HETATM    6  O   UNL     1     -12.536  14.666  63.723  1.00  0.00    -0.820 OA 
BRANCH   5   7
HETATM    7  C   UNL     1     -12.621  13.297  65.703  1.00  0.00    -0.469 C  
BRANCH   7   8
HETATM    8  C   UNL     1     -12.027  14.265  66.718  1.00  0.00    -0.462 C  
BRANCH   8   9
HETATM    9  C   UNL     1     -10.725  13.791  67.322  1.00  0.00    -0.283 C  
HETATM   10  O   UNL     1      -9.668  13.731  66.713  1.00  0.00    -0.258 OA 
BRANCH   9  11
HETATM   11  O   UNL     1     -10.936  13.275  68.565  1.00  0.00    -0.246 OA 
BRANCH  11  12
HETATM   12  C   UNL     1     -10.719  11.866  68.661  1.00  0.00    -0.235 C  
BRANCH  12  13
HETATM   13  C   UNL     1     -11.965  11.133  69.130  1.00  0.00    -0.413 C  
BRANCH  13  14
HETATM   14  C   UNL     1     -12.204  11.449  70.605  1.00  0.00    -0.484 C  
BRANCH  14  15
HETATM   15  C   UNL     1     -12.760  10.257  71.376  1.00  0.00    -0.547 C  
BRANCH  15  16
HETATM   16  C   UNL     1     -11.951   8.995  71.069  1.00  0.00    -0.323 C  
HETATM   17  C   UNL     1     -10.699   8.914  71.927  1.00  0.00    -0.426 C  
ENDBRANCH  15  16
ENDBRANCH  14  15
ENDBRANCH  13  14
ENDBRANCH  12  13
ENDBRANCH  11  12
ENDBRANCH   9  11
ENDBRANCH   8   9
ENDBRANCH   7   8
ENDBRANCH   5   7
ENDBRANCH   2   5
TORSDOF 10
ENDMDL
MODEL       26
REMARK 921   NORMALIZED FREE ENERGY PREDICTED BY IDOCK:   -4.31 KCAL/MOL
REMARK 922        TOTAL FREE ENERGY PREDICTED BY IDOCK:   -7.32 KCAL/MOL
REMARK 923 INTER-LIGAND FREE ENERGY PREDICTED BY IDOCK:   -6.54 KCAL/MOL
REMARK 924 INTRA-LIGAND FREE ENERGY PREDICTED BY IDOCK:   -0.78 KCAL/MOL
REMARK 927      BINDING AFFINITY PREDICTED BY RF-SCORE:    0.00 PKD
ROOT
HETATM    1  N   UNL     1     -11.579  16.414  63.902  1.00  0.00    -1.602 NA 
HETATM    2  C   UNL     1     -11.248  15.301  64.793  1.00  0.00    -0.396 C  
HETATM    3  H1  UNL     1     -11.100  17.264  64.201  1.00  0.00     0.000 HD 
HETATM    4  H2  UNL     1     -12.586  16.551  63.824  1.00  0.00     0.000 HD 
ENDROOT
BRANCH   2   5
HETATM    5  C   UNL     1     -11.966  14.025  64.343  1.00  0.00    -0.454 C  
HETATM    6  O   UNL     1     -12.625  13.977  63.305  1.00  0.00    -0.801 OA 
BRANCH   5   7
HETATM    7  C   UNL     1     -11.741  12.813  65.220  1.00  0.00    -0.403 C  
BRANCH   7   8
HETATM    8  C   UNL     1     -11.410  11.563  64.416  1.00  0.00    -0.283 C  
BRANCH   8   9
HETATM    9  C   UNL     1      -9.931  11.264  64.338  1.00  0.00    -0.288 C  
HETATM   10  O   UNL     1      -9.299  11.189  63.295  1.00  0.00    -0.261 OA 
BRANCH   9  11
HETATM   11  O   UNL     1      -9.450  10.911  65.563  1.00  0.00    -0.191 OA 
BRANCH  11  12
HETATM   12  C   UNL     1     -10.008   9.707  66.090  1.00  0.00    -0.276 C  
BRANCH  12  13
HETATM   13  C   UNL     1     -10.229   9.795  67.591  1.00  0.00    -0.261 C  
BRANCH  13  14
HETATM   14  C   UNL     1      -9.952  11.224  68.052  1.00  0.00    -0.191 C  
BRANCH  14  15
HETATM   15  C   UNL     1     -11.157  11.862  68.737  1.00  0.00    -0.296 C  
BRANCH  15  16
HETATM   16  C   UNL     1     -11.890  10.833  69.599  1.00  0.00    -0.392 C  
HETATM   17  C   UNL     1     -12.531  11.483  70.815  1.00  0.00    -0.444 C  
ENDBRANCH  15  16
ENDBRANCH  14  15
ENDBRANCH  13  14
ENDBRANCH  12  13
ENDBRANCH  11  12
ENDBRANCH   9  11
ENDBRANCH   8   9
ENDBRANCH   7   8
ENDBRANCH   5   7
ENDBRANCH   2   5
TORSDOF 10
ENDMDL
MODEL       27
REMARK 921   NORMALIZED FREE ENERGY PREDICTED BY IDOCK:   -4.31 KCAL/MOL
REMARK 922        TOTAL FREE ENERGY PREDICTED BY IDOCK:   -7.32 KCAL/MOL
REMARK 923 INTER-LIGAND FREE ENERGY PREDICTED BY IDOCK:   -6.85 KCAL/MOL
REMARK 924 INTRA-LIGAND FREE ENERGY PREDICTED BY IDOCK:   -0.47 KCAL/MOL
REMARK 927      BINDING AFFINITY PREDICTED BY RF-SCORE:    0.00 PKD
ROOT
HETATM    1  N   UNL     1     -14.337   8.877  73.239  1.00  0.00    -1.177 NA 
HETATM    2  C   UNL     1     -14.322   8.230  71.927  1.00  0.00    -0.476 C  
HETATM    3  H1  UNL     1     -15.293   9.107  73.511  1.00  0.00     0.000 HD 
HETATM    4  H2  UNL     1     -13.727   9.694  73.266  1.00  0.00     0.000 HD 
ENDROOT
BRANCH   2   5
HETATM    5  C   UNL     1     -12.886   7.885  71.518  1.00  0.00    -0.317 C  
HETATM    6  O   UNL     1     -12.623   6.912  70.812  1.00  0.00    -0.324 OA 
BRANCH   5   7
HETATM    7  C   UNL     1     -11.829   8.866  71.976  1.00  0.00    -0.438 C  
BRANCH   7   8
HETATM    8  C   UNL     1     -11.272   9.701  70.831  1.00  0.00    -0.422 C  
BRANCH   8   9
HETATM    9  C   UNL     1     -12.108  10.915  70.500  1.00  0.00    -0.371 C  
HETATM   10  O   UNL     1     -12.764  11.541  71.319  1.00  0.00    -0.398 OA 
BRANCH   9  11
HETATM   11  O   UNL     1     -12.174  11.096  69.151  1.00  0.00    -0.410 OA 
BRANCH  11  12
HETATM   12  C   UNL     1     -11.708  12.371  68.705  1.00  0.00    -0.326 C  
BRANCH  12  13
HETATM   13  C   UNL     1     -11.565  12.423  67.193  1.00  0.00    -0.435 C  
BRANCH  13  14
HETATM   14  C   UNL     1     -12.203  13.711  66.677  1.00  0.00    -0.437 C  
BRANCH  14  15
HETATM   15  C   UNL     1     -11.419  14.332  65.525  1.00  0.00    -0.329 C  
BRANCH  15  16
HETATM   16  C   UNL     1     -10.922  13.246  64.569  1.00  0.00    -0.398 C  
HETATM   17  C   UNL     1     -11.921  12.990  63.451  1.00  0.00    -0.592 C  
ENDBRANCH  15  16
ENDBRANCH  14  15
ENDBRANCH  13  14
ENDBRANCH  12  13
ENDBRANCH  11  12
ENDBRANCH   9  11
ENDBRANCH   8   9
ENDBRANCH   7   8
ENDBRANCH   5   7
ENDBRANCH   2   5
TORSDOF 10
ENDMDL
MODEL       28
REMARK 921   NORMALIZED FREE ENERGY PREDICTED BY IDOCK:   -4.30 KCAL/MOL
REMARK 922        TOTAL FREE ENERGY PREDICTED BY IDOCK:   -7.30 KCAL/MOL
REMARK 923 INTER-LIGAND FREE ENERGY PREDICTED BY IDOCK:   -6.78 KCAL/MOL
REMARK 924 INTRA-LIGAND FREE ENERGY PREDICTED BY IDOCK:   -0.53 KCAL/MOL
REMARK 927      BINDING AFFINITY PREDICTED BY RF-SCORE:    0.00 PKD
ROOT
HETATM    1  N   UNL     1     -10.248  19.668  68.773  1.00  0.00    -0.559 NA 
HETATM    2  C   UNL     1      -9.265  19.467  67.708  1.00  0.00    -0.324 C  
HETATM    3  H1  UNL     1      -9.811  20.114  69.580  1.00  0.00     0.000 HD 
HETATM    4  H2  UNL     1     -10.716  18.798  69.026  1.00  0.00     0.000 HD 
ENDROOT
BRANCH   2   5
HETATM    5  C   UNL     1      -9.919  18.797  66.496  1.00  0.00    -0.380 C  
HETATM    6  O   UNL     1     -10.709  19.395  65.766  1.00  0.00    -0.481 OA 
BRANCH   5   7
HETATM    7  C   UNL     1      -9.467  17.381  66.217  1.00  0.00    -0.247 C  
BRANCH   7   8
HETATM    8  C   UNL     1     -10.624  16.390  66.203  1.00  0.00    -0.259 C  
BRANCH   8   9
HETATM    9  C   UNL     1     -11.000  15.912  64.820  1.00  0.00    -0.375 C  
HETATM   10  O   UNL     1     -11.518  16.617  63.967  1.00  0.00    -1.192 OA 
BRANCH   9  11
HETATM   11  O   UNL     1     -10.851  14.561  64.725  1.00  0.00    -0.399 OA 
BRANCH  11  12
HETATM   12  C   UNL     1     -11.959  13.887  64.127  1.00  0.00    -0.428 C  
BRANCH  12  13
HETATM   13  C   UNL     1     -12.409  12.695  64.955  1.00  0.00    -0.561 C  
BRANCH  13  14
HETATM   14  C   UNL     1     -11.855  12.834  66.371  1.00  0.00    -0.472 C  
BRANCH  14  15
HETATM   15  C   UNL     1     -11.157  11.566  66.853  1.00  0.00    -0.366 C  
BRANCH  15  16
HETATM   16  C   UNL     1     -11.603  11.216  68.274  1.00  0.00    -0.359 C  
HETATM   17  C   UNL     1     -11.752  12.462  69.132  1.00  0.00    -0.376 C  
ENDBRANCH  15  16
ENDBRANCH  14  15
ENDBRANCH  13  14
ENDBRANCH  12  13
ENDBRANCH  11  12
ENDBRANCH   9  11
ENDBRANCH   8   9
ENDBRANCH   7   8
ENDBRANCH   5   7
ENDBRANCH   2   5
TORSDOF 10
ENDMDL
MODEL       29
REMARK 921   NORMALIZED FREE ENERGY PREDICTED BY IDOCK:   -4.30 KCAL/MOL
REMARK 922        TOTAL FREE ENERGY PREDICTED BY IDOCK:   -7.30 KCAL/MOL
REMARK 923 INTER-LIGAND FREE ENERGY PREDICTED BY IDOCK:   -6.68 KCAL/MOL
REMARK 924 INTRA-LIGAND FREE ENERGY PREDICTED BY IDOCK:   -0.62 KCAL/MOL
REMARK 927      BINDING AFFINITY PREDICTED BY RF-SCORE:    0.00 PKD
ROOT
HETATM    1  N   UNL     1     -12.266  15.075  69.444  1.00  0.00    -0.526 NA 
HETATM    2  C   UNL     1     -11.690  14.196  68.426  1.00  0.00    -0.345 C  
HETATM    3  H1  UNL     1     -13.130  14.675  69.810  1.00  0.00     0.000 HD 
HETATM    4  H2  UNL     1     -12.403  16.023  69.095  1.00  0.00     0.000 HD 
ENDROOT
BRANCH   2   5
HETATM    5  C   UNL     1     -10.392  14.796  67.876  1.00  0.00    -0.240 C  
HETATM    6  O   UNL     1      -9.287  14.477  68.315  1.00  0.00    -0.190 OA 
BRANCH   5   7
HETATM    7  C   UNL     1     -10.559  15.742  66.708  1.00  0.00    -0.309 C  
BRANCH   7   8
HETATM    8  C   UNL     1     -10.529  15.025  65.365  1.00  0.00    -0.406 C  
BRANCH   8   9
HETATM    9  C   UNL     1     -11.616  15.469  64.413  1.00  0.00    -0.258 C  
HETATM   10  O   UNL     1     -11.636  16.554  63.853  1.00  0.00    -1.175 OA 
BRANCH   9  11
HETATM   11  O   UNL     1     -12.646  14.577  64.415  1.00  0.00    -0.665 OA 
BRANCH  11  12
HETATM   12  C   UNL     1     -12.273  13.249  64.786  1.00  0.00    -0.417 C  
BRANCH  12  13
HETATM   13  C   UNL     1     -12.222  12.319  63.585  1.00  0.00    -0.665 C  
BRANCH  13  14
HETATM   14  C   UNL     1     -10.785  11.842  63.385  1.00  0.00    -0.476 C  
BRANCH  14  15
HETATM   15  C   UNL     1     -10.072  11.565  64.704  1.00  0.00    -0.318 C  
BRANCH  15  16
HETATM   16  C   UNL     1      -9.695  10.086  64.810  1.00  0.00    -0.363 C  
HETATM   17  C   UNL     1     -10.106   9.503  66.152  1.00  0.00    -0.326 C  
ENDBRANCH  15  16
ENDBRANCH  14  15
ENDBRANCH  13  14
ENDBRANCH  12  13
ENDBRANCH  11  12
ENDBRANCH   9  11
ENDBRANCH   8   9
ENDBRANCH   7   8
ENDBRANCH   5   7
ENDBRANCH   2   5
TORSDOF 10
ENDMDL
MODEL       30
REMARK 921   NORMALIZED FREE ENERGY PREDICTED BY IDOCK:   -4.28 KCAL/MOL
REMARK 922        TOTAL FREE ENERGY PREDICTED BY IDOCK:   -7.27 KCAL/MOL
REMARK 923 INTER-LIGAND FREE ENERGY PREDICTED BY IDOCK:   -6.86 KCAL/MOL
REMARK 924 INTRA-LIGAND FREE ENERGY PREDICTED BY IDOCK:   -0.42 KCAL/MOL
REMARK 927      BINDING AFFINITY PREDICTED BY RF-SCORE:    0.00 PKD
ROOT
HETATM    1  N   UNL     1      -9.043  11.726  63.198  1.00  0.00    -0.642 NA 
HETATM    2  C   UNL     1     -10.414  11.262  63.413  1.00  0.00    -0.361 C  
HETATM    3  H1  UNL     1      -8.553  11.102  62.557  1.00  0.00     0.000 HD 
HETATM    4  H2  UNL     1      -8.540  11.842  64.077  1.00  0.00     0.000 HD 
ENDROOT
BRANCH   2   5
HETATM    5  C   UNL     1     -11.151  12.199  64.375  1.00  0.00    -0.333 C  
HETATM    6  O   UNL     1     -11.058  12.086  65.597  1.00  0.00    -0.295 OA 
BRANCH   5   7
HETATM    7  C   UNL     1     -11.932  13.316  63.719  1.00  0.00    -0.551 C  
BRANCH   7   8
HETATM    8  C   UNL     1     -12.290  14.430  64.694  1.00  0.00    -0.435 C  
BRANCH   8   9
HETATM    9  C   UNL     1     -11.372  15.628  64.613  1.00  0.00    -0.349 C  
HETATM   10  O   UNL     1     -11.634  16.652  64.001  1.00  0.00    -1.197 OA 
BRANCH   9  11
HETATM   11  O   UNL     1     -10.156  15.335  65.154  1.00  0.00    -0.345 OA 
BRANCH  11  12
HETATM   12  C   UNL     1      -9.860  16.049  66.355  1.00  0.00    -0.288 C  
BRANCH  12  13
HETATM   13  C   UNL     1      -8.519  16.760  66.273  1.00  0.00    -0.342 C  
BRANCH  13  14
HETATM   14  C   UNL     1      -8.580  18.037  67.109  1.00  0.00    -0.244 C  
BRANCH  14  15
HETATM   15  C   UNL     1      -9.123  19.226  66.323  1.00  0.00    -0.354 C  
BRANCH  15  16
HETATM   16  C   UNL     1     -10.400  19.761  66.974  1.00  0.00    -0.593 C  
HETATM   17  C   UNL     1     -10.221  19.953  68.471  1.00  0.00    -0.529 C  
ENDBRANCH  15  16
ENDBRANCH  14  15
ENDBRANCH  13  14
ENDBRANCH  12  13
ENDBRANCH  11  12
ENDBRANCH   9  11
ENDBRANCH   8   9
ENDBRANCH   7   8
ENDBRANCH   5   7
ENDBRANCH   2   5
TORSDOF 10
ENDMDL
MODEL       31
REMARK 921   NORMALIZED FREE ENERGY PREDICTED BY IDOCK:   -4.27 KCAL/MOL
REMARK 922        TOTAL FREE ENERGY PREDICTED BY IDOCK:   -7.25 KCAL/MOL
REMARK 923 INTER-LIGAND FREE ENERGY PREDICTED BY IDOCK:   -6.62 KCAL/MOL
REMARK 924 INTRA-LIGAND FREE ENERGY PREDICTED BY IDOCK:   -0.63 KCAL/MOL
REMARK 927      BINDING AFFINITY PREDICTED BY RF-SCORE:    0.00 PKD
ROOT
HETATM    1  N   UNL     1     -14.294   8.860  73.027  1.00  0.00    -1.154 NA 
HETATM    2  C   UNL     1     -13.231   8.794  72.024  1.00  0.00    -0.395 C  
HETATM    3  H1  UNL     1     -14.602   7.921  73.281  1.00  0.00     0.000 HD 
HETATM    4  H2  UNL     1     -15.071   9.445  72.718  1.00  0.00     0.000 HD 
ENDROOT
BRANCH   2   5
HETATM    5  C   UNL     1     -12.768  10.203  71.643  1.00  0.00    -0.447 C  
HETATM    6  O   UNL     1     -13.346  11.212  72.044  1.00  0.00    -0.454 OA 
BRANCH   5   7
HETATM    7  C   UNL     1     -11.509  10.267  70.806  1.00  0.00    -0.438 C  
BRANCH   7   8
HETATM    8  C   UNL     1     -11.561  11.368  69.755  1.00  0.00    -0.407 C  
BRANCH   8   9
HETATM    9  C   UNL     1     -11.426  10.863  68.337  1.00  0.00    -0.304 C  
HETATM   10  O   UNL     1     -10.717   9.924  68.008  1.00  0.00    -0.224 OA 
BRANCH   9  11
HETATM   11  O   UNL     1     -12.052  11.705  67.468  1.00  0.00    -0.611 OA 
BRANCH  11  12
HETATM   12  C   UNL     1     -11.193  12.672  66.864  1.00  0.00    -0.300 C  
BRANCH  12  13
HETATM   13  C   UNL     1     -11.680  14.091  67.106  1.00  0.00    -0.421 C  
BRANCH  13  14
HETATM   14  C   UNL     1     -10.932  14.677  68.301  1.00  0.00    -0.261 C  
BRANCH  14  15
HETATM   15  C   UNL     1     -11.688  15.828  68.958  1.00  0.00    -0.405 C  
BRANCH  15  16
HETATM   16  C   UNL     1     -11.562  15.753  70.480  1.00  0.00    -0.396 C  
HETATM   17  C   UNL     1     -12.578  14.790  71.074  1.00  0.00    -0.401 C  
ENDBRANCH  15  16
ENDBRANCH  14  15
ENDBRANCH  13  14
ENDBRANCH  12  13
ENDBRANCH  11  12
ENDBRANCH   9  11
ENDBRANCH   8   9
ENDBRANCH   7   8
ENDBRANCH   5   7
ENDBRANCH   2   5
TORSDOF 10
ENDMDL
MODEL       32
REMARK 921   NORMALIZED FREE ENERGY PREDICTED BY IDOCK:   -4.26 KCAL/MOL
REMARK 922        TOTAL FREE ENERGY PREDICTED BY IDOCK:   -7.24 KCAL/MOL
REMARK 923 INTER-LIGAND FREE ENERGY PREDICTED BY IDOCK:   -6.77 KCAL/MOL
REMARK 924 INTRA-LIGAND FREE ENERGY PREDICTED BY IDOCK:   -0.47 KCAL/MOL
REMARK 927      BINDING AFFINITY PREDICTED BY RF-SCORE:    0.00 PKD
ROOT
HETATM    1  N   UNL     1     -10.394  19.566  68.881  1.00  0.00    -0.570 NA 
HETATM    2  C   UNL     1      -9.495  19.845  67.760  1.00  0.00    -0.362 C  
HETATM    3  H1  UNL     1     -10.052  20.015  69.731  1.00  0.00     0.000 HD 
HETATM    4  H2  UNL     1     -10.539  18.565  69.011  1.00  0.00     0.000 HD 
ENDROOT
BRANCH   2   5
HETATM    5  C   UNL     1     -10.009  19.171  66.484  1.00  0.00    -0.383 C  
HETATM    6  O   UNL     1     -10.768  19.743  65.703  1.00  0.00    -0.505 OA 
BRANCH   5   7
HETATM    7  C   UNL     1      -9.455  17.789  66.214  1.00  0.00    -0.232 C  
BRANCH   7   8
HETATM    8  C   UNL     1     -10.505  16.697  66.378  1.00  0.00    -0.266 C  
BRANCH   8   9
HETATM    9  C   UNL     1     -10.957  16.087  65.071  1.00  0.00    -0.380 C  
HETATM   10  O   UNL     1     -11.348  16.734  64.111  1.00  0.00    -1.194 OA 
BRANCH   9  11
HETATM   11  O   UNL     1     -11.041  14.732  65.180  1.00  0.00    -0.341 OA 
BRANCH  11  12
HETATM   12  C   UNL     1     -11.617  14.275  66.405  1.00  0.00    -0.372 C  
BRANCH  12  13
HETATM   13  C   UNL     1     -11.422  12.780  66.598  1.00  0.00    -0.404 C  
BRANCH  13  14
HETATM   14  C   UNL     1     -10.212  12.327  65.785  1.00  0.00    -0.281 C  
BRANCH  14  15
HETATM   15  C   UNL     1     -10.509  11.099  64.929  1.00  0.00    -0.372 C  
BRANCH  15  16
HETATM   16  C   UNL     1     -10.825  11.513  63.491  1.00  0.00    -0.473 C  
HETATM   17  C   UNL     1     -12.214  12.120  63.380  1.00  0.00    -0.635 C  
ENDBRANCH  15  16
ENDBRANCH  14  15
ENDBRANCH  13  14
ENDBRANCH  12  13
ENDBRANCH  11  12
ENDBRANCH   9  11
ENDBRANCH   8   9
ENDBRANCH   7   8
ENDBRANCH   5   7
ENDBRANCH   2   5
TORSDOF 10
ENDMDL
MODEL       33
REMARK 921   NORMALIZED FREE ENERGY PREDICTED BY IDOCK:   -4.25 KCAL/MOL
REMARK 922        TOTAL FREE ENERGY PREDICTED BY IDOCK:   -7.22 KCAL/MOL
REMARK 923 INTER-LIGAND FREE ENERGY PREDICTED BY IDOCK:   -6.78 KCAL/MOL
REMARK 924 INTRA-LIGAND FREE ENERGY PREDICTED BY IDOCK:   -0.44 KCAL/MOL
REMARK 927      BINDING AFFINITY PREDICTED BY RF-SCORE:    0.00 PKD
ROOT
HETATM    1  N   UNL     1     -10.077  13.058  63.917  1.00  0.00    -0.757 NA 
HETATM    2  C   UNL     1     -11.384  13.691  64.096  1.00  0.00    -0.304 C  
HETATM    3  H1  UNL     1      -9.450  13.677  63.402  1.00  0.00     0.000 HD 
HETATM    4  H2  UNL     1     -10.156  12.143  63.474  1.00  0.00     0.000 HD 
ENDROOT
BRANCH   2   5
HETATM    5  C   UNL     1     -12.326  12.763  64.868  1.00  0.00    -0.490 C  
HETATM    6  O   UNL     1     -13.366  12.328  64.375  1.00  0.00    -0.786 OA 
BRANCH   5   7
HETATM    7  C   UNL     1     -11.848  12.356  66.245  1.00  0.00    -0.431 C  
BRANCH   7   8
HETATM    8  C   UNL     1     -11.856  13.515  67.233  1.00  0.00    -0.427 C  
BRANCH   8   9
HETATM    9  C   UNL     1     -11.902  13.082  68.680  1.00  0.00    -0.318 C  
HETATM   10  O   UNL     1     -11.780  13.841  69.628  1.00  0.00    -0.284 OA 
BRANCH   9  11
HETATM   11  O   UNL     1     -11.914  11.722  68.771  1.00  0.00    -0.315 OA 
BRANCH  11  12
HETATM   12  C   UNL     1     -12.089  11.222  70.097  1.00  0.00    -0.366 C  
BRANCH  12  13
HETATM   13  C   UNL     1     -11.193  10.027  70.374  1.00  0.00    -0.393 C  
BRANCH  13  14
HETATM   14  C   UNL     1     -11.776   9.225  71.535  1.00  0.00    -0.450 C  
BRANCH  14  15
HETATM   15  C   UNL     1     -13.214   9.622  71.856  1.00  0.00    -0.538 C  
BRANCH  15  16
HETATM   16  C   UNL     1     -14.144   8.414  71.735  1.00  0.00    -0.509 C  
HETATM   17  C   UNL     1     -13.363   7.136  71.472  1.00  0.00    -0.413 C  
ENDBRANCH  15  16
ENDBRANCH  14  15
ENDBRANCH  13  14
ENDBRANCH  12  13
ENDBRANCH  11  12
ENDBRANCH   9  11
ENDBRANCH   8   9
ENDBRANCH   7   8
ENDBRANCH   5   7
ENDBRANCH   2   5
TORSDOF 10
ENDMDL
MODEL       34
REMARK 921   NORMALIZED FREE ENERGY PREDICTED BY IDOCK:   -4.25 KCAL/MOL
REMARK 922        TOTAL FREE ENERGY PREDICTED BY IDOCK:   -7.22 KCAL/MOL
REMARK 923 INTER-LIGAND FREE ENERGY PREDICTED BY IDOCK:   -6.83 KCAL/MOL
REMARK 924 INTRA-LIGAND FREE ENERGY PREDICTED BY IDOCK:   -0.39 KCAL/MOL
REMARK 927      BINDING AFFINITY PREDICTED BY RF-SCORE:    0.00 PKD
ROOT
HETATM    1  N   UNL     1      -8.922  16.403  65.804  1.00  0.00    -0.444 NA 
HETATM    2  C   UNL     1     -10.287  16.083  66.221  1.00  0.00    -0.321 C  
HETATM    3  H1  UNL     1      -8.282  16.328  66.596  1.00  0.00     0.000 HD 
HETATM    4  H2  UNL     1      -8.866  17.317  65.356  1.00  0.00     0.000 HD 
ENDROOT
BRANCH   2   5
HETATM    5  C   UNL     1     -11.248  16.195  65.034  1.00  0.00    -0.220 C  
HETATM    6  O   UNL     1     -11.286  17.194  64.315  1.00  0.00    -1.126 OA 
BRANCH   5   7
HETATM    7  C   UNL     1     -12.087  14.966  64.761  1.00  0.00    -0.335 C  
BRANCH   7   8
HETATM    8  C   UNL     1     -12.029  13.954  65.898  1.00  0.00    -0.429 C  
BRANCH   8   9
HETATM    9  C   UNL     1     -12.361  12.542  65.473  1.00  0.00    -0.295 C  
HETATM   10  O   UNL     1     -13.104  12.262  64.545  1.00  0.00    -0.791 OA 
BRANCH   9  11
HETATM   11  O   UNL     1     -11.870  11.645  66.374  1.00  0.00    -0.470 OA 
BRANCH  11  12
HETATM   12  C   UNL     1     -11.646  12.183  67.678  1.00  0.00    -0.343 C  
BRANCH  12  13
HETATM   13  C   UNL     1     -10.874  11.219  68.562  1.00  0.00    -0.245 C  
BRANCH  13  14
HETATM   14  C   UNL     1     -11.634  11.027  69.873  1.00  0.00    -0.416 C  
BRANCH  14  15
HETATM   15  C   UNL     1     -11.167   9.798  70.646  1.00  0.00    -0.402 C  
BRANCH  15  16
HETATM   16  C   UNL     1     -12.204   9.399  71.697  1.00  0.00    -0.467 C  
HETATM   17  C   UNL     1     -13.200  10.520  71.947  1.00  0.00    -0.526 C  
ENDBRANCH  15  16
ENDBRANCH  14  15
ENDBRANCH  13  14
ENDBRANCH  12  13
ENDBRANCH  11  12
ENDBRANCH   9  11
ENDBRANCH   8   9
ENDBRANCH   7   8
ENDBRANCH   5   7
ENDBRANCH   2   5
TORSDOF 10
ENDMDL
MODEL       35
REMARK 921   NORMALIZED FREE ENERGY PREDICTED BY IDOCK:   -4.25 KCAL/MOL
REMARK 922        TOTAL FREE ENERGY PREDICTED BY IDOCK:   -7.21 KCAL/MOL
REMARK 923 INTER-LIGAND FREE ENERGY PREDICTED BY IDOCK:   -6.52 KCAL/MOL
REMARK 924 INTRA-LIGAND FREE ENERGY PREDICTED BY IDOCK:   -0.69 KCAL/MOL
REMARK 927      BINDING AFFINITY PREDICTED BY RF-SCORE:    0.00 PKD
ROOT
HETATM    1  N   UNL     1     -13.904  13.084  72.463  1.00  0.00    -0.693 NA 
HETATM    2  C   UNL     1     -14.324  14.411  72.012  1.00  0.00    -0.553 C  
HETATM    3  H1  UNL     1     -14.581  12.379  72.171  1.00  0.00     0.000 HD 
HETATM    4  H2  UNL     1     -13.739  13.060  73.469  1.00  0.00     0.000 HD 
ENDROOT
BRANCH   2   5
HETATM    5  C   UNL     1     -13.307  15.470  72.449  1.00  0.00    -0.483 C  
HETATM    6  O   UNL     1     -13.463  16.145  73.466  1.00  0.00    -0.638 OA 
BRANCH   5   7
HETATM    7  C   UNL     1     -12.067  15.571  71.589  1.00  0.00    -0.471 C  
BRANCH   7   8
HETATM    8  C   UNL     1     -12.344  15.262  70.124  1.00  0.00    -0.392 C  
BRANCH   8   9
HETATM    9  C   UNL     1     -11.686  13.993  69.634  1.00  0.00    -0.311 C  
HETATM   10  O   UNL     1     -11.907  12.884  70.096  1.00  0.00    -0.311 OA 
BRANCH   9  11
HETATM   11  O   UNL     1     -10.693  14.281  68.747  1.00  0.00    -0.242 OA 
BRANCH  11  12
HETATM   12  C   UNL     1     -11.088  15.147  67.683  1.00  0.00    -0.318 C  
BRANCH  12  13
HETATM   13  C   UNL     1     -11.571  14.369  66.470  1.00  0.00    -0.388 C  
BRANCH  13  14
HETATM   14  C   UNL     1     -10.385  14.097  65.548  1.00  0.00    -0.368 C  
BRANCH  14  15
HETATM   15  C   UNL     1     -10.409  12.687  64.965  1.00  0.00    -0.320 C  
BRANCH  15  16
HETATM   16  C   UNL     1     -11.848  12.190  64.823  1.00  0.00    -0.385 C  
HETATM   17  C   UNL     1     -12.287  12.168  63.368  1.00  0.00    -0.648 C  
ENDBRANCH  15  16
ENDBRANCH  14  15
ENDBRANCH  13  14
ENDBRANCH  12  13
ENDBRANCH  11  12
ENDBRANCH   9  11
ENDBRANCH   8   9
ENDBRANCH   7   8
ENDBRANCH   5   7
ENDBRANCH   2   5
TORSDOF 10
ENDMDL
MODEL       36
REMARK 921   NORMALIZED FREE ENERGY PREDICTED BY IDOCK:   -4.25 KCAL/MOL
REMARK 922        TOTAL FREE ENERGY PREDICTED BY IDOCK:   -7.21 KCAL/MOL
REMARK 923 INTER-LIGAND FREE ENERGY PREDICTED BY IDOCK:   -6.78 KCAL/MOL
REMARK 924 INTRA-LIGAND FREE ENERGY PREDICTED BY IDOCK:   -0.43 KCAL/MOL
REMARK 927      BINDING AFFINITY PREDICTED BY RF-SCORE:    0.00 PKD
ROOT
HETATM    1  N   UNL     1     -12.407  11.482  63.178  1.00  0.00    -0.932 NA 
HETATM    2  C   UNL     1     -11.469  12.420  63.796  1.00  0.00    -0.467 C  
HETATM    3  H1  UNL     1     -11.916  10.645  62.861  1.00  0.00     0.000 HD 
HETATM    4  H2  UNL     1     -12.941  11.918  62.427  1.00  0.00     0.000 HD 
ENDROOT
BRANCH   2   5
HETATM    5  C   UNL     1     -12.205  13.675  64.273  1.00  0.00    -0.396 C  
HETATM    6  O   UNL     1     -12.611  14.532  63.489  1.00  0.00    -0.746 OA 
BRANCH   5   7
HETATM    7  C   UNL     1     -12.465  13.747  65.762  1.00  0.00    -0.527 C  
BRANCH   7   8
HETATM    8  C   UNL     1     -11.239  13.382  66.588  1.00  0.00    -0.330 C  
BRANCH   8   9
HETATM    9  C   UNL     1     -11.231  13.996  67.969  1.00  0.00    -0.279 C  
HETATM   10  O   UNL     1     -11.197  13.352  69.006  1.00  0.00    -0.259 OA 
BRANCH   9  11
HETATM   11  O   UNL     1     -11.450  15.339  67.895  1.00  0.00    -0.328 OA 
BRANCH  11  12
HETATM   12  C   UNL     1     -10.290  16.108  67.573  1.00  0.00    -0.286 C  
BRANCH  12  13
HETATM   13  C   UNL     1     -10.566  17.601  67.633  1.00  0.00    -0.364 C  
BRANCH  13  14
HETATM   14  C   UNL     1     -10.381  18.198  66.240  1.00  0.00    -0.407 C  
BRANCH  14  15
HETATM   15  C   UNL     1     -10.284  19.720  66.265  1.00  0.00    -0.615 C  
BRANCH  15  16
HETATM   16  C   UNL     1      -9.646  20.196  67.571  1.00  0.00    -0.547 C  
HETATM   17  C   UNL     1      -8.230  20.702  67.345  1.00  0.00    -0.296 C  
ENDBRANCH  15  16
ENDBRANCH  14  15
ENDBRANCH  13  14
ENDBRANCH  12  13
ENDBRANCH  11  12
ENDBRANCH   9  11
ENDBRANCH   8   9
ENDBRANCH   7   8
ENDBRANCH   5   7
ENDBRANCH   2   5
TORSDOF 10
ENDMDL
MODEL       37
REMARK 921   NORMALIZED FREE ENERGY PREDICTED BY IDOCK:   -4.23 KCAL/MOL
REMARK 922        TOTAL FREE ENERGY PREDICTED BY IDOCK:   -7.19 KCAL/MOL
REMARK 923 INTER-LIGAND FREE ENERGY PREDICTED BY IDOCK:   -6.70 KCAL/MOL
REMARK 924 INTRA-LIGAND FREE ENERGY PREDICTED BY IDOCK:   -0.49 KCAL/MOL
REMARK 927      BINDING AFFINITY PREDICTED BY RF-SCORE:    0.00 PKD
ROOT
HETATM    1  N   UNL     1      -9.977  13.523  64.943  1.00  0.00    -0.602 NA 
HETATM    2  C   UNL     1     -10.048  12.914  66.271  1.00  0.00    -0.276 C  
HETATM    3  H1  UNL     1      -9.005  13.641  64.657  1.00  0.00     0.000 HD 
HETATM    4  H2  UNL     1     -10.496  14.400  64.899  1.00  0.00     0.000 HD 
ENDROOT
BRANCH   2   5
HETATM    5  C   UNL     1     -11.507  12.737  66.700  1.00  0.00    -0.350 C  
HETATM    6  O   UNL     1     -12.390  12.424  65.902  1.00  0.00    -0.638 OA 
BRANCH   5   7
HETATM    7  C   UNL     1     -11.771  12.895  68.182  1.00  0.00    -0.395 C  
BRANCH   7   8
HETATM    8  C   UNL     1     -11.263  11.712  68.996  1.00  0.00    -0.323 C  
BRANCH   8   9
HETATM    9  C   UNL     1     -11.934  11.567  70.342  1.00  0.00    -0.368 C  
HETATM   10  O   UNL     1     -11.846  10.574  71.048  1.00  0.00    -0.350 OA 
BRANCH   9  11
HETATM   11  O   UNL     1     -12.785  12.607  70.566  1.00  0.00    -0.134 OA 
BRANCH  11  12
HETATM   12  C   UNL     1     -13.266  12.695  71.908  1.00  0.00    -0.403 C  
BRANCH  12  13
HETATM   13  C   UNL     1     -14.266  13.827  72.077  1.00  0.00    -0.463 C  
BRANCH  13  14
HETATM   14  C   UNL     1     -13.766  15.052  71.315  1.00  0.00    -0.523 C  
BRANCH  14  15
HETATM   15  C   UNL     1     -12.639  15.776  72.047  1.00  0.00    -0.524 C  
BRANCH  15  16
HETATM   16  C   UNL     1     -13.097  16.209  73.440  1.00  0.00    -0.595 C  
HETATM   17  C   UNL     1     -12.308  15.501  74.529  1.00  0.00    -0.756 C  
ENDBRANCH  15  16
ENDBRANCH  14  15
ENDBRANCH  13  14
ENDBRANCH  12  13
ENDBRANCH  11  12
ENDBRANCH   9  11
ENDBRANCH   8   9
ENDBRANCH   7   8
ENDBRANCH   5   7
ENDBRANCH   2   5
TORSDOF 10
ENDMDL
MODEL       38
REMARK 921   NORMALIZED FREE ENERGY PREDICTED BY IDOCK:   -4.22 KCAL/MOL
REMARK 922        TOTAL FREE ENERGY PREDICTED BY IDOCK:   -7.18 KCAL/MOL
REMARK 923 INTER-LIGAND FREE ENERGY PREDICTED BY IDOCK:   -6.60 KCAL/MOL
REMARK 924 INTRA-LIGAND FREE ENERGY PREDICTED BY IDOCK:   -0.58 KCAL/MOL
REMARK 927      BINDING AFFINITY PREDICTED BY RF-SCORE:    0.00 PKD
ROOT
HETATM    1  N   UNL     1     -11.225  11.239  63.138  1.00  0.00    -0.845 NA 
HETATM    2  C   UNL     1     -12.375  12.106  63.396  1.00  0.00    -0.538 C  
HETATM    3  H1  UNL     1     -11.311  10.798  62.222  1.00  0.00     0.000 HD 
HETATM    4  H2  UNL     1     -11.093  10.552  63.880  1.00  0.00     0.000 HD 
ENDROOT
BRANCH   2   5
HETATM    5  C   UNL     1     -12.246  12.768  64.771  1.00  0.00    -0.459 C  
HETATM    6  O   UNL     1     -12.192  12.112  65.811  1.00  0.00    -0.586 OA 
BRANCH   5   7
HETATM    7  C   UNL     1     -12.109  14.275  64.754  1.00  0.00    -0.457 C  
BRANCH   7   8
HETATM    8  C   UNL     1     -10.713  14.740  65.146  1.00  0.00    -0.433 C  
BRANCH   8   9
HETATM    9  C   UNL     1     -10.666  15.483  66.462  1.00  0.00    -0.304 C  
HETATM   10  O   UNL     1      -9.778  16.258  66.781  1.00  0.00    -0.226 OA 
BRANCH   9  11
HETATM   11  O   UNL     1     -11.640  15.030  67.300  1.00  0.00    -0.343 OA 
BRANCH  11  12
HETATM   12  C   UNL     1     -11.153  14.322  68.440  1.00  0.00    -0.256 C  
BRANCH  12  13
HETATM   13  C   UNL     1     -12.036  14.535  69.659  1.00  0.00    -0.375 C  
BRANCH  13  14
HETATM   14  C   UNL     1     -12.239  13.198  70.367  1.00  0.00    -0.389 C  
BRANCH  14  15
HETATM   15  C   UNL     1     -11.833  12.010  69.502  1.00  0.00    -0.390 C  
BRANCH  15  16
HETATM   16  C   UNL     1     -11.736  10.739  70.348  1.00  0.00    -0.445 C  
HETATM   17  C   UNL     1     -12.788  10.720  71.444  1.00  0.00    -0.557 C  
ENDBRANCH  15  16
ENDBRANCH  14  15
ENDBRANCH  13  14
ENDBRANCH  12  13
ENDBRANCH  11  12
ENDBRANCH   9  11
ENDBRANCH   8   9
ENDBRANCH   7   8
ENDBRANCH   5   7
ENDBRANCH   2   5
TORSDOF 10
ENDMDL
MODEL       39
REMARK 921   NORMALIZED FREE ENERGY PREDICTED BY IDOCK:   -4.22 KCAL/MOL
REMARK 922        TOTAL FREE ENERGY PREDICTED BY IDOCK:   -7.17 KCAL/MOL
REMARK 923 INTER-LIGAND FREE ENERGY PREDICTED BY IDOCK:   -6.72 KCAL/MOL
REMARK 924 INTRA-LIGAND FREE ENERGY PREDICTED BY IDOCK:   -0.45 KCAL/MOL
REMARK 927      BINDING AFFINITY PREDICTED BY RF-SCORE:    0.00 PKD
ROOT
HETATM    1  N   UNL     1     -12.899  16.301  74.430  1.00  0.00    -0.963 NA 
HETATM    2  C   UNL     1     -12.466  15.096  73.722  1.00  0.00    -0.586 C  
HETATM    3  H1  UNL     1     -12.561  16.288  75.392  1.00  0.00     0.000 HD 
HETATM    4  H2  UNL     1     -13.910  16.427  74.382  1.00  0.00     0.000 HD 
ENDROOT
BRANCH   2   5
HETATM    5  C   UNL     1     -12.972  15.114  72.277  1.00  0.00    -0.354 C  
HETATM    6  O   UNL     1     -12.562  15.930  71.451  1.00  0.00    -0.451 OA 
BRANCH   5   7
HETATM    7  C   UNL     1     -13.948  14.015  71.918  1.00  0.00    -0.537 C  
BRANCH   7   8
HETATM    8  C   UNL     1     -13.365  12.624  72.130  1.00  0.00    -0.570 C  
BRANCH   8   9
HETATM    9  C   UNL     1     -12.466  12.163  71.006  1.00  0.00    -0.269 C  
HETATM   10  O   UNL     1     -12.150  12.856  70.051  1.00  0.00    -0.324 OA 
BRANCH   9  11
HETATM   11  O   UNL     1     -12.215  10.828  71.113  1.00  0.00    -0.348 OA 
BRANCH  11  12
HETATM   12  C   UNL     1     -13.385  10.014  71.204  1.00  0.00    -0.305 C  
BRANCH  12  13
HETATM   13  C   UNL     1     -13.278   8.993  72.324  1.00  0.00    -0.519 C  
BRANCH  13  14
HETATM   14  C   UNL     1     -11.835   8.500  72.413  1.00  0.00    -0.437 C  
BRANCH  14  15
HETATM   15  C   UNL     1     -11.683   7.049  71.966  1.00  0.00    -0.332 C  
BRANCH  15  16
HETATM   16  C   UNL     1     -10.670   6.943  70.826  1.00  0.00    -0.262 C  
HETATM   17  C   UNL     1     -11.325   6.453  69.544  1.00  0.00    -0.460 C  
ENDBRANCH  15  16
ENDBRANCH  14  15
ENDBRANCH  13  14
ENDBRANCH  12  13
ENDBRANCH  11  12
ENDBRANCH   9  11
ENDBRANCH   8   9
ENDBRANCH   7   8
ENDBRANCH   5   7
ENDBRANCH   2   5
TORSDOF 10
ENDMDL
MODEL       40
REMARK 921   NORMALIZED FREE ENERGY PREDICTED BY IDOCK:   -4.21 KCAL/MOL
REMARK 922        TOTAL FREE ENERGY PREDICTED BY IDOCK:   -7.16 KCAL/MOL
REMARK 923 INTER-LIGAND FREE ENERGY PREDICTED BY IDOCK:   -6.44 KCAL/MOL
REMARK 924 INTRA-LIGAND FREE ENERGY PREDICTED BY IDOCK:   -0.72 KCAL/MOL
REMARK 927      BINDING AFFINITY PREDICTED BY RF-SCORE:    0.00 PKD
ROOT
HETATM    1  N   UNL     1      -7.192  18.342  65.518  1.00  0.00    -0.546 NA 
HETATM    2  C   UNL     1      -7.554  19.734  65.783  1.00  0.00    -0.289 C  
HETATM    3  H1  UNL     1      -6.551  18.285  64.726  1.00  0.00     0.000 HD 
HETATM    4  H2  UNL     1      -8.015  17.754  65.384  1.00  0.00     0.000 HD 
ENDROOT
BRANCH   2   5
HETATM    5  C   UNL     1      -8.516  19.819  66.971  1.00  0.00    -0.319 C  
HETATM    6  O   UNL     1      -8.116  19.914  68.131  1.00  0.00    -0.304 OA 
BRANCH   5   7
HETATM    7  C   UNL     1      -9.986  19.857  66.613  1.00  0.00    -0.578 C  
BRANCH   7   8
HETATM    8  C   UNL     1     -10.773  18.720  67.252  1.00  0.00    -0.490 C  
BRANCH   8   9
HETATM    9  C   UNL     1     -10.592  17.390  66.558  1.00  0.00    -0.184 C  
HETATM   10  O   UNL     1     -10.323  17.265  65.373  1.00  0.00    -0.626 OA 
BRANCH   9  11
HETATM   11  O   UNL     1     -10.949  16.367  67.385  1.00  0.00    -0.263 OA 
BRANCH  11  12
HETATM   12  C   UNL     1     -10.552  15.074  66.926  1.00  0.00    -0.297 C  
BRANCH  12  13
HETATM   13  C   UNL     1     -11.673  14.057  67.063  1.00  0.00    -0.425 C  
BRANCH  13  14
HETATM   14  C   UNL     1     -12.522  14.077  65.794  1.00  0.00    -0.523 C  
BRANCH  14  15
HETATM   15  C   UNL     1     -12.469  12.756  65.034  1.00  0.00    -0.572 C  
BRANCH  15  16
HETATM   16  C   UNL     1     -11.694  12.921  63.726  1.00  0.00    -0.557 C  
HETATM   17  C   UNL     1     -10.371  12.173  63.766  1.00  0.00    -0.465 C  
ENDBRANCH  15  16
ENDBRANCH  14  15
ENDBRANCH  13  14
ENDBRANCH  12  13
ENDBRANCH  11  12
ENDBRANCH   9  11
ENDBRANCH   8   9
ENDBRANCH   7   8
ENDBRANCH   5   7
ENDBRANCH   2   5
TORSDOF 10
ENDMDL
MODEL       41
REMARK 921   NORMALIZED FREE ENERGY PREDICTED BY IDOCK:   -4.21 KCAL/MOL
REMARK 922        TOTAL FREE ENERGY PREDICTED BY IDOCK:   -7.15 KCAL/MOL
REMARK 923 INTER-LIGAND FREE ENERGY PREDICTED BY IDOCK:   -6.76 KCAL/MOL
REMARK 924 INTRA-LIGAND FREE ENERGY PREDICTED BY IDOCK:   -0.39 KCAL/MOL
REMARK 927      BINDING AFFINITY PREDICTED BY RF-SCORE:    0.00 PKD
ROOT
HETATM    1  N   UNL     1      -8.740  17.318  65.752  1.00  0.00    -0.500 NA 
HETATM    2  C   UNL     1     -10.188  17.282  65.963  1.00  0.00    -0.304 C  
HETATM    3  H1  UNL     1      -8.304  17.981  66.394  1.00  0.00     0.000 HD 
HETATM    4  H2  UNL     1      -8.503  17.517  64.780  1.00  0.00     0.000 HD 
ENDROOT
BRANCH   2   5
HETATM    5  C   UNL     1     -10.843  16.287  65.001  1.00  0.00    -0.320 C  
HETATM    6  O   UNL     1     -11.473  16.654  64.009  1.00  0.00    -1.192 OA 
BRANCH   5   7
HETATM    7  C   UNL     1     -10.594  14.827  65.311  1.00  0.00    -0.414 C  
BRANCH   7   8
HETATM    8  C   UNL     1     -11.857  13.982  65.199  1.00  0.00    -0.370 C  
BRANCH   8   9
HETATM    9  C   UNL     1     -11.627  12.509  65.446  1.00  0.00    -0.375 C  
HETATM   10  O   UNL     1     -11.188  11.734  64.611  1.00  0.00    -0.315 OA 
BRANCH   9  11
HETATM   11  O   UNL     1     -12.146  12.140  66.651  1.00  0.00    -0.622 OA 
BRANCH  11  12
HETATM   12  C   UNL     1     -11.239  12.272  67.747  1.00  0.00    -0.276 C  
BRANCH  12  13
HETATM   13  C   UNL     1     -11.961  12.245  69.084  1.00  0.00    -0.303 C  
BRANCH  13  14
HETATM   14  C   UNL     1     -12.309  13.675  69.491  1.00  0.00    -0.232 C  
BRANCH  14  15
HETATM   15  C   UNL     1     -12.213  13.894  70.998  1.00  0.00    -0.421 C  
BRANCH  15  16
HETATM   16  C   UNL     1     -12.866  15.221  71.389  1.00  0.00    -0.485 C  
HETATM   17  C   UNL     1     -11.925  16.080  72.218  1.00  0.00    -0.633 C  
ENDBRANCH  15  16
ENDBRANCH  14  15
ENDBRANCH  13  14
ENDBRANCH  12  13
ENDBRANCH  11  12
ENDBRANCH   9  11
ENDBRANCH   8   9
ENDBRANCH   7   8
ENDBRANCH   5   7
ENDBRANCH   2   5
TORSDOF 10
ENDMDL
MODEL       42
REMARK 921   NORMALIZED FREE ENERGY PREDICTED BY IDOCK:   -4.20 KCAL/MOL
REMARK 922        TOTAL FREE ENERGY PREDICTED BY IDOCK:   -7.15 KCAL/MOL
REMARK 923 INTER-LIGAND FREE ENERGY PREDICTED BY IDOCK:   -6.29 KCAL/MOL
REMARK 924 INTRA-LIGAND FREE ENERGY PREDICTED BY IDOCK:   -0.85 KCAL/MOL
REMARK 927      BINDING AFFINITY PREDICTED BY RF-SCORE:    0.00 PKD
ROOT
HETATM    1  N   UNL     1     -11.566  16.356  63.935  1.00  0.00    -1.602 NA 
HETATM    2  C   UNL     1     -12.469  15.256  64.270  1.00  0.00     0.004 C  
HETATM    3  H1  UNL     1     -12.069  17.088  63.432  1.00  0.00     0.000 HD 
HETATM    4  H2  UNL     1     -10.748  16.033  63.419  1.00  0.00     0.000 HD 
ENDROOT
BRANCH   2   5
HETATM    5  C   UNL     1     -11.715  14.157  65.026  1.00  0.00    -0.376 C  
HETATM    6  O   UNL     1     -12.286  13.166  65.480  1.00  0.00    -0.411 OA 
BRANCH   5   7
HETATM    7  C   UNL     1     -10.215  14.339  65.106  1.00  0.00    -0.414 C  
BRANCH   7   8
HETATM    8  C   UNL     1      -9.706  14.371  66.540  1.00  0.00    -0.305 C  
BRANCH   8   9
HETATM    9  C   UNL     1     -10.379  15.414  67.402  1.00  0.00    -0.262 C  
HETATM   10  O   UNL     1     -10.637  16.549  67.030  1.00  0.00    -0.310 OA 
BRANCH   9  11
HETATM   11  O   UNL     1     -10.486  14.975  68.687  1.00  0.00    -0.226 OA 
BRANCH  11  12
HETATM   12  C   UNL     1     -11.830  14.793  69.136  1.00  0.00    -0.305 C  
BRANCH  12  13
HETATM   13  C   UNL     1     -12.014  13.459  69.842  1.00  0.00    -0.408 C  
BRANCH  13  14
HETATM   14  C   UNL     1     -11.718  12.330  68.858  1.00  0.00    -0.380 C  
BRANCH  14  15
HETATM   15  C   UNL     1     -12.089  10.958  69.413  1.00  0.00    -0.362 C  
BRANCH  15  16
HETATM   16  C   UNL     1     -12.031  10.965  70.941  1.00  0.00    -0.416 C  
HETATM   17  C   UNL     1     -13.001   9.959  71.539  1.00  0.00    -0.523 C  
ENDBRANCH  15  16
ENDBRANCH  14  15
ENDBRANCH  13  14
ENDBRANCH  12  13
ENDBRANCH  11  12
ENDBRANCH   9  11
ENDBRANCH   8   9
ENDBRANCH   7   8
ENDBRANCH   5   7
ENDBRANCH   2   5
TORSDOF 10
ENDMDL
MODEL       43
REMARK 921   NORMALIZED FREE ENERGY PREDICTED BY IDOCK:   -4.19 KCAL/MOL
REMARK 922        TOTAL FREE ENERGY PREDICTED BY IDOCK:   -7.12 KCAL/MOL
REMARK 923 INTER-LIGAND FREE ENERGY PREDICTED BY IDOCK:   -6.50 KCAL/MOL
REMARK 924 INTRA-LIGAND FREE ENERGY PREDICTED BY IDOCK:   -0.62 KCAL/MOL
REMARK 927      BINDING AFFINITY PREDICTED BY RF-SCORE:    0.00 PKD
ROOT
HETATM    1  N   UNL     1     -13.239  12.292  64.470  1.00  0.00    -0.712 NA 
HETATM    2  C   UNL     1     -12.312  12.128  63.350  1.00  0.00    -0.538 C  
HETATM    3  H1  UNL     1     -14.188  12.052  64.184  1.00  0.00     0.000 HD 
HETATM    4  H2  UNL     1     -13.187  13.228  64.872  1.00  0.00     0.000 HD 
ENDROOT
BRANCH   2   5
HETATM    5  C   UNL     1     -10.886  12.487  63.779  1.00  0.00    -0.446 C  
HETATM    6  O   UNL     1      -9.927  11.753  63.543  1.00  0.00    -0.356 OA 
BRANCH   5   7
HETATM    7  C   UNL     1     -10.731  13.840  64.441  1.00  0.00    -0.333 C  
BRANCH   7   8
HETATM    8  C   UNL     1     -10.201  13.736  65.865  1.00  0.00    -0.322 C  
BRANCH   8   9
HETATM    9  C   UNL     1     -11.193  14.177  66.916  1.00  0.00    -0.317 C  
HETATM   10  O   UNL     1     -12.399  13.994  66.842  1.00  0.00    -0.418 OA 
BRANCH   9  11
HETATM   11  O   UNL     1     -10.582  14.958  67.851  1.00  0.00    -0.248 OA 
BRANCH  11  12
HETATM   12  C   UNL     1     -11.481  15.688  68.687  1.00  0.00    -0.375 C  
BRANCH  12  13
HETATM   13  C   UNL     1     -10.790  16.221  69.931  1.00  0.00    -0.352 C  
BRANCH  13  14
HETATM   14  C   UNL     1     -11.305  15.462  71.151  1.00  0.00    -0.427 C  
BRANCH  14  15
HETATM   15  C   UNL     1     -12.211  16.315  72.033  1.00  0.00    -0.428 C  
BRANCH  15  16
HETATM   16  C   UNL     1     -13.559  15.624  72.245  1.00  0.00    -0.590 C  
HETATM   17  C   UNL     1     -13.380  14.165  72.633  1.00  0.00    -0.638 C  
ENDBRANCH  15  16
ENDBRANCH  14  15
ENDBRANCH  13  14
ENDBRANCH  12  13
ENDBRANCH  11  12
ENDBRANCH   9  11
ENDBRANCH   8   9
ENDBRANCH   7   8
ENDBRANCH   5   7
ENDBRANCH   2   5
TORSDOF 10
ENDMDL
MODEL       44
REMARK 921   NORMALIZED FREE ENERGY PREDICTED BY IDOCK:   -4.17 KCAL/MOL
REMARK 922        TOTAL FREE ENERGY PREDICTED BY IDOCK:   -7.09 KCAL/MOL
REMARK 923 INTER-LIGAND FREE ENERGY PREDICTED BY IDOCK:   -6.04 KCAL/MOL
REMARK 924 INTRA-LIGAND FREE ENERGY PREDICTED BY IDOCK:   -1.05 KCAL/MOL
REMARK 927      BINDING AFFINITY PREDICTED BY RF-SCORE:    0.00 PKD
ROOT
HETATM    1  N   UNL     1     -12.319  14.075  63.425  1.00  0.00    -1.154 NA 
HETATM    2  C   UNL     1     -12.191  12.619  63.494  1.00  0.00    -0.547 C  
HETATM    3  H1  UNL     1     -13.287  14.338  63.242  1.00  0.00     0.000 HD 
HETATM    4  H2  UNL     1     -11.678  14.480  62.743  1.00  0.00     0.000 HD 
ENDROOT
BRANCH   2   5
HETATM    5  C   UNL     1     -10.738  12.222  63.769  1.00  0.00    -0.449 C  
HETATM    6  O   UNL     1      -9.954  11.943  62.863  1.00  0.00    -0.300 OA 
BRANCH   5   7
HETATM    7  C   UNL     1     -10.316  12.274  65.221  1.00  0.00    -0.311 C  
BRANCH   7   8
HETATM    8  C   UNL     1     -11.468  11.988  66.175  1.00  0.00    -0.401 C  
BRANCH   8   9
HETATM    9  C   UNL     1     -11.878  13.179  67.009  1.00  0.00    -0.379 C  
HETATM   10  O   UNL     1     -12.524  14.125  66.584  1.00  0.00    -0.426 OA 
BRANCH   9  11
HETATM   11  O   UNL     1     -11.277  13.136  68.231  1.00  0.00    -0.244 OA 
BRANCH  11  12
HETATM   12  C   UNL     1     -12.005  13.793  69.269  1.00  0.00    -0.352 C  
BRANCH  12  13
HETATM   13  C   UNL     1     -11.197  14.910  69.908  1.00  0.00    -0.307 C  
BRANCH  13  14
HETATM   14  C   UNL     1     -11.492  16.218  69.177  1.00  0.00    -0.257 C  
BRANCH  14  15
HETATM   15  C   UNL     1     -10.239  16.848  68.577  1.00  0.00    -0.310 C  
BRANCH  15  16
HETATM   16  C   UNL     1     -10.189  16.610  67.067  1.00  0.00    -0.290 C  
HETATM   17  C   UNL     1      -9.131  15.581  66.701  1.00  0.00    -0.310 C  
ENDBRANCH  15  16
ENDBRANCH  14  15
ENDBRANCH  13  14
ENDBRANCH  12  13
ENDBRANCH  11  12
ENDBRANCH   9  11
ENDBRANCH   8   9
ENDBRANCH   7   8
ENDBRANCH   5   7
ENDBRANCH   2   5
TORSDOF 10
ENDMDL
MODEL       45
REMARK 921   NORMALIZED FREE ENERGY PREDICTED BY IDOCK:   -4.16 KCAL/MOL
REMARK 922        TOTAL FREE ENERGY PREDICTED BY IDOCK:   -7.08 KCAL/MOL
REMARK 923 INTER-LIGAND FREE ENERGY PREDICTED BY IDOCK:   -6.68 KCAL/MOL
REMARK 924 INTRA-LIGAND FREE ENERGY PREDICTED BY IDOCK:   -0.40 KCAL/MOL
REMARK 927      BINDING AFFINITY PREDICTED BY RF-SCORE:    0.00 PKD
ROOT
HETATM    1  N   UNL     1      -9.470   9.502  62.371  1.00  0.00    -0.580 NA 
HETATM    2  C   UNL     1      -9.423  10.857  62.920  1.00  0.00    -0.355 C  
HETATM    3  H1  UNL     1      -8.750   9.383  61.658  1.00  0.00     0.000 HD 
HETATM    4  H2  UNL     1     -10.397   9.267  62.020  1.00  0.00     0.000 HD 
ENDROOT
BRANCH   2   5
HETATM    5  C   UNL     1     -10.502  11.037  63.991  1.00  0.00    -0.366 C  
HETATM    6  O   UNL     1     -10.373  10.591  65.131  1.00  0.00    -0.304 OA 
BRANCH   5   7
HETATM    7  C   UNL     1     -11.698  11.866  63.574  1.00  0.00    -0.550 C  
BRANCH   7   8
HETATM    8  C   UNL     1     -12.336  12.602  64.745  1.00  0.00    -0.556 C  
BRANCH   8   9
HETATM    9  C   UNL     1     -12.220  14.106  64.653  1.00  0.00    -0.445 C  
HETATM   10  O   UNL     1     -12.645  14.772  63.721  1.00  0.00    -0.806 OA 
BRANCH   9  11
HETATM   11  O   UNL     1     -11.425  14.585  65.651  1.00  0.00    -0.334 OA 
BRANCH  11  12
HETATM   12  C   UNL     1     -10.418  15.499  65.214  1.00  0.00    -0.411 C  
BRANCH  12  13
HETATM   13  C   UNL     1      -9.328  15.680  66.256  1.00  0.00    -0.358 C  
BRANCH  13  14
HETATM   14  C   UNL     1      -8.935  17.155  66.315  1.00  0.00    -0.262 C  
BRANCH  14  15
HETATM   15  C   UNL     1      -9.386  17.829  67.607  1.00  0.00    -0.250 C  
BRANCH  15  16
HETATM   16  C   UNL     1     -10.578  18.751  67.342  1.00  0.00    -0.505 C  
HETATM   17  C   UNL     1     -10.441  19.466  66.008  1.00  0.00    -0.596 C  
ENDBRANCH  15  16
ENDBRANCH  14  15
ENDBRANCH  13  14
ENDBRANCH  12  13
ENDBRANCH  11  12
ENDBRANCH   9  11
ENDBRANCH   8   9
ENDBRANCH   7   8
ENDBRANCH   5   7
ENDBRANCH   2   5
TORSDOF 10
ENDMDL
MODEL       46
REMARK 921   NORMALIZED FREE ENERGY PREDICTED BY IDOCK:   -4.16 KCAL/MOL
REMARK 922        TOTAL FREE ENERGY PREDICTED BY IDOCK:   -7.08 KCAL/MOL
REMARK 923 INTER-LIGAND FREE ENERGY PREDICTED BY IDOCK:   -6.63 KCAL/MOL
REMARK 924 INTRA-LIGAND FREE ENERGY PREDICTED BY IDOCK:   -0.45 KCAL/MOL
REMARK 927      BINDING AFFINITY PREDICTED BY RF-SCORE:    0.00 PKD
ROOT
HETATM    1  N   UNL     1     -12.335  13.391  62.957  1.00  0.00    -0.945 NA 
HETATM    2  C   UNL     1     -12.069  12.535  64.113  1.00  0.00    -0.447 C  
HETATM    3  H1  UNL     1     -12.058  12.921  62.095  1.00  0.00     0.000 HD 
HETATM    4  H2  UNL     1     -11.893  14.305  63.052  1.00  0.00     0.000 HD 
ENDROOT
BRANCH   2   5
HETATM    5  C   UNL     1     -12.486  13.239  65.407  1.00  0.00    -0.489 C  
HETATM    6  O   UNL     1     -13.376  14.089  65.432  1.00  0.00    -0.721 OA 
BRANCH   5   7
HETATM    7  C   UNL     1     -11.784  12.761  66.660  1.00  0.00    -0.459 C  
BRANCH   7   8
HETATM    8  C   UNL     1     -10.702  13.725  67.128  1.00  0.00    -0.283 C  
BRANCH   8   9
HETATM    9  C   UNL     1     -11.197  14.767  68.104  1.00  0.00    -0.294 C  
HETATM   10  O   UNL     1     -12.097  14.582  68.908  1.00  0.00    -0.301 OA 
BRANCH   9  11
HETATM   11  O   UNL     1     -10.631  15.978  67.838  1.00  0.00    -0.283 OA 
BRANCH  11  12
HETATM   12  C   UNL     1     -10.316  16.749  68.998  1.00  0.00    -0.326 C  
BRANCH  12  13
HETATM   13  C   UNL     1      -9.043  17.558  68.811  1.00  0.00    -0.212 C  
BRANCH  13  14
HETATM   14  C   UNL     1      -9.413  19.024  68.593  1.00  0.00    -0.457 C  
BRANCH  14  15
HETATM   15  C   UNL     1      -8.435  19.743  67.669  1.00  0.00    -0.361 C  
BRANCH  15  16
HETATM   16  C   UNL     1      -9.003  19.830  66.252  1.00  0.00    -0.431 C  
HETATM   17  C   UNL     1     -10.513  19.655  66.247  1.00  0.00    -0.621 C  
ENDBRANCH  15  16
ENDBRANCH  14  15
ENDBRANCH  13  14
ENDBRANCH  12  13
ENDBRANCH  11  12
ENDBRANCH   9  11
ENDBRANCH   8   9
ENDBRANCH   7   8
ENDBRANCH   5   7
ENDBRANCH   2   5
TORSDOF 10
ENDMDL
MODEL       47
REMARK 921   NORMALIZED FREE ENERGY PREDICTED BY IDOCK:   -4.16 KCAL/MOL
REMARK 922        TOTAL FREE ENERGY PREDICTED BY IDOCK:   -7.07 KCAL/MOL
REMARK 923 INTER-LIGAND FREE ENERGY PREDICTED BY IDOCK:   -6.52 KCAL/MOL
REMARK 924 INTRA-LIGAND FREE ENERGY PREDICTED BY IDOCK:   -0.56 KCAL/MOL
REMARK 927      BINDING AFFINITY PREDICTED BY RF-SCORE:    0.00 PKD
ROOT
HETATM    1  N   UNL     1      -9.391  19.294  66.501  1.00  0.00    -0.339 NA 
HETATM    2  C   UNL     1     -10.659  18.823  67.059  1.00  0.00    -0.420 C  
HETATM    3  H1  UNL     1      -9.556  20.042  65.826  1.00  0.00     0.000 HD 
HETATM    4  H2  UNL     1      -8.847  18.531  66.098  1.00  0.00     0.000 HD 
ENDROOT
BRANCH   2   5
HETATM    5  C   UNL     1     -10.413  17.701  68.071  1.00  0.00    -0.394 C  
HETATM    6  O   UNL     1     -10.163  17.930  69.254  1.00  0.00    -0.305 OA 
BRANCH   5   7
HETATM    7  C   UNL     1     -10.578  16.296  67.533  1.00  0.00    -0.310 C  
BRANCH   7   8
HETATM    8  C   UNL     1     -11.573  15.474  68.341  1.00  0.00    -0.368 C  
BRANCH   8   9
HETATM    9  C   UNL     1     -11.824  14.095  67.775  1.00  0.00    -0.379 C  
HETATM   10  O   UNL     1     -12.076  13.871  66.601  1.00  0.00    -0.423 OA 
BRANCH   9  11
HETATM   11  O   UNL     1     -11.913  13.176  68.778  1.00  0.00    -0.318 OA 
BRANCH  11  12
HETATM   12  C   UNL     1     -12.040  13.741  70.083  1.00  0.00    -0.359 C  
BRANCH  12  13
HETATM   13  C   UNL     1     -12.678  12.767  71.060  1.00  0.00    -0.331 C  
BRANCH  13  14
HETATM   14  C   UNL     1     -13.462  13.555  72.108  1.00  0.00    -0.631 C  
BRANCH  14  15
HETATM   15  C   UNL     1     -13.701  15.003  71.693  1.00  0.00    -0.553 C  
BRANCH  15  16
HETATM   16  C   UNL     1     -13.634  15.927  72.909  1.00  0.00    -0.620 C  
HETATM   17  C   UNL     1     -12.544  15.495  73.877  1.00  0.00    -0.767 C  
ENDBRANCH  15  16
ENDBRANCH  14  15
ENDBRANCH  13  14
ENDBRANCH  12  13
ENDBRANCH  11  12
ENDBRANCH   9  11
ENDBRANCH   8   9
ENDBRANCH   7   8
ENDBRANCH   5   7
ENDBRANCH   2   5
TORSDOF 10
ENDMDL
MODEL       48
REMARK 921   NORMALIZED FREE ENERGY PREDICTED BY IDOCK:   -4.16 KCAL/MOL
REMARK 922        TOTAL FREE ENERGY PREDICTED BY IDOCK:   -7.07 KCAL/MOL
REMARK 923 INTER-LIGAND FREE ENERGY PREDICTED BY IDOCK:   -6.46 KCAL/MOL
REMARK 924 INTRA-LIGAND FREE ENERGY PREDICTED BY IDOCK:   -0.61 KCAL/MOL
REMARK 927      BINDING AFFINITY PREDICTED BY RF-SCORE:    0.00 PKD
ROOT
HETATM    1  N   UNL     1     -10.818  11.113  62.982  1.00  0.00    -0.822 NA 
HETATM    2  C   UNL     1     -10.950  12.413  63.642  1.00  0.00    -0.470 C  
HETATM    3  H1  UNL     1      -9.926  11.053  62.491  1.00  0.00     0.000 HD 
HETATM    4  H2  UNL     1     -11.607  10.919  62.366  1.00  0.00     0.000 HD 
ENDROOT
BRANCH   2   5
HETATM    5  C   UNL     1     -12.289  12.504  64.380  1.00  0.00    -0.455 C  
HETATM    6  O   UNL     1     -13.288  11.894  64.001  1.00  0.00    -0.646 OA 
BRANCH   5   7
HETATM    7  C   UNL     1     -12.274  13.330  65.648  1.00  0.00    -0.514 C  
BRANCH   7   8
HETATM    8  C   UNL     1     -11.169  12.909  66.607  1.00  0.00    -0.342 C  
BRANCH   8   9
HETATM    9  C   UNL     1     -11.678  12.297  67.892  1.00  0.00    -0.347 C  
HETATM   10  O   UNL     1     -11.823  11.098  68.070  1.00  0.00    -0.582 OA 
BRANCH   9  11
HETATM   11  O   UNL     1     -12.119  13.268  68.741  1.00  0.00    -0.326 OA 
BRANCH  11  12
HETATM   12  C   UNL     1     -11.982  12.945  70.125  1.00  0.00    -0.301 C  
BRANCH  12  13
HETATM   13  C   UNL     1     -12.469  14.073  71.019  1.00  0.00    -0.444 C  
BRANCH  13  14
HETATM   14  C   UNL     1     -11.337  15.080  71.212  1.00  0.00    -0.315 C  
BRANCH  14  15
HETATM   15  C   UNL     1     -11.401  16.231  70.214  1.00  0.00    -0.299 C  
BRANCH  15  16
HETATM   16  C   UNL     1     -10.207  16.181  69.260  1.00  0.00    -0.257 C  
HETATM   17  C   UNL     1     -10.600  16.606  67.854  1.00  0.00    -0.342 C  
ENDBRANCH  15  16
ENDBRANCH  14  15
ENDBRANCH  13  14
ENDBRANCH  12  13
ENDBRANCH  11  12
ENDBRANCH   9  11
ENDBRANCH   8   9
ENDBRANCH   7   8
ENDBRANCH   5   7
ENDBRANCH   2   5
TORSDOF 10
ENDMDL
MODEL       49
REMARK 921   NORMALIZED FREE ENERGY PREDICTED BY IDOCK:   -4.15 KCAL/MOL
REMARK 922        TOTAL FREE ENERGY PREDICTED BY IDOCK:   -7.07 KCAL/MOL
REMARK 923 INTER-LIGAND FREE ENERGY PREDICTED BY IDOCK:   -6.44 KCAL/MOL
REMARK 924 INTRA-LIGAND FREE ENERGY PREDICTED BY IDOCK:   -0.62 KCAL/MOL
REMARK 927      BINDING AFFINITY PREDICTED BY RF-SCORE:    0.00 PKD
ROOT
HETATM    1  N   UNL     1     -11.366  11.827  69.943  1.00  0.00    -0.491 NA 
HETATM    2  C   UNL     1     -11.580  11.478  68.538  1.00  0.00    -0.313 C  
HETATM    3  H1  UNL     1     -11.342  10.985  70.518  1.00  0.00     0.000 HD 
HETATM    4  H2  UNL     1     -12.060  12.496  70.277  1.00  0.00     0.000 HD 
ENDROOT
BRANCH   2   5
HETATM    5  C   UNL     1     -11.617  12.742  67.673  1.00  0.00    -0.358 C  
HETATM    6  O   UNL     1     -11.758  13.863  68.160  1.00  0.00    -0.313 OA 
BRANCH   5   7
HETATM    7  C   UNL     1     -11.389  12.521  66.194  1.00  0.00    -0.388 C  
BRANCH   7   8
HETATM    8  C   UNL     1     -12.487  13.135  65.335  1.00  0.00    -0.535 C  
BRANCH   8   9
HETATM    9  C   UNL     1     -12.053  14.375  64.587  1.00  0.00    -0.471 C  
HETATM   10  O   UNL     1     -12.744  14.958  63.766  1.00  0.00    -0.754 OA 
BRANCH   9  11
HETATM   11  O   UNL     1     -10.736  14.636  64.820  1.00  0.00    -0.412 OA 
BRANCH  11  12
HETATM   12  C   UNL     1     -10.471  15.960  65.285  1.00  0.00    -0.377 C  
BRANCH  12  13
HETATM   13  C   UNL     1      -9.301  15.995  66.253  1.00  0.00    -0.356 C  
BRANCH  13  14
HETATM   14  C   UNL     1      -9.222  17.381  66.889  1.00  0.00    -0.266 C  
BRANCH  14  15
HETATM   15  C   UNL     1     -10.599  17.995  67.125  1.00  0.00    -0.337 C  
BRANCH  15  16
HETATM   16  C   UNL     1     -10.497  19.518  67.222  1.00  0.00    -0.590 C  
HETATM   17  C   UNL     1      -9.352  20.053  66.376  1.00  0.00    -0.481 C  
ENDBRANCH  15  16
ENDBRANCH  14  15
ENDBRANCH  13  14
ENDBRANCH  12  13
ENDBRANCH  11  12
ENDBRANCH   9  11
ENDBRANCH   8   9
ENDBRANCH   7   8
ENDBRANCH   5   7
ENDBRANCH   2   5
TORSDOF 10
ENDMDL
MODEL       50
REMARK 921   NORMALIZED FREE ENERGY PREDICTED BY IDOCK:   -4.14 KCAL/MOL
REMARK 922        TOTAL FREE ENERGY PREDICTED BY IDOCK:   -7.05 KCAL/MOL
REMARK 923 INTER-LIGAND FREE ENERGY PREDICTED BY IDOCK:   -6.41 KCAL/MOL
REMARK 924 INTRA-LIGAND FREE ENERGY PREDICTED BY IDOCK:   -0.64 KCAL/MOL
REMARK 927      BINDING AFFINITY PREDICTED BY RF-SCORE:    0.00 PKD
ROOT
HETATM    1  N   UNL     1     -14.077   8.961  73.157  1.00  0.00    -1.225 NA 
HETATM    2  C   UNL     1     -13.993   8.372  71.820  1.00  0.00    -0.420 C  
HETATM    3  H1  UNL     1     -15.052   9.081  73.432  1.00  0.00     0.000 HD 
HETATM    4  H2  UNL     1     -13.553   9.833  73.221  1.00  0.00     0.000 HD 
ENDROOT
BRANCH   2   5
HETATM    5  C   UNL     1     -12.529   8.191  71.407  1.00  0.00    -0.292 C  
HETATM    6  O   UNL     1     -12.096   7.119  70.988  1.00  0.00    -0.333 OA 
BRANCH   5   7
HETATM    7  C   UNL     1     -11.678   9.441  71.475  1.00  0.00    -0.465 C  
BRANCH   7   8
HETATM    8  C   UNL     1     -12.136  10.514  70.497  1.00  0.00    -0.437 C  
BRANCH   8   9
HETATM    9  C   UNL     1     -12.626  11.778  71.166  1.00  0.00    -0.309 C  
HETATM   10  O   UNL     1     -13.504  11.809  72.014  1.00  0.00    -0.422 OA 
BRANCH   9  11
HETATM   11  O   UNL     1     -12.088  12.876  70.564  1.00  0.00    -0.356 OA 
BRANCH  11  12
HETATM   12  C   UNL     1     -12.650  14.117  70.993  1.00  0.00    -0.369 C  
BRANCH  12  13
HETATM   13  C   UNL     1     -11.590  15.059  71.538  1.00  0.00    -0.409 C  
BRANCH  13  14
HETATM   14  C   UNL     1     -11.321  16.155  70.509  1.00  0.00    -0.392 C  
BRANCH  14  15
HETATM   15  C   UNL     1     -10.349  15.710  69.421  1.00  0.00    -0.260 C  
BRANCH  15  16
HETATM   16  C   UNL     1     -10.606  16.481  68.126  1.00  0.00    -0.329 C  
HETATM   17  C   UNL     1     -10.410  17.976  68.321  1.00  0.00    -0.389 C  
ENDBRANCH  15  16
ENDBRANCH  14  15
ENDBRANCH  13  14
ENDBRANCH  12  13
ENDBRANCH  11  12
ENDBRANCH   9  11
ENDBRANCH   8   9
ENDBRANCH   7   8
ENDBRANCH   5   7
ENDBRANCH   2   5
TORSDOF 10
ENDMDL
MODEL       51
REMARK 921   NORMALIZED FREE ENERGY PREDICTED BY IDOCK:   -4.12 KCAL/MOL
REMARK 922        TOTAL FREE ENERGY PREDICTED BY IDOCK:   -7.02 KCAL/MOL
REMARK 923 INTER-LIGAND FREE ENERGY PREDICTED BY IDOCK:   -6.12 KCAL/MOL
REMARK 924 INTRA-LIGAND FREE ENERGY PREDICTED BY IDOCK:   -0.89 KCAL/MOL
REMARK 927      BINDING AFFINITY PREDICTED BY RF-SCORE:    0.00 PKD
ROOT
HETATM    1  N   UNL     1      -9.925  12.685  63.528  1.00  0.00    -0.683 NA 
HETATM    2  C   UNL     1     -11.282  12.244  63.851  1.00  0.00    -0.421 C  
HETATM    3  H1  UNL     1      -9.348  11.890  63.254  1.00  0.00     0.000 HD 
HETATM    4  H2  UNL     1      -9.506  13.214  64.292  1.00  0.00     0.000 HD 
ENDROOT
BRANCH   2   5
HETATM    5  C   UNL     1     -12.148  13.439  64.262  1.00  0.00    -0.424 C  
HETATM    6  O   UNL     1     -12.468  14.320  63.465  1.00  0.00    -0.798 OA 
BRANCH   5   7
HETATM    7  C   UNL     1     -12.646  13.417  65.691  1.00  0.00    -0.496 C  
BRANCH   7   8
HETATM    8  C   UNL     1     -11.713  12.655  66.623  1.00  0.00    -0.464 C  
BRANCH   8   9
HETATM    9  C   UNL     1     -11.453  13.361  67.934  1.00  0.00    -0.315 C  
HETATM   10  O   UNL     1     -12.317  13.907  68.602  1.00  0.00    -0.278 OA 
BRANCH   9  11
HETATM   11  O   UNL     1     -10.114  13.458  68.166  1.00  0.00    -0.231 OA 
BRANCH  11  12
HETATM   12  C   UNL     1      -9.586  14.777  68.015  1.00  0.00    -0.209 C  
BRANCH  12  13
HETATM   13  C   UNL     1      -8.977  14.987  66.639  1.00  0.00    -0.313 C  
BRANCH  13  14
HETATM   14  C   UNL     1      -9.873  15.927  65.836  1.00  0.00    -0.383 C  
BRANCH  14  15
HETATM   15  C   UNL     1     -10.660  16.886  66.724  1.00  0.00    -0.201 C  
BRANCH  15  16
HETATM   16  C   UNL     1     -10.127  18.312  66.577  1.00  0.00    -0.396 C  
HETATM   17  C   UNL     1     -10.516  19.176  67.766  1.00  0.00    -0.512 C  
ENDBRANCH  15  16
ENDBRANCH  14  15
ENDBRANCH  13  14
ENDBRANCH  12  13
ENDBRANCH  11  12
ENDBRANCH   9  11
ENDBRANCH   8   9
ENDBRANCH   7   8
ENDBRANCH   5   7
ENDBRANCH   2   5
TORSDOF 10
ENDMDL
MODEL       52
REMARK 921   NORMALIZED FREE ENERGY PREDICTED BY IDOCK:   -4.12 KCAL/MOL
REMARK 922        TOTAL FREE ENERGY PREDICTED BY IDOCK:   -7.01 KCAL/MOL
REMARK 923 INTER-LIGAND FREE ENERGY PREDICTED BY IDOCK:   -6.56 KCAL/MOL
REMARK 924 INTRA-LIGAND FREE ENERGY PREDICTED BY IDOCK:   -0.45 KCAL/MOL
REMARK 927      BINDING AFFINITY PREDICTED BY RF-SCORE:    0.00 PKD
ROOT
HETATM    1  N   UNL     1      -9.184  20.258  66.034  1.00  0.00    -0.616 NA 
HETATM    2  C   UNL     1     -10.419  19.477  66.109  1.00  0.00    -0.518 C  
HETATM    3  H1  UNL     1      -9.318  21.079  65.443  1.00  0.00     0.000 HD 
HETATM    4  H2  UNL     1      -8.395  19.691  65.724  1.00  0.00     0.000 HD 
ENDROOT
BRANCH   2   5
HETATM    5  C   UNL     1     -10.219  18.245  66.996  1.00  0.00    -0.378 C  
HETATM    6  O   UNL     1     -10.522  18.241  68.189  1.00  0.00    -0.373 OA 
BRANCH   5   7
HETATM    7  C   UNL     1      -9.697  17.014  66.287  1.00  0.00    -0.302 C  
BRANCH   7   8
HETATM    8  C   UNL     1     -10.753  15.925  66.154  1.00  0.00    -0.273 C  
BRANCH   8   9
HETATM    9  C   UNL     1     -11.219  15.697  64.735  1.00  0.00    -0.382 C  
HETATM   10  O   UNL     1     -11.647  16.577  64.004  1.00  0.00    -1.154 OA 
BRANCH   9  11
HETATM   11  O   UNL     1     -11.265  14.365  64.455  1.00  0.00    -0.364 OA 
BRANCH  11  12
HETATM   12  C   UNL     1     -12.261  13.645  65.184  1.00  0.00    -0.433 C  
BRANCH  12  13
HETATM   13  C   UNL     1     -11.722  12.334  65.733  1.00  0.00    -0.445 C  
BRANCH  13  14
HETATM   14  C   UNL     1     -10.405  12.006  65.035  1.00  0.00    -0.318 C  
BRANCH  14  15
HETATM   15  C   UNL     1     -10.603  11.179  63.769  1.00  0.00    -0.422 C  
BRANCH  15  16
HETATM   16  C   UNL     1      -9.298  10.490  63.368  1.00  0.00    -0.335 C  
HETATM   17  C   UNL     1      -8.846   9.497  64.427  1.00  0.00    -0.251 C  
ENDBRANCH  15  16
ENDBRANCH  14  15
ENDBRANCH  13  14
ENDBRANCH  12  13
ENDBRANCH  11  12
ENDBRANCH   9  11
ENDBRANCH   8   9
ENDBRANCH   7   8
ENDBRANCH   5   7
ENDBRANCH   2   5
TORSDOF 10
ENDMDL
MODEL       53
REMARK 921   NORMALIZED FREE ENERGY PREDICTED BY IDOCK:   -4.11 KCAL/MOL
REMARK 922        TOTAL FREE ENERGY PREDICTED BY IDOCK:   -7.00 KCAL/MOL
REMARK 923 INTER-LIGAND FREE ENERGY PREDICTED BY IDOCK:   -6.63 KCAL/MOL
REMARK 924 INTRA-LIGAND FREE ENERGY PREDICTED BY IDOCK:   -0.37 KCAL/MOL
REMARK 927      BINDING AFFINITY PREDICTED BY RF-SCORE:    0.00 PKD
ROOT
HETATM    1  N   UNL     1     -11.441  16.483  63.831  1.00  0.00    -1.599 NA 
HETATM    2  C   UNL     1     -11.220  15.416  64.807  1.00  0.00    -0.395 C  
HETATM    3  H1  UNL     1     -11.170  17.385  64.224  1.00  0.00     0.000 HD 
HETATM    4  H2  UNL     1     -12.402  16.491  63.489  1.00  0.00     0.000 HD 
ENDROOT
BRANCH   2   5
HETATM    5  C   UNL     1     -11.627  14.061  64.219  1.00  0.00    -0.329 C  
HETATM    6  O   UNL     1     -12.566  13.946  63.432  1.00  0.00    -0.853 OA 
BRANCH   5   7
HETATM    7  C   UNL     1     -10.747  12.894  64.610  1.00  0.00    -0.373 C  
BRANCH   7   8
HETATM    8  C   UNL     1     -10.376  12.911  66.087  1.00  0.00    -0.286 C  
BRANCH   8   9
HETATM    9  C   UNL     1     -11.434  12.315  66.986  1.00  0.00    -0.354 C  
HETATM   10  O   UNL     1     -12.487  12.866  67.266  1.00  0.00    -0.216 OA 
BRANCH   9  11
HETATM   11  O   UNL     1     -10.972  11.177  67.578  1.00  0.00    -0.237 OA 
BRANCH  11  12
HETATM   12  C   UNL     1      -9.986  11.398  68.587  1.00  0.00    -0.202 C  
BRANCH  12  13
HETATM   13  C   UNL     1      -9.456  10.091  69.155  1.00  0.00    -0.214 C  
BRANCH  13  14
HETATM   14  C   UNL     1     -10.631   9.246  69.641  1.00  0.00    -0.241 C  
BRANCH  14  15
HETATM   15  C   UNL     1     -11.330   9.858  70.851  1.00  0.00    -0.446 C  
BRANCH  15  16
HETATM   16  C   UNL     1     -12.361   8.884  71.424  1.00  0.00    -0.368 C  
HETATM   17  C   UNL     1     -13.455   9.617  72.185  1.00  0.00    -0.516 C  
ENDBRANCH  15  16
ENDBRANCH  14  15
ENDBRANCH  13  14
ENDBRANCH  12  13
ENDBRANCH  11  12
ENDBRANCH   9  11
ENDBRANCH   8   9
ENDBRANCH   7   8
ENDBRANCH   5   7
ENDBRANCH   2   5
TORSDOF 10
ENDMDL
MODEL       54
REMARK 921   NORMALIZED FREE ENERGY PREDICTED BY IDOCK:   -4.11 KCAL/MOL
REMARK 922        TOTAL FREE ENERGY PREDICTED BY IDOCK:   -7.00 KCAL/MOL
REMARK 923 INTER-LIGAND FREE ENERGY PREDICTED BY IDOCK:   -6.25 KCAL/MOL
REMARK 924 INTRA-LIGAND FREE ENERGY PREDICTED BY IDOCK:   -0.75 KCAL/MOL
REMARK 927      BINDING AFFINITY PREDICTED BY RF-SCORE:    0.00 PKD
ROOT
HETATM    1  N   UNL     1     -13.687  16.202  73.476  1.00  0.00    -0.843 NA 
HETATM    2  C   UNL     1     -12.649  15.215  73.179  1.00  0.00    -0.473 C  
HETATM    3  H1  UNL     1     -13.329  16.914  74.115  1.00  0.00     0.000 HD 
HETATM    4  H2  UNL     1     -14.537  15.765  73.833  1.00  0.00     0.000 HD 
ENDROOT
BRANCH   2   5
HETATM    5  C   UNL     1     -13.186  14.148  72.221  1.00  0.00    -0.447 C  
HETATM    6  O   UNL     1     -14.167  13.457  72.495  1.00  0.00    -0.721 OA 
BRANCH   5   7
HETATM    7  C   UNL     1     -12.476  14.057  70.888  1.00  0.00    -0.439 C  
BRANCH   7   8
HETATM    8  C   UNL     1     -12.316  15.416  70.218  1.00  0.00    -0.425 C  
BRANCH   8   9
HETATM    9  C   UNL     1     -11.737  15.342  68.824  1.00  0.00    -0.351 C  
HETATM   10  O   UNL     1     -11.121  16.250  68.288  1.00  0.00    -0.341 OA 
BRANCH   9  11
HETATM   11  O   UNL     1     -12.154  14.208  68.194  1.00  0.00    -0.343 OA 
BRANCH  11  12
HETATM   12  C   UNL     1     -12.243  14.324  66.773  1.00  0.00    -0.352 C  
BRANCH  12  13
HETATM   13  C   UNL     1     -12.119  12.974  66.087  1.00  0.00    -0.473 C  
BRANCH  13  14
HETATM   14  C   UNL     1     -11.499  11.975  67.061  1.00  0.00    -0.402 C  
BRANCH  14  15
HETATM   15  C   UNL     1     -10.042  11.664  66.733  1.00  0.00    -0.242 C  
BRANCH  15  16
HETATM   16  C   UNL     1      -9.116  12.257  67.796  1.00  0.00    -0.191 C  
HETATM   17  C   UNL     1      -8.641  13.647  67.407  1.00  0.00    -0.212 C  
ENDBRANCH  15  16
ENDBRANCH  14  15
ENDBRANCH  13  14
ENDBRANCH  12  13
ENDBRANCH  11  12
ENDBRANCH   9  11
ENDBRANCH   8   9
ENDBRANCH   7   8
ENDBRANCH   5   7
ENDBRANCH   2   5
TORSDOF 10
ENDMDL
MODEL       55
REMARK 921   NORMALIZED FREE ENERGY PREDICTED BY IDOCK:   -4.10 KCAL/MOL
REMARK 922        TOTAL FREE ENERGY PREDICTED BY IDOCK:   -6.97 KCAL/MOL
REMARK 923 INTER-LIGAND FREE ENERGY PREDICTED BY IDOCK:   -6.61 KCAL/MOL
REMARK 924 INTRA-LIGAND FREE ENERGY PREDICTED BY IDOCK:   -0.37 KCAL/MOL
REMARK 927      BINDING AFFINITY PREDICTED BY RF-SCORE:    0.00 PKD
ROOT
HETATM    1  N   UNL     1     -12.922  16.131  74.408  1.00  0.00    -0.943 NA 
HETATM    2  C   UNL     1     -12.166  15.743  73.217  1.00  0.00    -0.513 C  
HETATM    3  H1  UNL     1     -12.394  16.808  74.960  1.00  0.00     0.000 HD 
HETATM    4  H2  UNL     1     -13.198  15.321  74.963  1.00  0.00     0.000 HD 
ENDROOT
BRANCH   2   5
HETATM    5  C   UNL     1     -12.958  14.727  72.389  1.00  0.00    -0.359 C  
HETATM    6  O   UNL     1     -14.066  14.321  72.738  1.00  0.00    -0.575 OA 
BRANCH   5   7
HETATM    7  C   UNL     1     -12.320  14.321  71.078  1.00  0.00    -0.431 C  
BRANCH   7   8
HETATM    8  C   UNL     1     -12.086  15.506  70.151  1.00  0.00    -0.404 C  
BRANCH   8   9
HETATM    9  C   UNL     1     -11.674  15.111  68.751  1.00  0.00    -0.342 C  
HETATM   10  O   UNL     1     -11.112  15.858  67.965  1.00  0.00    -0.328 OA 
BRANCH   9  11
HETATM   11  O   UNL     1     -12.177  13.886  68.434  1.00  0.00    -0.339 OA 
BRANCH  11  12
HETATM   12  C   UNL     1     -11.290  13.064  67.674  1.00  0.00    -0.300 C  
BRANCH  12  13
HETATM   13  C   UNL     1     -11.433  11.594  68.034  1.00  0.00    -0.385 C  
BRANCH  13  14
HETATM   14  C   UNL     1     -11.880  11.478  69.489  1.00  0.00    -0.419 C  
BRANCH  14  15
HETATM   15  C   UNL     1     -11.361  10.211  70.162  1.00  0.00    -0.372 C  
BRANCH  15  16
HETATM   16  C   UNL     1     -12.318   9.759  71.265  1.00  0.00    -0.465 C  
HETATM   17  C   UNL     1     -11.658   8.754  72.196  1.00  0.00    -0.434 C  
ENDBRANCH  15  16
ENDBRANCH  14  15
ENDBRANCH  13  14
ENDBRANCH  12  13
ENDBRANCH  11  12
ENDBRANCH   9  11
ENDBRANCH   8   9
ENDBRANCH   7   8
ENDBRANCH   5   7
ENDBRANCH   2   5
TORSDOF 10
ENDMDL
MODEL       56
REMARK 921   NORMALIZED FREE ENERGY PREDICTED BY IDOCK:   -4.09 KCAL/MOL
REMARK 922        TOTAL FREE ENERGY PREDICTED BY IDOCK:   -6.97 KCAL/MOL
REMARK 923 INTER-LIGAND FREE ENERGY PREDICTED BY IDOCK:   -6.42 KCAL/MOL
REMARK 924 INTRA-LIGAND FREE ENERGY PREDICTED BY IDOCK:   -0.55 KCAL/MOL
REMARK 927      BINDING AFFINITY PREDICTED BY RF-SCORE:    0.00 PKD
ROOT
HETATM    1  N   UNL     1     -13.508  16.065  73.551  1.00  0.00    -0.837 NA 
HETATM    2  C   UNL     1     -12.304  15.855  72.746  1.00  0.00    -0.480 C  
HETATM    3  H1  UNL     1     -13.258  16.219  74.529  1.00  0.00     0.000 HD 
HETATM    4  H2  UNL     1     -14.174  15.301  73.444  1.00  0.00     0.000 HD 
ENDROOT
BRANCH   2   5
HETATM    5  C   UNL     1     -12.678  15.624  71.278  1.00  0.00    -0.475 C  
HETATM    6  O   UNL     1     -13.843  15.671  70.885  1.00  0.00    -0.516 OA 
BRANCH   5   7
HETATM    7  C   UNL     1     -11.511  15.414  70.338  1.00  0.00    -0.355 C  
BRANCH   7   8
HETATM    8  C   UNL     1     -11.862  15.733  68.891  1.00  0.00    -0.354 C  
BRANCH   8   9
HETATM    9  C   UNL     1     -10.797  16.524  68.167  1.00  0.00    -0.345 C  
HETATM   10  O   UNL     1     -10.622  17.725  68.305  1.00  0.00    -0.369 OA 
BRANCH   9  11
HETATM   11  O   UNL     1     -10.193  15.755  67.218  1.00  0.00    -0.258 OA 
BRANCH  11  12
HETATM   12  C   UNL     1     -10.349  16.237  65.883  1.00  0.00    -0.365 C  
BRANCH  12  13
HETATM   13  C   UNL     1     -10.547  15.103  64.892  1.00  0.00    -0.392 C  
BRANCH  13  14
HETATM   14  C   UNL     1     -12.035  14.775  64.801  1.00  0.00    -0.408 C  
BRANCH  14  15
HETATM   15  C   UNL     1     -12.413  13.540  65.615  1.00  0.00    -0.528 C  
BRANCH  15  16
HETATM   16  C   UNL     1     -11.678  12.307  65.088  1.00  0.00    -0.414 C  
HETATM   17  C   UNL     1     -11.111  11.471  66.225  1.00  0.00    -0.321 C  
ENDBRANCH  15  16
ENDBRANCH  14  15
ENDBRANCH  13  14
ENDBRANCH  12  13
ENDBRANCH  11  12
ENDBRANCH   9  11
ENDBRANCH   8   9
ENDBRANCH   7   8
ENDBRANCH   5   7
ENDBRANCH   2   5
TORSDOF 10
ENDMDL
MODEL       57
REMARK 921   NORMALIZED FREE ENERGY PREDICTED BY IDOCK:   -4.09 KCAL/MOL
REMARK 922        TOTAL FREE ENERGY PREDICTED BY IDOCK:   -6.97 KCAL/MOL
REMARK 923 INTER-LIGAND FREE ENERGY PREDICTED BY IDOCK:   -6.40 KCAL/MOL
REMARK 924 INTRA-LIGAND FREE ENERGY PREDICTED BY IDOCK:   -0.57 KCAL/MOL
REMARK 927      BINDING AFFINITY PREDICTED BY RF-SCORE:    0.00 PKD
ROOT
HETATM    1  N   UNL     1      -8.783   8.586  63.949  1.00  0.00    -0.413 NA 
HETATM    2  C   UNL     1      -9.061   9.868  63.301  1.00  0.00    -0.266 C  
HETATM    3  H1  UNL     1      -8.153   8.027  63.374  1.00  0.00     0.000 HD 
HETATM    4  H2  UNL     1      -9.640   8.082  64.177  1.00  0.00     0.000 HD 
ENDROOT
BRANCH   2   5
HETATM    5  C   UNL     1     -10.007  10.708  64.164  1.00  0.00    -0.342 C  
HETATM    6  O   UNL     1     -10.168  10.488  65.364  1.00  0.00    -0.286 OA 
BRANCH   5   7
HETATM    7  C   UNL     1     -10.666  11.873  63.457  1.00  0.00    -0.504 C  
BRANCH   7   8
HETATM    8  C   UNL     1     -12.156  11.971  63.756  1.00  0.00    -0.599 C  
BRANCH   8   9
HETATM    9  C   UNL     1     -12.528  13.158  64.613  1.00  0.00    -0.373 C  
HETATM   10  O   UNL     1     -12.647  14.298  64.192  1.00  0.00    -0.689 OA 
BRANCH   9  11
HETATM   11  O   UNL     1     -12.530  12.813  65.931  1.00  0.00    -0.560 OA 
BRANCH  11  12
HETATM   12  C   UNL     1     -11.740  13.664  66.763  1.00  0.00    -0.392 C  
BRANCH  12  13
HETATM   13  C   UNL     1     -11.842  13.275  68.229  1.00  0.00    -0.389 C  
BRANCH  13  14
HETATM   14  C   UNL     1     -11.103  11.957  68.448  1.00  0.00    -0.292 C  
BRANCH  14  15
HETATM   15  C   UNL     1     -12.002  10.872  69.032  1.00  0.00    -0.322 C  
BRANCH  15  16
HETATM   16  C   UNL     1     -11.727  10.696  70.527  1.00  0.00    -0.451 C  
HETATM   17  C   UNL     1     -13.001  10.377  71.292  1.00  0.00    -0.517 C  
ENDBRANCH  15  16
ENDBRANCH  14  15
ENDBRANCH  13  14
ENDBRANCH  12  13
ENDBRANCH  11  12
ENDBRANCH   9  11
ENDBRANCH   8   9
ENDBRANCH   7   8
ENDBRANCH   5   7
ENDBRANCH   2   5
TORSDOF 10
ENDMDL
MODEL       58
REMARK 921   NORMALIZED FREE ENERGY PREDICTED BY IDOCK:   -4.08 KCAL/MOL
REMARK 922        TOTAL FREE ENERGY PREDICTED BY IDOCK:   -6.95 KCAL/MOL
REMARK 923 INTER-LIGAND FREE ENERGY PREDICTED BY IDOCK:   -6.41 KCAL/MOL
REMARK 924 INTRA-LIGAND FREE ENERGY PREDICTED BY IDOCK:   -0.54 KCAL/MOL
REMARK 927      BINDING AFFINITY PREDICTED BY RF-SCORE:    0.00 PKD
ROOT
HETATM    1  N   UNL     1      -8.909   8.801  64.259  1.00  0.00    -0.417 NA 
HETATM    2  C   UNL     1      -9.250   9.975  63.456  1.00  0.00    -0.277 C  
HETATM    3  H1  UNL     1      -8.242   8.211  63.761  1.00  0.00     0.000 HD 
HETATM    4  H2  UNL     1      -9.739   8.280  64.542  1.00  0.00     0.000 HD 
ENDROOT
BRANCH   2   5
HETATM    5  C   UNL     1     -10.252  10.860  64.204  1.00  0.00    -0.359 C  
HETATM    6  O   UNL     1     -10.480  10.720  65.405  1.00  0.00    -0.260 OA 
BRANCH   5   7
HETATM    7  C   UNL     1     -10.879  11.965  63.382  1.00  0.00    -0.469 C  
BRANCH   7   8
HETATM    8  C   UNL     1     -12.195  12.457  63.971  1.00  0.00    -0.579 C  
BRANCH   8   9
HETATM    9  C   UNL     1     -12.145  13.884  64.464  1.00  0.00    -0.443 C  
HETATM   10  O   UNL     1     -12.655  14.829  63.882  1.00  0.00    -0.834 OA 
BRANCH   9  11
HETATM   11  O   UNL     1     -11.307  13.991  65.533  1.00  0.00    -0.305 OA 
BRANCH  11  12
HETATM   12  C   UNL     1     -11.968  14.226  66.777  1.00  0.00    -0.436 C  
BRANCH  12  13
HETATM   13  C   UNL     1     -11.786  13.067  67.743  1.00  0.00    -0.405 C  
BRANCH  13  14
HETATM   14  C   UNL     1     -11.531  13.620  69.143  1.00  0.00    -0.346 C  
BRANCH  14  15
HETATM   15  C   UNL     1     -11.761  15.126  69.228  1.00  0.00    -0.352 C  
BRANCH  15  16
HETATM   16  C   UNL     1     -12.010  15.549  70.677  1.00  0.00    -0.416 C  
HETATM   17  C   UNL     1     -13.474  15.396  71.057  1.00  0.00    -0.510 C  
ENDBRANCH  15  16
ENDBRANCH  14  15
ENDBRANCH  13  14
ENDBRANCH  12  13
ENDBRANCH  11  12
ENDBRANCH   9  11
ENDBRANCH   8   9
ENDBRANCH   7   8
ENDBRANCH   5   7
ENDBRANCH   2   5
TORSDOF 10
ENDMDL
MODEL       59
REMARK 921   NORMALIZED FREE ENERGY PREDICTED BY IDOCK:   -4.08 KCAL/MOL
REMARK 922        TOTAL FREE ENERGY PREDICTED BY IDOCK:   -6.94 KCAL/MOL
REMARK 923 INTER-LIGAND FREE ENERGY PREDICTED BY IDOCK:   -6.10 KCAL/MOL
REMARK 924 INTRA-LIGAND FREE ENERGY PREDICTED BY IDOCK:   -0.84 KCAL/MOL
REMARK 927      BINDING AFFINITY PREDICTED BY RF-SCORE:    0.00 PKD
ROOT
HETATM    1  N   UNL     1     -12.053  10.935  68.130  1.00  0.00    -0.790 NA 
HETATM    2  C   UNL     1     -11.218  12.121  67.942  1.00  0.00    -0.272 C  
HETATM    3  H1  UNL     1     -11.856  10.501  69.032  1.00  0.00     0.000 HD 
HETATM    4  H2  UNL     1     -11.952  10.274  67.360  1.00  0.00     0.000 HD 
ENDROOT
BRANCH   2   5
HETATM    5  C   UNL     1     -11.513  12.773  66.588  1.00  0.00    -0.350 C  
HETATM    6  O   UNL     1     -12.495  12.464  65.913  1.00  0.00    -0.583 OA 
BRANCH   5   7
HETATM    7  C   UNL     1     -10.561  13.875  66.178  1.00  0.00    -0.291 C  
BRANCH   7   8
HETATM    8  C   UNL     1     -10.797  14.351  64.751  1.00  0.00    -0.415 C  
BRANCH   8   9
HETATM    9  C   UNL     1     -11.057  15.836  64.640  1.00  0.00    -0.361 C  
HETATM   10  O   UNL     1     -11.832  16.339  63.842  1.00  0.00    -0.994 OA 
BRANCH   9  11
HETATM   11  O   UNL     1     -10.180  16.533  65.416  1.00  0.00    -0.566 OA 
BRANCH  11  12
HETATM   12  C   UNL     1     -10.660  17.808  65.846  1.00  0.00    -0.205 C  
BRANCH  12  13
HETATM   13  C   UNL     1     -10.510  17.991  67.347  1.00  0.00    -0.399 C  
BRANCH  13  14
HETATM   14  C   UNL     1      -9.055  17.744  67.737  1.00  0.00    -0.249 C  
BRANCH  14  15
HETATM   15  C   UNL     1      -8.913  16.693  68.833  1.00  0.00    -0.239 C  
BRANCH  15  16
HETATM   16  C   UNL     1      -8.153  15.472  68.311  1.00  0.00    -0.133 C  
HETATM   17  C   UNL     1      -7.219  15.845  67.171  1.00  0.00    -0.254 C  
ENDBRANCH  15  16
ENDBRANCH  14  15
ENDBRANCH  13  14
ENDBRANCH  12  13
ENDBRANCH  11  12
ENDBRANCH   9  11
ENDBRANCH   8   9
ENDBRANCH   7   8
ENDBRANCH   5   7
ENDBRANCH   2   5
TORSDOF 10
ENDMDL
MODEL       60
REMARK 921   NORMALIZED FREE ENERGY PREDICTED BY IDOCK:   -4.07 KCAL/MOL
REMARK 922        TOTAL FREE ENERGY PREDICTED BY IDOCK:   -6.94 KCAL/MOL
REMARK 923 INTER-LIGAND FREE ENERGY PREDICTED BY IDOCK:   -6.50 KCAL/MOL
REMARK 924 INTRA-LIGAND FREE ENERGY PREDICTED BY IDOCK:   -0.44 KCAL/MOL
REMARK 927      BINDING AFFINITY PREDICTED BY RF-SCORE:    0.00 PKD
ROOT
HETATM    1  N   UNL     1     -11.804  11.218  67.347  1.00  0.00    -0.560 NA 
HETATM    2  C   UNL     1     -11.363  11.777  66.069  1.00  0.00    -0.273 C  
HETATM    3  H1  UNL     1     -11.230  10.414  67.601  1.00  0.00     0.000 HD 
HETATM    4  H2  UNL     1     -12.798  10.989  67.338  1.00  0.00     0.000 HD 
ENDROOT
BRANCH   2   5
HETATM    5  C   UNL     1     -12.225  12.985  65.689  1.00  0.00    -0.466 C  
HETATM    6  O   UNL     1     -13.137  12.904  64.867  1.00  0.00    -0.799 OA 
BRANCH   5   7
HETATM    7  C   UNL     1     -11.927  14.259  66.450  1.00  0.00    -0.438 C  
BRANCH   7   8
HETATM    8  C   UNL     1     -10.481  14.332  66.923  1.00  0.00    -0.272 C  
BRANCH   8   9
HETATM    9  C   UNL     1     -10.169  15.569  67.733  1.00  0.00    -0.243 C  
HETATM   10  O   UNL     1      -9.898  16.657  67.248  1.00  0.00    -0.245 OA 
BRANCH   9  11
HETATM   11  O   UNL     1     -10.052  15.258  69.055  1.00  0.00    -0.218 OA 
BRANCH  11  12
HETATM   12  C   UNL     1     -10.790  16.113  69.928  1.00  0.00    -0.355 C  
BRANCH  12  13
HETATM   13  C   UNL     1     -12.149  15.529  70.276  1.00  0.00    -0.415 C  
BRANCH  13  14
HETATM   14  C   UNL     1     -11.992  14.568  71.452  1.00  0.00    -0.382 C  
BRANCH  14  15
HETATM   15  C   UNL     1     -13.305  14.327  72.191  1.00  0.00    -0.506 C  
BRANCH  15  16
HETATM   16  C   UNL     1     -13.758  15.601  72.907  1.00  0.00    -0.628 C  
HETATM   17  C   UNL     1     -12.652  16.170  73.781  1.00  0.00    -0.698 C  
ENDBRANCH  15  16
ENDBRANCH  14  15
ENDBRANCH  13  14
ENDBRANCH  12  13
ENDBRANCH  11  12
ENDBRANCH   9  11
ENDBRANCH   8   9
ENDBRANCH   7   8
ENDBRANCH   5   7
ENDBRANCH   2   5
TORSDOF 10
ENDMDL
MODEL       61
REMARK 921   NORMALIZED FREE ENERGY PREDICTED BY IDOCK:   -4.07 KCAL/MOL
REMARK 922        TOTAL FREE ENERGY PREDICTED BY IDOCK:   -6.94 KCAL/MOL
REMARK 923 INTER-LIGAND FREE ENERGY PREDICTED BY IDOCK:   -6.03 KCAL/MOL
REMARK 924 INTRA-LIGAND FREE ENERGY PREDICTED BY IDOCK:   -0.90 KCAL/MOL
REMARK 927      BINDING AFFINITY PREDICTED BY RF-SCORE:    0.00 PKD
ROOT
HETATM    1  N   UNL     1     -13.122  12.476  64.524  1.00  0.00    -0.839 NA 
HETATM    2  C   UNL     1     -12.128  12.018  63.553  1.00  0.00    -0.526 C  
HETATM    3  H1  UNL     1     -14.063  12.250  64.202  1.00  0.00     0.000 HD 
HETATM    4  H2  UNL     1     -13.018  13.469  64.733  1.00  0.00     0.000 HD 
ENDROOT
BRANCH   2   5
HETATM    5  C   UNL     1     -10.714  12.356  64.036  1.00  0.00    -0.404 C  
HETATM    6  O   UNL     1      -9.710  11.901  63.489  1.00  0.00    -0.330 OA 
BRANCH   5   7
HETATM    7  C   UNL     1     -10.639  13.347  65.177  1.00  0.00    -0.353 C  
BRANCH   7   8
HETATM    8  C   UNL     1      -9.941  12.775  66.403  1.00  0.00    -0.268 C  
BRANCH   8   9
HETATM    9  C   UNL     1     -10.876  12.084  67.369  1.00  0.00    -0.242 C  
HETATM   10  O   UNL     1     -12.094  12.141  67.304  1.00  0.00    -0.565 OA 
BRANCH   9  11
HETATM   11  O   UNL     1     -10.178  11.552  68.411  1.00  0.00    -0.191 OA 
BRANCH  11  12
HETATM   12  C   UNL     1     -10.670  10.291  68.866  1.00  0.00    -0.227 C  
BRANCH  12  13
HETATM   13  C   UNL     1     -11.048  10.329  70.338  1.00  0.00    -0.391 C  
BRANCH  13  14
HETATM   14  C   UNL     1     -12.538  10.640  70.461  1.00  0.00    -0.433 C  
BRANCH  14  15
HETATM   15  C   UNL     1     -12.818  11.790  71.424  1.00  0.00    -0.440 C  
BRANCH  15  16
HETATM   16  C   UNL     1     -12.332  13.114  70.833  1.00  0.00    -0.393 C  
HETATM   17  C   UNL     1     -12.739  14.293  71.703  1.00  0.00    -0.430 C  
ENDBRANCH  15  16
ENDBRANCH  14  15
ENDBRANCH  13  14
ENDBRANCH  12  13
ENDBRANCH  11  12
ENDBRANCH   9  11
ENDBRANCH   8   9
ENDBRANCH   7   8
ENDBRANCH   5   7
ENDBRANCH   2   5
TORSDOF 10
ENDMDL
MODEL       62
REMARK 921   NORMALIZED FREE ENERGY PREDICTED BY IDOCK:   -4.07 KCAL/MOL
REMARK 922        TOTAL FREE ENERGY PREDICTED BY IDOCK:   -6.93 KCAL/MOL
REMARK 923 INTER-LIGAND FREE ENERGY PREDICTED BY IDOCK:   -6.19 KCAL/MOL
REMARK 924 INTRA-LIGAND FREE ENERGY PREDICTED BY IDOCK:   -0.74 KCAL/MOL
REMARK 927      BINDING AFFINITY PREDICTED BY RF-SCORE:    0.00 PKD
ROOT
HETATM    1  N   UNL     1     -13.148  14.022  65.012  1.00  0.00    -0.717 NA 
HETATM    2  C   UNL     1     -12.468  12.727  65.055  1.00  0.00    -0.506 C  
HETATM    3  H1  UNL     1     -13.700  14.104  64.158  1.00  0.00     0.000 HD 
HETATM    4  H2  UNL     1     -12.495  14.797  65.120  1.00  0.00     0.000 HD 
ENDROOT
BRANCH   2   5
HETATM    5  C   UNL     1     -11.639  12.602  66.337  1.00  0.00    -0.384 C  
HETATM    6  O   UNL     1     -12.056  12.004  67.329  1.00  0.00    -0.572 OA 
BRANCH   5   7
HETATM    7  C   UNL     1     -10.249  13.194  66.271  1.00  0.00    -0.294 C  
BRANCH   7   8
HETATM    8  C   UNL     1     -10.149  14.534  66.989  1.00  0.00    -0.254 C  
BRANCH   8   9
HETATM    9  C   UNL     1     -10.180  15.726  66.061  1.00  0.00    -0.333 C  
HETATM   10  O   UNL     1     -10.594  15.691  64.913  1.00  0.00    -0.427 OA 
BRANCH   9  11
HETATM   11  O   UNL     1      -9.522  16.781  66.618  1.00  0.00    -0.235 OA 
BRANCH  11  12
HETATM   12  C   UNL     1     -10.373  17.839  67.060  1.00  0.00    -0.344 C  
BRANCH  12  13
HETATM   13  C   UNL     1     -10.224  18.101  68.549  1.00  0.00    -0.399 C  
BRANCH  13  14
HETATM   14  C   UNL     1      -9.613  19.484  68.754  1.00  0.00    -0.479 C  
BRANCH  14  15
HETATM   15  C   UNL     1      -9.381  20.222  67.439  1.00  0.00    -0.531 C  
BRANCH  15  16
HETATM   16  C   UNL     1      -7.884  20.402  67.182  1.00  0.00    -0.378 C  
HETATM   17  C   UNL     1      -7.472  19.797  65.850  1.00  0.00    -0.335 C  
ENDBRANCH  15  16
ENDBRANCH  14  15
ENDBRANCH  13  14
ENDBRANCH  12  13
ENDBRANCH  11  12
ENDBRANCH   9  11
ENDBRANCH   8   9
ENDBRANCH   7   8
ENDBRANCH   5   7
ENDBRANCH   2   5
TORSDOF 10
ENDMDL
MODEL       63
REMARK 921   NORMALIZED FREE ENERGY PREDICTED BY IDOCK:   -4.07 KCAL/MOL
REMARK 922        TOTAL FREE ENERGY PREDICTED BY IDOCK:   -6.93 KCAL/MOL
REMARK 923 INTER-LIGAND FREE ENERGY PREDICTED BY IDOCK:   -6.35 KCAL/MOL
REMARK 924 INTRA-LIGAND FREE ENERGY PREDICTED BY IDOCK:   -0.58 KCAL/MOL
REMARK 927      BINDING AFFINITY PREDICTED BY RF-SCORE:    0.00 PKD
ROOT
HETATM    1  N   UNL     1     -10.523  10.965  62.760  1.00  0.00    -0.781 NA 
HETATM    2  C   UNL     1     -10.609  12.216  63.513  1.00  0.00    -0.458 C  
HETATM    3  H1  UNL     1      -9.561  10.626  62.742  1.00  0.00     0.000 HD 
HETATM    4  H2  UNL     1     -10.910  11.060  61.821  1.00  0.00     0.000 HD 
ENDROOT
BRANCH   2   5
HETATM    5  C   UNL     1     -12.053  12.726  63.540  1.00  0.00    -0.559 C  
HETATM    6  O   UNL     1     -13.014  11.974  63.383  1.00  0.00    -0.772 OA 
BRANCH   5   7
HETATM    7  C   UNL     1     -12.214  14.198  63.850  1.00  0.00    -0.288 C  
BRANCH   7   8
HETATM    8  C   UNL     1     -11.411  14.630  65.070  1.00  0.00    -0.386 C  
BRANCH   8   9
HETATM    9  C   UNL     1     -10.990  16.081  65.038  1.00  0.00    -0.380 C  
HETATM   10  O   UNL     1     -11.309  16.869  64.161  1.00  0.00    -1.208 OA 
BRANCH   9  11
HETATM   11  O   UNL     1     -10.069  16.332  66.011  1.00  0.00    -0.315 OA 
BRANCH  11  12
HETATM   12  C   UNL     1     -10.594  16.310  67.339  1.00  0.00    -0.307 C  
BRANCH  12  13
HETATM   13  C   UNL     1      -9.956  15.217  68.181  1.00  0.00    -0.221 C  
BRANCH  13  14
HETATM   14  C   UNL     1      -8.542  14.955  67.668  1.00  0.00    -0.181 C  
BRANCH  14  15
HETATM   15  C   UNL     1      -8.318  13.493  67.293  1.00  0.00    -0.188 C  
BRANCH  15  16
HETATM   16  C   UNL     1      -9.179  12.578  68.164  1.00  0.00    -0.209 C  
HETATM   17  C   UNL     1      -8.353  11.460  68.781  1.00  0.00    -0.096 C  
ENDBRANCH  15  16
ENDBRANCH  14  15
ENDBRANCH  13  14
ENDBRANCH  12  13
ENDBRANCH  11  12
ENDBRANCH   9  11
ENDBRANCH   8   9
ENDBRANCH   7   8
ENDBRANCH   5   7
ENDBRANCH   2   5
TORSDOF 10
ENDMDL
MODEL       64
REMARK 921   NORMALIZED FREE ENERGY PREDICTED BY IDOCK:   -4.06 KCAL/MOL
REMARK 922        TOTAL FREE ENERGY PREDICTED BY IDOCK:   -6.91 KCAL/MOL
REMARK 923 INTER-LIGAND FREE ENERGY PREDICTED BY IDOCK:   -6.22 KCAL/MOL
REMARK 924 INTRA-LIGAND FREE ENERGY PREDICTED BY IDOCK:   -0.69 KCAL/MOL
REMARK 927      BINDING AFFINITY PREDICTED BY RF-SCORE:    0.00 PKD
ROOT
HETATM    1  N   UNL     1      -9.059  20.087  66.104  1.00  0.00    -0.531 NA 
HETATM    2  C   UNL     1     -10.439  19.630  65.942  1.00  0.00    -0.493 C  
HETATM    3  H1  UNL     1      -9.000  21.096  65.966  1.00  0.00     0.000 HD 
HETATM    4  H2  UNL     1      -8.418  19.581  65.493  1.00  0.00     0.000 HD 
ENDROOT
BRANCH   2   5
HETATM    5  C   UNL     1     -10.528  18.115  66.150  1.00  0.00    -0.364 C  
HETATM    6  O   UNL     1     -10.553  17.326  65.207  1.00  0.00    -0.667 OA 
BRANCH   5   7
HETATM    7  C   UNL     1     -10.504  17.657  67.592  1.00  0.00    -0.372 C  
BRANCH   7   8
HETATM    8  C   UNL     1      -9.985  16.233  67.744  1.00  0.00    -0.246 C  
BRANCH   8   9
HETATM    9  C   UNL     1     -10.880  15.345  68.577  1.00  0.00    -0.264 C  
HETATM   10  O   UNL     1     -11.827  15.748  69.235  1.00  0.00    -0.365 OA 
BRANCH   9  11
HETATM   11  O   UNL     1     -10.376  14.080  68.635  1.00  0.00    -0.235 OA 
BRANCH  11  12
HETATM   12  C   UNL     1     -10.348  13.399  67.380  1.00  0.00    -0.240 C  
BRANCH  12  13
HETATM   13  C   UNL     1     -11.719  12.873  66.991  1.00  0.00    -0.447 C  
BRANCH  13  14
HETATM   14  C   UNL     1     -12.096  13.430  65.620  1.00  0.00    -0.476 C  
BRANCH  14  15
HETATM   15  C   UNL     1     -10.906  13.494  64.667  1.00  0.00    -0.416 C  
BRANCH  15  16
HETATM   16  C   UNL     1     -11.014  12.403  63.601  1.00  0.00    -0.525 C  
HETATM   17  C   UNL     1     -12.454  11.958  63.405  1.00  0.00    -0.582 C  
ENDBRANCH  15  16
ENDBRANCH  14  15
ENDBRANCH  13  14
ENDBRANCH  12  13
ENDBRANCH  11  12
ENDBRANCH   9  11
ENDBRANCH   8   9
ENDBRANCH   7   8
ENDBRANCH   5   7
ENDBRANCH   2   5
TORSDOF 10
ENDMDL
MODEL       65
REMARK 921   NORMALIZED FREE ENERGY PREDICTED BY IDOCK:   -4.05 KCAL/MOL
REMARK 922        TOTAL FREE ENERGY PREDICTED BY IDOCK:   -6.90 KCAL/MOL
REMARK 923 INTER-LIGAND FREE ENERGY PREDICTED BY IDOCK:   -6.59 KCAL/MOL
REMARK 924 INTRA-LIGAND FREE ENERGY PREDICTED BY IDOCK:   -0.32 KCAL/MOL
REMARK 927      BINDING AFFINITY PREDICTED BY RF-SCORE:    0.00 PKD
ROOT
HETATM    1  N   UNL     1     -14.183   8.843  73.253  1.00  0.00    -1.237 NA 
HETATM    2  C   UNL     1     -13.510   9.598  72.195  1.00  0.00    -0.429 C  
HETATM    3  H1  UNL     1     -15.089   9.261  73.466  1.00  0.00     0.000 HD 
HETATM    4  H2  UNL     1     -13.600   8.753  74.085  1.00  0.00     0.000 HD 
ENDROOT
BRANCH   2   5
HETATM    5  C   UNL     1     -12.150   8.971  71.875  1.00  0.00    -0.378 C  
HETATM    6  O   UNL     1     -11.627   8.133  72.608  1.00  0.00    -0.397 OA 
BRANCH   5   7
HETATM    7  C   UNL     1     -11.535   9.395  70.558  1.00  0.00    -0.317 C  
BRANCH   7   8
HETATM    8  C   UNL     1     -11.297  10.897  70.481  1.00  0.00    -0.212 C  
BRANCH   8   9
HETATM    9  C   UNL     1     -11.970  11.560  69.302  1.00  0.00    -0.330 C  
HETATM   10  O   UNL     1     -12.206  11.000  68.242  1.00  0.00    -0.582 OA 
BRANCH   9  11
HETATM   11  O   UNL     1     -12.104  12.899  69.519  1.00  0.00    -0.285 OA 
BRANCH  11  12
HETATM   12  C   UNL     1     -11.226  13.712  68.740  1.00  0.00    -0.279 C  
BRANCH  12  13
HETATM   13  C   UNL     1     -11.900  14.220  67.475  1.00  0.00    -0.429 C  
BRANCH  13  14
HETATM   14  C   UNL     1     -11.131  13.706  66.261  1.00  0.00    -0.304 C  
BRANCH  14  15
HETATM   15  C   UNL     1     -11.874  13.950  64.951  1.00  0.00    -0.401 C  
BRANCH  15  16
HETATM   16  C   UNL     1     -12.329  12.625  64.337  1.00  0.00    -0.523 C  
HETATM   17  C   UNL     1     -11.145  11.798  63.861  1.00  0.00    -0.482 C  
ENDBRANCH  15  16
ENDBRANCH  14  15
ENDBRANCH  13  14
ENDBRANCH  12  13
ENDBRANCH  11  12
ENDBRANCH   9  11
ENDBRANCH   8   9
ENDBRANCH   7   8
ENDBRANCH   5   7
ENDBRANCH   2   5
TORSDOF 10
ENDMDL
MODEL       66
REMARK 921   NORMALIZED FREE ENERGY PREDICTED BY IDOCK:   -4.05 KCAL/MOL
REMARK 922        TOTAL FREE ENERGY PREDICTED BY IDOCK:   -6.90 KCAL/MOL
REMARK 923 INTER-LIGAND FREE ENERGY PREDICTED BY IDOCK:   -6.27 KCAL/MOL
REMARK 924 INTRA-LIGAND FREE ENERGY PREDICTED BY IDOCK:   -0.63 KCAL/MOL
REMARK 927      BINDING AFFINITY PREDICTED BY RF-SCORE:    0.00 PKD
ROOT
HETATM    1  N   UNL     1     -12.161   6.792  70.413  1.00  0.00    -0.589 NA 
HETATM    2  C   UNL     1     -13.109   7.019  71.505  1.00  0.00    -0.339 C  
HETATM    3  H1  UNL     1     -12.133   5.803  70.167  1.00  0.00     0.000 HD 
HETATM    4  H2  UNL     1     -11.234   7.156  70.634  1.00  0.00     0.000 HD 
ENDROOT
BRANCH   2   5
HETATM    5  C   UNL     1     -13.152   8.504  71.875  1.00  0.00    -0.362 C  
HETATM    6  O   UNL     1     -14.105   9.001  72.474  1.00  0.00    -0.483 OA 
BRANCH   5   7
HETATM    7  C   UNL     1     -11.911   9.296  71.523  1.00  0.00    -0.439 C  
BRANCH   7   8
HETATM    8  C   UNL     1     -12.228  10.559  70.734  1.00  0.00    -0.468 C  
BRANCH   8   9
HETATM    9  C   UNL     1     -11.729  10.527  69.308  1.00  0.00    -0.209 C  
HETATM   10  O   UNL     1     -10.840   9.791  68.908  1.00  0.00    -0.220 OA 
BRANCH   9  11
HETATM   11  O   UNL     1     -12.275  11.547  68.588  1.00  0.00    -0.492 OA 
BRANCH  11  12
HETATM   12  C   UNL     1     -11.350  12.573  68.227  1.00  0.00    -0.286 C  
BRANCH  12  13
HETATM   13  C   UNL     1     -11.937  13.960  68.432  1.00  0.00    -0.391 C  
BRANCH  13  14
HETATM   14  C   UNL     1     -11.548  14.467  69.818  1.00  0.00    -0.352 C  
BRANCH  14  15
HETATM   15  C   UNL     1     -12.622  14.189  70.866  1.00  0.00    -0.433 C  
BRANCH  15  16
HETATM   16  C   UNL     1     -13.076  15.491  71.526  1.00  0.00    -0.573 C  
HETATM   17  C   UNL     1     -12.060  15.981  72.546  1.00  0.00    -0.635 C  
ENDBRANCH  15  16
ENDBRANCH  14  15
ENDBRANCH  13  14
ENDBRANCH  12  13
ENDBRANCH  11  12
ENDBRANCH   9  11
ENDBRANCH   8   9
ENDBRANCH   7   8
ENDBRANCH   5   7
ENDBRANCH   2   5
TORSDOF 10
ENDMDL
MODEL       67
REMARK 921   NORMALIZED FREE ENERGY PREDICTED BY IDOCK:   -4.04 KCAL/MOL
REMARK 922        TOTAL FREE ENERGY PREDICTED BY IDOCK:   -6.89 KCAL/MOL
REMARK 923 INTER-LIGAND FREE ENERGY PREDICTED BY IDOCK:   -6.26 KCAL/MOL
REMARK 924 INTRA-LIGAND FREE ENERGY PREDICTED BY IDOCK:   -0.63 KCAL/MOL
REMARK 927      BINDING AFFINITY PREDICTED BY RF-SCORE:    0.00 PKD
ROOT
HETATM    1  N   UNL     1     -14.102   8.974  72.870  1.00  0.00    -1.110 NA 
HETATM    2  C   UNL     1     -12.835   8.818  72.155  1.00  0.00    -0.400 C  
HETATM    3  H1  UNL     1     -14.429   8.071  73.214  1.00  0.00     0.000 HD 
HETATM    4  H2  UNL     1     -14.806   9.440  72.298  1.00  0.00     0.000 HD 
ENDROOT
BRANCH   2   5
HETATM    5  C   UNL     1     -12.344  10.174  71.638  1.00  0.00    -0.377 C  
HETATM    6  O   UNL     1     -11.324  10.284  70.958  1.00  0.00    -0.331 OA 
BRANCH   5   7
HETATM    7  C   UNL     1     -13.241  11.351  71.954  1.00  0.00    -0.485 C  
BRANCH   7   8
HETATM    8  C   UNL     1     -12.690  12.666  71.418  1.00  0.00    -0.347 C  
BRANCH   8   9
HETATM    9  C   UNL     1     -13.335  13.889  72.027  1.00  0.00    -0.435 C  
HETATM   10  O   UNL     1     -14.161  13.854  72.925  1.00  0.00    -0.501 OA 
BRANCH   9  11
HETATM   11  O   UNL     1     -13.007  15.005  71.316  1.00  0.00    -0.321 OA 
BRANCH  11  12
HETATM   12  C   UNL     1     -11.649  15.419  71.465  1.00  0.00    -0.411 C  
BRANCH  12  13
HETATM   13  C   UNL     1     -11.130  16.115  70.217  1.00  0.00    -0.375 C  
BRANCH  13  14
HETATM   14  C   UNL     1     -10.049  15.248  69.576  1.00  0.00    -0.261 C  
BRANCH  14  15
HETATM   15  C   UNL     1     -10.464  14.711  68.210  1.00  0.00    -0.236 C  
BRANCH  15  16
HETATM   16  C   UNL     1     -10.388  13.183  68.188  1.00  0.00    -0.247 C  
HETATM   17  C   UNL     1     -11.611  12.575  67.521  1.00  0.00    -0.424 C  
ENDBRANCH  15  16
ENDBRANCH  14  15
ENDBRANCH  13  14
ENDBRANCH  12  13
ENDBRANCH  11  12
ENDBRANCH   9  11
ENDBRANCH   8   9
ENDBRANCH   7   8
ENDBRANCH   5   7
ENDBRANCH   2   5
TORSDOF 10
ENDMDL
MODEL       68
REMARK 921   NORMALIZED FREE ENERGY PREDICTED BY IDOCK:   -4.04 KCAL/MOL
REMARK 922        TOTAL FREE ENERGY PREDICTED BY IDOCK:   -6.88 KCAL/MOL
REMARK 923 INTER-LIGAND FREE ENERGY PREDICTED BY IDOCK:   -5.89 KCAL/MOL
REMARK 924 INTRA-LIGAND FREE ENERGY PREDICTED BY IDOCK:   -0.99 KCAL/MOL
REMARK 927      BINDING AFFINITY PREDICTED BY RF-SCORE:    0.00 PKD
ROOT
HETATM    1  N   UNL     1      -9.739  12.232  63.553  1.00  0.00    -0.665 NA 
HETATM    2  C   UNL     1     -10.781  11.327  64.039  1.00  0.00    -0.377 C  
HETATM    3  H1  UNL     1      -8.872  11.720  63.389  1.00  0.00     0.000 HD 
HETATM    4  H2  UNL     1      -9.601  13.023  64.182  1.00  0.00     0.000 HD 
ENDROOT
BRANCH   2   5
HETATM    5  C   UNL     1     -12.083  12.095  64.286  1.00  0.00    -0.375 C  
HETATM    6  O   UNL     1     -13.007  12.094  63.473  1.00  0.00    -0.794 OA 
BRANCH   5   7
HETATM    7  C   UNL     1     -12.183  12.787  65.628  1.00  0.00    -0.503 C  
BRANCH   7   8
HETATM    8  C   UNL     1     -11.486  12.011  66.738  1.00  0.00    -0.410 C  
BRANCH   8   9
HETATM    9  C   UNL     1     -10.188  12.636  67.194  1.00  0.00    -0.225 C  
HETATM   10  O   UNL     1      -9.587  12.308  68.206  1.00  0.00    -0.211 OA 
BRANCH   9  11
HETATM   11  O   UNL     1      -9.886  13.722  66.429  1.00  0.00    -0.282 OA 
BRANCH  11  12
HETATM   12  C   UNL     1      -9.548  14.892  67.176  1.00  0.00    -0.225 C  
BRANCH  12  13
HETATM   13  C   UNL     1     -10.684  15.901  67.191  1.00  0.00    -0.301 C  
BRANCH  13  14
HETATM   14  C   UNL     1     -10.860  16.431  68.612  1.00  0.00    -0.331 C  
BRANCH  14  15
HETATM   15  C   UNL     1     -10.603  15.363  69.671  1.00  0.00    -0.285 C  
BRANCH  15  16
HETATM   16  C   UNL     1     -11.883  14.579  69.963  1.00  0.00    -0.372 C  
HETATM   17  C   UNL     1     -12.813  15.356  70.882  1.00  0.00    -0.536 C  
ENDBRANCH  15  16
ENDBRANCH  14  15
ENDBRANCH  13  14
ENDBRANCH  12  13
ENDBRANCH  11  12
ENDBRANCH   9  11
ENDBRANCH   8   9
ENDBRANCH   7   8
ENDBRANCH   5   7
ENDBRANCH   2   5
TORSDOF 10
ENDMDL
MODEL       69
REMARK 921   NORMALIZED FREE ENERGY PREDICTED BY IDOCK:   -4.02 KCAL/MOL
REMARK 922        TOTAL FREE ENERGY PREDICTED BY IDOCK:   -6.86 KCAL/MOL
REMARK 923 INTER-LIGAND FREE ENERGY PREDICTED BY IDOCK:   -6.38 KCAL/MOL
REMARK 924 INTRA-LIGAND FREE ENERGY PREDICTED BY IDOCK:   -0.48 KCAL/MOL
REMARK 927      BINDING AFFINITY PREDICTED BY RF-SCORE:    0.00 PKD
ROOT
HETATM    1  N   UNL     1     -13.304  16.065  73.718  1.00  0.00    -0.879 NA 
HETATM    2  C   UNL     1     -12.183  15.978  72.782  1.00  0.00    -0.516 C  
HETATM    3  H1  UNL     1     -12.980  16.374  74.634  1.00  0.00     0.000 HD 
HETATM    4  H2  UNL     1     -13.821  15.187  73.773  1.00  0.00     0.000 HD 
ENDROOT
BRANCH   2   5
HETATM    5  C   UNL     1     -12.670  15.514  71.406  1.00  0.00    -0.451 C  
HETATM    6  O   UNL     1     -13.847  15.617  71.060  1.00  0.00    -0.567 OA 
BRANCH   5   7
HETATM    7  C   UNL     1     -11.593  14.995  70.479  1.00  0.00    -0.343 C  
BRANCH   7   8
HETATM    8  C   UNL     1     -11.951  13.649  69.863  1.00  0.00    -0.415 C  
BRANCH   8   9
HETATM    9  C   UNL     1     -11.557  13.520  68.409  1.00  0.00    -0.343 C  
HETATM   10  O   UNL     1     -12.205  13.976  67.480  1.00  0.00    -0.366 OA 
BRANCH   9  11
HETATM   11  O   UNL     1     -10.493  12.679  68.276  1.00  0.00    -0.226 OA 
BRANCH  11  12
HETATM   12  C   UNL     1      -9.598  13.027  67.219  1.00  0.00    -0.225 C  
BRANCH  12  13
HETATM   13  C   UNL     1      -9.344  11.856  66.285  1.00  0.00    -0.234 C  
BRANCH  13  14
HETATM   14  C   UNL     1     -10.495  11.756  65.287  1.00  0.00    -0.320 C  
BRANCH  14  15
HETATM   15  C   UNL     1     -10.524  12.925  64.307  1.00  0.00    -0.430 C  
BRANCH  15  16
HETATM   16  C   UNL     1     -11.959  13.228  63.875  1.00  0.00    -0.541 C  
HETATM   17  C   UNL     1     -12.680  11.968  63.421  1.00  0.00    -0.527 C  
ENDBRANCH  15  16
ENDBRANCH  14  15
ENDBRANCH  13  14
ENDBRANCH  12  13
ENDBRANCH  11  12
ENDBRANCH   9  11
ENDBRANCH   8   9
ENDBRANCH   7   8
ENDBRANCH   5   7
ENDBRANCH   2   5
TORSDOF 10
ENDMDL
MODEL       70
REMARK 921   NORMALIZED FREE ENERGY PREDICTED BY IDOCK:   -4.02 KCAL/MOL
REMARK 922        TOTAL FREE ENERGY PREDICTED BY IDOCK:   -6.86 KCAL/MOL
REMARK 923 INTER-LIGAND FREE ENERGY PREDICTED BY IDOCK:   -6.42 KCAL/MOL
REMARK 924 INTRA-LIGAND FREE ENERGY PREDICTED BY IDOCK:   -0.44 KCAL/MOL
REMARK 927      BINDING AFFINITY PREDICTED BY RF-SCORE:    0.00 PKD
ROOT
HETATM    1  N   UNL     1      -9.999   6.028  70.951  1.00  0.00    -0.183 NA 
HETATM    2  C   UNL     1      -9.252   7.286  70.978  1.00  0.00    -0.154 C  
HETATM    3  H1  UNL     1      -9.743   5.481  70.129  1.00  0.00     0.000 HD 
HETATM    4  H2  UNL     1     -11.006   6.184  71.006  1.00  0.00     0.000 HD 
ENDROOT
BRANCH   2   5
HETATM    5  C   UNL     1      -9.637   8.109  72.212  1.00  0.00    -0.251 C  
HETATM    6  O   UNL     1      -8.799   8.707  72.886  1.00  0.00    -0.367 OA 
BRANCH   5   7
HETATM    7  C   UNL     1     -11.121   8.198  72.494  1.00  0.00    -0.446 C  
BRANCH   7   8
HETATM    8  C   UNL     1     -11.822   9.224  71.614  1.00  0.00    -0.453 C  
BRANCH   8   9
HETATM    9  C   UNL     1     -13.215   9.577  72.083  1.00  0.00    -0.451 C  
HETATM   10  O   UNL     1     -14.077   8.755  72.353  1.00  0.00    -0.447 OA 
BRANCH   9  11
HETATM   11  O   UNL     1     -13.426  10.920  71.985  1.00  0.00    -0.373 OA 
BRANCH  11  12
HETATM   12  C   UNL     1     -12.660  11.563  70.965  1.00  0.00    -0.357 C  
BRANCH  12  13
HETATM   13  C   UNL     1     -12.650  13.073  71.132  1.00  0.00    -0.388 C  
BRANCH  13  14
HETATM   14  C   UNL     1     -13.647  13.460  72.222  1.00  0.00    -0.703 C  
BRANCH  14  15
HETATM   15  C   UNL     1     -13.941  14.957  72.242  1.00  0.00    -0.602 C  
BRANCH  15  16
HETATM   16  C   UNL     1     -13.196  15.634  73.393  1.00  0.00    -0.628 C  
HETATM   17  C   UNL     1     -11.929  16.321  72.908  1.00  0.00    -0.615 C  
ENDBRANCH  15  16
ENDBRANCH  14  15
ENDBRANCH  13  14
ENDBRANCH  12  13
ENDBRANCH  11  12
ENDBRANCH   9  11
ENDBRANCH   8   9
ENDBRANCH   7   8
ENDBRANCH   5   7
ENDBRANCH   2   5
TORSDOF 10
ENDMDL
MODEL       71
REMARK 921   NORMALIZED FREE ENERGY PREDICTED BY IDOCK:   -4.00 KCAL/MOL
REMARK 922        TOTAL FREE ENERGY PREDICTED BY IDOCK:   -6.82 KCAL/MOL
REMARK 923 INTER-LIGAND FREE ENERGY PREDICTED BY IDOCK:   -6.33 KCAL/MOL
REMARK 924 INTRA-LIGAND FREE ENERGY PREDICTED BY IDOCK:   -0.49 KCAL/MOL
REMARK 927      BINDING AFFINITY PREDICTED BY RF-SCORE:    0.00 PKD
ROOT
HETATM    1  N   UNL     1      -9.807  20.366  67.251  1.00  0.00    -0.452 NA 
HETATM    2  C   UNL     1     -10.842  19.333  67.196  1.00  0.00    -0.440 C  
HETATM    3  H1  UNL     1     -10.019  21.043  67.984  1.00  0.00     0.000 HD 
HETATM    4  H2  UNL     1      -9.670  20.815  66.346  1.00  0.00     0.000 HD 
ENDROOT
BRANCH   2   5
HETATM    5  C   UNL     1     -10.524  18.317  66.095  1.00  0.00    -0.383 C  
HETATM    6  O   UNL     1     -10.788  18.529  64.912  1.00  0.00    -0.508 OA 
BRANCH   5   7
HETATM    7  C   UNL     1      -9.794  17.073  66.553  1.00  0.00    -0.305 C  
BRANCH   7   8
HETATM    8  C   UNL     1     -10.683  16.137  67.361  1.00  0.00    -0.291 C  
BRANCH   8   9
HETATM    9  C   UNL     1     -11.189  14.950  66.574  1.00  0.00    -0.335 C  
HETATM   10  O   UNL     1     -11.407  14.965  65.372  1.00  0.00    -0.343 OA 
BRANCH   9  11
HETATM   11  O   UNL     1     -11.537  13.934  67.414  1.00  0.00    -0.327 OA 
BRANCH  11  12
HETATM   12  C   UNL     1     -11.087  14.102  68.758  1.00  0.00    -0.262 C  
BRANCH  12  13
HETATM   13  C   UNL     1     -12.217  13.926  69.759  1.00  0.00    -0.388 C  
BRANCH  13  14
HETATM   14  C   UNL     1     -12.011  14.897  70.919  1.00  0.00    -0.374 C  
BRANCH  14  15
HETATM   15  C   UNL     1     -13.305  15.586  71.342  1.00  0.00    -0.592 C  
BRANCH  15  16
HETATM   16  C   UNL     1     -13.616  15.288  72.810  1.00  0.00    -0.611 C  
HETATM   17  C   UNL     1     -12.675  16.037  73.740  1.00  0.00    -0.719 C  
ENDBRANCH  15  16
ENDBRANCH  14  15
ENDBRANCH  13  14
ENDBRANCH  12  13
ENDBRANCH  11  12
ENDBRANCH   9  11
ENDBRANCH   8   9
ENDBRANCH   7   8
ENDBRANCH   5   7
ENDBRANCH   2   5
TORSDOF 10
ENDMDL
MODEL       72
REMARK 921   NORMALIZED FREE ENERGY PREDICTED BY IDOCK:   -3.99 KCAL/MOL
REMARK 922        TOTAL FREE ENERGY PREDICTED BY IDOCK:   -6.80 KCAL/MOL
REMARK 923 INTER-LIGAND FREE ENERGY PREDICTED BY IDOCK:   -5.89 KCAL/MOL
REMARK 924 INTRA-LIGAND FREE ENERGY PREDICTED BY IDOCK:   -0.91 KCAL/MOL
REMARK 927      BINDING AFFINITY PREDICTED BY RF-SCORE:    0.00 PKD
ROOT
HETATM    1  N   UNL     1     -10.051  11.329  64.549  1.00  0.00    -0.272 NA 
HETATM    2  C   UNL     1     -10.853  11.844  63.438  1.00  0.00    -0.399 C  
HETATM    3  H1  UNL     1      -9.127  11.050  64.219  1.00  0.00     0.000 HD 
HETATM    4  H2  UNL     1     -10.525  10.572  65.040  1.00  0.00     0.000 HD 
ENDROOT
BRANCH   2   5
HETATM    5  C   UNL     1     -12.241  12.264  63.932  1.00  0.00    -0.515 C  
HETATM    6  O   UNL     1     -13.271  11.930  63.348  1.00  0.00    -0.649 OA 
BRANCH   5   7
HETATM    7  C   UNL     1     -12.259  13.047  65.227  1.00  0.00    -0.513 C  
BRANCH   7   8
HETATM    8  C   UNL     1     -12.218  14.552  65.000  1.00  0.00    -0.376 C  
BRANCH   8   9
HETATM    9  C   UNL     1     -10.873  15.176  65.290  1.00  0.00    -0.400 C  
HETATM   10  O   UNL     1     -10.574  16.326  65.008  1.00  0.00    -0.620 OA 
BRANCH   9  11
HETATM   11  O   UNL     1      -9.996  14.232  65.735  1.00  0.00    -0.313 OA 
BRANCH  11  12
HETATM   12  C   UNL     1      -9.131  14.679  66.780  1.00  0.00    -0.264 C  
BRANCH  12  13
HETATM   13  C   UNL     1      -9.063  13.679  67.923  1.00  0.00    -0.198 C  
BRANCH  13  14
HETATM   14  C   UNL     1     -10.456  13.102  68.165  1.00  0.00    -0.255 C  
BRANCH  14  15
HETATM   15  C   UNL     1     -10.427  11.606  68.460  1.00  0.00    -0.236 C  
BRANCH  15  16
HETATM   16  C   UNL     1     -11.799  11.127  68.936  1.00  0.00    -0.406 C  
HETATM   17  C   UNL     1     -11.968  11.326  70.434  1.00  0.00    -0.471 C  
ENDBRANCH  15  16
ENDBRANCH  14  15
ENDBRANCH  13  14
ENDBRANCH  12  13
ENDBRANCH  11  12
ENDBRANCH   9  11
ENDBRANCH   8   9
ENDBRANCH   7   8
ENDBRANCH   5   7
ENDBRANCH   2   5
TORSDOF 10
ENDMDL
MODEL       73
REMARK 921   NORMALIZED FREE ENERGY PREDICTED BY IDOCK:   -3.98 KCAL/MOL
REMARK 922        TOTAL FREE ENERGY PREDICTED BY IDOCK:   -6.79 KCAL/MOL
REMARK 923 INTER-LIGAND FREE ENERGY PREDICTED BY IDOCK:   -6.30 KCAL/MOL
REMARK 924 INTRA-LIGAND FREE ENERGY PREDICTED BY IDOCK:   -0.49 KCAL/MOL
REMARK 927      BINDING AFFINITY PREDICTED BY RF-SCORE:    0.00 PKD
ROOT
HETATM    1  N   UNL     1     -11.328  11.238  63.260  1.00  0.00    -0.818 NA 
HETATM    2  C   UNL     1     -11.927  12.572  63.206  1.00  0.00    -0.426 C  
HETATM    3  H1  UNL     1     -11.197  10.869  62.318  1.00  0.00     0.000 HD 
HETATM    4  H2  UNL     1     -11.869  10.603  63.846  1.00  0.00     0.000 HD 
ENDROOT
BRANCH   2   5
HETATM    5  C   UNL     1     -12.123  13.126  64.621  1.00  0.00    -0.408 C  
HETATM    6  O   UNL     1     -13.208  13.072  65.200  1.00  0.00    -0.703 OA 
BRANCH   5   7
HETATM    7  C   UNL     1     -10.876  13.671  65.282  1.00  0.00    -0.324 C  
BRANCH   7   8
HETATM    8  C   UNL     1     -10.866  15.192  65.349  1.00  0.00    -0.393 C  
BRANCH   8   9
HETATM    9  C   UNL     1      -9.888  15.751  66.357  1.00  0.00    -0.276 C  
HETATM   10  O   UNL     1      -9.962  15.564  67.561  1.00  0.00    -0.228 OA 
BRANCH   9  11
HETATM   11  O   UNL     1      -9.035  16.629  65.758  1.00  0.00    -0.498 OA 
BRANCH  11  12
HETATM   12  C   UNL     1      -7.875  16.942  66.529  1.00  0.00    -0.294 C  
BRANCH  12  13
HETATM   13  C   UNL     1      -7.324  18.317  66.190  1.00  0.00    -0.298 C  
BRANCH  13  14
HETATM   14  C   UNL     1      -7.778  19.312  67.255  1.00  0.00    -0.269 C  
BRANCH  14  15
HETATM   15  C   UNL     1      -8.344  18.625  68.495  1.00  0.00    -0.369 C  
BRANCH  15  16
HETATM   16  C   UNL     1      -9.688  19.242  68.883  1.00  0.00    -0.493 C  
HETATM   17  C   UNL     1     -10.313  19.992  67.717  1.00  0.00    -0.506 C  
ENDBRANCH  15  16
ENDBRANCH  14  15
ENDBRANCH  13  14
ENDBRANCH  12  13
ENDBRANCH  11  12
ENDBRANCH   9  11
ENDBRANCH   8   9
ENDBRANCH   7   8
ENDBRANCH   5   7
ENDBRANCH   2   5
TORSDOF 10
ENDMDL
MODEL       74
REMARK 921   NORMALIZED FREE ENERGY PREDICTED BY IDOCK:   -3.98 KCAL/MOL
REMARK 922        TOTAL FREE ENERGY PREDICTED BY IDOCK:   -6.79 KCAL/MOL
REMARK 923 INTER-LIGAND FREE ENERGY PREDICTED BY IDOCK:   -5.89 KCAL/MOL
REMARK 924 INTRA-LIGAND FREE ENERGY PREDICTED BY IDOCK:   -0.90 KCAL/MOL
REMARK 927      BINDING AFFINITY PREDICTED BY RF-SCORE:    0.00 PKD
ROOT
HETATM    1  N   UNL     1     -12.410  14.231  63.590  1.00  0.00    -1.109 NA 
HETATM    2  C   UNL     1     -12.531  14.004  65.030  1.00  0.00    -0.425 C  
HETATM    3  H1  UNL     1     -12.819  15.131  63.337  1.00  0.00     0.000 HD 
HETATM    4  H2  UNL     1     -12.811  13.465  63.050  1.00  0.00     0.000 HD 
ENDROOT
BRANCH   2   5
HETATM    5  C   UNL     1     -11.916  12.654  65.411  1.00  0.00    -0.446 C  
HETATM    6  O   UNL     1     -11.606  11.814  64.566  1.00  0.00    -0.301 OA 
BRANCH   5   7
HETATM    7  C   UNL     1     -11.644  12.458  66.887  1.00  0.00    -0.437 C  
BRANCH   7   8
HETATM    8  C   UNL     1     -11.998  13.688  67.713  1.00  0.00    -0.387 C  
BRANCH   8   9
HETATM    9  C   UNL     1     -11.889  13.470  69.205  1.00  0.00    -0.340 C  
HETATM   10  O   UNL     1     -12.015  12.384  69.751  1.00  0.00    -0.312 OA 
BRANCH   9  11
HETATM   11  O   UNL     1     -11.817  14.664  69.858  1.00  0.00    -0.282 OA 
BRANCH  11  12
HETATM   12  C   UNL     1     -10.547  15.311  69.761  1.00  0.00    -0.282 C  
BRANCH  12  13
HETATM   13  C   UNL     1     -10.689  16.788  69.431  1.00  0.00    -0.300 C  
BRANCH  13  14
HETATM   14  C   UNL     1      -9.747  17.134  68.281  1.00  0.00    -0.280 C  
BRANCH  14  15
HETATM   15  C   UNL     1     -10.393  16.933  66.914  1.00  0.00    -0.304 C  
BRANCH  15  16
HETATM   16  C   UNL     1      -9.540  16.003  66.050  1.00  0.00    -0.385 C  
HETATM   17  C   UNL     1      -8.249  15.618  66.756  1.00  0.00    -0.300 C  
ENDBRANCH  15  16
ENDBRANCH  14  15
ENDBRANCH  13  14
ENDBRANCH  12  13
ENDBRANCH  11  12
ENDBRANCH   9  11
ENDBRANCH   8   9
ENDBRANCH   7   8
ENDBRANCH   5   7
ENDBRANCH   2   5
TORSDOF 10
ENDMDL
MODEL       75
REMARK 921   NORMALIZED FREE ENERGY PREDICTED BY IDOCK:   -3.97 KCAL/MOL
REMARK 922        TOTAL FREE ENERGY PREDICTED BY IDOCK:   -6.78 KCAL/MOL
REMARK 923 INTER-LIGAND FREE ENERGY PREDICTED BY IDOCK:   -6.06 KCAL/MOL
REMARK 924 INTRA-LIGAND FREE ENERGY PREDICTED BY IDOCK:   -0.72 KCAL/MOL
REMARK 927      BINDING AFFINITY PREDICTED BY RF-SCORE:    0.00 PKD
ROOT
HETATM    1  N   UNL     1     -14.372   8.890  73.019  1.00  0.00    -1.154 NA 
HETATM    2  C   UNL     1     -14.226   8.029  71.845  1.00  0.00    -0.423 C  
HETATM    3  H1  UNL     1     -15.359   9.025  73.241  1.00  0.00     0.000 HD 
HETATM    4  H2  UNL     1     -13.883   9.778  72.902  1.00  0.00     0.000 HD 
ENDROOT
BRANCH   2   5
HETATM    5  C   UNL     1     -12.745   7.827  71.512  1.00  0.00    -0.332 C  
HETATM    6  O   UNL     1     -12.310   6.755  71.092  1.00  0.00    -0.371 OA 
BRANCH   5   7
HETATM    7  C   UNL     1     -11.874   9.055  71.662  1.00  0.00    -0.431 C  
BRANCH   7   8
HETATM    8  C   UNL     1     -12.142  10.097  70.584  1.00  0.00    -0.411 C  
BRANCH   8   9
HETATM    9  C   UNL     1     -12.486  11.463  71.130  1.00  0.00    -0.360 C  
HETATM   10  O   UNL     1     -13.292  11.661  72.026  1.00  0.00    -0.481 OA 
BRANCH   9  11
HETATM   11  O   UNL     1     -11.916  12.439  70.368  1.00  0.00    -0.344 OA 
BRANCH  11  12
HETATM   12  C   UNL     1     -12.019  12.221  68.961  1.00  0.00    -0.248 C  
BRANCH  12  13
HETATM   13  C   UNL     1     -10.843  12.822  68.208  1.00  0.00    -0.270 C  
BRANCH  13  14
HETATM   14  C   UNL     1     -10.816  12.254  66.791  1.00  0.00    -0.291 C  
BRANCH  14  15
HETATM   15  C   UNL     1      -9.847  11.085  66.647  1.00  0.00    -0.235 C  
BRANCH  15  16
HETATM   16  C   UNL     1      -9.999  10.429  65.274  1.00  0.00    -0.376 C  
HETATM   17  C   UNL     1      -9.916  11.455  64.156  1.00  0.00    -0.335 C  
ENDBRANCH  15  16
ENDBRANCH  14  15
ENDBRANCH  13  14
ENDBRANCH  12  13
ENDBRANCH  11  12
ENDBRANCH   9  11
ENDBRANCH   8   9
ENDBRANCH   7   8
ENDBRANCH   5   7
ENDBRANCH   2   5
TORSDOF 10
ENDMDL
MODEL       76
REMARK 921   NORMALIZED FREE ENERGY PREDICTED BY IDOCK:   -3.97 KCAL/MOL
REMARK 922        TOTAL FREE ENERGY PREDICTED BY IDOCK:   -6.77 KCAL/MOL
REMARK 923 INTER-LIGAND FREE ENERGY PREDICTED BY IDOCK:   -6.14 KCAL/MOL
REMARK 924 INTRA-LIGAND FREE ENERGY PREDICTED BY IDOCK:   -0.63 KCAL/MOL
REMARK 927      BINDING AFFINITY PREDICTED BY RF-SCORE:    0.00 PKD
ROOT
HETATM    1  N   UNL     1     -10.511  10.453  70.106  1.00  0.00    -0.445 NA 
HETATM    2  C   UNL     1     -11.217   9.521  70.986  1.00  0.00    -0.362 C  
HETATM    3  H1  UNL     1      -9.653  10.028  69.754  1.00  0.00     0.000 HD 
HETATM    4  H2  UNL     1     -10.335  11.347  70.563  1.00  0.00     0.000 HD 
ENDROOT
BRANCH   2   5
HETATM    5  C   UNL     1     -12.506  10.157  71.514  1.00  0.00    -0.427 C  
HETATM    6  O   UNL     1     -13.323   9.524  72.181  1.00  0.00    -0.414 OA 
BRANCH   5   7
HETATM    7  C   UNL     1     -12.665  11.634  71.224  1.00  0.00    -0.444 C  
BRANCH   7   8
HETATM    8  C   UNL     1     -13.505  12.349  72.274  1.00  0.00    -0.428 C  
BRANCH   8   9
HETATM    9  C   UNL     1     -13.333  13.850  72.273  1.00  0.00    -0.503 C  
HETATM   10  O   UNL     1     -13.401  14.549  73.272  1.00  0.00    -0.611 OA 
BRANCH   9  11
HETATM   11  O   UNL     1     -13.276  14.323  70.996  1.00  0.00    -0.350 OA 
BRANCH  11  12
HETATM   12  C   UNL     1     -12.546  15.542  70.852  1.00  0.00    -0.456 C  
BRANCH  12  13
HETATM   13  C   UNL     1     -11.862  15.634  69.498  1.00  0.00    -0.387 C  
BRANCH  13  14
HETATM   14  C   UNL     1     -11.374  14.246  69.091  1.00  0.00    -0.312 C  
BRANCH  14  15
HETATM   15  C   UNL     1     -11.977  13.778  67.770  1.00  0.00    -0.391 C  
BRANCH  15  16
HETATM   16  C   UNL     1     -10.873  13.406  66.779  1.00  0.00    -0.286 C  
HETATM   17  C   UNL     1     -10.761  14.431  65.662  1.00  0.00    -0.326 C  
ENDBRANCH  15  16
ENDBRANCH  14  15
ENDBRANCH  13  14
ENDBRANCH  12  13
ENDBRANCH  11  12
ENDBRANCH   9  11
ENDBRANCH   8   9
ENDBRANCH   7   8
ENDBRANCH   5   7
ENDBRANCH   2   5
TORSDOF 10
ENDMDL
MODEL       77
REMARK 921   NORMALIZED FREE ENERGY PREDICTED BY IDOCK:   -3.97 KCAL/MOL
REMARK 922        TOTAL FREE ENERGY PREDICTED BY IDOCK:   -6.77 KCAL/MOL
REMARK 923 INTER-LIGAND FREE ENERGY PREDICTED BY IDOCK:   -6.17 KCAL/MOL
REMARK 924 INTRA-LIGAND FREE ENERGY PREDICTED BY IDOCK:   -0.59 KCAL/MOL
REMARK 927      BINDING AFFINITY PREDICTED BY RF-SCORE:    0.00 PKD
ROOT
HETATM    1  N   UNL     1     -12.819   7.000  70.658  1.00  0.00    -0.543 NA 
HETATM    2  C   UNL     1     -11.980   7.364  71.801  1.00  0.00    -0.305 C  
HETATM    3  H1  UNL     1     -13.228   6.076  70.798  1.00  0.00     0.000 HD 
HETATM    4  H2  UNL     1     -12.308   7.062  69.778  1.00  0.00     0.000 HD 
ENDROOT
BRANCH   2   5
HETATM    5  C   UNL     1     -11.366   8.751  71.592  1.00  0.00    -0.320 C  
HETATM    6  O   UNL     1     -10.218   9.018  71.946  1.00  0.00    -0.343 OA 
BRANCH   5   7
HETATM    7  C   UNL     1     -12.239   9.741  70.853  1.00  0.00    -0.390 C  
BRANCH   7   8
HETATM    8  C   UNL     1     -13.107  10.570  71.791  1.00  0.00    -0.570 C  
BRANCH   8   9
HETATM    9  C   UNL     1     -12.991  12.060  71.570  1.00  0.00    -0.304 C  
HETATM   10  O   UNL     1     -13.657  12.896  72.162  1.00  0.00    -0.528 OA 
BRANCH   9  11
HETATM   11  O   UNL     1     -12.185  12.323  70.502  1.00  0.00    -0.360 OA 
BRANCH  11  12
HETATM   12  C   UNL     1     -12.245  13.673  70.039  1.00  0.00    -0.329 C  
BRANCH  12  13
HETATM   13  C   UNL     1     -11.938  13.775  68.554  1.00  0.00    -0.402 C  
BRANCH  13  14
HETATM   14  C   UNL     1     -11.875  12.369  67.961  1.00  0.00    -0.376 C  
BRANCH  14  15
HETATM   15  C   UNL     1     -11.758  12.380  66.440  1.00  0.00    -0.453 C  
BRANCH  15  16
HETATM   16  C   UNL     1     -12.514  13.574  65.853  1.00  0.00    -0.484 C  
HETATM   17  C   UNL     1     -11.933  13.995  64.513  1.00  0.00    -0.470 C  
ENDBRANCH  15  16
ENDBRANCH  14  15
ENDBRANCH  13  14
ENDBRANCH  12  13
ENDBRANCH  11  12
ENDBRANCH   9  11
ENDBRANCH   8   9
ENDBRANCH   7   8
ENDBRANCH   5   7
ENDBRANCH   2   5
TORSDOF 10
ENDMDL
MODEL       78
REMARK 921   NORMALIZED FREE ENERGY PREDICTED BY IDOCK:   -3.96 KCAL/MOL
REMARK 922        TOTAL FREE ENERGY PREDICTED BY IDOCK:   -6.77 KCAL/MOL
REMARK 923 INTER-LIGAND FREE ENERGY PREDICTED BY IDOCK:   -5.64 KCAL/MOL
REMARK 924 INTRA-LIGAND FREE ENERGY PREDICTED BY IDOCK:   -1.13 KCAL/MOL
REMARK 927      BINDING AFFINITY PREDICTED BY RF-SCORE:    0.00 PKD
ROOT
HETATM    1  N   UNL     1     -14.051  15.345  70.806  1.00  0.00    -0.852 NA 
HETATM    2  C   UNL     1     -12.654  15.701  71.057  1.00  0.00    -0.459 C  
HETATM    3  H1  UNL     1     -14.608  15.474  71.652  1.00  0.00     0.000 HD 
HETATM    4  H2  UNL     1     -14.141  14.400  70.432  1.00  0.00     0.000 HD 
ENDROOT
BRANCH   2   5
HETATM    5  C   UNL     1     -11.818  15.507  69.789  1.00  0.00    -0.359 C  
HETATM    6  O   UNL     1     -10.823  16.191  69.550  1.00  0.00    -0.280 OA 
BRANCH   5   7
HETATM    7  C   UNL     1     -12.254  14.368  68.893  1.00  0.00    -0.214 C  
BRANCH   7   8
HETATM    8  C   UNL     1     -11.688  13.025  69.339  1.00  0.00    -0.386 C  
BRANCH   8   9
HETATM    9  C   UNL     1     -10.719  12.416  68.352  1.00  0.00    -0.235 C  
HETATM   10  O   UNL     1     -10.894  11.346  67.790  1.00  0.00    -0.204 OA 
BRANCH   9  11
HETATM   11  O   UNL     1      -9.557  13.129  68.322  1.00  0.00    -0.222 OA 
BRANCH  11  12
HETATM   12  C   UNL     1      -9.053  13.377  67.009  1.00  0.00    -0.243 C  
BRANCH  12  13
HETATM   13  C   UNL     1      -9.587  14.680  66.436  1.00  0.00    -0.323 C  
BRANCH  13  14
HETATM   14  C   UNL     1     -10.326  14.385  65.133  1.00  0.00    -0.447 C  
BRANCH  14  15
HETATM   15  C   UNL     1     -11.842  14.447  65.293  1.00  0.00    -0.373 C  
BRANCH  15  16
HETATM   16  C   UNL     1     -12.462  13.068  65.063  1.00  0.00    -0.534 C  
HETATM   17  C   UNL     1     -11.688  12.277  64.020  1.00  0.00    -0.506 C  
ENDBRANCH  15  16
ENDBRANCH  14  15
ENDBRANCH  13  14
ENDBRANCH  12  13
ENDBRANCH  11  12
ENDBRANCH   9  11
ENDBRANCH   8   9
ENDBRANCH   7   8
ENDBRANCH   5   7
ENDBRANCH   2   5
TORSDOF 10
ENDMDL
MODEL       79
REMARK 921   NORMALIZED FREE ENERGY PREDICTED BY IDOCK:   -3.94 KCAL/MOL
REMARK 922        TOTAL FREE ENERGY PREDICTED BY IDOCK:   -6.73 KCAL/MOL
REMARK 923 INTER-LIGAND FREE ENERGY PREDICTED BY IDOCK:   -6.04 KCAL/MOL
REMARK 924 INTRA-LIGAND FREE ENERGY PREDICTED BY IDOCK:   -0.69 KCAL/MOL
REMARK 927      BINDING AFFINITY PREDICTED BY RF-SCORE:    0.00 PKD
ROOT
HETATM    1  N   UNL     1     -12.155  12.327  66.080  1.00  0.00    -0.630 NA 
HETATM    2  C   UNL     1     -12.014  13.506  66.935  1.00  0.00    -0.399 C  
HETATM    3  H1  UNL     1     -13.109  11.969  66.123  1.00  0.00     0.000 HD 
HETATM    4  H2  UNL     1     -11.468  11.609  66.308  1.00  0.00     0.000 HD 
ENDROOT
BRANCH   2   5
HETATM    5  C   UNL     1     -10.582  14.045  66.870  1.00  0.00    -0.280 C  
HETATM    6  O   UNL     1      -9.658  13.389  66.390  1.00  0.00    -0.269 OA 
BRANCH   5   7
HETATM    7  C   UNL     1     -10.401  15.464  67.363  1.00  0.00    -0.262 C  
BRANCH   7   8
HETATM    8  C   UNL     1      -9.790  16.376  66.307  1.00  0.00    -0.336 C  
BRANCH   8   9
HETATM    9  C   UNL     1     -10.721  17.471  65.837  1.00  0.00    -0.119 C  
HETATM   10  O   UNL     1     -11.129  17.579  64.691  1.00  0.00    -0.978 OA 
BRANCH   9  11
HETATM   11  O   UNL     1     -10.886  18.408  66.813  1.00  0.00    -0.297 OA 
BRANCH  11  12
HETATM   12  C   UNL     1     -10.457  19.720  66.447  1.00  0.00    -0.507 C  
BRANCH  12  13
HETATM   13  C   UNL     1      -9.177  20.116  67.163  1.00  0.00    -0.506 C  
BRANCH  13  14
HETATM   14  C   UNL     1      -9.090  19.357  68.485  1.00  0.00    -0.426 C  
BRANCH  14  15
HETATM   15  C   UNL     1      -7.821  18.518  68.596  1.00  0.00    -0.338 C  
BRANCH  15  16
HETATM   16  C   UNL     1      -6.586  19.419  68.654  1.00  0.00    -0.310 C  
HETATM   17  C   UNL     1      -6.276  19.845  70.080  1.00  0.00    -0.385 C  
ENDBRANCH  15  16
ENDBRANCH  14  15
ENDBRANCH  13  14
ENDBRANCH  12  13
ENDBRANCH  11  12
ENDBRANCH   9  11
ENDBRANCH   8   9
ENDBRANCH   7   8
ENDBRANCH   5   7
ENDBRANCH   2   5
TORSDOF 10
ENDMDL
MODEL       80
REMARK 921   NORMALIZED FREE ENERGY PREDICTED BY IDOCK:   -3.93 KCAL/MOL
REMARK 922        TOTAL FREE ENERGY PREDICTED BY IDOCK:   -6.72 KCAL/MOL
REMARK 923 INTER-LIGAND FREE ENERGY PREDICTED BY IDOCK:   -6.41 KCAL/MOL
REMARK 924 INTRA-LIGAND FREE ENERGY PREDICTED BY IDOCK:   -0.31 KCAL/MOL
REMARK 927      BINDING AFFINITY PREDICTED BY RF-SCORE:    0.00 PKD
ROOT
HETATM    1  N   UNL     1     -14.086   9.054  72.989  1.00  0.00    -1.146 NA 
HETATM    2  C   UNL     1     -13.748   9.334  71.593  1.00  0.00    -0.354 C  
HETATM    3  H1  UNL     1     -14.586   8.168  73.063  1.00  0.00     0.000 HD 
HETATM    4  H2  UNL     1     -14.606   9.821  73.414  1.00  0.00     0.000 HD 
ENDROOT
BRANCH   2   5
HETATM    5  C   UNL     1     -12.998  10.665  71.482  1.00  0.00    -0.461 C  
HETATM    6  O   UNL     1     -13.349  11.668  72.103  1.00  0.00    -0.491 OA 
BRANCH   5   7
HETATM    7  C   UNL     1     -11.753  10.637  70.621  1.00  0.00    -0.454 C  
BRANCH   7   8
HETATM    8  C   UNL     1     -12.000  11.179  69.220  1.00  0.00    -0.421 C  
BRANCH   8   9
HETATM    9  C   UNL     1     -11.040  12.274  68.813  1.00  0.00    -0.251 C  
HETATM   10  O   UNL     1      -9.945  12.074  68.311  1.00  0.00    -0.194 OA 
BRANCH   9  11
HETATM   11  O   UNL     1     -11.485  13.485  69.250  1.00  0.00    -0.265 OA 
BRANCH  11  12
HETATM   12  C   UNL     1     -10.736  14.599  68.762  1.00  0.00    -0.249 C  
BRANCH  12  13
HETATM   13  C   UNL     1     -11.556  15.878  68.766  1.00  0.00    -0.389 C  
BRANCH  13  14
HETATM   14  C   UNL     1     -10.802  16.955  67.990  1.00  0.00    -0.338 C  
BRANCH  14  15
HETATM   15  C   UNL     1     -10.176  18.005  68.903  1.00  0.00    -0.320 C  
BRANCH  15  16
HETATM   16  C   UNL     1     -10.275  19.393  68.270  1.00  0.00    -0.535 C  
HETATM   17  C   UNL     1     -10.618  19.307  66.791  1.00  0.00    -0.543 C  
ENDBRANCH  15  16
ENDBRANCH  14  15
ENDBRANCH  13  14
ENDBRANCH  12  13
ENDBRANCH  11  12
ENDBRANCH   9  11
ENDBRANCH   8   9
ENDBRANCH   7   8
ENDBRANCH   5   7
ENDBRANCH   2   5
TORSDOF 10
ENDMDL
MODEL       81
REMARK 921   NORMALIZED FREE ENERGY PREDICTED BY IDOCK:   -3.93 KCAL/MOL
REMARK 922        TOTAL FREE ENERGY PREDICTED BY IDOCK:   -6.71 KCAL/MOL
REMARK 923 INTER-LIGAND FREE ENERGY PREDICTED BY IDOCK:   -6.35 KCAL/MOL
REMARK 924 INTRA-LIGAND FREE ENERGY PREDICTED BY IDOCK:   -0.36 KCAL/MOL
REMARK 927      BINDING AFFINITY PREDICTED BY RF-SCORE:    0.00 PKD
ROOT
HETATM    1  N   UNL     1     -14.212   8.821  73.083  1.00  0.00    -1.172 NA 
HETATM    2  C   UNL     1     -13.672   8.814  71.723  1.00  0.00    -0.419 C  
HETATM    3  H1  UNL     1     -14.910   8.085  73.192  1.00  0.00     0.000 HD 
HETATM    4  H2  UNL     1     -14.580   9.737  73.340  1.00  0.00     0.000 HD 
ENDROOT
BRANCH   2   5
HETATM    5  C   UNL     1     -12.623   9.918  71.558  1.00  0.00    -0.416 C  
HETATM    6  O   UNL     1     -11.451   9.670  71.278  1.00  0.00    -0.339 OA 
BRANCH   5   7
HETATM    7  C   UNL     1     -13.146  11.332  71.686  1.00  0.00    -0.513 C  
BRANCH   7   8
HETATM    8  C   UNL     1     -12.398  12.314  70.794  1.00  0.00    -0.383 C  
BRANCH   8   9
HETATM    9  C   UNL     1     -12.570  13.759  71.202  1.00  0.00    -0.373 C  
HETATM   10  O   UNL     1     -13.469  14.167  71.921  1.00  0.00    -0.347 OA 
BRANCH   9  11
HETATM   11  O   UNL     1     -11.703  14.556  70.515  1.00  0.00    -0.277 OA 
BRANCH  11  12
HETATM   12  C   UNL     1     -11.795  14.437  69.095  1.00  0.00    -0.323 C  
BRANCH  12  13
HETATM   13  C   UNL     1     -10.751  15.285  68.388  1.00  0.00    -0.250 C  
BRANCH  13  14
HETATM   14  C   UNL     1     -10.301  16.404  69.325  1.00  0.00    -0.292 C  
BRANCH  14  15
HETATM   15  C   UNL     1      -9.709  17.593  68.574  1.00  0.00    -0.328 C  
BRANCH  15  16
HETATM   16  C   UNL     1     -10.614  17.997  67.409  1.00  0.00    -0.378 C  
HETATM   17  C   UNL     1     -10.819  19.502  67.361  1.00  0.00    -0.536 C  
ENDBRANCH  15  16
ENDBRANCH  14  15
ENDBRANCH  13  14
ENDBRANCH  12  13
ENDBRANCH  11  12
ENDBRANCH   9  11
ENDBRANCH   8   9
ENDBRANCH   7   8
ENDBRANCH   5   7
ENDBRANCH   2   5
TORSDOF 10
ENDMDL
MODEL       82
REMARK 921   NORMALIZED FREE ENERGY PREDICTED BY IDOCK:   -3.92 KCAL/MOL
REMARK 922        TOTAL FREE ENERGY PREDICTED BY IDOCK:   -6.70 KCAL/MOL
REMARK 923 INTER-LIGAND FREE ENERGY PREDICTED BY IDOCK:   -5.73 KCAL/MOL
REMARK 924 INTRA-LIGAND FREE ENERGY PREDICTED BY IDOCK:   -0.98 KCAL/MOL
REMARK 927      BINDING AFFINITY PREDICTED BY RF-SCORE:    0.00 PKD
ROOT
HETATM    1  N   UNL     1     -14.258   8.852  73.098  1.00  0.00    -1.200 NA 
HETATM    2  C   UNL     1     -13.790   8.916  71.714  1.00  0.00    -0.417 C  
HETATM    3  H1  UNL     1     -14.978   8.135  73.197  1.00  0.00     0.000 HD 
HETATM    4  H2  UNL     1     -14.578   9.760  73.433  1.00  0.00     0.000 HD 
ENDROOT
BRANCH   2   5
HETATM    5  C   UNL     1     -12.710   9.991  71.565  1.00  0.00    -0.429 C  
HETATM    6  O   UNL     1     -12.932  11.178  71.801  1.00  0.00    -0.451 OA 
BRANCH   5   7
HETATM    7  C   UNL     1     -11.336   9.482  71.185  1.00  0.00    -0.440 C  
BRANCH   7   8
HETATM    8  C   UNL     1     -10.750   8.546  72.234  1.00  0.00    -0.411 C  
BRANCH   8   9
HETATM    9  C   UNL     1      -9.279   8.257  72.037  1.00  0.00    -0.204 C  
HETATM   10  O   UNL     1      -8.461   9.084  71.666  1.00  0.00    -0.339 OA 
BRANCH   9  11
HETATM   11  O   UNL     1      -9.036   6.921  72.153  1.00  0.00    -0.133 OA 
BRANCH  11  12
HETATM   12  C   UNL     1     -10.164   6.151  72.569  1.00  0.00    -0.185 C  
BRANCH  12  13
HETATM   13  C   UNL     1     -10.326   4.889  71.739  1.00  0.00    -0.249 C  
BRANCH  13  14
HETATM   14  C   UNL     1     -10.066   5.222  70.271  1.00  0.00    -0.329 C  
BRANCH  14  15
HETATM   15  C   UNL     1     -11.213   6.003  69.637  1.00  0.00    -0.428 C  
BRANCH  15  16
HETATM   16  C   UNL     1     -10.798   6.548  68.269  1.00  0.00    -0.359 C  
HETATM   17  C   UNL     1      -9.602   7.480  68.383  1.00  0.00    -0.152 C  
ENDBRANCH  15  16
ENDBRANCH  14  15
ENDBRANCH  13  14
ENDBRANCH  12  13
ENDBRANCH  11  12
ENDBRANCH   9  11
ENDBRANCH   8   9
ENDBRANCH   7   8
ENDBRANCH   5   7
ENDBRANCH   2   5
TORSDOF 10
ENDMDL
MODEL       83
REMARK 921   NORMALIZED FREE ENERGY PREDICTED BY IDOCK:   -3.92 KCAL/MOL
REMARK 922        TOTAL FREE ENERGY PREDICTED BY IDOCK:   -6.70 KCAL/MOL
REMARK 923 INTER-LIGAND FREE ENERGY PREDICTED BY IDOCK:   -5.80 KCAL/MOL
REMARK 924 INTRA-LIGAND FREE ENERGY PREDICTED BY IDOCK:   -0.89 KCAL/MOL
REMARK 927      BINDING AFFINITY PREDICTED BY RF-SCORE:    0.00 PKD
ROOT
HETATM    1  N   UNL     1      -7.606  19.141  67.537  1.00  0.00    -0.234 NA 
HETATM    2  C   UNL     1      -8.365  19.762  66.451  1.00  0.00    -0.350 C  
HETATM    3  H1  UNL     1      -6.605  19.274  67.392  1.00  0.00     0.000 HD 
HETATM    4  H2  UNL     1      -7.846  18.156  67.653  1.00  0.00     0.000 HD 
ENDROOT
BRANCH   2   5
HETATM    5  C   UNL     1      -9.868  19.563  66.668  1.00  0.00    -0.394 C  
HETATM    6  O   UNL     1     -10.686  19.723  65.763  1.00  0.00    -0.512 OA 
BRANCH   5   7
HETATM    7  C   UNL     1     -10.265  19.080  68.046  1.00  0.00    -0.476 C  
BRANCH   7   8
HETATM    8  C   UNL     1     -10.879  17.687  68.023  1.00  0.00    -0.240 C  
BRANCH   8   9
HETATM    9  C   UNL     1      -9.953  16.605  68.531  1.00  0.00    -0.261 C  
HETATM   10  O   UNL     1      -8.875  16.820  69.065  1.00  0.00    -0.253 OA 
BRANCH   9  11
HETATM   11  O   UNL     1     -10.398  15.376  68.146  1.00  0.00    -0.234 OA 
BRANCH  11  12
HETATM   12  C   UNL     1     -11.783  15.145  68.406  1.00  0.00    -0.316 C  
BRANCH  12  13
HETATM   13  C   UNL     1     -12.004  13.870  69.202  1.00  0.00    -0.404 C  
BRANCH  13  14
HETATM   14  C   UNL     1     -12.001  14.205  70.691  1.00  0.00    -0.385 C  
BRANCH  14  15
HETATM   15  C   UNL     1     -12.596  15.579  70.983  1.00  0.00    -0.513 C  
BRANCH  15  16
HETATM   16  C   UNL     1     -13.783  15.457  71.939  1.00  0.00    -0.603 C  
HETATM   17  C   UNL     1     -14.187  14.005  72.141  1.00  0.00    -0.628 C  
ENDBRANCH  15  16
ENDBRANCH  14  15
ENDBRANCH  13  14
ENDBRANCH  12  13
ENDBRANCH  11  12
ENDBRANCH   9  11
ENDBRANCH   8   9
ENDBRANCH   7   8
ENDBRANCH   5   7
ENDBRANCH   2   5
TORSDOF 10
ENDMDL
MODEL       84
REMARK 921   NORMALIZED FREE ENERGY PREDICTED BY IDOCK:   -3.91 KCAL/MOL
REMARK 922        TOTAL FREE ENERGY PREDICTED BY IDOCK:   -6.68 KCAL/MOL
REMARK 923 INTER-LIGAND FREE ENERGY PREDICTED BY IDOCK:   -6.05 KCAL/MOL
REMARK 924 INTRA-LIGAND FREE ENERGY PREDICTED BY IDOCK:   -0.62 KCAL/MOL
REMARK 927      BINDING AFFINITY PREDICTED BY RF-SCORE:    0.00 PKD
ROOT
HETATM    1  N   UNL     1     -12.385  14.022  63.224  1.00  0.00    -1.145 NA 
HETATM    2  C   UNL     1     -12.148  14.443  64.605  1.00  0.00    -0.471 C  
HETATM    3  H1  UNL     1     -12.951  13.173  63.204  1.00  0.00     0.000 HD 
HETATM    4  H2  UNL     1     -11.513  13.910  62.707  1.00  0.00     0.000 HD 
ENDROOT
BRANCH   2   5
HETATM    5  C   UNL     1     -11.298  15.716  64.637  1.00  0.00    -0.349 C  
HETATM    6  O   UNL     1     -11.606  16.724  64.002  1.00  0.00    -1.195 OA 
BRANCH   5   7
HETATM    7  C   UNL     1     -10.101  15.674  65.562  1.00  0.00    -0.395 C  
BRANCH   7   8
HETATM    8  C   UNL     1     -10.044  14.393  66.384  1.00  0.00    -0.294 C  
BRANCH   8   9
HETATM    9  C   UNL     1     -10.509  14.566  67.812  1.00  0.00    -0.242 C  
HETATM   10  O   UNL     1     -11.287  15.432  68.180  1.00  0.00    -0.324 OA 
BRANCH   9  11
HETATM   11  O   UNL     1      -9.805  13.749  68.645  1.00  0.00    -0.220 OA 
BRANCH  11  12
HETATM   12  C   UNL     1      -9.811  12.373  68.264  1.00  0.00    -0.224 C  
BRANCH  12  13
HETATM   13  C   UNL     1      -8.431  11.748  68.379  1.00  0.00    -0.155 C  
BRANCH  13  14
HETATM   14  C   UNL     1      -8.264  10.701  67.280  1.00  0.00    -0.116 C  
BRANCH  14  15
HETATM   15  C   UNL     1      -8.728  11.206  65.917  1.00  0.00    -0.167 C  
BRANCH  15  16
HETATM   16  C   UNL     1      -9.830  10.304  65.359  1.00  0.00    -0.362 C  
HETATM   17  C   UNL     1     -10.422  10.877  64.080  1.00  0.00    -0.397 C  
ENDBRANCH  15  16
ENDBRANCH  14  15
ENDBRANCH  13  14
ENDBRANCH  12  13
ENDBRANCH  11  12
ENDBRANCH   9  11
ENDBRANCH   8   9
ENDBRANCH   7   8
ENDBRANCH   5   7
ENDBRANCH   2   5
TORSDOF 10
ENDMDL
MODEL       85
REMARK 921   NORMALIZED FREE ENERGY PREDICTED BY IDOCK:   -3.90 KCAL/MOL
REMARK 922        TOTAL FREE ENERGY PREDICTED BY IDOCK:   -6.66 KCAL/MOL
REMARK 923 INTER-LIGAND FREE ENERGY PREDICTED BY IDOCK:   -6.23 KCAL/MOL
REMARK 924 INTRA-LIGAND FREE ENERGY PREDICTED BY IDOCK:   -0.43 KCAL/MOL
REMARK 927      BINDING AFFINITY PREDICTED BY RF-SCORE:    0.00 PKD
ROOT
HETATM    1  N   UNL     1     -14.144   8.842  73.276  1.00  0.00    -1.248 NA 
HETATM    2  C   UNL     1     -13.500   9.074  71.982  1.00  0.00    -0.442 C  
HETATM    3  H1  UNL     1     -15.136   9.079  73.226  1.00  0.00     0.000 HD 
HETATM    4  H2  UNL     1     -13.671   9.340  74.030  1.00  0.00     0.000 HD 
ENDROOT
BRANCH   2   5
HETATM    5  C   UNL     1     -12.012   8.718  72.056  1.00  0.00    -0.376 C  
HETATM    6  O   UNL     1     -11.578   7.884  72.849  1.00  0.00    -0.383 OA 
BRANCH   5   7
HETATM    7  C   UNL     1     -11.131   9.405  71.035  1.00  0.00    -0.414 C  
BRANCH   7   8
HETATM    8  C   UNL     1     -11.653  10.781  70.643  1.00  0.00    -0.388 C  
BRANCH   8   9
HETATM    9  C   UNL     1     -11.414  11.131  69.193  1.00  0.00    -0.298 C  
HETATM   10  O   UNL     1     -12.285  11.138  68.336  1.00  0.00    -0.610 OA 
BRANCH   9  11
HETATM   11  O   UNL     1     -10.080  11.256  68.946  1.00  0.00    -0.204 OA 
BRANCH  11  12
HETATM   12  C   UNL     1      -9.744  12.313  68.046  1.00  0.00    -0.205 C  
BRANCH  12  13
HETATM   13  C   UNL     1      -9.539  11.805  66.628  1.00  0.00    -0.219 C  
BRANCH  13  14
HETATM   14  C   UNL     1     -10.162  12.797  65.649  1.00  0.00    -0.292 C  
BRANCH  14  15
HETATM   15  C   UNL     1     -11.475  12.292  65.059  1.00  0.00    -0.386 C  
BRANCH  15  16
HETATM   16  C   UNL     1     -12.503  13.423  64.993  1.00  0.00    -0.479 C  
HETATM   17  C   UNL     1     -12.106  14.587  65.887  1.00  0.00    -0.288 C  
ENDBRANCH  15  16
ENDBRANCH  14  15
ENDBRANCH  13  14
ENDBRANCH  12  13
ENDBRANCH  11  12
ENDBRANCH   9  11
ENDBRANCH   8   9
ENDBRANCH   7   8
ENDBRANCH   5   7
ENDBRANCH   2   5
TORSDOF 10
ENDMDL
MODEL       86
REMARK 921   NORMALIZED FREE ENERGY PREDICTED BY IDOCK:   -3.90 KCAL/MOL
REMARK 922        TOTAL FREE ENERGY PREDICTED BY IDOCK:   -6.66 KCAL/MOL
REMARK 923 INTER-LIGAND FREE ENERGY PREDICTED BY IDOCK:   -6.03 KCAL/MOL
REMARK 924 INTRA-LIGAND FREE ENERGY PREDICTED BY IDOCK:   -0.63 KCAL/MOL
REMARK 927      BINDING AFFINITY PREDICTED BY RF-SCORE:    0.00 PKD
ROOT
HETATM    1  N   UNL     1     -13.004  16.036  74.054  1.00  0.00    -0.897 NA 
HETATM    2  C   UNL     1     -13.844  15.696  72.905  1.00  0.00    -0.491 C  
HETATM    3  H1  UNL     1     -13.250  16.959  74.413  1.00  0.00     0.000 HD 
HETATM    4  H2  UNL     1     -12.011  15.966  73.832  1.00  0.00     0.000 HD 
ENDROOT
BRANCH   2   5
HETATM    5  C   UNL     1     -13.476  14.311  72.366  1.00  0.00    -0.489 C  
HETATM    6  O   UNL     1     -14.228  13.343  72.480  1.00  0.00    -0.721 OA 
BRANCH   5   7
HETATM    7  C   UNL     1     -12.164  14.235  71.616  1.00  0.00    -0.351 C  
BRANCH   7   8
HETATM    8  C   UNL     1     -12.239  13.328  70.395  1.00  0.00    -0.404 C  
BRANCH   8   9
HETATM    9  C   UNL     1     -11.560  13.898  69.171  1.00  0.00    -0.313 C  
HETATM   10  O   UNL     1     -11.598  15.076  68.851  1.00  0.00    -0.294 OA 
BRANCH   9  11
HETATM   11  O   UNL     1     -11.065  12.896  68.390  1.00  0.00    -0.235 OA 
BRANCH  11  12
HETATM   12  C   UNL     1     -11.756  11.653  68.521  1.00  0.00    -0.315 C  
BRANCH  12  13
HETATM   13  C   UNL     1     -10.830  10.467  68.306  1.00  0.00    -0.293 C  
BRANCH  13  14
HETATM   14  C   UNL     1      -9.939  10.302  69.536  1.00  0.00    -0.252 C  
BRANCH  14  15
HETATM   15  C   UNL     1     -10.734   9.958  70.792  1.00  0.00    -0.350 C  
BRANCH  15  16
HETATM   16  C   UNL     1      -9.927   9.026  71.697  1.00  0.00    -0.383 C  
HETATM   17  C   UNL     1      -8.476   8.940  71.254  1.00  0.00    -0.239 C  
ENDBRANCH  15  16
ENDBRANCH  14  15
ENDBRANCH  13  14
ENDBRANCH  12  13
ENDBRANCH  11  12
ENDBRANCH   9  11
ENDBRANCH   8   9
ENDBRANCH   7   8
ENDBRANCH   5   7
ENDBRANCH   2   5
TORSDOF 10
ENDMDL
MODEL       87
REMARK 921   NORMALIZED FREE ENERGY PREDICTED BY IDOCK:   -3.90 KCAL/MOL
REMARK 922        TOTAL FREE ENERGY PREDICTED BY IDOCK:   -6.66 KCAL/MOL
REMARK 923 INTER-LIGAND FREE ENERGY PREDICTED BY IDOCK:   -5.81 KCAL/MOL
REMARK 924 INTRA-LIGAND FREE ENERGY PREDICTED BY IDOCK:   -0.85 KCAL/MOL
REMARK 927      BINDING AFFINITY PREDICTED BY RF-SCORE:    0.00 PKD
ROOT
HETATM    1  N   UNL     1      -7.124  10.825  64.785  1.00  0.00    -0.349 NA 
HETATM    2  C   UNL     1      -8.255  10.156  64.142  1.00  0.00    -0.165 C  
HETATM    3  H1  UNL     1      -6.266  10.656  64.260  1.00  0.00     0.000 HD 
HETATM    4  H2  UNL     1      -7.030  10.555  65.764  1.00  0.00     0.000 HD 
ENDROOT
BRANCH   2   5
HETATM    5  C   UNL     1      -9.544  10.409  64.931  1.00  0.00    -0.289 C  
HETATM    6  O   UNL     1     -10.059   9.544  65.637  1.00  0.00    -0.285 OA 
BRANCH   5   7
HETATM    7  C   UNL     1     -10.090  11.818  64.842  1.00  0.00    -0.298 C  
BRANCH   7   8
HETATM    8  C   UNL     1     -10.940  12.037  63.597  1.00  0.00    -0.517 C  
BRANCH   8   9
HETATM    9  C   UNL     1     -12.170  12.881  63.842  1.00  0.00    -0.449 C  
HETATM   10  O   UNL     1     -12.596  13.716  63.058  1.00  0.00    -0.729 OA 
BRANCH   9  11
HETATM   11  O   UNL     1     -12.619  12.713  65.117  1.00  0.00    -0.594 OA 
BRANCH  11  12
HETATM   12  C   UNL     1     -12.837  13.932  65.829  1.00  0.00    -0.391 C  
BRANCH  12  13
HETATM   13  C   UNL     1     -12.030  13.987  67.116  1.00  0.00    -0.465 C  
BRANCH  13  14
HETATM   14  C   UNL     1     -11.212  15.277  67.136  1.00  0.00    -0.291 C  
BRANCH  14  15
HETATM   15  C   UNL     1     -10.565  15.580  65.789  1.00  0.00    -0.370 C  
BRANCH  15  16
HETATM   16  C   UNL     1      -9.087  15.932  65.971  1.00  0.00    -0.363 C  
HETATM   17  C   UNL     1      -8.410  14.993  66.957  1.00  0.00    -0.254 C  
ENDBRANCH  15  16
ENDBRANCH  14  15
ENDBRANCH  13  14
ENDBRANCH  12  13
ENDBRANCH  11  12
ENDBRANCH   9  11
ENDBRANCH   8   9
ENDBRANCH   7   8
ENDBRANCH   5   7
ENDBRANCH   2   5
TORSDOF 10
ENDMDL
MODEL       88
REMARK 921   NORMALIZED FREE ENERGY PREDICTED BY IDOCK:   -3.89 KCAL/MOL
REMARK 922        TOTAL FREE ENERGY PREDICTED BY IDOCK:   -6.65 KCAL/MOL
REMARK 923 INTER-LIGAND FREE ENERGY PREDICTED BY IDOCK:   -5.99 KCAL/MOL
REMARK 924 INTRA-LIGAND FREE ENERGY PREDICTED BY IDOCK:   -0.66 KCAL/MOL
REMARK 927      BINDING AFFINITY PREDICTED BY RF-SCORE:    0.00 PKD
ROOT
HETATM    1  N   UNL     1     -11.774  11.681  67.121  1.00  0.00    -0.598 NA 
HETATM    2  C   UNL     1     -11.789  12.226  65.763  1.00  0.00    -0.352 C  
HETATM    3  H1  UNL     1     -11.365  10.747  67.125  1.00  0.00     0.000 HD 
HETATM    4  H2  UNL     1     -12.702  11.692  67.545  1.00  0.00     0.000 HD 
ENDROOT
BRANCH   2   5
HETATM    5  C   UNL     1     -12.403  13.629  65.757  1.00  0.00    -0.482 C  
HETATM    6  O   UNL     1     -13.572  13.830  65.430  1.00  0.00    -0.517 OA 
BRANCH   5   7
HETATM    7  C   UNL     1     -11.498  14.734  66.256  1.00  0.00    -0.316 C  
BRANCH   7   8
HETATM    8  C   UNL     1     -10.809  15.482  65.122  1.00  0.00    -0.452 C  
BRANCH   8   9
HETATM    9  C   UNL     1      -9.795  16.499  65.592  1.00  0.00    -0.152 C  
HETATM   10  O   UNL     1      -8.750  16.216  66.158  1.00  0.00    -0.324 OA 
BRANCH   9  11
HETATM   11  O   UNL     1     -10.290  17.762  65.463  1.00  0.00    -0.623 OA 
BRANCH  11  12
HETATM   12  C   UNL     1      -9.542  18.761  66.157  1.00  0.00    -0.220 C  
BRANCH  12  13
HETATM   13  C   UNL     1     -10.447  19.783  66.826  1.00  0.00    -0.610 C  
BRANCH  13  14
HETATM   14  C   UNL     1     -10.403  19.572  68.337  1.00  0.00    -0.486 C  
BRANCH  14  15
HETATM   15  C   UNL     1      -9.606  18.333  68.733  1.00  0.00    -0.317 C  
BRANCH  15  16
HETATM   16  C   UNL     1     -10.546  17.207  69.166  1.00  0.00    -0.259 C  
HETATM   17  C   UNL     1      -9.788  15.911  69.404  1.00  0.00    -0.280 C  
ENDBRANCH  15  16
ENDBRANCH  14  15
ENDBRANCH  13  14
ENDBRANCH  12  13
ENDBRANCH  11  12
ENDBRANCH   9  11
ENDBRANCH   8   9
ENDBRANCH   7   8
ENDBRANCH   5   7
ENDBRANCH   2   5
TORSDOF 10
ENDMDL
MODEL       89
REMARK 921   NORMALIZED FREE ENERGY PREDICTED BY IDOCK:   -3.89 KCAL/MOL
REMARK 922        TOTAL FREE ENERGY PREDICTED BY IDOCK:   -6.64 KCAL/MOL
REMARK 923 INTER-LIGAND FREE ENERGY PREDICTED BY IDOCK:   -6.27 KCAL/MOL
REMARK 924 INTRA-LIGAND FREE ENERGY PREDICTED BY IDOCK:   -0.38 KCAL/MOL
REMARK 927      BINDING AFFINITY PREDICTED BY RF-SCORE:    0.00 PKD
ROOT
HETATM    1  N   UNL     1      -9.406  19.919  65.833  1.00  0.00    -0.463 NA 
HETATM    2  C   UNL     1     -10.592  19.135  66.180  1.00  0.00    -0.439 C  
HETATM    3  H1  UNL     1      -9.615  20.917  65.878  1.00  0.00     0.000 HD 
HETATM    4  H2  UNL     1      -9.025  19.651  64.927  1.00  0.00     0.000 HD 
ENDROOT
BRANCH   2   5
HETATM    5  C   UNL     1     -10.279  17.637  66.113  1.00  0.00    -0.343 C  
HETATM    6  O   UNL     1      -9.539  17.086  66.927  1.00  0.00    -0.241 OA 
BRANCH   5   7
HETATM    7  C   UNL     1     -11.003  16.872  65.027  1.00  0.00    -0.055 C  
BRANCH   7   8
HETATM    8  C   UNL     1     -10.809  15.366  65.143  1.00  0.00    -0.447 C  
BRANCH   8   9
HETATM    9  C   UNL     1     -12.047  14.565  64.812  1.00  0.00    -0.445 C  
HETATM   10  O   UNL     1     -12.607  14.585  63.727  1.00  0.00    -0.825 OA 
BRANCH   9  11
HETATM   11  O   UNL     1     -12.546  13.972  65.933  1.00  0.00    -0.488 OA 
BRANCH  11  12
HETATM   12  C   UNL     1     -11.686  14.048  67.071  1.00  0.00    -0.398 C  
BRANCH  12  13
HETATM   13  C   UNL     1     -11.976  12.944  68.073  1.00  0.00    -0.323 C  
BRANCH  13  14
HETATM   14  C   UNL     1     -11.423  13.351  69.437  1.00  0.00    -0.333 C  
BRANCH  14  15
HETATM   15  C   UNL     1     -12.367  12.994  70.581  1.00  0.00    -0.391 C  
BRANCH  15  16
HETATM   16  C   UNL     1     -13.037  14.252  71.136  1.00  0.00    -0.412 C  
HETATM   17  C   UNL     1     -14.036  13.913  72.231  1.00  0.00    -0.663 C  
ENDBRANCH  15  16
ENDBRANCH  14  15
ENDBRANCH  13  14
ENDBRANCH  12  13
ENDBRANCH  11  12
ENDBRANCH   9  11
ENDBRANCH   8   9
ENDBRANCH   7   8
ENDBRANCH   5   7
ENDBRANCH   2   5
TORSDOF 10
ENDMDL
MODEL       90
REMARK 921   NORMALIZED FREE ENERGY PREDICTED BY IDOCK:   -3.86 KCAL/MOL
REMARK 922        TOTAL FREE ENERGY PREDICTED BY IDOCK:   -6.60 KCAL/MOL
REMARK 923 INTER-LIGAND FREE ENERGY PREDICTED BY IDOCK:   -5.64 KCAL/MOL
REMARK 924 INTRA-LIGAND FREE ENERGY PREDICTED BY IDOCK:   -0.96 KCAL/MOL
REMARK 927      BINDING AFFINITY PREDICTED BY RF-SCORE:    0.00 PKD
ROOT
HETATM    1  N   UNL     1      -8.226  19.905  65.776  1.00  0.00    -0.495 NA 
HETATM    2  C   UNL     1      -8.288  20.521  67.101  1.00  0.00    -0.276 C  
HETATM    3  H1  UNL     1      -7.824  20.554  65.100  1.00  0.00     0.000 HD 
HETATM    4  H2  UNL     1      -9.138  19.559  65.476  1.00  0.00     0.000 HD 
ENDROOT
BRANCH   2   5
HETATM    5  C   UNL     1      -8.892  19.546  68.116  1.00  0.00    -0.330 C  
HETATM    6  O   UNL     1      -8.252  19.125  69.079  1.00  0.00    -0.321 OA 
BRANCH   5   7
HETATM    7  C   UNL     1     -10.348  19.201  67.896  1.00  0.00    -0.505 C  
BRANCH   7   8
HETATM    8  C   UNL     1     -10.623  17.709  68.032  1.00  0.00    -0.379 C  
BRANCH   8   9
HETATM    9  C   UNL     1     -10.485  16.944  66.736  1.00  0.00    -0.260 C  
HETATM   10  O   UNL     1     -10.005  17.408  65.713  1.00  0.00    -0.539 OA 
BRANCH   9  11
HETATM   11  O   UNL     1     -11.130  15.746  66.818  1.00  0.00    -0.252 OA 
BRANCH  11  12
HETATM   12  C   UNL     1     -10.261  14.616  66.913  1.00  0.00    -0.262 C  
BRANCH  12  13
HETATM   13  C   UNL     1     -10.311  13.980  68.292  1.00  0.00    -0.247 C  
BRANCH  13  14
HETATM   14  C   UNL     1     -11.763  13.663  68.643  1.00  0.00    -0.389 C  
BRANCH  14  15
HETATM   15  C   UNL     1     -12.083  13.936  70.110  1.00  0.00    -0.418 C  
BRANCH  15  16
HETATM   16  C   UNL     1     -12.157  15.441  70.371  1.00  0.00    -0.408 C  
HETATM   17  C   UNL     1     -11.751  15.778  71.797  1.00  0.00    -0.562 C  
ENDBRANCH  15  16
ENDBRANCH  14  15
ENDBRANCH  13  14
ENDBRANCH  12  13
ENDBRANCH  11  12
ENDBRANCH   9  11
ENDBRANCH   8   9
ENDBRANCH   7   8
ENDBRANCH   5   7
ENDBRANCH   2   5
TORSDOF 10
ENDMDL
MODEL       91
REMARK 921   NORMALIZED FREE ENERGY PREDICTED BY IDOCK:   -3.84 KCAL/MOL
REMARK 922        TOTAL FREE ENERGY PREDICTED BY IDOCK:   -6.57 KCAL/MOL
REMARK 923 INTER-LIGAND FREE ENERGY PREDICTED BY IDOCK:   -5.94 KCAL/MOL
REMARK 924 INTRA-LIGAND FREE ENERGY PREDICTED BY IDOCK:   -0.63 KCAL/MOL
REMARK 927      BINDING AFFINITY PREDICTED BY RF-SCORE:    0.00 PKD
ROOT
HETATM    1  N   UNL     1     -14.117   8.853  73.145  1.00  0.00    -1.225 NA 
HETATM    2  C   UNL     1     -13.028   9.111  72.202  1.00  0.00    -0.425 C  
HETATM    3  H1  UNL     1     -14.800   9.610  73.115  1.00  0.00     0.000 HD 
HETATM    4  H2  UNL     1     -13.770   8.690  74.090  1.00  0.00     0.000 HD 
ENDROOT
BRANCH   2   5
HETATM    5  C   UNL     1     -12.003   7.974  72.246  1.00  0.00    -0.358 C  
HETATM    6  O   UNL     1     -11.040   7.991  73.012  1.00  0.00    -0.382 OA 
BRANCH   5   7
HETATM    7  C   UNL     1     -12.301   6.798  71.342  1.00  0.00    -0.403 C  
BRANCH   7   8
HETATM    8  C   UNL     1     -11.067   6.308  70.595  1.00  0.00    -0.389 C  
BRANCH   8   9
HETATM    9  C   UNL     1     -10.835   7.011  69.277  1.00  0.00    -0.214 C  
HETATM   10  O   UNL     1     -11.151   6.554  68.190  1.00  0.00    -0.291 OA 
BRANCH   9  11
HETATM   11  O   UNL     1     -10.067   8.122  69.459  1.00  0.00    -0.184 OA 
BRANCH  11  12
HETATM   12  C   UNL     1     -10.587   9.302  68.845  1.00  0.00    -0.199 C  
BRANCH  12  13
HETATM   13  C   UNL     1     -10.653  10.466  69.820  1.00  0.00    -0.302 C  
BRANCH  13  14
HETATM   14  C   UNL     1     -11.898  11.297  69.522  1.00  0.00    -0.427 C  
BRANCH  14  15
HETATM   15  C   UNL     1     -11.673  12.307  68.402  1.00  0.00    -0.390 C  
BRANCH  15  16
HETATM   16  C   UNL     1     -11.962  13.726  68.894  1.00  0.00    -0.394 C  
HETATM   17  C   UNL     1     -12.467  13.725  70.328  1.00  0.00    -0.357 C  
ENDBRANCH  15  16
ENDBRANCH  14  15
ENDBRANCH  13  14
ENDBRANCH  12  13
ENDBRANCH  11  12
ENDBRANCH   9  11
ENDBRANCH   8   9
ENDBRANCH   7   8
ENDBRANCH   5   7
ENDBRANCH   2   5
TORSDOF 10
ENDMDL
MODEL       92
REMARK 921   NORMALIZED FREE ENERGY PREDICTED BY IDOCK:   -3.83 KCAL/MOL
REMARK 922        TOTAL FREE ENERGY PREDICTED BY IDOCK:   -6.55 KCAL/MOL
REMARK 923 INTER-LIGAND FREE ENERGY PREDICTED BY IDOCK:   -5.84 KCAL/MOL
REMARK 924 INTRA-LIGAND FREE ENERGY PREDICTED BY IDOCK:   -0.72 KCAL/MOL
REMARK 927      BINDING AFFINITY PREDICTED BY RF-SCORE:    0.00 PKD
ROOT
HETATM    1  N   UNL     1     -11.466  15.192  64.295  1.00  0.00    -0.677 NA 
HETATM    2  C   UNL     1     -12.516  14.200  64.528  1.00  0.00    -0.322 C  
HETATM    3  H1  UNL     1     -11.716  16.082  64.727  1.00  0.00     0.000 HD 
HETATM    4  H2  UNL     1     -11.256  15.295  63.303  1.00  0.00     0.000 HD 
ENDROOT
BRANCH   2   5
HETATM    5  C   UNL     1     -12.142  12.863  63.881  1.00  0.00    -0.480 C  
HETATM    6  O   UNL     1     -12.976  12.147  63.330  1.00  0.00    -0.776 OA 
BRANCH   5   7
HETATM    7  C   UNL     1     -10.667  12.526  63.899  1.00  0.00    -0.473 C  
BRANCH   7   8
HETATM    8  C   UNL     1     -10.289  11.615  65.059  1.00  0.00    -0.329 C  
BRANCH   8   9
HETATM    9  C   UNL     1      -9.791  12.357  66.278  1.00  0.00    -0.247 C  
HETATM   10  O   UNL     1      -9.493  13.541  66.286  1.00  0.00    -0.255 OA 
BRANCH   9  11
HETATM   11  O   UNL     1      -9.550  11.488  67.300  1.00  0.00    -0.171 OA 
BRANCH  11  12
HETATM   12  C   UNL     1     -10.090  11.896  68.558  1.00  0.00    -0.206 C  
BRANCH  12  13
HETATM   13  C   UNL     1     -11.583  12.165  68.472  1.00  0.00    -0.366 C  
BRANCH  13  14
HETATM   14  C   UNL     1     -11.994  13.072  69.630  1.00  0.00    -0.367 C  
BRANCH  14  15
HETATM   15  C   UNL     1     -11.446  14.489  69.486  1.00  0.00    -0.330 C  
BRANCH  15  16
HETATM   16  C   UNL     1     -12.270  15.469  70.323  1.00  0.00    -0.432 C  
HETATM   17  C   UNL     1     -12.434  14.977  71.753  1.00  0.00    -0.407 C  
ENDBRANCH  15  16
ENDBRANCH  14  15
ENDBRANCH  13  14
ENDBRANCH  12  13
ENDBRANCH  11  12
ENDBRANCH   9  11
ENDBRANCH   8   9
ENDBRANCH   7   8
ENDBRANCH   5   7
ENDBRANCH   2   5
TORSDOF 10
ENDMDL
MODEL       93
REMARK 921   NORMALIZED FREE ENERGY PREDICTED BY IDOCK:   -3.83 KCAL/MOL
REMARK 922        TOTAL FREE ENERGY PREDICTED BY IDOCK:   -6.55 KCAL/MOL
REMARK 923 INTER-LIGAND FREE ENERGY PREDICTED BY IDOCK:   -5.78 KCAL/MOL
REMARK 924 INTRA-LIGAND FREE ENERGY PREDICTED BY IDOCK:   -0.77 KCAL/MOL
REMARK 927      BINDING AFFINITY PREDICTED BY RF-SCORE:    0.00 PKD
ROOT
HETATM    1  N   UNL     1     -12.075  10.598  68.331  1.00  0.00    -0.813 NA 
HETATM    2  C   UNL     1     -11.029  10.521  67.310  1.00  0.00    -0.260 C  
HETATM    3  H1  UNL     1     -12.258   9.674  68.723  1.00  0.00     0.000 HD 
HETATM    4  H2  UNL     1     -12.924  11.035  67.972  1.00  0.00     0.000 HD 
ENDROOT
BRANCH   2   5
HETATM    5  C   UNL     1     -10.754  11.907  66.722  1.00  0.00    -0.246 C  
HETATM    6  O   UNL     1     -11.006  12.942  67.338  1.00  0.00    -0.249 OA 
BRANCH   5   7
HETATM    7  C   UNL     1     -10.079  11.913  65.367  1.00  0.00    -0.285 C  
BRANCH   7   8
HETATM    8  C   UNL     1     -11.011  11.471  64.247  1.00  0.00    -0.406 C  
BRANCH   8   9
HETATM    9  C   UNL     1     -12.214  12.369  64.067  1.00  0.00    -0.490 C  
HETATM   10  O   UNL     1     -13.371  11.981  64.105  1.00  0.00    -0.725 OA 
BRANCH   9  11
HETATM   11  O   UNL     1     -11.825  13.616  63.679  1.00  0.00    -0.380 OA 
BRANCH  11  12
HETATM   12  C   UNL     1     -12.250  14.663  64.552  1.00  0.00    -0.456 C  
BRANCH  12  13
HETATM   13  C   UNL     1     -11.313  15.858  64.499  1.00  0.00    -0.316 C  
BRANCH  13  14
HETATM   14  C   UNL     1     -10.728  16.095  65.890  1.00  0.00    -0.261 C  
BRANCH  14  15
HETATM   15  C   UNL     1      -9.288  15.608  66.010  1.00  0.00    -0.384 C  
BRANCH  15  16
HETATM   16  C   UNL     1      -8.439  16.628  66.770  1.00  0.00    -0.270 C  
HETATM   17  C   UNL     1      -7.029  16.111  67.006  1.00  0.00    -0.234 C  
ENDBRANCH  15  16
ENDBRANCH  14  15
ENDBRANCH  13  14
ENDBRANCH  12  13
ENDBRANCH  11  12
ENDBRANCH   9  11
ENDBRANCH   8   9
ENDBRANCH   7   8
ENDBRANCH   5   7
ENDBRANCH   2   5
TORSDOF 10
ENDMDL
MODEL       94
REMARK 921   NORMALIZED FREE ENERGY PREDICTED BY IDOCK:   -3.83 KCAL/MOL
REMARK 922        TOTAL FREE ENERGY PREDICTED BY IDOCK:   -6.55 KCAL/MOL
REMARK 923 INTER-LIGAND FREE ENERGY PREDICTED BY IDOCK:   -6.20 KCAL/MOL
REMARK 924 INTRA-LIGAND FREE ENERGY PREDICTED BY IDOCK:   -0.35 KCAL/MOL
REMARK 927      BINDING AFFINITY PREDICTED BY RF-SCORE:    0.00 PKD
ROOT
HETATM    1  N   UNL     1      -8.302  10.555  67.467  1.00  0.00    -0.118 NA 
HETATM    2  C   UNL     1      -8.519  11.096  66.125  1.00  0.00    -0.156 C  
HETATM    3  H1  UNL     1      -7.532  11.042  67.926  1.00  0.00     0.000 HD 
HETATM    4  H2  UNL     1      -8.158   9.546  67.451  1.00  0.00     0.000 HD 
ENDROOT
BRANCH   2   5
HETATM    5  C   UNL     1      -9.675  10.365  65.435  1.00  0.00    -0.265 C  
HETATM    6  O   UNL     1      -9.970   9.202  65.709  1.00  0.00    -0.277 OA 
BRANCH   5   7
HETATM    7  C   UNL     1     -10.475  11.197  64.456  1.00  0.00    -0.415 C  
BRANCH   7   8
HETATM    8  C   UNL     1     -10.803  12.582  64.998  1.00  0.00    -0.324 C  
BRANCH   8   9
HETATM    9  C   UNL     1     -12.203  12.701  65.556  1.00  0.00    -0.440 C  
HETATM   10  O   UNL     1     -13.189  12.967  64.885  1.00  0.00    -0.782 OA 
BRANCH   9  11
HETATM   11  O   UNL     1     -12.180  12.655  66.917  1.00  0.00    -0.489 OA 
BRANCH  11  12
HETATM   12  C   UNL     1     -11.862  13.899  67.543  1.00  0.00    -0.396 C  
BRANCH  12  13
HETATM   13  C   UNL     1     -11.902  13.796  69.059  1.00  0.00    -0.397 C  
BRANCH  13  14
HETATM   14  C   UNL     1     -11.795  15.196  69.657  1.00  0.00    -0.362 C  
BRANCH  14  15
HETATM   15  C   UNL     1     -12.759  15.411  70.820  1.00  0.00    -0.516 C  
BRANCH  15  16
HETATM   16  C   UNL     1     -11.997  15.844  72.073  1.00  0.00    -0.602 C  
HETATM   17  C   UNL     1     -12.746  15.458  73.339  1.00  0.00    -0.656 C  
ENDBRANCH  15  16
ENDBRANCH  14  15
ENDBRANCH  13  14
ENDBRANCH  12  13
ENDBRANCH  11  12
ENDBRANCH   9  11
ENDBRANCH   8   9
ENDBRANCH   7   8
ENDBRANCH   5   7
ENDBRANCH   2   5
TORSDOF 10
ENDMDL
MODEL       95
REMARK 921   NORMALIZED FREE ENERGY PREDICTED BY IDOCK:   -3.82 KCAL/MOL
REMARK 922        TOTAL FREE ENERGY PREDICTED BY IDOCK:   -6.54 KCAL/MOL
REMARK 923 INTER-LIGAND FREE ENERGY PREDICTED BY IDOCK:   -5.97 KCAL/MOL
REMARK 924 INTRA-LIGAND FREE ENERGY PREDICTED BY IDOCK:   -0.57 KCAL/MOL
REMARK 927      BINDING AFFINITY PREDICTED BY RF-SCORE:    0.00 PKD
ROOT
HETATM    1  N   UNL     1     -13.829   8.913  73.307  1.00  0.00    -1.162 NA 
HETATM    2  C   UNL     1     -13.846   9.181  71.868  1.00  0.00    -0.395 C  
HETATM    3  H1  UNL     1     -14.373   8.076  73.519  1.00  0.00     0.000 HD 
HETATM    4  H2  UNL     1     -14.143   9.718  73.847  1.00  0.00     0.000 HD 
ENDROOT
BRANCH   2   5
HETATM    5  C   UNL     1     -13.029  10.437  71.550  1.00  0.00    -0.458 C  
HETATM    6  O   UNL     1     -13.264  11.522  72.080  1.00  0.00    -0.505 OA 
BRANCH   5   7
HETATM    7  C   UNL     1     -11.869  10.231  70.600  1.00  0.00    -0.439 C  
BRANCH   7   8
HETATM    8  C   UNL     1     -10.912   9.145  71.074  1.00  0.00    -0.375 C  
BRANCH   8   9
HETATM    9  C   UNL     1     -10.827   7.959  70.141  1.00  0.00    -0.243 C  
HETATM   10  O   UNL     1     -11.486   6.938  70.267  1.00  0.00    -0.311 OA 
BRANCH   9  11
HETATM   11  O   UNL     1      -9.796   8.114  69.264  1.00  0.00    -0.175 OA 
BRANCH  11  12
HETATM   12  C   UNL     1      -9.921   7.345  68.067  1.00  0.00    -0.164 C  
BRANCH  12  13
HETATM   13  C   UNL     1     -10.495   8.166  66.924  1.00  0.00    -0.379 C  
BRANCH  13  14
HETATM   14  C   UNL     1      -9.707   9.468  66.801  1.00  0.00    -0.254 C  
BRANCH  14  15
HETATM   15  C   UNL     1     -10.377  10.472  65.868  1.00  0.00    -0.275 C  
BRANCH  15  16
HETATM   16  C   UNL     1      -9.803  10.357  64.455  1.00  0.00    -0.405 C  
HETATM   17  C   UNL     1     -10.130  11.586  63.621  1.00  0.00    -0.427 C  
ENDBRANCH  15  16
ENDBRANCH  14  15
ENDBRANCH  13  14
ENDBRANCH  12  13
ENDBRANCH  11  12
ENDBRANCH   9  11
ENDBRANCH   8   9
ENDBRANCH   7   8
ENDBRANCH   5   7
ENDBRANCH   2   5
TORSDOF 10
ENDMDL
MODEL       96
REMARK 921   NORMALIZED FREE ENERGY PREDICTED BY IDOCK:   -3.81 KCAL/MOL
REMARK 922        TOTAL FREE ENERGY PREDICTED BY IDOCK:   -6.53 KCAL/MOL
REMARK 923 INTER-LIGAND FREE ENERGY PREDICTED BY IDOCK:   -5.95 KCAL/MOL
REMARK 924 INTRA-LIGAND FREE ENERGY PREDICTED BY IDOCK:   -0.58 KCAL/MOL
REMARK 927      BINDING AFFINITY PREDICTED BY RF-SCORE:    0.00 PKD
ROOT
HETATM    1  N   UNL     1     -11.097   5.412  66.008  1.00  0.00    -0.789 NA 
HETATM    2  C   UNL     1     -11.033   6.354  67.126  1.00  0.00    -0.399 C  
HETATM    3  H1  UNL     1     -11.817   4.709  66.177  1.00  0.00     0.000 HD 
HETATM    4  H2  UNL     1     -10.190   4.988  65.817  1.00  0.00     0.000 HD 
ENDROOT
BRANCH   2   5
HETATM    5  C   UNL     1      -9.953   7.410  66.872  1.00  0.00    -0.236 C  
HETATM    6  O   UNL     1      -9.124   7.294  65.970  1.00  0.00    -0.153 OA 
BRANCH   5   7
HETATM    7  C   UNL     1     -10.025   8.636  67.756  1.00  0.00    -0.240 C  
BRANCH   7   8
HETATM    8  C   UNL     1     -10.656   9.829  67.050  1.00  0.00    -0.269 C  
BRANCH   8   9
HETATM    9  C   UNL     1     -11.378  10.775  67.981  1.00  0.00    -0.307 C  
HETATM   10  O   UNL     1     -11.526  10.581  69.178  1.00  0.00    -0.257 OA 
BRANCH   9  11
HETATM   11  O   UNL     1     -11.990  11.766  67.273  1.00  0.00    -0.618 OA 
BRANCH  11  12
HETATM   12  C   UNL     1     -11.341  13.036  67.357  1.00  0.00    -0.305 C  
BRANCH  12  13
HETATM   13  C   UNL     1     -12.201  14.149  66.783  1.00  0.00    -0.429 C  
BRANCH  13  14
HETATM   14  C   UNL     1     -12.496  13.844  65.316  1.00  0.00    -0.504 C  
BRANCH  14  15
HETATM   15  C   UNL     1     -11.247  13.915  64.441  1.00  0.00    -0.341 C  
BRANCH  15  16
HETATM   16  C   UNL     1     -11.023  12.585  63.719  1.00  0.00    -0.496 C  
HETATM   17  C   UNL     1     -12.335  11.852  63.486  1.00  0.00    -0.603 C  
ENDBRANCH  15  16
ENDBRANCH  14  15
ENDBRANCH  13  14
ENDBRANCH  12  13
ENDBRANCH  11  12
ENDBRANCH   9  11
ENDBRANCH   8   9
ENDBRANCH   7   8
ENDBRANCH   5   7
ENDBRANCH   2   5
TORSDOF 10
ENDMDL
MODEL       97
REMARK 921   NORMALIZED FREE ENERGY PREDICTED BY IDOCK:   -3.80 KCAL/MOL
REMARK 922        TOTAL FREE ENERGY PREDICTED BY IDOCK:   -6.51 KCAL/MOL
REMARK 923 INTER-LIGAND FREE ENERGY PREDICTED BY IDOCK:   -5.74 KCAL/MOL
REMARK 924 INTRA-LIGAND FREE ENERGY PREDICTED BY IDOCK:   -0.77 KCAL/MOL
REMARK 927      BINDING AFFINITY PREDICTED BY RF-SCORE:    0.00 PKD
ROOT
HETATM    1  N   UNL     1     -10.340  17.342  68.099  1.00  0.00    -0.347 NA 
HETATM    2  C   UNL     1     -10.682  16.085  67.434  1.00  0.00    -0.306 C  
HETATM    3  H1  UNL     1     -10.478  17.261  69.106  1.00  0.00     0.000 HD 
HETATM    4  H2  UNL     1     -10.854  18.131  67.706  1.00  0.00     0.000 HD 
ENDROOT
BRANCH   2   5
HETATM    5  C   UNL     1     -10.474  16.206  65.921  1.00  0.00    -0.352 C  
HETATM    6  O   UNL     1      -9.848  17.140  65.420  1.00  0.00    -0.490 OA 
BRANCH   5   7
HETATM    7  C   UNL     1     -11.023  15.062  65.098  1.00  0.00    -0.417 C  
BRANCH   7   8
HETATM    8  C   UNL     1     -12.136  14.308  65.814  1.00  0.00    -0.414 C  
BRANCH   8   9
HETATM    9  C   UNL     1     -12.415  12.940  65.235  1.00  0.00    -0.493 C  
HETATM   10  O   UNL     1     -12.887  12.748  64.125  1.00  0.00    -0.683 OA 
BRANCH   9  11
HETATM   11  O   UNL     1     -12.241  11.976  66.182  1.00  0.00    -0.552 OA 
BRANCH  11  12
HETATM   12  C   UNL     1     -11.754  12.462  67.434  1.00  0.00    -0.347 C  
BRANCH  12  13
HETATM   13  C   UNL     1     -10.776  11.492  68.075  1.00  0.00    -0.241 C  
BRANCH  13  14
HETATM   14  C   UNL     1     -10.689  10.232  67.216  1.00  0.00    -0.323 C  
BRANCH  14  15
HETATM   15  C   UNL     1      -9.280   9.979  66.690  1.00  0.00    -0.178 C  
BRANCH  15  16
HETATM   16  C   UNL     1      -8.992  10.869  65.479  1.00  0.00    -0.213 C  
HETATM   17  C   UNL     1      -9.813  10.446  64.271  1.00  0.00    -0.388 C  
ENDBRANCH  15  16
ENDBRANCH  14  15
ENDBRANCH  13  14
ENDBRANCH  12  13
ENDBRANCH  11  12
ENDBRANCH   9  11
ENDBRANCH   8   9
ENDBRANCH   7   8
ENDBRANCH   5   7
ENDBRANCH   2   5
TORSDOF 10
ENDMDL
MODEL       98
REMARK 921   NORMALIZED FREE ENERGY PREDICTED BY IDOCK:   -3.80 KCAL/MOL
REMARK 922        TOTAL FREE ENERGY PREDICTED BY IDOCK:   -6.50 KCAL/MOL
REMARK 923 INTER-LIGAND FREE ENERGY PREDICTED BY IDOCK:   -5.90 KCAL/MOL
REMARK 924 INTRA-LIGAND FREE ENERGY PREDICTED BY IDOCK:   -0.60 KCAL/MOL
REMARK 927      BINDING AFFINITY PREDICTED BY RF-SCORE:    0.00 PKD
ROOT
HETATM    1  N   UNL     1     -14.131  15.399  70.840  1.00  0.00    -0.864 NA 
HETATM    2  C   UNL     1     -12.784  15.609  71.370  1.00  0.00    -0.471 C  
HETATM    3  H1  UNL     1     -14.830  15.595  71.557  1.00  0.00     0.000 HD 
HETATM    4  H2  UNL     1     -14.242  14.465  70.445  1.00  0.00     0.000 HD 
ENDROOT
BRANCH   2   5
HETATM    5  C   UNL     1     -11.734  15.316  70.294  1.00  0.00    -0.308 C  
HETATM    6  O   UNL     1     -10.531  15.270  70.549  1.00  0.00    -0.242 OA 
BRANCH   5   7
HETATM    7  C   UNL     1     -12.286  15.009  68.919  1.00  0.00    -0.136 C  
BRANCH   7   8
HETATM    8  C   UNL     1     -11.397  14.055  68.132  1.00  0.00    -0.320 C  
BRANCH   8   9
HETATM    9  C   UNL     1     -11.545  14.181  66.633  1.00  0.00    -0.384 C  
HETATM   10  O   UNL     1     -12.604  14.069  66.037  1.00  0.00    -0.481 OA 
BRANCH   9  11
HETATM   11  O   UNL     1     -10.321  14.251  66.037  1.00  0.00    -0.289 OA 
BRANCH  11  12
HETATM   12  C   UNL     1     -10.017  15.525  65.467  1.00  0.00    -0.341 C  
BRANCH  12  13
HETATM   13  C   UNL     1      -8.788  16.151  66.106  1.00  0.00    -0.367 C  
BRANCH  13  14
HETATM   14  C   UNL     1      -9.093  17.607  66.450  1.00  0.00    -0.257 C  
BRANCH  14  15
HETATM   15  C   UNL     1     -10.502  18.023  66.038  1.00  0.00    -0.317 C  
BRANCH  15  16
HETATM   16  C   UNL     1     -10.635  19.547  66.047  1.00  0.00    -0.589 C  
HETATM   17  C   UNL     1     -10.198  20.134  67.379  1.00  0.00    -0.534 C  
ENDBRANCH  15  16
ENDBRANCH  14  15
ENDBRANCH  13  14
ENDBRANCH  12  13
ENDBRANCH  11  12
ENDBRANCH   9  11
ENDBRANCH   8   9
ENDBRANCH   7   8
ENDBRANCH   5   7
ENDBRANCH   2   5
TORSDOF 10
ENDMDL
MODEL       99
REMARK 921   NORMALIZED FREE ENERGY PREDICTED BY IDOCK:   -3.79 KCAL/MOL
REMARK 922        TOTAL FREE ENERGY PREDICTED BY IDOCK:   -6.49 KCAL/MOL
REMARK 923 INTER-LIGAND FREE ENERGY PREDICTED BY IDOCK:   -6.11 KCAL/MOL
REMARK 924 INTRA-LIGAND FREE ENERGY PREDICTED BY IDOCK:   -0.39 KCAL/MOL
REMARK 927      BINDING AFFINITY PREDICTED BY RF-SCORE:    0.00 PKD
ROOT
HETATM    1  N   UNL     1     -11.438   6.627  67.038  1.00  0.00    -0.754 NA 
HETATM    2  C   UNL     1     -10.144   6.717  67.715  1.00  0.00    -0.154 C  
HETATM    3  H1  UNL     1     -11.452   5.827  66.404  1.00  0.00     0.000 HD 
HETATM    4  H2  UNL     1     -11.678   7.495  66.560  1.00  0.00     0.000 HD 
ENDROOT
BRANCH   2   5
HETATM    5  C   UNL     1     -10.123   7.917  68.667  1.00  0.00    -0.197 C  
HETATM    6  O   UNL     1      -9.753   7.817  69.836  1.00  0.00    -0.174 OA 
BRANCH   5   7
HETATM    7  C   UNL     1     -10.512   9.242  68.048  1.00  0.00    -0.275 C  
BRANCH   7   8
HETATM    8  C   UNL     1     -11.225  10.160  69.033  1.00  0.00    -0.223 C  
BRANCH   8   9
HETATM    9  C   UNL     1     -11.781  11.415  68.401  1.00  0.00    -0.303 C  
HETATM   10  O   UNL     1     -11.787  11.633  67.199  1.00  0.00    -0.608 OA 
BRANCH   9  11
HETATM   11  O   UNL     1     -12.099  12.331  69.358  1.00  0.00    -0.260 OA 
BRANCH  11  12
HETATM   12  C   UNL     1     -12.043  11.829  70.694  1.00  0.00    -0.311 C  
BRANCH  12  13
HETATM   13  C   UNL     1     -13.017  12.550  71.611  1.00  0.00    -0.405 C  
BRANCH  13  14
HETATM   14  C   UNL     1     -12.856  14.057  71.423  1.00  0.00    -0.434 C  
BRANCH  14  15
HETATM   15  C   UNL     1     -14.027  14.847  71.998  1.00  0.00    -0.591 C  
BRANCH  15  16
HETATM   16  C   UNL     1     -13.525  15.924  72.961  1.00  0.00    -0.653 C  
HETATM   17  C   UNL     1     -12.492  15.367  73.928  1.00  0.00    -0.763 C  
ENDBRANCH  15  16
ENDBRANCH  14  15
ENDBRANCH  13  14
ENDBRANCH  12  13
ENDBRANCH  11  12
ENDBRANCH   9  11
ENDBRANCH   8   9
ENDBRANCH   7   8
ENDBRANCH   5   7
ENDBRANCH   2   5
TORSDOF 10
ENDMDL
MODEL      100
REMARK 921   NORMALIZED FREE ENERGY PREDICTED BY IDOCK:   -3.78 KCAL/MOL
REMARK 922        TOTAL FREE ENERGY PREDICTED BY IDOCK:   -6.47 KCAL/MOL
REMARK 923 INTER-LIGAND FREE ENERGY PREDICTED BY IDOCK:   -5.67 KCAL/MOL
REMARK 924 INTRA-LIGAND FREE ENERGY PREDICTED BY IDOCK:   -0.80 KCAL/MOL
REMARK 927      BINDING AFFINITY PREDICTED BY RF-SCORE:    0.00 PKD
ROOT
HETATM    1  N   UNL     1     -11.335  14.573  65.470  1.00  0.00    -0.328 NA 
HETATM    2  C   UNL     1     -12.521  13.718  65.422  1.00  0.00    -0.500 C  
HETATM    3  H1  UNL     1     -11.461  15.317  66.157  1.00  0.00     0.000 HD 
HETATM    4  H2  UNL     1     -11.095  14.942  64.550  1.00  0.00     0.000 HD 
ENDROOT
BRANCH   2   5
HETATM    5  C   UNL     1     -12.332  12.601  64.391  1.00  0.00    -0.446 C  
HETATM    6  O   UNL     1     -13.283  12.080  63.810  1.00  0.00    -0.723 OA 
BRANCH   5   7
HETATM    7  C   UNL     1     -10.895  12.241  64.082  1.00  0.00    -0.412 C  
BRANCH   7   8
HETATM    8  C   UNL     1     -10.410  11.038  64.881  1.00  0.00    -0.378 C  
BRANCH   8   9
HETATM    9  C   UNL     1      -9.713  11.405  66.171  1.00  0.00    -0.219 C  
HETATM   10  O   UNL     1      -9.243  12.507  66.407  1.00  0.00    -0.230 OA 
BRANCH   9  11
HETATM   11  O   UNL     1      -9.524  10.298  66.943  1.00  0.00    -0.163 OA 
BRANCH  11  12
HETATM   12  C   UNL     1     -10.728   9.725  67.455  1.00  0.00    -0.264 C  
BRANCH  12  13
HETATM   13  C   UNL     1     -11.379  10.618  68.499  1.00  0.00    -0.348 C  
BRANCH  13  14
HETATM   14  C   UNL     1     -10.733  10.351  69.856  1.00  0.00    -0.331 C  
BRANCH  14  15
HETATM   15  C   UNL     1     -11.164   9.017  70.457  1.00  0.00    -0.301 C  
BRANCH  15  16
HETATM   16  C   UNL     1     -11.845   9.233  71.809  1.00  0.00    -0.454 C  
HETATM   17  C   UNL     1     -12.936  10.289  71.719  1.00  0.00    -0.574 C  
ENDBRANCH  15  16
ENDBRANCH  14  15
ENDBRANCH  13  14
ENDBRANCH  12  13
ENDBRANCH  11  12
ENDBRANCH   9  11
ENDBRANCH   8   9
ENDBRANCH   7   8
ENDBRANCH   5   7
ENDBRANCH   2   5
TORSDOF 10
ENDMDL
MODEL      101
REMARK 921   NORMALIZED FREE ENERGY PREDICTED BY IDOCK:   -3.77 KCAL/MOL
REMARK 922        TOTAL FREE ENERGY PREDICTED BY IDOCK:   -6.46 KCAL/MOL
REMARK 923 INTER-LIGAND FREE ENERGY PREDICTED BY IDOCK:   -5.70 KCAL/MOL
REMARK 924 INTRA-LIGAND FREE ENERGY PREDICTED BY IDOCK:   -0.75 KCAL/MOL
REMARK 927      BINDING AFFINITY PREDICTED BY RF-SCORE:    0.00 PKD
ROOT
HETATM    1  N   UNL     1     -14.402   8.933  72.848  1.00  0.00    -1.124 NA 
HETATM    2  C   UNL     1     -14.195   8.027  71.718  1.00  0.00    -0.456 C  
HETATM    3  H1  UNL     1     -15.391   9.162  72.943  1.00  0.00     0.000 HD 
HETATM    4  H2  UNL     1     -13.822   9.769  72.775  1.00  0.00     0.000 HD 
ENDROOT
BRANCH   2   5
HETATM    5  C   UNL     1     -12.709   7.682  71.576  1.00  0.00    -0.345 C  
HETATM    6  O   UNL     1     -12.321   6.726  70.905  1.00  0.00    -0.381 OA 
BRANCH   5   7
HETATM    7  C   UNL     1     -11.754   8.643  72.249  1.00  0.00    -0.428 C  
BRANCH   7   8
HETATM    8  C   UNL     1     -10.486   7.957  72.742  1.00  0.00    -0.412 C  
BRANCH   8   9
HETATM    9  C   UNL     1      -9.213   8.588  72.226  1.00  0.00    -0.272 C  
HETATM   10  O   UNL     1      -8.224   8.797  72.911  1.00  0.00    -0.410 OA 
BRANCH   9  11
HETATM   11  O   UNL     1      -9.391   9.052  70.957  1.00  0.00    -0.229 OA 
BRANCH  11  12
HETATM   12  C   UNL     1      -9.300   8.048  69.946  1.00  0.00    -0.156 C  
BRANCH  12  13
HETATM   13  C   UNL     1      -9.950   8.493  68.646  1.00  0.00    -0.197 C  
BRANCH  13  14
HETATM   14  C   UNL     1      -9.885  10.016  68.553  1.00  0.00    -0.168 C  
BRANCH  14  15
HETATM   15  C   UNL     1     -11.254  10.646  68.315  1.00  0.00    -0.362 C  
BRANCH  15  16
HETATM   16  C   UNL     1     -11.766  11.313  69.593  1.00  0.00    -0.420 C  
HETATM   17  C   UNL     1     -11.548  12.818  69.560  1.00  0.00    -0.342 C  
ENDBRANCH  15  16
ENDBRANCH  14  15
ENDBRANCH  13  14
ENDBRANCH  12  13
ENDBRANCH  11  12
ENDBRANCH   9  11
ENDBRANCH   8   9
ENDBRANCH   7   8
ENDBRANCH   5   7
ENDBRANCH   2   5
TORSDOF 10
ENDMDL
MODEL      102
REMARK 921   NORMALIZED FREE ENERGY PREDICTED BY IDOCK:   -3.77 KCAL/MOL
REMARK 922        TOTAL FREE ENERGY PREDICTED BY IDOCK:   -6.46 KCAL/MOL
REMARK 923 INTER-LIGAND FREE ENERGY PREDICTED BY IDOCK:   -5.85 KCAL/MOL
REMARK 924 INTRA-LIGAND FREE ENERGY PREDICTED BY IDOCK:   -0.60 KCAL/MOL
REMARK 927      BINDING AFFINITY PREDICTED BY RF-SCORE:    0.00 PKD
ROOT
HETATM    1  N   UNL     1      -8.234  18.129  65.990  1.00  0.00    -0.511 NA 
HETATM    2  C   UNL     1      -9.521  18.388  66.636  1.00  0.00    -0.313 C  
HETATM    3  H1  UNL     1      -7.694  18.992  65.915  1.00  0.00     0.000 HD 
HETATM    4  H2  UNL     1      -8.349  17.673  65.085  1.00  0.00     0.000 HD 
ENDROOT
BRANCH   2   5
HETATM    5  C   UNL     1     -10.332  17.094  66.748  1.00  0.00    -0.302 C  
HETATM    6  O   UNL     1     -10.743  16.671  67.828  1.00  0.00    -0.334 OA 
BRANCH   5   7
HETATM    7  C   UNL     1     -10.658  16.418  65.434  1.00  0.00    -0.338 C  
BRANCH   7   8
HETATM    8  C   UNL     1     -10.776  14.906  65.568  1.00  0.00    -0.369 C  
BRANCH   8   9
HETATM    9  C   UNL     1     -11.857  14.301  64.703  1.00  0.00    -0.448 C  
HETATM   10  O   UNL     1     -12.584  14.945  63.962  1.00  0.00    -0.832 OA 
BRANCH   9  11
HETATM   11  O   UNL     1     -12.025  12.982  65.002  1.00  0.00    -0.351 OA 
BRANCH  11  12
HETATM   12  C   UNL     1     -12.215  12.140  63.863  1.00  0.00    -0.489 C  
BRANCH  12  13
HETATM   13  C   UNL     1     -10.918  11.480  63.426  1.00  0.00    -0.397 C  
BRANCH  13  14
HETATM   14  C   UNL     1      -9.955  11.438  64.611  1.00  0.00    -0.315 C  
BRANCH  14  15
HETATM   15  C   UNL     1      -9.912  10.069  65.281  1.00  0.00    -0.368 C  
BRANCH  15  16
HETATM   16  C   UNL     1     -10.410  10.162  66.724  1.00  0.00    -0.285 C  
HETATM   17  C   UNL     1      -9.902  11.423  67.406  1.00  0.00    -0.199 C  
ENDBRANCH  15  16
ENDBRANCH  14  15
ENDBRANCH  13  14
ENDBRANCH  12  13
ENDBRANCH  11  12
ENDBRANCH   9  11
ENDBRANCH   8   9
ENDBRANCH   7   8
ENDBRANCH   5   7
ENDBRANCH   2   5
TORSDOF 10
ENDMDL
MODEL      103
REMARK 921   NORMALIZED FREE ENERGY PREDICTED BY IDOCK:   -3.76 KCAL/MOL
REMARK 922        TOTAL FREE ENERGY PREDICTED BY IDOCK:   -6.45 KCAL/MOL
REMARK 923 INTER-LIGAND FREE ENERGY PREDICTED BY IDOCK:   -6.05 KCAL/MOL
REMARK 924 INTRA-LIGAND FREE ENERGY PREDICTED BY IDOCK:   -0.40 KCAL/MOL
REMARK 927      BINDING AFFINITY PREDICTED BY RF-SCORE:    0.00 PKD
ROOT
HETATM    1  N   UNL     1     -11.025   5.565  66.074  1.00  0.00    -0.736 NA 
HETATM    2  C   UNL     1     -10.704   6.235  67.334  1.00  0.00    -0.331 C  
HETATM    3  H1  UNL     1     -11.381   6.237  65.394  1.00  0.00     0.000 HD 
HETATM    4  H2  UNL     1     -11.668   4.786  66.212  1.00  0.00     0.000 HD 
ENDROOT
BRANCH   2   5
HETATM    5  C   UNL     1     -10.168   5.226  68.354  1.00  0.00    -0.137 C  
HETATM    6  O   UNL     1      -9.420   4.305  68.032  1.00  0.00    -0.145 OA 
BRANCH   5   7
HETATM    7  C   UNL     1     -10.560   5.489  69.792  1.00  0.00    -0.388 C  
BRANCH   7   8
HETATM    8  C   UNL     1     -11.653   6.542  69.917  1.00  0.00    -0.433 C  
BRANCH   8   9
HETATM    9  C   UNL     1     -12.129   6.760  71.335  1.00  0.00    -0.366 C  
HETATM   10  O   UNL     1     -11.619   6.243  72.317  1.00  0.00    -0.293 OA 
BRANCH   9  11
HETATM   11  O   UNL     1     -13.301   7.456  71.343  1.00  0.00    -0.370 OA 
BRANCH  11  12
HETATM   12  C   UNL     1     -13.291   8.615  72.177  1.00  0.00    -0.396 C  
BRANCH  12  13
HETATM   13  C   UNL     1     -12.278   9.644  71.702  1.00  0.00    -0.484 C  
BRANCH  13  14
HETATM   14  C   UNL     1     -12.992  10.973  71.464  1.00  0.00    -0.553 C  
BRANCH  14  15
HETATM   15  C   UNL     1     -12.206  11.904  70.547  1.00  0.00    -0.426 C  
BRANCH  15  16
HETATM   16  C   UNL     1     -12.560  13.364  70.834  1.00  0.00    -0.406 C  
HETATM   17  C   UNL     1     -13.475  13.486  72.042  1.00  0.00    -0.584 C  
ENDBRANCH  15  16
ENDBRANCH  14  15
ENDBRANCH  13  14
ENDBRANCH  12  13
ENDBRANCH  11  12
ENDBRANCH   9  11
ENDBRANCH   8   9
ENDBRANCH   7   8
ENDBRANCH   5   7
ENDBRANCH   2   5
TORSDOF 10
ENDMDL
MODEL      104
REMARK 921   NORMALIZED FREE ENERGY PREDICTED BY IDOCK:   -3.74 KCAL/MOL
REMARK 922        TOTAL FREE ENERGY PREDICTED BY IDOCK:   -6.42 KCAL/MOL
REMARK 923 INTER-LIGAND FREE ENERGY PREDICTED BY IDOCK:   -6.03 KCAL/MOL
REMARK 924 INTRA-LIGAND FREE ENERGY PREDICTED BY IDOCK:   -0.39 KCAL/MOL
REMARK 927      BINDING AFFINITY PREDICTED BY RF-SCORE:    0.00 PKD
ROOT
HETATM    1  N   UNL     1     -12.410  13.808  63.202  1.00  0.00    -1.106 NA 
HETATM    2  C   UNL     1     -12.288  12.408  63.610  1.00  0.00    -0.548 C  
HETATM    3  H1  UNL     1     -12.808  13.871  62.265  1.00  0.00     0.000 HD 
HETATM    4  H2  UNL     1     -11.522  14.303  63.273  1.00  0.00     0.000 HD 
ENDROOT
BRANCH   2   5
HETATM    5  C   UNL     1     -11.691  12.312  65.017  1.00  0.00    -0.352 C  
HETATM    6  O   UNL     1     -12.374  12.471  66.029  1.00  0.00    -0.615 OA 
BRANCH   5   7
HETATM    7  C   UNL     1     -10.228  11.932  65.076  1.00  0.00    -0.316 C  
BRANCH   7   8
HETATM    8  C   UNL     1     -10.017  10.424  65.131  1.00  0.00    -0.390 C  
BRANCH   8   9
HETATM    9  C   UNL     1      -9.460   9.936  66.448  1.00  0.00    -0.183 C  
HETATM   10  O   UNL     1      -8.268   9.848  66.699  1.00  0.00    -0.119 OA 
BRANCH   9  11
HETATM   11  O   UNL     1     -10.457   9.441  67.235  1.00  0.00    -0.251 OA 
BRANCH  11  12
HETATM   12  C   UNL     1     -10.170   8.170  67.819  1.00  0.00    -0.228 C  
BRANCH  12  13
HETATM   13  C   UNL     1     -10.439   8.161  69.314  1.00  0.00    -0.221 C  
BRANCH  13  14
HETATM   14  C   UNL     1     -10.343   9.589  69.846  1.00  0.00    -0.265 C  
BRANCH  14  15
HETATM   15  C   UNL     1     -11.293   9.844  71.013  1.00  0.00    -0.460 C  
BRANCH  15  16
HETATM   16  C   UNL     1     -12.350  10.880  70.627  1.00  0.00    -0.470 C  
HETATM   17  C   UNL     1     -13.041  11.452  71.854  1.00  0.00    -0.505 C  
ENDBRANCH  15  16
ENDBRANCH  14  15
ENDBRANCH  13  14
ENDBRANCH  12  13
ENDBRANCH  11  12
ENDBRANCH   9  11
ENDBRANCH   8   9
ENDBRANCH   7   8
ENDBRANCH   5   7
ENDBRANCH   2   5
TORSDOF 10
ENDMDL
MODEL      105
REMARK 921   NORMALIZED FREE ENERGY PREDICTED BY IDOCK:   -3.74 KCAL/MOL
REMARK 922        TOTAL FREE ENERGY PREDICTED BY IDOCK:   -6.42 KCAL/MOL
REMARK 923 INTER-LIGAND FREE ENERGY PREDICTED BY IDOCK:   -5.22 KCAL/MOL
REMARK 924 INTRA-LIGAND FREE ENERGY PREDICTED BY IDOCK:   -1.20 KCAL/MOL
REMARK 927      BINDING AFFINITY PREDICTED BY RF-SCORE:    0.00 PKD
ROOT
HETATM    1  N   UNL     1      -7.974  19.183  68.337  1.00  0.00    -0.327 NA 
HETATM    2  C   UNL     1      -8.636  19.913  67.255  1.00  0.00    -0.325 C  
HETATM    3  H1  UNL     1      -7.070  19.606  68.550  1.00  0.00     0.000 HD 
HETATM    4  H2  UNL     1      -7.889  18.189  68.127  1.00  0.00     0.000 HD 
ENDROOT
BRANCH   2   5
HETATM    5  C   UNL     1      -9.993  19.279  66.936  1.00  0.00    -0.356 C  
HETATM    6  O   UNL     1     -10.616  19.551  65.910  1.00  0.00    -0.504 OA 
BRANCH   5   7
HETATM    7  C   UNL     1     -10.472  18.241  67.927  1.00  0.00    -0.408 C  
BRANCH   7   8
HETATM    8  C   UNL     1     -10.710  16.883  67.281  1.00  0.00    -0.208 C  
BRANCH   8   9
HETATM    9  C   UNL     1      -9.503  16.336  66.553  1.00  0.00    -0.264 C  
HETATM   10  O   UNL     1      -8.382  16.273  67.033  1.00  0.00    -0.173 OA 
BRANCH   9  11
HETATM   11  O   UNL     1      -9.802  16.102  65.244  1.00  0.00    -0.452 OA 
BRANCH  11  12
HETATM   12  C   UNL     1     -11.197  15.957  64.976  1.00  0.00    -0.290 C  
BRANCH  12  13
HETATM   13  C   UNL     1     -11.555  14.530  64.596  1.00  0.00    -0.413 C  
BRANCH  13  14
HETATM   14  C   UNL     1     -12.350  13.895  65.736  1.00  0.00    -0.518 C  
BRANCH  14  15
HETATM   15  C   UNL     1     -11.749  12.573  66.203  1.00  0.00    -0.466 C  
BRANCH  15  16
HETATM   16  C   UNL     1     -10.309  12.434  65.707  1.00  0.00    -0.289 C  
HETATM   17  C   UNL     1      -9.312  12.599  66.843  1.00  0.00    -0.228 C  
ENDBRANCH  15  16
ENDBRANCH  14  15
ENDBRANCH  13  14
ENDBRANCH  12  13
ENDBRANCH  11  12
ENDBRANCH   9  11
ENDBRANCH   8   9
ENDBRANCH   7   8
ENDBRANCH   5   7
ENDBRANCH   2   5
TORSDOF 10
ENDMDL
MODEL      106
REMARK 921   NORMALIZED FREE ENERGY PREDICTED BY IDOCK:   -3.74 KCAL/MOL
REMARK 922        TOTAL FREE ENERGY PREDICTED BY IDOCK:   -6.41 KCAL/MOL
REMARK 923 INTER-LIGAND FREE ENERGY PREDICTED BY IDOCK:   -5.69 KCAL/MOL
REMARK 924 INTRA-LIGAND FREE ENERGY PREDICTED BY IDOCK:   -0.73 KCAL/MOL
REMARK 927      BINDING AFFINITY PREDICTED BY RF-SCORE:    0.00 PKD
ROOT
HETATM    1  N   UNL     1     -12.756  15.470  69.819  1.00  0.00    -0.602 NA 
HETATM    2  C   UNL     1     -11.543  15.709  69.036  1.00  0.00    -0.386 C  
HETATM    3  H1  UNL     1     -12.957  16.273  70.415  1.00  0.00     0.000 HD 
HETATM    4  H2  UNL     1     -12.698  14.604  70.353  1.00  0.00     0.000 HD 
ENDROOT
BRANCH   2   5
HETATM    5  C   UNL     1     -11.240  14.504  68.140  1.00  0.00    -0.284 C  
HETATM    6  O   UNL     1     -12.090  13.652  67.881  1.00  0.00    -0.357 OA 
BRANCH   5   7
HETATM    7  C   UNL     1      -9.854  14.479  67.535  1.00  0.00    -0.222 C  
BRANCH   7   8
HETATM    8  C   UNL     1      -9.879  14.308  66.022  1.00  0.00    -0.336 C  
BRANCH   8   9
HETATM    9  C   UNL     1     -10.590  15.426  65.295  1.00  0.00    -0.428 C  
HETATM   10  O   UNL     1     -11.461  15.255  64.457  1.00  0.00    -0.383 OA 
BRANCH   9  11
HETATM   11  O   UNL     1     -10.001  16.624  65.569  1.00  0.00    -0.552 OA 
BRANCH  11  12
HETATM   12  C   UNL     1     -10.878  17.747  65.473  1.00  0.00     0.087 C  
BRANCH  12  13
HETATM   13  C   UNL     1     -10.275  18.992  66.101  1.00  0.00    -0.508 C  
BRANCH  13  14
HETATM   14  C   UNL     1     -10.732  19.088  67.555  1.00  0.00    -0.532 C  
BRANCH  14  15
HETATM   15  C   UNL     1      -9.590  18.873  68.543  1.00  0.00    -0.432 C  
BRANCH  15  16
HETATM   16  C   UNL     1      -8.281  19.428  67.979  1.00  0.00    -0.353 C  
HETATM   17  C   UNL     1      -7.191  19.464  69.038  1.00  0.00    -0.397 C  
ENDBRANCH  15  16
ENDBRANCH  14  15
ENDBRANCH  13  14
ENDBRANCH  12  13
ENDBRANCH  11  12
ENDBRANCH   9  11
ENDBRANCH   8   9
ENDBRANCH   7   8
ENDBRANCH   5   7
ENDBRANCH   2   5
TORSDOF 10
ENDMDL
MODEL      107
REMARK 921   NORMALIZED FREE ENERGY PREDICTED BY IDOCK:   -3.74 KCAL/MOL
REMARK 922        TOTAL FREE ENERGY PREDICTED BY IDOCK:   -6.41 KCAL/MOL
REMARK 923 INTER-LIGAND FREE ENERGY PREDICTED BY IDOCK:   -5.66 KCAL/MOL
REMARK 924 INTRA-LIGAND FREE ENERGY PREDICTED BY IDOCK:   -0.75 KCAL/MOL
REMARK 927      BINDING AFFINITY PREDICTED BY RF-SCORE:    0.00 PKD
ROOT
HETATM    1  N   UNL     1     -12.404  13.688  63.377  1.00  0.00    -1.042 NA 
HETATM    2  C   UNL     1     -12.533  13.184  64.744  1.00  0.00    -0.402 C  
HETATM    3  H1  UNL     1     -12.932  13.102  62.730  1.00  0.00     0.000 HD 
HETATM    4  H2  UNL     1     -11.428  13.780  63.097  1.00  0.00     0.000 HD 
ENDROOT
BRANCH   2   5
HETATM    5  C   UNL     1     -11.741  14.064  65.715  1.00  0.00    -0.363 C  
HETATM    6  O   UNL     1     -11.494  15.245  65.474  1.00  0.00    -0.276 OA 
BRANCH   5   7
HETATM    7  C   UNL     1     -11.354  13.403  67.020  1.00  0.00    -0.346 C  
BRANCH   7   8
HETATM    8  C   UNL     1     -11.622  11.904  67.018  1.00  0.00    -0.365 C  
BRANCH   8   9
HETATM    9  C   UNL     1     -10.419  11.070  67.395  1.00  0.00    -0.218 C  
HETATM   10  O   UNL     1      -9.952  10.185  66.695  1.00  0.00    -0.197 OA 
BRANCH   9  11
HETATM   11  O   UNL     1     -10.052  11.316  68.684  1.00  0.00    -0.197 OA 
BRANCH  11  12
HETATM   12  C   UNL     1      -9.725  10.147  69.436  1.00  0.00    -0.229 C  
BRANCH  12  13
HETATM   13  C   UNL     1     -10.960   9.328  69.773  1.00  0.00    -0.213 C  
BRANCH  13  14
HETATM   14  C   UNL     1     -11.524   9.804  71.110  1.00  0.00    -0.472 C  
BRANCH  14  15
HETATM   15  C   UNL     1     -12.922  10.398  70.978  1.00  0.00    -0.490 C  
BRANCH  15  16
HETATM   16  C   UNL     1     -12.981  11.781  71.628  1.00  0.00    -0.467 C  
HETATM   17  C   UNL     1     -12.404  12.850  70.714  1.00  0.00    -0.385 C  
ENDBRANCH  15  16
ENDBRANCH  14  15
ENDBRANCH  13  14
ENDBRANCH  12  13
ENDBRANCH  11  12
ENDBRANCH   9  11
ENDBRANCH   8   9
ENDBRANCH   7   8
ENDBRANCH   5   7
ENDBRANCH   2   5
TORSDOF 10
ENDMDL
MODEL      108
REMARK 921   NORMALIZED FREE ENERGY PREDICTED BY IDOCK:   -3.73 KCAL/MOL
REMARK 922        TOTAL FREE ENERGY PREDICTED BY IDOCK:   -6.40 KCAL/MOL
REMARK 923 INTER-LIGAND FREE ENERGY PREDICTED BY IDOCK:   -6.10 KCAL/MOL
REMARK 924 INTRA-LIGAND FREE ENERGY PREDICTED BY IDOCK:   -0.29 KCAL/MOL
REMARK 927      BINDING AFFINITY PREDICTED BY RF-SCORE:    0.00 PKD
ROOT
HETATM    1  N   UNL     1     -11.100   6.541  73.361  1.00  0.00    -0.482 NA 
HETATM    2  C   UNL     1     -11.635   6.101  72.072  1.00  0.00    -0.310 C  
HETATM    3  H1  UNL     1     -10.899   5.737  73.956  1.00  0.00     0.000 HD 
HETATM    4  H2  UNL     1     -11.719   7.209  73.821  1.00  0.00     0.000 HD 
ENDROOT
BRANCH   2   5
HETATM    5  C   UNL     1     -11.937   7.308  71.179  1.00  0.00    -0.328 C  
HETATM    6  O   UNL     1     -11.199   7.635  70.251  1.00  0.00    -0.265 OA 
BRANCH   5   7
HETATM    7  C   UNL     1     -13.242   8.017  71.469  1.00  0.00    -0.320 C  
BRANCH   7   8
HETATM    8  C   UNL     1     -13.047   9.292  72.279  1.00  0.00    -0.517 C  
BRANCH   8   9
HETATM    9  C   UNL     1     -13.047  10.551  71.443  1.00  0.00    -0.410 C  
HETATM   10  O   UNL     1     -12.641  10.611  70.293  1.00  0.00    -0.324 OA 
BRANCH   9  11
HETATM   11  O   UNL     1     -13.388  11.629  72.203  1.00  0.00    -0.491 OA 
BRANCH  11  12
HETATM   12  C   UNL     1     -13.014  12.887  71.641  1.00  0.00    -0.313 C  
BRANCH  12  13
HETATM   13  C   UNL     1     -13.927  14.009  72.108  1.00  0.00    -0.633 C  
BRANCH  13  14
HETATM   14  C   UNL     1     -13.529  15.303  71.402  1.00  0.00    -0.588 C  
BRANCH  14  15
HETATM   15  C   UNL     1     -12.047  15.339  71.040  1.00  0.00    -0.397 C  
BRANCH  15  16
HETATM   16  C   UNL     1     -11.868  15.602  69.544  1.00  0.00    -0.387 C  
HETATM   17  C   UNL     1     -10.746  16.595  69.285  1.00  0.00    -0.337 C  
ENDBRANCH  15  16
ENDBRANCH  14  15
ENDBRANCH  13  14
ENDBRANCH  12  13
ENDBRANCH  11  12
ENDBRANCH   9  11
ENDBRANCH   8   9
ENDBRANCH   7   8
ENDBRANCH   5   7
ENDBRANCH   2   5
TORSDOF 10
ENDMDL
MODEL      109
REMARK 921   NORMALIZED FREE ENERGY PREDICTED BY IDOCK:   -3.72 KCAL/MOL
REMARK 922        TOTAL FREE ENERGY PREDICTED BY IDOCK:   -6.38 KCAL/MOL
REMARK 923 INTER-LIGAND FREE ENERGY PREDICTED BY IDOCK:   -5.78 KCAL/MOL
REMARK 924 INTRA-LIGAND FREE ENERGY PREDICTED BY IDOCK:   -0.60 KCAL/MOL
REMARK 927      BINDING AFFINITY PREDICTED BY RF-SCORE:    0.00 PKD
ROOT
HETATM    1  N   UNL     1     -12.187   6.999  70.460  1.00  0.00    -0.607 NA 
HETATM    2  C   UNL     1     -11.908   7.722  71.701  1.00  0.00    -0.287 C  
HETATM    3  H1  UNL     1     -11.974   6.007  70.571  1.00  0.00     0.000 HD 
HETATM    4  H2  UNL     1     -11.698   7.407  69.664  1.00  0.00     0.000 HD 
ENDROOT
BRANCH   2   5
HETATM    5  C   UNL     1     -12.228   9.211  71.535  1.00  0.00    -0.349 C  
HETATM    6  O   UNL     1     -13.227   9.725  72.038  1.00  0.00    -0.416 OA 
BRANCH   5   7
HETATM    7  C   UNL     1     -11.194  10.016  70.778  1.00  0.00    -0.428 C  
BRANCH   7   8
HETATM    8  C   UNL     1     -11.767  10.684  69.535  1.00  0.00    -0.356 C  
BRANCH   8   9
HETATM    9  C   UNL     1     -11.966  12.174  69.683  1.00  0.00    -0.284 C  
HETATM   10  O   UNL     1     -12.298  12.723  70.722  1.00  0.00    -0.368 OA 
BRANCH   9  11
HETATM   11  O   UNL     1     -11.905  12.786  68.467  1.00  0.00    -0.307 OA 
BRANCH  11  12
HETATM   12  C   UNL     1     -11.359  11.974  67.426  1.00  0.00    -0.327 C  
BRANCH  12  13
HETATM   13  C   UNL     1     -11.875  12.387  66.057  1.00  0.00    -0.459 C  
BRANCH  13  14
HETATM   14  C   UNL     1     -11.924  13.911  65.982  1.00  0.00    -0.436 C  
BRANCH  14  15
HETATM   15  C   UNL     1     -10.868  14.485  65.042  1.00  0.00    -0.425 C  
BRANCH  15  16
HETATM   16  C   UNL     1     -10.353  15.826  65.569  1.00  0.00    -0.430 C  
HETATM   17  C   UNL     1     -10.562  15.950  67.069  1.00  0.00    -0.306 C  
ENDBRANCH  15  16
ENDBRANCH  14  15
ENDBRANCH  13  14
ENDBRANCH  12  13
ENDBRANCH  11  12
ENDBRANCH   9  11
ENDBRANCH   8   9
ENDBRANCH   7   8
ENDBRANCH   5   7
ENDBRANCH   2   5
TORSDOF 10
ENDMDL
MODEL      110
REMARK 921   NORMALIZED FREE ENERGY PREDICTED BY IDOCK:   -3.72 KCAL/MOL
REMARK 922        TOTAL FREE ENERGY PREDICTED BY IDOCK:   -6.38 KCAL/MOL
REMARK 923 INTER-LIGAND FREE ENERGY PREDICTED BY IDOCK:   -5.57 KCAL/MOL
REMARK 924 INTRA-LIGAND FREE ENERGY PREDICTED BY IDOCK:   -0.81 KCAL/MOL
REMARK 927      BINDING AFFINITY PREDICTED BY RF-SCORE:    0.00 PKD
ROOT
HETATM    1  N   UNL     1     -11.782  10.533  68.008  1.00  0.00    -0.750 NA 
HETATM    2  C   UNL     1     -10.435  11.012  67.697  1.00  0.00    -0.204 C  
HETATM    3  H1  UNL     1     -11.755   9.552  68.286  1.00  0.00     0.000 HD 
HETATM    4  H2  UNL     1     -12.429  10.692  67.236  1.00  0.00     0.000 HD 
ENDROOT
BRANCH   2   5
HETATM    5  C   UNL     1     -10.475  12.485  67.279  1.00  0.00    -0.220 C  
HETATM    6  O   UNL     1      -9.620  12.980  66.545  1.00  0.00    -0.252 OA 
BRANCH   5   7
HETATM    7  C   UNL     1     -11.677  13.264  67.767  1.00  0.00    -0.398 C  
BRANCH   7   8
HETATM    8  C   UNL     1     -11.440  13.918  69.122  1.00  0.00    -0.345 C  
BRANCH   8   9
HETATM    9  C   UNL     1     -12.409  13.471  70.192  1.00  0.00    -0.275 C  
HETATM   10  O   UNL     1     -13.096  14.231  70.856  1.00  0.00    -0.350 OA 
BRANCH   9  11
HETATM   11  O   UNL     1     -12.271  12.136  70.432  1.00  0.00    -0.341 OA 
BRANCH  11  12
HETATM   12  C   UNL     1     -13.034  11.657  71.540  1.00  0.00    -0.358 C  
BRANCH  12  13
HETATM   13  C   UNL     1     -12.969  10.143  71.658  1.00  0.00    -0.561 C  
BRANCH  13  14
HETATM   14  C   UNL     1     -11.535   9.684  71.406  1.00  0.00    -0.455 C  
BRANCH  14  15
HETATM   15  C   UNL     1     -11.194   8.394  72.145  1.00  0.00    -0.431 C  
BRANCH  15  16
HETATM   16  C   UNL     1     -10.602   7.365  71.182  1.00  0.00    -0.235 C  
HETATM   17  C   UNL     1     -11.674   6.751  70.296  1.00  0.00    -0.397 C  
ENDBRANCH  15  16
ENDBRANCH  14  15
ENDBRANCH  13  14
ENDBRANCH  12  13
ENDBRANCH  11  12
ENDBRANCH   9  11
ENDBRANCH   8   9
ENDBRANCH   7   8
ENDBRANCH   5   7
ENDBRANCH   2   5
TORSDOF 10
ENDMDL
MODEL      111
REMARK 921   NORMALIZED FREE ENERGY PREDICTED BY IDOCK:   -3.70 KCAL/MOL
REMARK 922        TOTAL FREE ENERGY PREDICTED BY IDOCK:   -6.35 KCAL/MOL
REMARK 923 INTER-LIGAND FREE ENERGY PREDICTED BY IDOCK:   -5.85 KCAL/MOL
REMARK 924 INTRA-LIGAND FREE ENERGY PREDICTED BY IDOCK:   -0.51 KCAL/MOL
REMARK 927      BINDING AFFINITY PREDICTED BY RF-SCORE:    0.00 PKD
ROOT
HETATM    1  N   UNL     1     -10.769   8.351  67.585  1.00  0.00    -0.476 NA 
HETATM    2  C   UNL     1     -10.322   9.468  66.752  1.00  0.00    -0.228 C  
HETATM    3  H1  UNL     1     -10.379   7.473  67.242  1.00  0.00     0.000 HD 
HETATM    4  H2  UNL     1     -11.786   8.313  67.655  1.00  0.00     0.000 HD 
ENDROOT
BRANCH   2   5
HETATM    5  C   UNL     1     -10.908  10.786  67.267  1.00  0.00    -0.288 C  
HETATM    6  O   UNL     1     -12.024  10.848  67.782  1.00  0.00    -0.553 OA 
BRANCH   5   7
HETATM    7  C   UNL     1      -9.990  11.985  67.170  1.00  0.00    -0.208 C  
BRANCH   7   8
HETATM    8  C   UNL     1     -10.486  13.169  67.989  1.00  0.00    -0.245 C  
BRANCH   8   9
HETATM    9  C   UNL     1     -10.559  14.461  67.208  1.00  0.00    -0.279 C  
HETATM   10  O   UNL     1     -10.235  14.574  66.036  1.00  0.00    -0.288 OA 
BRANCH   9  11
HETATM   11  O   UNL     1     -10.856  15.502  68.036  1.00  0.00    -0.280 OA 
BRANCH  11  12
HETATM   12  C   UNL     1     -10.369  15.351  69.370  1.00  0.00    -0.258 C  
BRANCH  12  13
HETATM   13  C   UNL     1     -11.225  16.105  70.373  1.00  0.00    -0.394 C  
BRANCH  13  14
HETATM   14  C   UNL     1     -12.588  15.425  70.476  1.00  0.00    -0.471 C  
BRANCH  14  15
HETATM   15  C   UNL     1     -13.029  15.214  71.921  1.00  0.00    -0.443 C  
BRANCH  15  16
HETATM   16  C   UNL     1     -12.152  16.028  72.874  1.00  0.00    -0.626 C  
HETATM   17  C   UNL     1     -12.389  15.633  74.323  1.00  0.00    -0.813 C  
ENDBRANCH  15  16
ENDBRANCH  14  15
ENDBRANCH  13  14
ENDBRANCH  12  13
ENDBRANCH  11  12
ENDBRANCH   9  11
ENDBRANCH   8   9
ENDBRANCH   7   8
ENDBRANCH   5   7
ENDBRANCH   2   5
TORSDOF 10
ENDMDL
MODEL      112
REMARK 921   NORMALIZED FREE ENERGY PREDICTED BY IDOCK:   -3.67 KCAL/MOL
REMARK 922        TOTAL FREE ENERGY PREDICTED BY IDOCK:   -6.30 KCAL/MOL
REMARK 923 INTER-LIGAND FREE ENERGY PREDICTED BY IDOCK:   -5.73 KCAL/MOL
REMARK 924 INTRA-LIGAND FREE ENERGY PREDICTED BY IDOCK:   -0.57 KCAL/MOL
REMARK 927      BINDING AFFINITY PREDICTED BY RF-SCORE:    0.00 PKD
ROOT
HETATM    1  N   UNL     1      -7.475  21.263  66.976  1.00  0.00    -0.788 NA 
HETATM    2  C   UNL     1      -8.670  20.458  67.230  1.00  0.00    -0.333 C  
HETATM    3  H1  UNL     1      -7.451  22.070  67.600  1.00  0.00     0.000 HD 
HETATM    4  H2  UNL     1      -7.404  21.538  65.996  1.00  0.00     0.000 HD 
ENDROOT
BRANCH   2   5
HETATM    5  C   UNL     1      -8.706  19.247  66.293  1.00  0.00    -0.321 C  
HETATM    6  O   UNL     1      -7.698  18.827  65.727  1.00  0.00    -0.482 OA 
BRANCH   5   7
HETATM    7  C   UNL     1     -10.049  18.559  66.177  1.00  0.00    -0.391 C  
BRANCH   7   8
HETATM    8  C   UNL     1      -9.968  17.066  66.469  1.00  0.00    -0.318 C  
BRANCH   8   9
HETATM    9  C   UNL     1     -10.414  16.695  67.865  1.00  0.00    -0.322 C  
HETATM   10  O   UNL     1     -10.603  17.501  68.762  1.00  0.00    -0.330 OA 
BRANCH   9  11
HETATM   11  O   UNL     1     -10.396  15.342  68.027  1.00  0.00    -0.239 OA 
BRANCH  11  12
HETATM   12  C   UNL     1     -11.158  14.873  69.140  1.00  0.00    -0.269 C  
BRANCH  12  13
HETATM   13  C   UNL     1     -11.741  13.492  68.885  1.00  0.00    -0.379 C  
BRANCH  13  14
HETATM   14  C   UNL     1     -12.059  13.353  67.399  1.00  0.00    -0.338 C  
BRANCH  14  15
HETATM   15  C   UNL     1     -11.323  12.184  66.750  1.00  0.00    -0.398 C  
BRANCH  15  16
HETATM   16  C   UNL     1     -11.411  12.275  65.226  1.00  0.00    -0.384 C  
HETATM   17  C   UNL     1     -10.639  13.472  64.695  1.00  0.00    -0.441 C  
ENDBRANCH  15  16
ENDBRANCH  14  15
ENDBRANCH  13  14
ENDBRANCH  12  13
ENDBRANCH  11  12
ENDBRANCH   9  11
ENDBRANCH   8   9
ENDBRANCH   7   8
ENDBRANCH   5   7
ENDBRANCH   2   5
TORSDOF 10
ENDMDL
MODEL      113
REMARK 921   NORMALIZED FREE ENERGY PREDICTED BY IDOCK:   -3.67 KCAL/MOL
REMARK 922        TOTAL FREE ENERGY PREDICTED BY IDOCK:   -6.30 KCAL/MOL
REMARK 923 INTER-LIGAND FREE ENERGY PREDICTED BY IDOCK:   -5.77 KCAL/MOL
REMARK 924 INTRA-LIGAND FREE ENERGY PREDICTED BY IDOCK:   -0.53 KCAL/MOL
REMARK 927      BINDING AFFINITY PREDICTED BY RF-SCORE:    0.00 PKD
ROOT
HETATM    1  N   UNL     1     -12.022  15.524  73.465  1.00  0.00    -0.457 NA 
HETATM    2  C   UNL     1     -13.166  15.531  72.553  1.00  0.00    -0.473 C  
HETATM    3  H1  UNL     1     -12.305  15.837  74.394  1.00  0.00     0.000 HD 
HETATM    4  H2  UNL     1     -11.243  16.071  73.100  1.00  0.00     0.000 HD 
ENDROOT
BRANCH   2   5
HETATM    5  C   UNL     1     -12.741  15.061  71.159  1.00  0.00    -0.362 C  
HETATM    6  O   UNL     1     -12.709  15.823  70.193  1.00  0.00    -0.302 OA 
BRANCH   5   7
HETATM    7  C   UNL     1     -12.290  13.619  71.071  1.00  0.00    -0.436 C  
BRANCH   7   8
HETATM    8  C   UNL     1     -11.828  13.236  69.671  1.00  0.00    -0.391 C  
BRANCH   8   9
HETATM    9  C   UNL     1     -11.819  11.745  69.421  1.00  0.00    -0.334 C  
HETATM   10  O   UNL     1     -11.380  10.920  70.207  1.00  0.00    -0.299 OA 
BRANCH   9  11
HETATM   11  O   UNL     1     -12.194  11.475  68.139  1.00  0.00    -0.576 OA 
BRANCH  11  12
HETATM   12  C   UNL     1     -11.112  11.419  67.209  1.00  0.00    -0.303 C  
BRANCH  12  13
HETATM   13  C   UNL     1     -11.482  12.041  65.873  1.00  0.00    -0.392 C  
BRANCH  13  14
HETATM   14  C   UNL     1     -12.284  13.316  66.122  1.00  0.00    -0.466 C  
BRANCH  14  15
HETATM   15  C   UNL     1     -11.635  14.548  65.498  1.00  0.00    -0.350 C  
BRANCH  15  16
HETATM   16  C   UNL     1     -10.550  15.107  66.419  1.00  0.00    -0.305 C  
HETATM   17  C   UNL     1      -9.708  16.157  65.713  1.00  0.00    -0.325 C  
ENDBRANCH  15  16
ENDBRANCH  14  15
ENDBRANCH  13  14
ENDBRANCH  12  13
ENDBRANCH  11  12
ENDBRANCH   9  11
ENDBRANCH   8   9
ENDBRANCH   7   8
ENDBRANCH   5   7
ENDBRANCH   2   5
TORSDOF 10
ENDMDL
MODEL      114
REMARK 921   NORMALIZED FREE ENERGY PREDICTED BY IDOCK:   -3.66 KCAL/MOL
REMARK 922        TOTAL FREE ENERGY PREDICTED BY IDOCK:   -6.29 KCAL/MOL
REMARK 923 INTER-LIGAND FREE ENERGY PREDICTED BY IDOCK:   -5.65 KCAL/MOL
REMARK 924 INTRA-LIGAND FREE ENERGY PREDICTED BY IDOCK:   -0.64 KCAL/MOL
REMARK 927      BINDING AFFINITY PREDICTED BY RF-SCORE:    0.00 PKD
ROOT
HETATM    1  N   UNL     1      -9.061   9.761  67.160  1.00  0.00    -0.134 NA 
HETATM    2  C   UNL     1      -8.936   9.028  65.900  1.00  0.00    -0.190 C  
HETATM    3  H1  UNL     1      -8.852   9.149  67.949  1.00  0.00     0.000 HD 
HETATM    4  H2  UNL     1      -9.975  10.203  67.252  1.00  0.00     0.000 HD 
ENDROOT
BRANCH   2   5
HETATM    5  C   UNL     1      -9.248   9.946  64.715  1.00  0.00    -0.254 C  
HETATM    6  O   UNL     1      -8.678   9.831  63.630  1.00  0.00    -0.187 OA 
BRANCH   5   7
HETATM    7  C   UNL     1     -10.359  10.947  64.946  1.00  0.00    -0.371 C  
BRANCH   7   8
HETATM    8  C   UNL     1     -10.865  11.568  63.651  1.00  0.00    -0.488 C  
BRANCH   8   9
HETATM    9  C   UNL     1     -12.117  12.398  63.823  1.00  0.00    -0.529 C  
HETATM   10  O   UNL     1     -13.217  12.075  63.404  1.00  0.00    -0.687 OA 
BRANCH   9  11
HETATM   11  O   UNL     1     -11.811  13.622  64.338  1.00  0.00    -0.389 OA 
BRANCH  11  12
HETATM   12  C   UNL     1     -12.412  13.894  65.605  1.00  0.00    -0.505 C  
BRANCH  12  13
HETATM   13  C   UNL     1     -11.380  14.291  66.647  1.00  0.00    -0.356 C  
BRANCH  13  14
HETATM   14  C   UNL     1     -11.797  13.724  68.002  1.00  0.00    -0.408 C  
BRANCH  14  15
HETATM   15  C   UNL     1     -11.717  12.201  68.049  1.00  0.00    -0.409 C  
BRANCH  15  16
HETATM   16  C   UNL     1     -11.174  11.734  69.400  1.00  0.00    -0.300 C  
HETATM   17  C   UNL     1     -12.229  11.840  70.490  1.00  0.00    -0.438 C  
ENDBRANCH  15  16
ENDBRANCH  14  15
ENDBRANCH  13  14
ENDBRANCH  12  13
ENDBRANCH  11  12
ENDBRANCH   9  11
ENDBRANCH   8   9
ENDBRANCH   7   8
ENDBRANCH   5   7
ENDBRANCH   2   5
TORSDOF 10
ENDMDL
MODEL      115
REMARK 921   NORMALIZED FREE ENERGY PREDICTED BY IDOCK:   -3.66 KCAL/MOL
REMARK 922        TOTAL FREE ENERGY PREDICTED BY IDOCK:   -6.28 KCAL/MOL
REMARK 923 INTER-LIGAND FREE ENERGY PREDICTED BY IDOCK:   -5.79 KCAL/MOL
REMARK 924 INTRA-LIGAND FREE ENERGY PREDICTED BY IDOCK:   -0.48 KCAL/MOL
REMARK 927      BINDING AFFINITY PREDICTED BY RF-SCORE:    0.00 PKD
ROOT
HETATM    1  N   UNL     1     -10.570  10.765  62.843  1.00  0.00    -0.709 NA 
HETATM    2  C   UNL     1     -10.547  12.141  63.339  1.00  0.00    -0.410 C  
HETATM    3  H1  UNL     1      -9.624  10.448  62.630  1.00  0.00     0.000 HD 
HETATM    4  H2  UNL     1     -11.195  10.660  62.044  1.00  0.00     0.000 HD 
ENDROOT
BRANCH   2   5
HETATM    5  C   UNL     1     -11.968  12.617  63.659  1.00  0.00    -0.535 C  
HETATM    6  O   UNL     1     -12.964  12.016  63.258  1.00  0.00    -0.736 OA 
BRANCH   5   7
HETATM    7  C   UNL     1     -12.057  13.826  64.564  1.00  0.00    -0.463 C  
BRANCH   7   8
HETATM    8  C   UNL     1     -10.951  13.857  65.610  1.00  0.00    -0.290 C  
BRANCH   8   9
HETATM    9  C   UNL     1     -11.444  13.656  67.024  1.00  0.00    -0.343 C  
HETATM   10  O   UNL     1     -12.213  14.412  67.596  1.00  0.00    -0.328 OA 
BRANCH   9  11
HETATM   11  O   UNL     1     -10.776  12.629  67.621  1.00  0.00    -0.213 OA 
BRANCH  11  12
HETATM   12  C   UNL     1     -10.938  11.366  66.974  1.00  0.00    -0.292 C  
BRANCH  12  13
HETATM   13  C   UNL     1      -9.692  10.506  67.093  1.00  0.00    -0.202 C  
BRANCH  13  14
HETATM   14  C   UNL     1      -9.957   9.152  66.439  1.00  0.00    -0.358 C  
BRANCH  14  15
HETATM   15  C   UNL     1     -10.343   8.078  67.452  1.00  0.00    -0.354 C  
BRANCH  15  16
HETATM   16  C   UNL     1     -10.164   6.684  66.850  1.00  0.00    -0.287 C  
HETATM   17  C   UNL     1     -10.529   5.596  67.848  1.00  0.00    -0.274 C  
ENDBRANCH  15  16
ENDBRANCH  14  15
ENDBRANCH  13  14
ENDBRANCH  12  13
ENDBRANCH  11  12
ENDBRANCH   9  11
ENDBRANCH   8   9
ENDBRANCH   7   8
ENDBRANCH   5   7
ENDBRANCH   2   5
TORSDOF 10
ENDMDL
MODEL      116
REMARK 921   NORMALIZED FREE ENERGY PREDICTED BY IDOCK:   -3.65 KCAL/MOL
REMARK 922        TOTAL FREE ENERGY PREDICTED BY IDOCK:   -6.27 KCAL/MOL
REMARK 923 INTER-LIGAND FREE ENERGY PREDICTED BY IDOCK:   -5.78 KCAL/MOL
REMARK 924 INTRA-LIGAND FREE ENERGY PREDICTED BY IDOCK:   -0.49 KCAL/MOL
REMARK 927      BINDING AFFINITY PREDICTED BY RF-SCORE:    0.00 PKD
ROOT
HETATM    1  N   UNL     1     -10.147  10.179  64.084  1.00  0.00    -0.463 NA 
HETATM    2  C   UNL     1      -9.992  10.356  65.528  1.00  0.00    -0.282 C  
HETATM    3  H1  UNL     1     -10.011   9.200  63.829  1.00  0.00     0.000 HD 
HETATM    4  H2  UNL     1      -9.531  10.798  63.557  1.00  0.00     0.000 HD 
ENDROOT
BRANCH   2   5
HETATM    5  C   UNL     1     -10.196  11.825  65.910  1.00  0.00    -0.237 C  
HETATM    6  O   UNL     1      -9.259  12.550  66.242  1.00  0.00    -0.215 OA 
BRANCH   5   7
HETATM    7  C   UNL     1     -11.613  12.339  65.775  1.00  0.00    -0.443 C  
BRANCH   7   8
HETATM    8  C   UNL     1     -11.736  13.814  66.132  1.00  0.00    -0.392 C  
BRANCH   8   9
HETATM    9  C   UNL     1     -11.706  14.735  64.934  1.00  0.00    -0.390 C  
HETATM   10  O   UNL     1     -12.543  14.730  64.044  1.00  0.00    -0.822 OA 
BRANCH   9  11
HETATM   11  O   UNL     1     -10.534  15.428  64.895  1.00  0.00    -0.396 OA 
BRANCH  11  12
HETATM   12  C   UNL     1     -10.257  16.183  66.075  1.00  0.00    -0.356 C  
BRANCH  12  13
HETATM   13  C   UNL     1     -10.532  17.664  65.878  1.00  0.00    -0.247 C  
BRANCH  13  14
HETATM   14  C   UNL     1     -10.069  18.426  67.117  1.00  0.00    -0.371 C  
BRANCH  14  15
HETATM   15  C   UNL     1      -9.606  19.844  66.793  1.00  0.00    -0.523 C  
BRANCH  15  16
HETATM   16  C   UNL     1      -8.109  19.993  67.064  1.00  0.00    -0.357 C  
HETATM   17  C   UNL     1      -7.330  20.213  65.777  1.00  0.00    -0.287 C  
ENDBRANCH  15  16
ENDBRANCH  14  15
ENDBRANCH  13  14
ENDBRANCH  12  13
ENDBRANCH  11  12
ENDBRANCH   9  11
ENDBRANCH   8   9
ENDBRANCH   7   8
ENDBRANCH   5   7
ENDBRANCH   2   5
TORSDOF 10
ENDMDL
MODEL      117
REMARK 921   NORMALIZED FREE ENERGY PREDICTED BY IDOCK:   -3.65 KCAL/MOL
REMARK 922        TOTAL FREE ENERGY PREDICTED BY IDOCK:   -6.27 KCAL/MOL
REMARK 923 INTER-LIGAND FREE ENERGY PREDICTED BY IDOCK:   -5.46 KCAL/MOL
REMARK 924 INTRA-LIGAND FREE ENERGY PREDICTED BY IDOCK:   -0.81 KCAL/MOL
REMARK 927      BINDING AFFINITY PREDICTED BY RF-SCORE:    0.00 PKD
ROOT
HETATM    1  N   UNL     1     -11.585   4.553  65.180  1.00  0.00    -1.035 NA 
HETATM    2  C   UNL     1     -10.387   4.768  65.992  1.00  0.00    -0.293 C  
HETATM    3  H1  UNL     1     -11.409   3.845  64.467  1.00  0.00     0.000 HD 
HETATM    4  H2  UNL     1     -11.930   5.424  64.776  1.00  0.00     0.000 HD 
ENDROOT
BRANCH   2   5
HETATM    5  C   UNL     1     -10.650   5.830  67.063  1.00  0.00    -0.300 C  
HETATM    6  O   UNL     1     -11.034   6.964  66.779  1.00  0.00    -0.329 OA 
BRANCH   5   7
HETATM    7  C   UNL     1     -10.482   5.364  68.493  1.00  0.00    -0.192 C  
BRANCH   7   8
HETATM    8  C   UNL     1     -11.176   6.281  69.492  1.00  0.00    -0.500 C  
BRANCH   8   9
HETATM    9  C   UNL     1     -10.229   7.178  70.255  1.00  0.00    -0.198 C  
HETATM   10  O   UNL     1      -9.341   7.837  69.737  1.00  0.00    -0.153 OA 
BRANCH   9  11
HETATM   11  O   UNL     1     -10.386   7.005  71.597  1.00  0.00    -0.199 OA 
BRANCH  11  12
HETATM   12  C   UNL     1     -11.745   7.019  72.038  1.00  0.00    -0.295 C  
BRANCH  12  13
HETATM   13  C   UNL     1     -12.174   8.400  72.505  1.00  0.00    -0.381 C  
BRANCH  13  14
HETATM   14  C   UNL     1     -13.447   8.803  71.764  1.00  0.00    -0.436 C  
BRANCH  14  15
HETATM   15  C   UNL     1     -13.231   9.991  70.833  1.00  0.00    -0.336 C  
BRANCH  15  16
HETATM   16  C   UNL     1     -11.774  10.455  70.885  1.00  0.00    -0.455 C  
HETATM   17  C   UNL     1     -11.327  11.034  69.553  1.00  0.00    -0.356 C  
ENDBRANCH  15  16
ENDBRANCH  14  15
ENDBRANCH  13  14
ENDBRANCH  12  13
ENDBRANCH  11  12
ENDBRANCH   9  11
ENDBRANCH   8   9
ENDBRANCH   7   8
ENDBRANCH   5   7
ENDBRANCH   2   5
TORSDOF 10
ENDMDL
MODEL      118
REMARK 921   NORMALIZED FREE ENERGY PREDICTED BY IDOCK:   -3.64 KCAL/MOL
REMARK 922        TOTAL FREE ENERGY PREDICTED BY IDOCK:   -6.26 KCAL/MOL
REMARK 923 INTER-LIGAND FREE ENERGY PREDICTED BY IDOCK:   -5.62 KCAL/MOL
REMARK 924 INTRA-LIGAND FREE ENERGY PREDICTED BY IDOCK:   -0.64 KCAL/MOL
REMARK 927      BINDING AFFINITY PREDICTED BY RF-SCORE:    0.00 PKD
ROOT
HETATM    1  N   UNL     1     -14.046   8.795  73.199  1.00  0.00    -1.183 NA 
HETATM    2  C   UNL     1     -13.388   9.258  71.977  1.00  0.00    -0.450 C  
HETATM    3  H1  UNL     1     -14.851   9.383  73.414  1.00  0.00     0.000 HD 
HETATM    4  H2  UNL     1     -13.395   8.740  73.983  1.00  0.00     0.000 HD 
ENDROOT
BRANCH   2   5
HETATM    5  C   UNL     1     -12.179   8.375  71.654  1.00  0.00    -0.315 C  
HETATM    6  O   UNL     1     -12.297   7.185  71.363  1.00  0.00    -0.337 OA 
BRANCH   5   7
HETATM    7  C   UNL     1     -10.843   9.086  71.642  1.00  0.00    -0.437 C  
BRANCH   7   8
HETATM    8  C   UNL     1     -10.615   9.878  70.361  1.00  0.00    -0.364 C  
BRANCH   8   9
HETATM    9  C   UNL     1      -9.946   9.082  69.264  1.00  0.00    -0.188 C  
HETATM   10  O   UNL     1      -9.140   8.186  69.461  1.00  0.00    -0.150 OA 
BRANCH   9  11
HETATM   11  O   UNL     1     -10.224   9.623  68.045  1.00  0.00    -0.173 OA 
BRANCH  11  12
HETATM   12  C   UNL     1     -11.355  10.495  68.033  1.00  0.00    -0.246 C  
BRANCH  12  13
HETATM   13  C   UNL     1     -11.216  11.586  66.983  1.00  0.00    -0.365 C  
BRANCH  13  14
HETATM   14  C   UNL     1     -11.896  12.855  67.490  1.00  0.00    -0.407 C  
BRANCH  14  15
HETATM   15  C   UNL     1     -11.242  13.404  68.755  1.00  0.00    -0.315 C  
BRANCH  15  16
HETATM   16  C   UNL     1     -12.297  14.003  69.687  1.00  0.00    -0.309 C  
HETATM   17  C   UNL     1     -12.118  15.505  69.836  1.00  0.00    -0.378 C  
ENDBRANCH  15  16
ENDBRANCH  14  15
ENDBRANCH  13  14
ENDBRANCH  12  13
ENDBRANCH  11  12
ENDBRANCH   9  11
ENDBRANCH   8   9
ENDBRANCH   7   8
ENDBRANCH   5   7
ENDBRANCH   2   5
TORSDOF 10
ENDMDL
MODEL      119
REMARK 921   NORMALIZED FREE ENERGY PREDICTED BY IDOCK:   -3.64 KCAL/MOL
REMARK 922        TOTAL FREE ENERGY PREDICTED BY IDOCK:   -6.25 KCAL/MOL
REMARK 923 INTER-LIGAND FREE ENERGY PREDICTED BY IDOCK:   -5.80 KCAL/MOL
REMARK 924 INTRA-LIGAND FREE ENERGY PREDICTED BY IDOCK:   -0.46 KCAL/MOL
REMARK 927      BINDING AFFINITY PREDICTED BY RF-SCORE:    0.00 PKD
ROOT
HETATM    1  N   UNL     1     -12.156  10.690  68.612  1.00  0.00    -0.812 NA 
HETATM    2  C   UNL     1     -11.470  10.952  69.877  1.00  0.00    -0.323 C  
HETATM    3  H1  UNL     1     -11.482  10.634  67.848  1.00  0.00     0.000 HD 
HETATM    4  H2  UNL     1     -12.886  11.378  68.426  1.00  0.00     0.000 HD 
ENDROOT
BRANCH   2   5
HETATM    5  C   UNL     1     -12.481  11.036  71.025  1.00  0.00    -0.409 C  
HETATM    6  O   UNL     1     -12.773  10.058  71.712  1.00  0.00    -0.383 OA 
BRANCH   5   7
HETATM    7  C   UNL     1     -13.032  12.418  71.302  1.00  0.00    -0.297 C  
BRANCH   7   8
HETATM    8  C   UNL     1     -12.197  13.520  70.664  1.00  0.00    -0.434 C  
BRANCH   8   9
HETATM    9  C   UNL     1     -12.178  14.806  71.458  1.00  0.00    -0.347 C  
HETATM   10  O   UNL     1     -12.519  14.896  72.627  1.00  0.00    -0.338 OA 
BRANCH   9  11
HETATM   11  O   UNL     1     -11.909  15.865  70.643  1.00  0.00    -0.353 OA 
BRANCH  11  12
HETATM   12  C   UNL     1     -12.012  15.576  69.248  1.00  0.00    -0.316 C  
BRANCH  12  13
HETATM   13  C   UNL     1     -11.089  16.453  68.420  1.00  0.00    -0.351 C  
BRANCH  13  14
HETATM   14  C   UNL     1     -10.473  15.613  67.303  1.00  0.00    -0.292 C  
BRANCH  14  15
HETATM   15  C   UNL     1     -11.494  14.707  66.622  1.00  0.00    -0.363 C  
BRANCH  15  16
HETATM   16  C   UNL     1     -11.330  14.762  65.102  1.00  0.00    -0.379 C  
HETATM   17  C   UNL     1     -12.366  13.899  64.400  1.00  0.00    -0.400 C  
ENDBRANCH  15  16
ENDBRANCH  14  15
ENDBRANCH  13  14
ENDBRANCH  12  13
ENDBRANCH  11  12
ENDBRANCH   9  11
ENDBRANCH   8   9
ENDBRANCH   7   8
ENDBRANCH   5   7
ENDBRANCH   2   5
TORSDOF 10
ENDMDL
MODEL      120
REMARK 921   NORMALIZED FREE ENERGY PREDICTED BY IDOCK:   -3.63 KCAL/MOL
REMARK 922        TOTAL FREE ENERGY PREDICTED BY IDOCK:   -6.23 KCAL/MOL
REMARK 923 INTER-LIGAND FREE ENERGY PREDICTED BY IDOCK:   -5.75 KCAL/MOL
REMARK 924 INTRA-LIGAND FREE ENERGY PREDICTED BY IDOCK:   -0.49 KCAL/MOL
REMARK 927      BINDING AFFINITY PREDICTED BY RF-SCORE:    0.00 PKD
ROOT
HETATM    1  N   UNL     1     -12.754  15.987  71.575  1.00  0.00    -0.537 NA 
HETATM    2  C   UNL     1     -12.702  15.209  70.337  1.00  0.00    -0.333 C  
HETATM    3  H1  UNL     1     -13.669  15.892  72.016  1.00  0.00     0.000 HD 
HETATM    4  H2  UNL     1     -12.507  16.965  71.420  1.00  0.00     0.000 HD 
ENDROOT
BRANCH   2   5
HETATM    5  C   UNL     1     -11.329  15.352  69.674  1.00  0.00    -0.307 C  
HETATM    6  O   UNL     1     -10.300  15.515  70.329  1.00  0.00    -0.306 OA 
BRANCH   5   7
HETATM    7  C   UNL     1     -11.317  15.201  68.168  1.00  0.00    -0.345 C  
BRANCH   7   8
HETATM    8  C   UNL     1     -10.607  16.354  67.471  1.00  0.00    -0.309 C  
BRANCH   8   9
HETATM    9  C   UNL     1     -10.276  16.077  66.022  1.00  0.00    -0.341 C  
HETATM   10  O   UNL     1     -10.375  16.901  65.126  1.00  0.00    -0.631 OA 
BRANCH   9  11
HETATM   11  O   UNL     1     -10.033  14.750  65.834  1.00  0.00    -0.291 OA 
BRANCH  11  12
HETATM   12  C   UNL     1     -10.691  14.187  64.697  1.00  0.00    -0.389 C  
BRANCH  12  13
HETATM   13  C   UNL     1     -11.512  12.963  65.068  1.00  0.00    -0.350 C  
BRANCH  13  14
HETATM   14  C   UNL     1     -11.699  12.095  63.826  1.00  0.00    -0.576 C  
BRANCH  14  15
HETATM   15  C   UNL     1     -10.472  11.242  63.518  1.00  0.00    -0.457 C  
BRANCH  15  16
HETATM   16  C   UNL     1     -10.086  10.399  64.734  1.00  0.00    -0.387 C  
HETATM   17  C   UNL     1      -8.580  10.373  64.937  1.00  0.00    -0.190 C  
ENDBRANCH  15  16
ENDBRANCH  14  15
ENDBRANCH  13  14
ENDBRANCH  12  13
ENDBRANCH  11  12
ENDBRANCH   9  11
ENDBRANCH   8   9
ENDBRANCH   7   8
ENDBRANCH   5   7
ENDBRANCH   2   5
TORSDOF 10
ENDMDL
MODEL      121
REMARK 921   NORMALIZED FREE ENERGY PREDICTED BY IDOCK:   -3.63 KCAL/MOL
REMARK 922        TOTAL FREE ENERGY PREDICTED BY IDOCK:   -6.23 KCAL/MOL
REMARK 923 INTER-LIGAND FREE ENERGY PREDICTED BY IDOCK:   -5.40 KCAL/MOL
REMARK 924 INTRA-LIGAND FREE ENERGY PREDICTED BY IDOCK:   -0.83 KCAL/MOL
REMARK 927      BINDING AFFINITY PREDICTED BY RF-SCORE:    0.00 PKD
ROOT
HETATM    1  N   UNL     1      -9.114  10.221  69.565  1.00  0.00    -0.329 NA 
HETATM    2  C   UNL     1     -10.561  10.361  69.725  1.00  0.00    -0.258 C  
HETATM    3  H1  UNL     1      -8.733   9.612  70.291  1.00  0.00     0.000 HD 
HETATM    4  H2  UNL     1      -8.645  11.127  69.545  1.00  0.00     0.000 HD 
ENDROOT
BRANCH   2   5
HETATM    5  C   UNL     1     -11.133  11.275  68.637  1.00  0.00    -0.232 C  
HETATM    6  O   UNL     1     -12.124  10.965  67.977  1.00  0.00    -0.563 OA 
BRANCH   5   7
HETATM    7  C   UNL     1     -10.442  12.613  68.486  1.00  0.00    -0.249 C  
BRANCH   7   8
HETATM    8  C   UNL     1     -11.328  13.778  68.909  1.00  0.00    -0.328 C  
BRANCH   8   9
HETATM    9  C   UNL     1     -11.543  14.804  67.821  1.00  0.00    -0.357 C  
HETATM   10  O   UNL     1     -11.270  15.989  67.931  1.00  0.00    -0.338 OA 
BRANCH   9  11
HETATM   11  O   UNL     1     -12.246  14.262  66.786  1.00  0.00    -0.441 OA 
BRANCH  11  12
HETATM   12  C   UNL     1     -11.781  14.650  65.493  1.00  0.00    -0.316 C  
BRANCH  12  13
HETATM   13  C   UNL     1     -10.619  13.788  65.028  1.00  0.00    -0.402 C  
BRANCH  13  14
HETATM   14  C   UNL     1     -11.157  12.441  64.551  1.00  0.00    -0.360 C  
BRANCH  14  15
HETATM   15  C   UNL     1     -10.387  11.894  63.353  1.00  0.00    -0.481 C  
BRANCH  15  16
HETATM   16  C   UNL     1      -9.790  10.525  63.679  1.00  0.00    -0.354 C  
HETATM   17  C   UNL     1      -9.896  10.212  65.163  1.00  0.00    -0.394 C  
ENDBRANCH  15  16
ENDBRANCH  14  15
ENDBRANCH  13  14
ENDBRANCH  12  13
ENDBRANCH  11  12
ENDBRANCH   9  11
ENDBRANCH   8   9
ENDBRANCH   7   8
ENDBRANCH   5   7
ENDBRANCH   2   5
TORSDOF 10
ENDMDL
MODEL      122
REMARK 921   NORMALIZED FREE ENERGY PREDICTED BY IDOCK:   -3.62 KCAL/MOL
REMARK 922        TOTAL FREE ENERGY PREDICTED BY IDOCK:   -6.22 KCAL/MOL
REMARK 923 INTER-LIGAND FREE ENERGY PREDICTED BY IDOCK:   -5.36 KCAL/MOL
REMARK 924 INTRA-LIGAND FREE ENERGY PREDICTED BY IDOCK:   -0.86 KCAL/MOL
REMARK 927      BINDING AFFINITY PREDICTED BY RF-SCORE:    0.00 PKD
ROOT
HETATM    1  N   UNL     1     -11.372  11.159  63.101  1.00  0.00    -0.764 NA 
HETATM    2  C   UNL     1     -10.281  12.024  63.550  1.00  0.00    -0.450 C  
HETATM    3  H1  UNL     1     -11.009  10.396  62.530  1.00  0.00     0.000 HD 
HETATM    4  H2  UNL     1     -12.099  11.685  62.616  1.00  0.00     0.000 HD 
ENDROOT
BRANCH   2   5
HETATM    5  C   UNL     1     -10.827  13.170  64.408  1.00  0.00    -0.397 C  
HETATM    6  O   UNL     1     -10.259  14.259  64.483  1.00  0.00    -0.304 OA 
BRANCH   5   7
HETATM    7  C   UNL     1     -12.149  12.895  65.091  1.00  0.00    -0.489 C  
BRANCH   7   8
HETATM    8  C   UNL     1     -12.639  14.079  65.913  1.00  0.00    -0.484 C  
BRANCH   8   9
HETATM    9  C   UNL     1     -12.063  14.131  67.310  1.00  0.00    -0.372 C  
HETATM   10  O   UNL     1     -11.629  15.144  67.836  1.00  0.00    -0.333 OA 
BRANCH   9  11
HETATM   11  O   UNL     1     -11.929  12.873  67.817  1.00  0.00    -0.347 OA 
BRANCH  11  12
HETATM   12  C   UNL     1     -10.710  12.654  68.530  1.00  0.00    -0.248 C  
BRANCH  12  13
HETATM   13  C   UNL     1      -9.573  12.269  67.599  1.00  0.00    -0.191 C  
BRANCH  13  14
HETATM   14  C   UNL     1      -9.352  10.760  67.680  1.00  0.00    -0.156 C  
BRANCH  14  15
HETATM   15  C   UNL     1     -10.285   9.982  66.758  1.00  0.00    -0.295 C  
BRANCH  15  16
HETATM   16  C   UNL     1      -9.625   8.679  66.304  1.00  0.00    -0.322 C  
HETATM   17  C   UNL     1      -8.638   8.921  65.173  1.00  0.00    -0.208 C  
ENDBRANCH  15  16
ENDBRANCH  14  15
ENDBRANCH  13  14
ENDBRANCH  12  13
ENDBRANCH  11  12
ENDBRANCH   9  11
ENDBRANCH   8   9
ENDBRANCH   7   8
ENDBRANCH   5   7
ENDBRANCH   2   5
TORSDOF 10
ENDMDL
MODEL      123
REMARK 921   NORMALIZED FREE ENERGY PREDICTED BY IDOCK:   -3.61 KCAL/MOL
REMARK 922        TOTAL FREE ENERGY PREDICTED BY IDOCK:   -6.21 KCAL/MOL
REMARK 923 INTER-LIGAND FREE ENERGY PREDICTED BY IDOCK:   -5.29 KCAL/MOL
REMARK 924 INTRA-LIGAND FREE ENERGY PREDICTED BY IDOCK:   -0.92 KCAL/MOL
REMARK 927      BINDING AFFINITY PREDICTED BY RF-SCORE:    0.00 PKD
ROOT
HETATM    1  N   UNL     1     -14.297   8.894  72.792  1.00  0.00    -1.055 NA 
HETATM    2  C   UNL     1     -14.180   7.909  71.716  1.00  0.00    -0.451 C  
HETATM    3  H1  UNL     1     -15.274   9.149  72.936  1.00  0.00     0.000 HD 
HETATM    4  H2  UNL     1     -13.711   9.711  72.623  1.00  0.00     0.000 HD 
ENDROOT
BRANCH   2   5
HETATM    5  C   UNL     1     -12.713   7.526  71.500  1.00  0.00    -0.359 C  
HETATM    6  O   UNL     1     -12.365   6.743  70.616  1.00  0.00    -0.359 OA 
BRANCH   5   7
HETATM    7  C   UNL     1     -11.720   8.236  72.394  1.00  0.00    -0.463 C  
BRANCH   7   8
HETATM    8  C   UNL     1     -10.794   9.163  71.617  1.00  0.00    -0.442 C  
BRANCH   8   9
HETATM    9  C   UNL     1     -11.521  10.235  70.838  1.00  0.00    -0.339 C  
HETATM   10  O   UNL     1     -12.453  10.890  71.277  1.00  0.00    -0.370 OA 
BRANCH   9  11
HETATM   11  O   UNL     1     -11.115  10.236  69.537  1.00  0.00    -0.234 OA 
BRANCH  11  12
HETATM   12  C   UNL     1      -9.699  10.303  69.362  1.00  0.00    -0.222 C  
BRANCH  12  13
HETATM   13  C   UNL     1      -9.243   9.523  68.140  1.00  0.00    -0.134 C  
BRANCH  13  14
HETATM   14  C   UNL     1      -9.471   8.033  68.387  1.00  0.00    -0.148 C  
BRANCH  14  15
HETATM   15  C   UNL     1      -8.686   7.153  67.419  1.00  0.00    -0.120 C  
BRANCH  15  16
HETATM   16  C   UNL     1      -9.624   6.186  66.694  1.00  0.00    -0.181 C  
HETATM   17  C   UNL     1     -10.981   6.112  67.375  1.00  0.00    -0.409 C  
ENDBRANCH  15  16
ENDBRANCH  14  15
ENDBRANCH  13  14
ENDBRANCH  12  13
ENDBRANCH  11  12
ENDBRANCH   9  11
ENDBRANCH   8   9
ENDBRANCH   7   8
ENDBRANCH   5   7
ENDBRANCH   2   5
TORSDOF 10
ENDMDL
MODEL      124
REMARK 921   NORMALIZED FREE ENERGY PREDICTED BY IDOCK:   -3.61 KCAL/MOL
REMARK 922        TOTAL FREE ENERGY PREDICTED BY IDOCK:   -6.21 KCAL/MOL
REMARK 923 INTER-LIGAND FREE ENERGY PREDICTED BY IDOCK:   -5.72 KCAL/MOL
REMARK 924 INTRA-LIGAND FREE ENERGY PREDICTED BY IDOCK:   -0.48 KCAL/MOL
REMARK 927      BINDING AFFINITY PREDICTED BY RF-SCORE:    0.00 PKD
ROOT
HETATM    1  N   UNL     1     -11.108   5.955  69.941  1.00  0.00    -0.375 NA 
HETATM    2  C   UNL     1     -11.124   6.417  71.330  1.00  0.00    -0.282 C  
HETATM    3  H1  UNL     1     -10.512   5.132  69.847  1.00  0.00     0.000 HD 
HETATM    4  H2  UNL     1     -10.836   6.697  69.297  1.00  0.00     0.000 HD 
ENDROOT
BRANCH   2   5
HETATM    5  C   UNL     1     -12.018   7.652  71.471  1.00  0.00    -0.303 C  
HETATM    6  O   UNL     1     -13.240   7.593  71.342  1.00  0.00    -0.334 OA 
BRANCH   5   7
HETATM    7  C   UNL     1     -11.303   8.929  71.857  1.00  0.00    -0.446 C  
BRANCH   7   8
HETATM    8  C   UNL     1     -11.198   9.913  70.700  1.00  0.00    -0.416 C  
BRANCH   8   9
HETATM    9  C   UNL     1     -12.204  11.039  70.766  1.00  0.00    -0.380 C  
HETATM   10  O   UNL     1     -13.082  11.126  71.610  1.00  0.00    -0.449 OA 
BRANCH   9  11
HETATM   11  O   UNL     1     -12.109  11.829  69.660  1.00  0.00    -0.294 OA 
BRANCH  11  12
HETATM   12  C   UNL     1     -10.942  11.597  68.870  1.00  0.00    -0.233 C  
BRANCH  12  13
HETATM   13  C   UNL     1     -11.276  11.469  67.393  1.00  0.00    -0.367 C  
BRANCH  13  14
HETATM   14  C   UNL     1     -11.911  12.772  66.911  1.00  0.00    -0.440 C  
BRANCH  14  15
HETATM   15  C   UNL     1     -12.359  12.700  65.454  1.00  0.00    -0.499 C  
BRANCH  15  16
HETATM   16  C   UNL     1     -11.302  13.317  64.537  1.00  0.00    -0.392 C  
HETATM   17  C   UNL     1     -10.677  12.271  63.628  1.00  0.00    -0.513 C  
ENDBRANCH  15  16
ENDBRANCH  14  15
ENDBRANCH  13  14
ENDBRANCH  12  13
ENDBRANCH  11  12
ENDBRANCH   9  11
ENDBRANCH   8   9
ENDBRANCH   7   8
ENDBRANCH   5   7
ENDBRANCH   2   5
TORSDOF 10
ENDMDL
MODEL      125
REMARK 921   NORMALIZED FREE ENERGY PREDICTED BY IDOCK:   -3.59 KCAL/MOL
REMARK 922        TOTAL FREE ENERGY PREDICTED BY IDOCK:   -6.18 KCAL/MOL
REMARK 923 INTER-LIGAND FREE ENERGY PREDICTED BY IDOCK:   -5.57 KCAL/MOL
REMARK 924 INTRA-LIGAND FREE ENERGY PREDICTED BY IDOCK:   -0.61 KCAL/MOL
REMARK 927      BINDING AFFINITY PREDICTED BY RF-SCORE:    0.00 PKD
ROOT
HETATM    1  N   UNL     1      -8.632  11.371  65.409  1.00  0.00    -0.388 NA 
HETATM    2  C   UNL     1     -10.049  11.016  65.320  1.00  0.00    -0.275 C  
HETATM    3  H1  UNL     1      -8.305  11.286  66.372  1.00  0.00     0.000 HD 
HETATM    4  H2  UNL     1      -8.449  12.298  65.025  1.00  0.00     0.000 HD 
ENDROOT
BRANCH   2   5
HETATM    5  C   UNL     1     -10.541  11.143  63.875  1.00  0.00    -0.364 C  
HETATM    6  O   UNL     1     -10.035  10.504  62.953  1.00  0.00    -0.272 OA 
BRANCH   5   7
HETATM    7  C   UNL     1     -11.739  12.046  63.676  1.00  0.00    -0.587 C  
BRANCH   7   8
HETATM    8  C   UNL     1     -12.215  12.680  64.976  1.00  0.00    -0.535 C  
BRANCH   8   9
HETATM    9  C   UNL     1     -12.297  14.188  64.924  1.00  0.00    -0.430 C  
HETATM   10  O   UNL     1     -12.843  14.815  64.028  1.00  0.00    -0.697 OA 
BRANCH   9  11
HETATM   11  O   UNL     1     -11.528  14.742  65.903  1.00  0.00    -0.351 OA 
BRANCH  11  12
HETATM   12  C   UNL     1     -10.191  15.043  65.501  1.00  0.00    -0.378 C  
BRANCH  12  13
HETATM   13  C   UNL     1      -9.464  15.881  66.540  1.00  0.00    -0.299 C  
BRANCH  13  14
HETATM   14  C   UNL     1      -8.733  14.951  67.507  1.00  0.00    -0.197 C  
BRANCH  14  15
HETATM   15  C   UNL     1      -9.090  15.225  68.964  1.00  0.00    -0.225 C  
BRANCH  15  16
HETATM   16  C   UNL     1     -10.604  15.367  69.128  1.00  0.00    -0.248 C  
HETATM   17  C   UNL     1     -11.286  14.010  69.184  1.00  0.00    -0.323 C  
ENDBRANCH  15  16
ENDBRANCH  14  15
ENDBRANCH  13  14
ENDBRANCH  12  13
ENDBRANCH  11  12
ENDBRANCH   9  11
ENDBRANCH   8   9
ENDBRANCH   7   8
ENDBRANCH   5   7
ENDBRANCH   2   5
TORSDOF 10
ENDMDL
MODEL      126
REMARK 921   NORMALIZED FREE ENERGY PREDICTED BY IDOCK:   -3.58 KCAL/MOL
REMARK 922        TOTAL FREE ENERGY PREDICTED BY IDOCK:   -6.15 KCAL/MOL
REMARK 923 INTER-LIGAND FREE ENERGY PREDICTED BY IDOCK:   -5.58 KCAL/MOL
REMARK 924 INTRA-LIGAND FREE ENERGY PREDICTED BY IDOCK:   -0.58 KCAL/MOL
REMARK 927      BINDING AFFINITY PREDICTED BY RF-SCORE:    0.00 PKD
ROOT
HETATM    1  N   UNL     1     -11.476   6.923  67.153  1.00  0.00    -0.639 NA 
HETATM    2  C   UNL     1     -10.949   6.314  68.374  1.00  0.00    -0.325 C  
HETATM    3  H1  UNL     1     -11.909   6.214  66.561  1.00  0.00     0.000 HD 
HETATM    4  H2  UNL     1     -10.762   7.451  66.653  1.00  0.00     0.000 HD 
ENDROOT
BRANCH   2   5
HETATM    5  C   UNL     1     -10.298   7.378  69.264  1.00  0.00    -0.204 C  
HETATM    6  O   UNL     1      -9.434   8.145  68.840  1.00  0.00    -0.150 OA 
BRANCH   5   7
HETATM    7  C   UNL     1     -10.849   7.471  70.670  1.00  0.00    -0.251 C  
BRANCH   7   8
HETATM    8  C   UNL     1     -12.147   6.694  70.842  1.00  0.00    -0.379 C  
BRANCH   8   9
HETATM    9  C   UNL     1     -13.180   7.412  71.680  1.00  0.00    -0.362 C  
HETATM   10  O   UNL     1     -14.374   7.157  71.665  1.00  0.00    -0.417 OA 
BRANCH   9  11
HETATM   11  O   UNL     1     -12.624   8.489  72.302  1.00  0.00    -0.359 OA 
BRANCH  11  12
HETATM   12  C   UNL     1     -13.445   9.658  72.301  1.00  0.00    -0.400 C  
BRANCH  12  13
HETATM   13  C   UNL     1     -13.236  10.495  71.051  1.00  0.00    -0.324 C  
BRANCH  13  14
HETATM   14  C   UNL     1     -12.649  11.847  71.449  1.00  0.00    -0.346 C  
BRANCH  14  15
HETATM   15  C   UNL     1     -13.639  12.710  72.225  1.00  0.00    -0.508 C  
BRANCH  15  16
HETATM   16  C   UNL     1     -13.487  14.181  71.838  1.00  0.00    -0.489 C  
HETATM   17  C   UNL     1     -12.461  14.361  70.731  1.00  0.00    -0.423 C  
ENDBRANCH  15  16
ENDBRANCH  14  15
ENDBRANCH  13  14
ENDBRANCH  12  13
ENDBRANCH  11  12
ENDBRANCH   9  11
ENDBRANCH   8   9
ENDBRANCH   7   8
ENDBRANCH   5   7
ENDBRANCH   2   5
TORSDOF 10
ENDMDL
MODEL      127
REMARK 921   NORMALIZED FREE ENERGY PREDICTED BY IDOCK:   -3.57 KCAL/MOL
REMARK 922        TOTAL FREE ENERGY PREDICTED BY IDOCK:   -6.15 KCAL/MOL
REMARK 923 INTER-LIGAND FREE ENERGY PREDICTED BY IDOCK:   -5.62 KCAL/MOL
REMARK 924 INTRA-LIGAND FREE ENERGY PREDICTED BY IDOCK:   -0.53 KCAL/MOL
REMARK 927      BINDING AFFINITY PREDICTED BY RF-SCORE:    0.00 PKD
ROOT
HETATM    1  N   UNL     1      -8.985   9.690  66.240  1.00  0.00    -0.150 NA 
HETATM    2  C   UNL     1      -8.653   9.220  64.895  1.00  0.00    -0.181 C  
HETATM    3  H1  UNL     1      -8.539   9.099  66.943  1.00  0.00     0.000 HD 
HETATM    4  H2  UNL     1      -9.993   9.756  66.382  1.00  0.00     0.000 HD 
ENDROOT
BRANCH   2   5
HETATM    5  C   UNL     1      -9.321  10.107  63.840  1.00  0.00    -0.287 C  
HETATM    6  O   UNL     1      -9.040  10.027  62.645  1.00  0.00    -0.244 OA 
BRANCH   5   7
HETATM    7  C   UNL     1     -10.403  11.029  64.360  1.00  0.00    -0.424 C  
BRANCH   7   8
HETATM    8  C   UNL     1     -11.251  11.623  63.243  1.00  0.00    -0.305 C  
BRANCH   8   9
HETATM    9  C   UNL     1     -12.410  12.458  63.737  1.00  0.00    -0.528 C  
HETATM   10  O   UNL     1     -13.387  12.004  64.312  1.00  0.00    -0.709 OA 
BRANCH   9  11
HETATM   11  O   UNL     1     -12.297  13.741  63.293  1.00  0.00    -0.756 OA 
BRANCH  11  12
HETATM   12  C   UNL     1     -12.265  14.722  64.330  1.00  0.00    -0.428 C  
BRANCH  12  13
HETATM   13  C   UNL     1     -10.881  14.852  64.944  1.00  0.00    -0.431 C  
BRANCH  13  14
HETATM   14  C   UNL     1     -10.689  16.283  65.442  1.00  0.00    -0.342 C  
BRANCH  14  15
HETATM   15  C   UNL     1     -10.078  16.339  66.839  1.00  0.00    -0.278 C  
BRANCH  15  16
HETATM   16  C   UNL     1     -10.971  15.609  67.843  1.00  0.00    -0.319 C  
HETATM   17  C   UNL     1     -10.166  14.649  68.705  1.00  0.00    -0.242 C  
ENDBRANCH  15  16
ENDBRANCH  14  15
ENDBRANCH  13  14
ENDBRANCH  12  13
ENDBRANCH  11  12
ENDBRANCH   9  11
ENDBRANCH   8   9
ENDBRANCH   7   8
ENDBRANCH   5   7
ENDBRANCH   2   5
TORSDOF 10
ENDMDL
MODEL      128
REMARK 921   NORMALIZED FREE ENERGY PREDICTED BY IDOCK:   -3.56 KCAL/MOL
REMARK 922        TOTAL FREE ENERGY PREDICTED BY IDOCK:   -6.12 KCAL/MOL
REMARK 923 INTER-LIGAND FREE ENERGY PREDICTED BY IDOCK:   -5.71 KCAL/MOL
REMARK 924 INTRA-LIGAND FREE ENERGY PREDICTED BY IDOCK:   -0.41 KCAL/MOL
REMARK 927      BINDING AFFINITY PREDICTED BY RF-SCORE:    0.00 PKD
ROOT
HETATM    1  N   UNL     1     -11.530   4.390  65.074  1.00  0.00    -1.079 NA 
HETATM    2  C   UNL     1     -10.086   4.395  65.311  1.00  0.00    -0.201 C  
HETATM    3  H1  UNL     1     -11.764   3.743  64.320  1.00  0.00     0.000 HD 
HETATM    4  H2  UNL     1     -11.889   5.327  64.895  1.00  0.00     0.000 HD 
ENDROOT
BRANCH   2   5
HETATM    5  C   UNL     1      -9.734   5.366  66.442  1.00  0.00    -0.166 C  
HETATM    6  O   UNL     1      -8.600   5.438  66.913  1.00  0.00    -0.111 OA 
BRANCH   5   7
HETATM    7  C   UNL     1     -10.856   6.282  66.881  1.00  0.00    -0.428 C  
BRANCH   7   8
HETATM    8  C   UNL     1     -10.358   7.459  67.711  1.00  0.00    -0.273 C  
BRANCH   8   9
HETATM    9  C   UNL     1     -10.454   8.788  66.999  1.00  0.00    -0.268 C  
HETATM   10  O   UNL     1     -10.032   8.995  65.872  1.00  0.00    -0.276 OA 
BRANCH   9  11
HETATM   11  O   UNL     1     -10.902   9.754  67.850  1.00  0.00    -0.266 OA 
BRANCH  11  12
HETATM   12  C   UNL     1     -10.361  11.052  67.603  1.00  0.00    -0.191 C  
BRANCH  12  13
HETATM   13  C   UNL     1     -11.451  12.104  67.478  1.00  0.00    -0.410 C  
BRANCH  13  14
HETATM   14  C   UNL     1     -11.781  12.306  66.001  1.00  0.00    -0.451 C  
BRANCH  14  15
HETATM   15  C   UNL     1     -12.314  13.705  65.707  1.00  0.00    -0.524 C  
BRANCH  15  16
HETATM   16  C   UNL     1     -12.178  14.028  64.218  1.00  0.00    -0.453 C  
HETATM   17  C   UNL     1     -12.077  12.762  63.382  1.00  0.00    -0.619 C  
ENDBRANCH  15  16
ENDBRANCH  14  15
ENDBRANCH  13  14
ENDBRANCH  12  13
ENDBRANCH  11  12
ENDBRANCH   9  11
ENDBRANCH   8   9
ENDBRANCH   7   8
ENDBRANCH   5   7
ENDBRANCH   2   5
TORSDOF 10
ENDMDL
MODEL      129
REMARK 921   NORMALIZED FREE ENERGY PREDICTED BY IDOCK:   -3.55 KCAL/MOL
REMARK 922        TOTAL FREE ENERGY PREDICTED BY IDOCK:   -6.12 KCAL/MOL
REMARK 923 INTER-LIGAND FREE ENERGY PREDICTED BY IDOCK:   -5.76 KCAL/MOL
REMARK 924 INTRA-LIGAND FREE ENERGY PREDICTED BY IDOCK:   -0.36 KCAL/MOL
REMARK 927      BINDING AFFINITY PREDICTED BY RF-SCORE:    0.00 PKD
ROOT
HETATM    1  N   UNL     1     -11.796   7.929  72.639  1.00  0.00    -0.562 NA 
HETATM    2  C   UNL     1     -11.258   9.056  71.878  1.00  0.00    -0.368 C  
HETATM    3  H1  UNL     1     -11.914   8.186  73.619  1.00  0.00     0.000 HD 
HETATM    4  H2  UNL     1     -11.225   7.091  72.531  1.00  0.00     0.000 HD 
ENDROOT
BRANCH   2   5
HETATM    5  C   UNL     1     -11.081   8.671  70.406  1.00  0.00    -0.230 C  
HETATM    6  O   UNL     1     -11.020   7.498  70.040  1.00  0.00    -0.257 OA 
BRANCH   5   7
HETATM    7  C   UNL     1     -11.066   9.828  69.431  1.00  0.00    -0.205 C  
BRANCH   7   8
HETATM    8  C   UNL     1     -12.025  10.942  69.831  1.00  0.00    -0.430 C  
BRANCH   8   9
HETATM    9  C   UNL     1     -12.021  12.118  68.882  1.00  0.00    -0.242 C  
HETATM   10  O   UNL     1     -12.071  13.286  69.236  1.00  0.00    -0.301 OA 
BRANCH   9  11
HETATM   11  O   UNL     1     -12.140  11.691  67.593  1.00  0.00    -0.615 OA 
BRANCH  11  12
HETATM   12  C   UNL     1     -11.360  12.433  66.654  1.00  0.00    -0.339 C  
BRANCH  12  13
HETATM   13  C   UNL     1     -12.214  13.000  65.532  1.00  0.00    -0.521 C  
BRANCH  13  14
HETATM   14  C   UNL     1     -12.100  12.091  64.311  1.00  0.00    -0.414 C  
BRANCH  14  15
HETATM   15  C   UNL     1     -10.782  12.276  63.564  1.00  0.00    -0.497 C  
BRANCH  15  16
HETATM   16  C   UNL     1     -10.031  10.948  63.465  1.00  0.00    -0.419 C  
HETATM   17  C   UNL     1      -8.838  11.052  62.527  1.00  0.00    -0.358 C  
ENDBRANCH  15  16
ENDBRANCH  14  15
ENDBRANCH  13  14
ENDBRANCH  12  13
ENDBRANCH  11  12
ENDBRANCH   9  11
ENDBRANCH   8   9
ENDBRANCH   7   8
ENDBRANCH   5   7
ENDBRANCH   2   5
TORSDOF 10
ENDMDL
MODEL      130
REMARK 921   NORMALIZED FREE ENERGY PREDICTED BY IDOCK:   -3.55 KCAL/MOL
REMARK 922        TOTAL FREE ENERGY PREDICTED BY IDOCK:   -6.11 KCAL/MOL
REMARK 923 INTER-LIGAND FREE ENERGY PREDICTED BY IDOCK:   -5.41 KCAL/MOL
REMARK 924 INTRA-LIGAND FREE ENERGY PREDICTED BY IDOCK:   -0.70 KCAL/MOL
REMARK 927      BINDING AFFINITY PREDICTED BY RF-SCORE:    0.00 PKD
ROOT
HETATM    1  N   UNL     1     -13.354  10.242  70.516  1.00  0.00    -0.459 NA 
HETATM    2  C   UNL     1     -11.977  10.140  70.999  1.00  0.00    -0.378 C  
HETATM    3  H1  UNL     1     -13.930  10.748  71.189  1.00  0.00     0.000 HD 
HETATM    4  H2  UNL     1     -13.746   9.328  70.291  1.00  0.00     0.000 HD 
ENDROOT
BRANCH   2   5
HETATM    5  C   UNL     1     -11.111   9.380  69.990  1.00  0.00    -0.221 C  
HETATM    6  O   UNL     1     -11.166   8.157  69.872  1.00  0.00    -0.170 OA 
BRANCH   5   7
HETATM    7  C   UNL     1     -10.246  10.245  69.098  1.00  0.00    -0.234 C  
BRANCH   7   8
HETATM    8  C   UNL     1     -10.953  10.645  67.809  1.00  0.00    -0.364 C  
BRANCH   8   9
HETATM    9  C   UNL     1     -11.158  12.135  67.665  1.00  0.00    -0.268 C  
HETATM   10  O   UNL     1     -10.484  12.854  66.944  1.00  0.00    -0.244 OA 
BRANCH   9  11
HETATM   11  O   UNL     1     -12.065  12.582  68.579  1.00  0.00    -0.266 OA 
BRANCH  11  12
HETATM   12  C   UNL     1     -11.548  13.547  69.497  1.00  0.00    -0.294 C  
BRANCH  12  13
HETATM   13  C   UNL     1     -12.104  14.936  69.230  1.00  0.00    -0.286 C  
BRANCH  13  14
HETATM   14  C   UNL     1     -12.742  15.472  70.509  1.00  0.00    -0.436 C  
BRANCH  14  15
HETATM   15  C   UNL     1     -11.718  16.080  71.463  1.00  0.00    -0.554 C  
BRANCH  15  16
HETATM   16  C   UNL     1     -12.271  16.122  72.888  1.00  0.00    -0.640 C  
HETATM   17  C   UNL     1     -12.779  14.758  73.327  1.00  0.00    -0.596 C  
ENDBRANCH  15  16
ENDBRANCH  14  15
ENDBRANCH  13  14
ENDBRANCH  12  13
ENDBRANCH  11  12
ENDBRANCH   9  11
ENDBRANCH   8   9
ENDBRANCH   7   8
ENDBRANCH   5   7
ENDBRANCH   2   5
TORSDOF 10
ENDMDL
MODEL      131
REMARK 921   NORMALIZED FREE ENERGY PREDICTED BY IDOCK:   -3.55 KCAL/MOL
REMARK 922        TOTAL FREE ENERGY PREDICTED BY IDOCK:   -6.10 KCAL/MOL
REMARK 923 INTER-LIGAND FREE ENERGY PREDICTED BY IDOCK:   -5.63 KCAL/MOL
REMARK 924 INTRA-LIGAND FREE ENERGY PREDICTED BY IDOCK:   -0.47 KCAL/MOL
REMARK 927      BINDING AFFINITY PREDICTED BY RF-SCORE:    0.00 PKD
ROOT
HETATM    1  N   UNL     1     -11.208   9.640  68.762  1.00  0.00    -0.470 NA 
HETATM    2  C   UNL     1     -10.561  10.927  69.023  1.00  0.00    -0.216 C  
HETATM    3  H1  UNL     1     -10.530   8.881  68.833  1.00  0.00     0.000 HD 
HETATM    4  H2  UNL     1     -11.693   9.635  67.865  1.00  0.00     0.000 HD 
ENDROOT
BRANCH   2   5
HETATM    5  C   UNL     1     -11.579  12.067  68.917  1.00  0.00    -0.321 C  
HETATM    6  O   UNL     1     -12.038  12.435  67.837  1.00  0.00    -0.428 OA 
BRANCH   5   7
HETATM    7  C   UNL     1     -12.036  12.651  70.236  1.00  0.00    -0.363 C  
BRANCH   7   8
HETATM    8  C   UNL     1     -12.480  14.102  70.109  1.00  0.00    -0.391 C  
BRANCH   8   9
HETATM    9  C   UNL     1     -11.701  15.056  70.985  1.00  0.00    -0.332 C  
HETATM   10  O   UNL     1     -11.483  14.875  72.173  1.00  0.00    -0.321 OA 
BRANCH   9  11
HETATM   11  O   UNL     1     -11.440  16.214  70.315  1.00  0.00    -0.346 OA 
BRANCH  11  12
HETATM   12  C   UNL     1     -10.995  16.029  68.971  1.00  0.00    -0.296 C  
BRANCH  12  13
HETATM   13  C   UNL     1      -9.578  16.540  68.769  1.00  0.00    -0.248 C  
BRANCH  13  14
HETATM   14  C   UNL     1      -9.634  17.978  68.259  1.00  0.00    -0.321 C  
BRANCH  14  15
HETATM   15  C   UNL     1     -10.517  18.127  67.025  1.00  0.00    -0.385 C  
BRANCH  15  16
HETATM   16  C   UNL     1     -10.510  19.574  66.532  1.00  0.00    -0.595 C  
HETATM   17  C   UNL     1      -9.671  20.465  67.435  1.00  0.00    -0.597 C  
ENDBRANCH  15  16
ENDBRANCH  14  15
ENDBRANCH  13  14
ENDBRANCH  12  13
ENDBRANCH  11  12
ENDBRANCH   9  11
ENDBRANCH   8   9
ENDBRANCH   7   8
ENDBRANCH   5   7
ENDBRANCH   2   5
TORSDOF 10
ENDMDL
MODEL      132
REMARK 921   NORMALIZED FREE ENERGY PREDICTED BY IDOCK:   -3.54 KCAL/MOL
REMARK 922        TOTAL FREE ENERGY PREDICTED BY IDOCK:   -6.10 KCAL/MOL
REMARK 923 INTER-LIGAND FREE ENERGY PREDICTED BY IDOCK:   -5.39 KCAL/MOL
REMARK 924 INTRA-LIGAND FREE ENERGY PREDICTED BY IDOCK:   -0.71 KCAL/MOL
REMARK 927      BINDING AFFINITY PREDICTED BY RF-SCORE:    0.00 PKD
ROOT
HETATM    1  N   UNL     1      -9.682  17.495  68.209  1.00  0.00    -0.296 NA 
HETATM    2  C   UNL     1     -10.638  16.844  67.312  1.00  0.00    -0.270 C  
HETATM    3  H1  UNL     1     -10.055  17.536  69.157  1.00  0.00     0.000 HD 
HETATM    4  H2  UNL     1      -9.408  18.416  67.867  1.00  0.00     0.000 HD 
ENDROOT
BRANCH   2   5
HETATM    5  C   UNL     1     -10.078  16.782  65.888  1.00  0.00    -0.304 C  
HETATM    6  O   UNL     1      -8.925  17.121  65.624  1.00  0.00    -0.491 OA 
BRANCH   5   7
HETATM    7  C   UNL     1     -11.012  16.201  64.850  1.00  0.00    -0.364 C  
BRANCH   7   8
HETATM    8  C   UNL     1     -10.788  14.711  64.629  1.00  0.00    -0.332 C  
BRANCH   8   9
HETATM    9  C   UNL     1     -12.063  13.927  64.426  1.00  0.00    -0.443 C  
HETATM   10  O   UNL     1     -12.459  13.528  63.342  1.00  0.00    -0.750 OA 
BRANCH   9  11
HETATM   11  O   UNL     1     -12.790  13.891  65.579  1.00  0.00    -0.609 OA 
BRANCH  11  12
HETATM   12  C   UNL     1     -12.067  13.415  66.715  1.00  0.00    -0.365 C  
BRANCH  12  13
HETATM   13  C   UNL     1     -11.625  11.971  66.539  1.00  0.00    -0.384 C  
BRANCH  13  14
HETATM   14  C   UNL     1     -10.184  11.829  67.024  1.00  0.00    -0.240 C  
BRANCH  14  15
HETATM   15  C   UNL     1      -9.700  13.057  67.789  1.00  0.00    -0.218 C  
BRANCH  15  16
HETATM   16  C   UNL     1      -8.173  13.135  67.767  1.00  0.00    -0.168 C  
HETATM   17  C   UNL     1      -7.563  11.905  67.114  1.00  0.00    -0.154 C  
ENDBRANCH  15  16
ENDBRANCH  14  15
ENDBRANCH  13  14
ENDBRANCH  12  13
ENDBRANCH  11  12
ENDBRANCH   9  11
ENDBRANCH   8   9
ENDBRANCH   7   8
ENDBRANCH   5   7
ENDBRANCH   2   5
TORSDOF 10
ENDMDL
MODEL      133
REMARK 921   NORMALIZED FREE ENERGY PREDICTED BY IDOCK:   -3.54 KCAL/MOL
REMARK 922        TOTAL FREE ENERGY PREDICTED BY IDOCK:   -6.10 KCAL/MOL
REMARK 923 INTER-LIGAND FREE ENERGY PREDICTED BY IDOCK:   -5.26 KCAL/MOL
REMARK 924 INTRA-LIGAND FREE ENERGY PREDICTED BY IDOCK:   -0.84 KCAL/MOL
REMARK 927      BINDING AFFINITY PREDICTED BY RF-SCORE:    0.00 PKD
ROOT
HETATM    1  N   UNL     1     -11.780  12.744  69.882  1.00  0.00    -0.484 NA 
HETATM    2  C   UNL     1     -11.977  11.337  70.232  1.00  0.00    -0.379 C  
HETATM    3  H1  UNL     1     -11.126  12.829  69.103  1.00  0.00     0.000 HD 
HETATM    4  H2  UNL     1     -11.488  13.298  70.687  1.00  0.00     0.000 HD 
ENDROOT
BRANCH   2   5
HETATM    5  C   UNL     1     -12.959  11.210  71.400  1.00  0.00    -0.403 C  
HETATM    6  O   UNL     1     -13.276  12.174  72.096  1.00  0.00    -0.499 OA 
BRANCH   5   7
HETATM    7  C   UNL     1     -13.569   9.838  71.587  1.00  0.00    -0.371 C  
BRANCH   7   8
HETATM    8  C   UNL     1     -12.688   8.915  72.418  1.00  0.00    -0.436 C  
BRANCH   8   9
HETATM    9  C   UNL     1     -12.183   7.710  71.659  1.00  0.00    -0.317 C  
HETATM   10  O   UNL     1     -12.734   6.620  71.656  1.00  0.00    -0.342 OA 
BRANCH   9  11
HETATM   11  O   UNL     1     -10.947   7.956  71.139  1.00  0.00    -0.233 OA 
BRANCH  11  12
HETATM   12  C   UNL     1     -10.089   8.711  71.995  1.00  0.00    -0.331 C  
BRANCH  12  13
HETATM   13  C   UNL     1      -8.899   7.892  72.468  1.00  0.00    -0.220 C  
BRANCH  13  14
HETATM   14  C   UNL     1      -9.034   7.637  73.967  1.00  0.00    -0.299 C  
BRANCH  14  15
HETATM   15  C   UNL     1     -10.063   6.557  74.286  1.00  0.00    -0.379 C  
BRANCH  15  16
HETATM   16  C   UNL     1      -9.849   5.333  73.396  1.00  0.00    -0.173 C  
HETATM   17  C   UNL     1     -11.041   4.390  73.451  1.00  0.00    -0.394 C  
ENDBRANCH  15  16
ENDBRANCH  14  15
ENDBRANCH  13  14
ENDBRANCH  12  13
ENDBRANCH  11  12
ENDBRANCH   9  11
ENDBRANCH   8   9
ENDBRANCH   7   8
ENDBRANCH   5   7
ENDBRANCH   2   5
TORSDOF 10
ENDMDL
MODEL      134
REMARK 921   NORMALIZED FREE ENERGY PREDICTED BY IDOCK:   -3.54 KCAL/MOL
REMARK 922        TOTAL FREE ENERGY PREDICTED BY IDOCK:   -6.09 KCAL/MOL
REMARK 923 INTER-LIGAND FREE ENERGY PREDICTED BY IDOCK:   -4.86 KCAL/MOL
REMARK 924 INTRA-LIGAND FREE ENERGY PREDICTED BY IDOCK:   -1.24 KCAL/MOL
REMARK 927      BINDING AFFINITY PREDICTED BY RF-SCORE:    0.00 PKD
ROOT
HETATM    1  N   UNL     1     -14.369   7.941  71.188  1.00  0.00    -0.674 NA 
HETATM    2  C   UNL     1     -13.994   8.846  72.275  1.00  0.00    -0.466 C  
HETATM    3  H1  UNL     1     -14.965   7.191  71.540  1.00  0.00     0.000 HD 
HETATM    4  H2  UNL     1     -13.552   7.580  70.696  1.00  0.00     0.000 HD 
ENDROOT
BRANCH   2   5
HETATM    5  C   UNL     1     -13.100   9.972  71.747  1.00  0.00    -0.457 C  
HETATM    6  O   UNL     1     -13.374  11.160  71.920  1.00  0.00    -0.417 OA 
BRANCH   5   7
HETATM    7  C   UNL     1     -11.823   9.523  71.071  1.00  0.00    -0.408 C  
BRANCH   7   8
HETATM    8  C   UNL     1     -10.963   8.646  71.972  1.00  0.00    -0.432 C  
BRANCH   8   9
HETATM    9  C   UNL     1     -10.834   7.220  71.488  1.00  0.00    -0.224 C  
HETATM   10  O   UNL     1     -10.044   6.409  71.947  1.00  0.00    -0.183 OA 
BRANCH   9  11
HETATM   11  O   UNL     1     -11.580   7.028  70.364  1.00  0.00    -0.309 OA 
BRANCH  11  12
HETATM   12  C   UNL     1     -11.112   5.975  69.520  1.00  0.00    -0.398 C  
BRANCH  12  13
HETATM   13  C   UNL     1     -10.091   6.472  68.510  1.00  0.00    -0.172 C  
BRANCH  13  14
HETATM   14  C   UNL     1     -10.728   7.564  67.654  1.00  0.00    -0.266 C  
BRANCH  14  15
HETATM   15  C   UNL     1      -9.808   8.766  67.460  1.00  0.00    -0.232 C  
BRANCH  15  16
HETATM   16  C   UNL     1      -9.010   9.042  68.735  1.00  0.00    -0.137 C  
HETATM   17  C   UNL     1      -7.701   9.751  68.429  1.00  0.00    -0.081 C  
ENDBRANCH  15  16
ENDBRANCH  14  15
ENDBRANCH  13  14
ENDBRANCH  12  13
ENDBRANCH  11  12
ENDBRANCH   9  11
ENDBRANCH   8   9
ENDBRANCH   7   8
ENDBRANCH   5   7
ENDBRANCH   2   5
TORSDOF 10
ENDMDL
MODEL      135
REMARK 921   NORMALIZED FREE ENERGY PREDICTED BY IDOCK:   -3.54 KCAL/MOL
REMARK 922        TOTAL FREE ENERGY PREDICTED BY IDOCK:   -6.09 KCAL/MOL
REMARK 923 INTER-LIGAND FREE ENERGY PREDICTED BY IDOCK:   -5.75 KCAL/MOL
REMARK 924 INTRA-LIGAND FREE ENERGY PREDICTED BY IDOCK:   -0.34 KCAL/MOL
REMARK 927      BINDING AFFINITY PREDICTED BY RF-SCORE:    0.00 PKD
ROOT
HETATM    1  N   UNL     1      -9.488  16.491  66.713  1.00  0.00    -0.238 NA 
HETATM    2  C   UNL     1     -10.290  17.008  67.822  1.00  0.00    -0.335 C  
HETATM    3  H1  UNL     1      -8.921  17.236  66.307  1.00  0.00     0.000 HD 
HETATM    4  H2  UNL     1     -10.064  16.026  66.012  1.00  0.00     0.000 HD 
ENDROOT
BRANCH   2   5
HETATM    5  C   UNL     1     -11.141  15.889  68.432  1.00  0.00    -0.345 C  
HETATM    6  O   UNL     1     -11.670  15.999  69.537  1.00  0.00    -0.325 OA 
BRANCH   5   7
HETATM    7  C   UNL     1     -11.348  14.678  67.549  1.00  0.00    -0.361 C  
BRANCH   7   8
HETATM    8  C   UNL     1     -11.302  13.371  68.329  1.00  0.00    -0.330 C  
BRANCH   8   9
HETATM    9  C   UNL     1     -11.876  12.193  67.577  1.00  0.00    -0.237 C  
HETATM   10  O   UNL     1     -12.136  12.201  66.384  1.00  0.00    -0.630 OA 
BRANCH   9  11
HETATM   11  O   UNL     1     -12.228  11.200  68.442  1.00  0.00    -0.610 OA 
BRANCH  11  12
HETATM   12  C   UNL     1     -11.600  11.285  69.722  1.00  0.00    -0.333 C  
BRANCH  12  13
HETATM   13  C   UNL     1     -11.449   9.918  70.369  1.00  0.00    -0.372 C  
BRANCH  13  14
HETATM   14  C   UNL     1     -12.449   9.797  71.516  1.00  0.00    -0.495 C  
BRANCH  14  15
HETATM   15  C   UNL     1     -12.901   8.358  71.748  1.00  0.00    -0.371 C  
BRANCH  15  16
HETATM   16  C   UNL     1     -11.697   7.415  71.769  1.00  0.00    -0.319 C  
HETATM   17  C   UNL     1     -10.892   7.569  73.049  1.00  0.00    -0.445 C  
ENDBRANCH  15  16
ENDBRANCH  14  15
ENDBRANCH  13  14
ENDBRANCH  12  13
ENDBRANCH  11  12
ENDBRANCH   9  11
ENDBRANCH   8   9
ENDBRANCH   7   8
ENDBRANCH   5   7
ENDBRANCH   2   5
TORSDOF 10
ENDMDL
MODEL      136
REMARK 921   NORMALIZED FREE ENERGY PREDICTED BY IDOCK:   -3.53 KCAL/MOL
REMARK 922        TOTAL FREE ENERGY PREDICTED BY IDOCK:   -6.08 KCAL/MOL
REMARK 923 INTER-LIGAND FREE ENERGY PREDICTED BY IDOCK:   -5.77 KCAL/MOL
REMARK 924 INTRA-LIGAND FREE ENERGY PREDICTED BY IDOCK:   -0.31 KCAL/MOL
REMARK 927      BINDING AFFINITY PREDICTED BY RF-SCORE:    0.00 PKD
ROOT
HETATM    1  N   UNL     1     -14.258   8.731  73.329  1.00  0.00    -1.147 NA 
HETATM    2  C   UNL     1     -13.558   9.439  72.257  1.00  0.00    -0.462 C  
HETATM    3  H1  UNL     1     -15.128   9.210  73.562  1.00  0.00     0.000 HD 
HETATM    4  H2  UNL     1     -13.665   8.600  74.148  1.00  0.00     0.000 HD 
ENDROOT
BRANCH   2   5
HETATM    5  C   UNL     1     -12.252   8.720  71.906  1.00  0.00    -0.361 C  
HETATM    6  O   UNL     1     -11.806   7.801  72.593  1.00  0.00    -0.330 OA 
BRANCH   5   7
HETATM    7  C   UNL     1     -11.593   9.164  70.619  1.00  0.00    -0.282 C  
BRANCH   7   8
HETATM    8  C   UNL     1     -11.295  10.658  70.600  1.00  0.00    -0.288 C  
BRANCH   8   9
HETATM    9  C   UNL     1     -12.025  11.410  69.510  1.00  0.00    -0.341 C  
HETATM   10  O   UNL     1     -12.256  10.957  68.400  1.00  0.00    -0.540 OA 
BRANCH   9  11
HETATM   11  O   UNL     1     -12.219  12.708  69.876  1.00  0.00    -0.258 OA 
BRANCH  11  12
HETATM   12  C   UNL     1     -11.221  13.610  69.396  1.00  0.00    -0.196 C  
BRANCH  12  13
HETATM   13  C   UNL     1     -11.699  14.389  68.182  1.00  0.00    -0.377 C  
BRANCH  13  14
HETATM   14  C   UNL     1     -10.814  15.620  67.999  1.00  0.00    -0.308 C  
BRANCH  14  15
HETATM   15  C   UNL     1     -10.900  16.199  66.591  1.00  0.00    -0.149 C  
BRANCH  15  16
HETATM   16  C   UNL     1      -9.661  15.820  65.779  1.00  0.00    -0.372 C  
HETATM   17  C   UNL     1      -8.408  16.472  66.340  1.00  0.00    -0.358 C  
ENDBRANCH  15  16
ENDBRANCH  14  15
ENDBRANCH  13  14
ENDBRANCH  12  13
ENDBRANCH  11  12
ENDBRANCH   9  11
ENDBRANCH   8   9
ENDBRANCH   7   8
ENDBRANCH   5   7
ENDBRANCH   2   5
TORSDOF 10
ENDMDL
MODEL      137
REMARK 921   NORMALIZED FREE ENERGY PREDICTED BY IDOCK:   -3.52 KCAL/MOL
REMARK 922        TOTAL FREE ENERGY PREDICTED BY IDOCK:   -6.07 KCAL/MOL
REMARK 923 INTER-LIGAND FREE ENERGY PREDICTED BY IDOCK:   -5.40 KCAL/MOL
REMARK 924 INTRA-LIGAND FREE ENERGY PREDICTED BY IDOCK:   -0.67 KCAL/MOL
REMARK 927      BINDING AFFINITY PREDICTED BY RF-SCORE:    0.00 PKD
ROOT
HETATM    1  N   UNL     1     -11.301   4.471  65.077  1.00  0.00    -1.108 NA 
HETATM    2  C   UNL     1      -9.907   4.039  65.187  1.00  0.00    -0.201 C  
HETATM    3  H1  UNL     1     -11.612   4.425  64.107  1.00  0.00     0.000 HD 
HETATM    4  H2  UNL     1     -11.443   5.398  65.479  1.00  0.00     0.000 HD 
ENDROOT
BRANCH   2   5
HETATM    5  C   UNL     1      -9.440   4.107  66.644  1.00  0.00    -0.191 C  
HETATM    6  O   UNL     1      -9.562   3.156  67.415  1.00  0.00    -0.185 OA 
BRANCH   5   7
HETATM    7  C   UNL     1      -8.750   5.393  67.043  1.00  0.00    -0.107 C  
BRANCH   7   8
HETATM    8  C   UNL     1      -9.367   6.028  68.282  1.00  0.00    -0.116 C  
BRANCH   8   9
HETATM    9  C   UNL     1     -10.843   6.323  68.144  1.00  0.00    -0.320 C  
HETATM   10  O   UNL     1     -11.366   6.744  67.124  1.00  0.00    -0.330 OA 
BRANCH   9  11
HETATM   11  O   UNL     1     -11.463   6.230  69.354  1.00  0.00    -0.427 OA 
BRANCH  11  12
HETATM   12  C   UNL     1     -10.901   7.064  70.369  1.00  0.00    -0.254 C  
BRANCH  12  13
HETATM   13  C   UNL     1     -11.678   6.969  71.672  1.00  0.00    -0.332 C  
BRANCH  13  14
HETATM   14  C   UNL     1     -11.933   8.378  72.202  1.00  0.00    -0.438 C  
BRANCH  14  15
HETATM   15  C   UNL     1     -11.292   9.456  71.334  1.00  0.00    -0.451 C  
BRANCH  15  16
HETATM   16  C   UNL     1     -12.285  10.586  71.062  1.00  0.00    -0.505 C  
HETATM   17  C   UNL     1     -11.960  11.312  69.766  1.00  0.00    -0.431 C  
ENDBRANCH  15  16
ENDBRANCH  14  15
ENDBRANCH  13  14
ENDBRANCH  12  13
ENDBRANCH  11  12
ENDBRANCH   9  11
ENDBRANCH   8   9
ENDBRANCH   7   8
ENDBRANCH   5   7
ENDBRANCH   2   5
TORSDOF 10
ENDMDL
MODEL      138
REMARK 921   NORMALIZED FREE ENERGY PREDICTED BY IDOCK:   -3.52 KCAL/MOL
REMARK 922        TOTAL FREE ENERGY PREDICTED BY IDOCK:   -6.06 KCAL/MOL
REMARK 923 INTER-LIGAND FREE ENERGY PREDICTED BY IDOCK:   -5.52 KCAL/MOL
REMARK 924 INTRA-LIGAND FREE ENERGY PREDICTED BY IDOCK:   -0.54 KCAL/MOL
REMARK 927      BINDING AFFINITY PREDICTED BY RF-SCORE:    0.00 PKD
ROOT
HETATM    1  N   UNL     1     -11.135  11.393  63.035  1.00  0.00    -0.840 NA 
HETATM    2  C   UNL     1     -10.897  11.302  64.475  1.00  0.00    -0.284 C  
HETATM    3  H1  UNL     1     -10.582  10.694  62.538  1.00  0.00     0.000 HD 
HETATM    4  H2  UNL     1     -10.965  12.334  62.681  1.00  0.00     0.000 HD 
ENDROOT
BRANCH   2   5
HETATM    5  C   UNL     1     -11.727  12.351  65.221  1.00  0.00    -0.390 C  
HETATM    6  O   UNL     1     -12.928  12.509  65.005  1.00  0.00    -0.779 OA 
BRANCH   5   7
HETATM    7  C   UNL     1     -10.987  13.121  66.292  1.00  0.00    -0.295 C  
BRANCH   7   8
HETATM    8  C   UNL     1     -11.694  13.074  67.641  1.00  0.00    -0.415 C  
BRANCH   8   9
HETATM    9  C   UNL     1     -11.437  11.804  68.418  1.00  0.00    -0.294 C  
HETATM   10  O   UNL     1     -12.313  11.119  68.924  1.00  0.00    -0.512 OA 
BRANCH   9  11
HETATM   11  O   UNL     1     -10.101  11.635  68.628  1.00  0.00    -0.211 OA 
BRANCH  11  12
HETATM   12  C   UNL     1      -9.669  10.274  68.608  1.00  0.00    -0.167 C  
BRANCH  12  13
HETATM   13  C   UNL     1      -9.246   9.795  69.987  1.00  0.00    -0.266 C  
BRANCH  13  14
HETATM   14  C   UNL     1     -10.111   8.601  70.386  1.00  0.00    -0.213 C  
BRANCH  14  15
HETATM   15  C   UNL     1      -9.401   7.267  70.173  1.00  0.00    -0.155 C  
BRANCH  15  16
HETATM   16  C   UNL     1     -10.419   6.153  69.927  1.00  0.00    -0.294 C  
HETATM   17  C   UNL     1     -10.919   6.164  68.491  1.00  0.00    -0.404 C  
ENDBRANCH  15  16
ENDBRANCH  14  15
ENDBRANCH  13  14
ENDBRANCH  12  13
ENDBRANCH  11  12
ENDBRANCH   9  11
ENDBRANCH   8   9
ENDBRANCH   7   8
ENDBRANCH   5   7
ENDBRANCH   2   5
TORSDOF 10
ENDMDL
MODEL      139
REMARK 921   NORMALIZED FREE ENERGY PREDICTED BY IDOCK:   -3.49 KCAL/MOL
REMARK 922        TOTAL FREE ENERGY PREDICTED BY IDOCK:   -6.01 KCAL/MOL
REMARK 923 INTER-LIGAND FREE ENERGY PREDICTED BY IDOCK:   -5.66 KCAL/MOL
REMARK 924 INTRA-LIGAND FREE ENERGY PREDICTED BY IDOCK:   -0.35 KCAL/MOL
REMARK 927      BINDING AFFINITY PREDICTED BY RF-SCORE:    0.00 PKD
ROOT
HETATM    1  N   UNL     1     -12.648  13.763  62.747  1.00  0.00    -0.610 NA 
HETATM    2  C   UNL     1     -11.949  12.781  63.576  1.00  0.00    -0.555 C  
HETATM    3  H1  UNL     1     -13.113  13.301  61.965  1.00  0.00     0.000 HD 
HETATM    4  H2  UNL     1     -12.025  14.507  62.433  1.00  0.00     0.000 HD 
ENDROOT
BRANCH   2   5
HETATM    5  C   UNL     1     -11.251  13.474  64.750  1.00  0.00    -0.352 C  
HETATM    6  O   UNL     1     -10.201  14.101  64.609  1.00  0.00    -0.408 OA 
BRANCH   5   7
HETATM    7  C   UNL     1     -11.982  13.401  66.073  1.00  0.00    -0.460 C  
BRANCH   7   8
HETATM    8  C   UNL     1     -11.226  12.586  67.114  1.00  0.00    -0.352 C  
BRANCH   8   9
HETATM    9  C   UNL     1     -11.886  12.573  68.473  1.00  0.00    -0.295 C  
HETATM   10  O   UNL     1     -11.946  13.541  69.216  1.00  0.00    -0.315 OA 
BRANCH   9  11
HETATM   11  O   UNL     1     -12.233  11.302  68.823  1.00  0.00    -0.532 OA 
BRANCH  11  12
HETATM   12  C   UNL     1     -12.613  11.152  70.192  1.00  0.00    -0.178 C  
BRANCH  12  13
HETATM   13  C   UNL     1     -11.920   9.967  70.844  1.00  0.00    -0.453 C  
BRANCH  13  14
HETATM   14  C   UNL     1     -10.699   9.584  70.012  1.00  0.00    -0.278 C  
BRANCH  14  15
HETATM   15  C   UNL     1      -9.463   9.328  70.869  1.00  0.00    -0.330 C  
BRANCH  15  16
HETATM   16  C   UNL     1      -9.839   8.550  72.131  1.00  0.00    -0.388 C  
HETATM   17  C   UNL     1      -9.062   7.247  72.232  1.00  0.00    -0.152 C  
ENDBRANCH  15  16
ENDBRANCH  14  15
ENDBRANCH  13  14
ENDBRANCH  12  13
ENDBRANCH  11  12
ENDBRANCH   9  11
ENDBRANCH   8   9
ENDBRANCH   7   8
ENDBRANCH   5   7
ENDBRANCH   2   5
TORSDOF 10
ENDMDL
MODEL      140
REMARK 921   NORMALIZED FREE ENERGY PREDICTED BY IDOCK:   -3.49 KCAL/MOL
REMARK 922        TOTAL FREE ENERGY PREDICTED BY IDOCK:   -6.01 KCAL/MOL
REMARK 923 INTER-LIGAND FREE ENERGY PREDICTED BY IDOCK:   -5.06 KCAL/MOL
REMARK 924 INTRA-LIGAND FREE ENERGY PREDICTED BY IDOCK:   -0.95 KCAL/MOL
REMARK 927      BINDING AFFINITY PREDICTED BY RF-SCORE:    0.00 PKD
ROOT
HETATM    1  N   UNL     1      -8.062  19.116  67.607  1.00  0.00    -0.265 NA 
HETATM    2  C   UNL     1      -8.803  19.148  66.346  1.00  0.00    -0.338 C  
HETATM    3  H1  UNL     1      -7.162  19.585  67.502  1.00  0.00     0.000 HD 
HETATM    4  H2  UNL     1      -7.956  18.165  67.961  1.00  0.00     0.000 HD 
ENDROOT
BRANCH   2   5
HETATM    5  C   UNL     1     -10.154  18.444  66.503  1.00  0.00    -0.388 C  
HETATM    6  O   UNL     1     -10.765  17.979  65.541  1.00  0.00    -0.597 OA 
BRANCH   5   7
HETATM    7  C   UNL     1     -10.644  18.290  67.926  1.00  0.00    -0.392 C  
BRANCH   7   8
HETATM    8  C   UNL     1     -10.888  16.836  68.307  1.00  0.00    -0.366 C  
BRANCH   8   9
HETATM    9  C   UNL     1      -9.680  15.947  68.118  1.00  0.00    -0.212 C  
HETATM   10  O   UNL     1      -8.575  16.183  68.581  1.00  0.00    -0.187 OA 
BRANCH   9  11
HETATM   11  O   UNL     1      -9.951  14.959  67.220  1.00  0.00    -0.229 OA 
BRANCH  11  12
HETATM   12  C   UNL     1     -11.343  14.742  66.985  1.00  0.00    -0.353 C  
BRANCH  12  13
HETATM   13  C   UNL     1     -11.747  13.304  67.264  1.00  0.00    -0.424 C  
BRANCH  13  14
HETATM   14  C   UNL     1     -11.993  13.137  68.762  1.00  0.00    -0.316 C  
BRANCH  14  15
HETATM   15  C   UNL     1     -12.029  11.673  69.189  1.00  0.00    -0.378 C  
BRANCH  15  16
HETATM   16  C   UNL     1     -11.369  10.789  68.130  1.00  0.00    -0.377 C  
HETATM   17  C   UNL     1     -10.517   9.703  68.766  1.00  0.00    -0.238 C  
ENDBRANCH  15  16
ENDBRANCH  14  15
ENDBRANCH  13  14
ENDBRANCH  12  13
ENDBRANCH  11  12
ENDBRANCH   9  11
ENDBRANCH   8   9
ENDBRANCH   7   8
ENDBRANCH   5   7
ENDBRANCH   2   5
TORSDOF 10
ENDMDL
MODEL      141
REMARK 921   NORMALIZED FREE ENERGY PREDICTED BY IDOCK:   -3.49 KCAL/MOL
REMARK 922        TOTAL FREE ENERGY PREDICTED BY IDOCK:   -6.01 KCAL/MOL
REMARK 923 INTER-LIGAND FREE ENERGY PREDICTED BY IDOCK:   -5.31 KCAL/MOL
REMARK 924 INTRA-LIGAND FREE ENERGY PREDICTED BY IDOCK:   -0.69 KCAL/MOL
REMARK 927      BINDING AFFINITY PREDICTED BY RF-SCORE:    0.00 PKD
ROOT
HETATM    1  N   UNL     1      -9.331  14.855  69.474  1.00  0.00    -0.426 NA 
HETATM    2  C   UNL     1      -9.838  14.660  68.116  1.00  0.00    -0.224 C  
HETATM    3  H1  UNL     1      -8.312  14.802  69.484  1.00  0.00     0.000 HD 
HETATM    4  H2  UNL     1      -9.753  14.201  70.134  1.00  0.00     0.000 HD 
ENDROOT
BRANCH   2   5
HETATM    5  C   UNL     1     -11.367  14.740  68.100  1.00  0.00    -0.307 C  
HETATM    6  O   UNL     1     -11.990  15.515  68.826  1.00  0.00    -0.336 OA 
BRANCH   5   7
HETATM    7  C   UNL     1     -12.051  13.859  67.077  1.00  0.00    -0.451 C  
BRANCH   7   8
HETATM    8  C   UNL     1     -11.359  13.892  65.721  1.00  0.00    -0.308 C  
BRANCH   8   9
HETATM    9  C   UNL     1     -12.076  13.099  64.652  1.00  0.00    -0.408 C  
HETATM   10  O   UNL     1     -13.139  12.524  64.822  1.00  0.00    -0.853 OA 
BRANCH   9  11
HETATM   11  O   UNL     1     -11.288  12.967  63.548  1.00  0.00    -0.443 OA 
BRANCH  11  12
HETATM   12  C   UNL     1     -10.055  12.287  63.783  1.00  0.00    -0.350 C  
BRANCH  12  13
HETATM   13  C   UNL     1     -10.237  10.778  63.811  1.00  0.00    -0.354 C  
BRANCH  13  14
HETATM   14  C   UNL     1      -9.670  10.232  65.119  1.00  0.00    -0.364 C  
BRANCH  14  15
HETATM   15  C   UNL     1      -9.030  11.318  65.978  1.00  0.00    -0.209 C  
BRANCH  15  16
HETATM   16  C   UNL     1      -7.845  10.752  66.762  1.00  0.00    -0.135 C  
HETATM   17  C   UNL     1      -6.964  11.862  67.315  1.00  0.00    -0.145 C  
ENDBRANCH  15  16
ENDBRANCH  14  15
ENDBRANCH  13  14
ENDBRANCH  12  13
ENDBRANCH  11  12
ENDBRANCH   9  11
ENDBRANCH   8   9
ENDBRANCH   7   8
ENDBRANCH   5   7
ENDBRANCH   2   5
TORSDOF 10
ENDMDL
MODEL      142
REMARK 921   NORMALIZED FREE ENERGY PREDICTED BY IDOCK:   -3.48 KCAL/MOL
REMARK 922        TOTAL FREE ENERGY PREDICTED BY IDOCK:   -6.00 KCAL/MOL
REMARK 923 INTER-LIGAND FREE ENERGY PREDICTED BY IDOCK:   -5.20 KCAL/MOL
REMARK 924 INTRA-LIGAND FREE ENERGY PREDICTED BY IDOCK:   -0.80 KCAL/MOL
REMARK 927      BINDING AFFINITY PREDICTED BY RF-SCORE:    0.00 PKD
ROOT
HETATM    1  N   UNL     1     -12.034  11.807  67.633  1.00  0.00    -0.606 NA 
HETATM    2  C   UNL     1     -11.214  12.341  68.720  1.00  0.00    -0.265 C  
HETATM    3  H1  UNL     1     -11.885  10.802  67.537  1.00  0.00     0.000 HD 
HETATM    4  H2  UNL     1     -11.871  12.301  66.756  1.00  0.00     0.000 HD 
ENDROOT
BRANCH   2   5
HETATM    5  C   UNL     1     -11.437  13.850  68.866  1.00  0.00    -0.301 C  
HETATM    6  O   UNL     1     -12.407  14.312  69.465  1.00  0.00    -0.318 OA 
BRANCH   5   7
HETATM    7  C   UNL     1     -10.344  14.724  68.290  1.00  0.00    -0.238 C  
BRANCH   7   8
HETATM    8  C   UNL     1     -10.595  15.091  66.834  1.00  0.00    -0.297 C  
BRANCH   8   9
HETATM    9  C   UNL     1     -10.322  16.543  66.516  1.00  0.00    -0.305 C  
HETATM   10  O   UNL     1      -9.670  16.924  65.556  1.00  0.00    -0.541 OA 
BRANCH   9  11
HETATM   11  O   UNL     1     -10.741  17.342  67.537  1.00  0.00    -0.347 OA 
BRANCH  11  12
HETATM   12  C   UNL     1     -10.839  18.726  67.198  1.00  0.00    -0.306 C  
BRANCH  12  13
HETATM   13  C   UNL     1     -10.166  19.611  68.234  1.00  0.00    -0.567 C  
BRANCH  13  14
HETATM   14  C   UNL     1      -8.674  19.698  67.921  1.00  0.00    -0.372 C  
BRANCH  14  15
HETATM   15  C   UNL     1      -7.805  19.187  69.066  1.00  0.00    -0.294 C  
BRANCH  15  16
HETATM   16  C   UNL     1      -7.181  17.839  68.703  1.00  0.00    -0.260 C  
HETATM   17  C   UNL     1      -6.762  17.795  67.242  1.00  0.00    -0.186 C  
ENDBRANCH  15  16
ENDBRANCH  14  15
ENDBRANCH  13  14
ENDBRANCH  12  13
ENDBRANCH  11  12
ENDBRANCH   9  11
ENDBRANCH   8   9
ENDBRANCH   7   8
ENDBRANCH   5   7
ENDBRANCH   2   5
TORSDOF 10
ENDMDL
MODEL      143
REMARK 921   NORMALIZED FREE ENERGY PREDICTED BY IDOCK:   -3.48 KCAL/MOL
REMARK 922        TOTAL FREE ENERGY PREDICTED BY IDOCK:   -6.00 KCAL/MOL
REMARK 923 INTER-LIGAND FREE ENERGY PREDICTED BY IDOCK:   -5.48 KCAL/MOL
REMARK 924 INTRA-LIGAND FREE ENERGY PREDICTED BY IDOCK:   -0.52 KCAL/MOL
REMARK 927      BINDING AFFINITY PREDICTED BY RF-SCORE:    0.00 PKD
ROOT
HETATM    1  N   UNL     1     -11.401   4.543  65.183  1.00  0.00    -1.113 NA 
HETATM    2  C   UNL     1     -10.132   4.813  65.861  1.00  0.00    -0.242 C  
HETATM    3  H1  UNL     1     -11.233   4.130  64.266  1.00  0.00     0.000 HD 
HETATM    4  H2  UNL     1     -11.984   5.378  65.124  1.00  0.00     0.000 HD 
ENDROOT
BRANCH   2   5
HETATM    5  C   UNL     1     -10.384   5.433  67.239  1.00  0.00    -0.220 C  
HETATM    6  O   UNL     1      -9.931   4.938  68.271  1.00  0.00    -0.154 OA 
BRANCH   5   7
HETATM    7  C   UNL     1     -11.157   6.733  67.232  1.00  0.00    -0.394 C  
BRANCH   7   8
HETATM    8  C   UNL     1     -10.253   7.950  67.093  1.00  0.00    -0.360 C  
BRANCH   8   9
HETATM    9  C   UNL     1      -9.663   8.424  68.401  1.00  0.00    -0.156 C  
HETATM   10  O   UNL     1      -8.551   8.118  68.804  1.00  0.00    -0.126 OA 
BRANCH   9  11
HETATM   11  O   UNL     1     -10.604   9.077  69.140  1.00  0.00    -0.227 OA 
BRANCH  11  12
HETATM   12  C   UNL     1     -10.749  10.461  68.818  1.00  0.00    -0.225 C  
BRANCH  12  13
HETATM   13  C   UNL     1     -11.993  11.061  69.450  1.00  0.00    -0.408 C  
BRANCH  13  14
HETATM   14  C   UNL     1     -12.050  10.656  70.921  1.00  0.00    -0.489 C  
BRANCH  14  15
HETATM   15  C   UNL     1     -13.463  10.309  71.379  1.00  0.00    -0.303 C  
BRANCH  15  16
HETATM   16  C   UNL     1     -13.439   9.112  72.330  1.00  0.00    -0.535 C  
HETATM   17  C   UNL     1     -14.094   7.891  71.704  1.00  0.00    -0.528 C  
ENDBRANCH  15  16
ENDBRANCH  14  15
ENDBRANCH  13  14
ENDBRANCH  12  13
ENDBRANCH  11  12
ENDBRANCH   9  11
ENDBRANCH   8   9
ENDBRANCH   7   8
ENDBRANCH   5   7
ENDBRANCH   2   5
TORSDOF 10
ENDMDL
MODEL      144
REMARK 921   NORMALIZED FREE ENERGY PREDICTED BY IDOCK:   -3.48 KCAL/MOL
REMARK 922        TOTAL FREE ENERGY PREDICTED BY IDOCK:   -6.00 KCAL/MOL
REMARK 923 INTER-LIGAND FREE ENERGY PREDICTED BY IDOCK:   -5.70 KCAL/MOL
REMARK 924 INTRA-LIGAND FREE ENERGY PREDICTED BY IDOCK:   -0.29 KCAL/MOL
REMARK 927      BINDING AFFINITY PREDICTED BY RF-SCORE:    0.00 PKD
ROOT
HETATM    1  N   UNL     1     -11.265  16.637  70.565  1.00  0.00    -0.430 NA 
HETATM    2  C   UNL     1     -11.000  16.314  69.163  1.00  0.00    -0.324 C  
HETATM    3  H1  UNL     1     -10.805  17.510  70.822  1.00  0.00     0.000 HD 
HETATM    4  H2  UNL     1     -11.003  15.872  71.187  1.00  0.00     0.000 HD 
ENDROOT
BRANCH   2   5
HETATM    5  C   UNL     1     -11.691  15.003  68.777  1.00  0.00    -0.334 C  
HETATM    6  O   UNL     1     -12.350  14.349  69.584  1.00  0.00    -0.317 OA 
BRANCH   5   7
HETATM    7  C   UNL     1     -11.572  14.613  67.320  1.00  0.00    -0.404 C  
BRANCH   7   8
HETATM    8  C   UNL     1     -10.868  13.276  67.129  1.00  0.00    -0.268 C  
BRANCH   8   9
HETATM    9  C   UNL     1     -11.769  12.184  66.600  1.00  0.00    -0.313 C  
HETATM   10  O   UNL     1     -12.358  12.237  65.531  1.00  0.00    -0.602 OA 
BRANCH   9  11
HETATM   11  O   UNL     1     -11.974  11.231  67.553  1.00  0.00    -0.612 OA 
BRANCH  11  12
HETATM   12  C   UNL     1     -11.194  11.405  68.736  1.00  0.00    -0.247 C  
BRANCH  12  13
HETATM   13  C   UNL     1     -10.675  10.081  69.271  1.00  0.00    -0.249 C  
BRANCH  13  14
HETATM   14  C   UNL     1     -11.181   9.887  70.699  1.00  0.00    -0.416 C  
BRANCH  14  15
HETATM   15  C   UNL     1     -10.493   8.727  71.411  1.00  0.00    -0.354 C  
BRANCH  15  16
HETATM   16  C   UNL     1     -11.412   8.135  72.481  1.00  0.00    -0.470 C  
HETATM   17  C   UNL     1     -12.249   6.994  71.925  1.00  0.00    -0.362 C  
ENDBRANCH  15  16
ENDBRANCH  14  15
ENDBRANCH  13  14
ENDBRANCH  12  13
ENDBRANCH  11  12
ENDBRANCH   9  11
ENDBRANCH   8   9
ENDBRANCH   7   8
ENDBRANCH   5   7
ENDBRANCH   2   5
TORSDOF 10
ENDMDL
MODEL      145
REMARK 921   NORMALIZED FREE ENERGY PREDICTED BY IDOCK:   -3.47 KCAL/MOL
REMARK 922        TOTAL FREE ENERGY PREDICTED BY IDOCK:   -5.98 KCAL/MOL
REMARK 923 INTER-LIGAND FREE ENERGY PREDICTED BY IDOCK:   -5.20 KCAL/MOL
REMARK 924 INTRA-LIGAND FREE ENERGY PREDICTED BY IDOCK:   -0.79 KCAL/MOL
REMARK 927      BINDING AFFINITY PREDICTED BY RF-SCORE:    0.00 PKD
ROOT
HETATM    1  N   UNL     1     -10.415  13.988  64.340  1.00  0.00    -0.578 NA 
HETATM    2  C   UNL     1      -9.892  14.901  65.358  1.00  0.00    -0.268 C  
HETATM    3  H1  UNL     1      -9.743  13.881  63.580  1.00  0.00     0.000 HD 
HETATM    4  H2  UNL     1     -11.330  14.283  64.000  1.00  0.00     0.000 HD 
ENDROOT
BRANCH   2   5
HETATM    5  C   UNL     1     -10.900  15.061  66.499  1.00  0.00    -0.320 C  
HETATM    6  O   UNL     1     -10.805  15.961  67.333  1.00  0.00    -0.316 OA 
BRANCH   5   7
HETATM    7  C   UNL     1     -12.059  14.088  66.482  1.00  0.00    -0.488 C  
BRANCH   7   8
HETATM    8  C   UNL     1     -11.897  12.968  67.501  1.00  0.00    -0.408 C  
BRANCH   8   9
HETATM    9  C   UNL     1     -11.397  11.672  66.906  1.00  0.00    -0.295 C  
HETATM   10  O   UNL     1     -11.110  11.523  65.728  1.00  0.00    -0.284 OA 
BRANCH   9  11
HETATM   11  O   UNL     1     -11.489  10.662  67.816  1.00  0.00    -0.460 OA 
BRANCH  11  12
HETATM   12  C   UNL     1     -10.461   9.677  67.707  1.00  0.00    -0.256 C  
BRANCH  12  13
HETATM   13  C   UNL     1     -10.281   8.902  69.002  1.00  0.00    -0.217 C  
BRANCH  13  14
HETATM   14  C   UNL     1     -10.661   9.799  70.177  1.00  0.00    -0.337 C  
BRANCH  14  15
HETATM   15  C   UNL     1     -11.655   9.134  71.124  1.00  0.00    -0.386 C  
BRANCH  15  16
HETATM   16  C   UNL     1     -11.841   7.661  70.758  1.00  0.00    -0.227 C  
HETATM   17  C   UNL     1     -12.008   6.797  71.998  1.00  0.00    -0.355 C  
ENDBRANCH  15  16
ENDBRANCH  14  15
ENDBRANCH  13  14
ENDBRANCH  12  13
ENDBRANCH  11  12
ENDBRANCH   9  11
ENDBRANCH   8   9
ENDBRANCH   7   8
ENDBRANCH   5   7
ENDBRANCH   2   5
TORSDOF 10
ENDMDL
MODEL      146
REMARK 921   NORMALIZED FREE ENERGY PREDICTED BY IDOCK:   -3.47 KCAL/MOL
REMARK 922        TOTAL FREE ENERGY PREDICTED BY IDOCK:   -5.98 KCAL/MOL
REMARK 923 INTER-LIGAND FREE ENERGY PREDICTED BY IDOCK:   -5.75 KCAL/MOL
REMARK 924 INTRA-LIGAND FREE ENERGY PREDICTED BY IDOCK:   -0.23 KCAL/MOL
REMARK 927      BINDING AFFINITY PREDICTED BY RF-SCORE:    0.00 PKD
ROOT
HETATM    1  N   UNL     1     -13.081  16.099  73.990  1.00  0.00    -0.941 NA 
HETATM    2  C   UNL     1     -13.912  15.825  72.818  1.00  0.00    -0.466 C  
HETATM    3  H1  UNL     1     -13.305  17.016  74.378  1.00  0.00     0.000 HD 
HETATM    4  H2  UNL     1     -12.087  16.006  73.781  1.00  0.00     0.000 HD 
ENDROOT
BRANCH   2   5
HETATM    5  C   UNL     1     -13.578  14.449  72.235  1.00  0.00    -0.454 C  
HETATM    6  O   UNL     1     -14.336  13.487  72.353  1.00  0.00    -0.645 OA 
BRANCH   5   7
HETATM    7  C   UNL     1     -12.292  14.377  71.441  1.00  0.00    -0.433 C  
BRANCH   7   8
HETATM    8  C   UNL     1     -12.382  13.408  70.270  1.00  0.00    -0.354 C  
BRANCH   8   9
HETATM    9  C   UNL     1     -11.858  13.973  68.970  1.00  0.00    -0.354 C  
HETATM   10  O   UNL     1     -12.121  15.090  68.552  1.00  0.00    -0.257 OA 
BRANCH   9  11
HETATM   11  O   UNL     1     -11.213  13.009  68.255  1.00  0.00    -0.244 OA 
BRANCH  11  12
HETATM   12  C   UNL     1     -11.643  11.677  68.542  1.00  0.00    -0.317 C  
BRANCH  12  13
HETATM   13  C   UNL     1     -10.482  10.697  68.545  1.00  0.00    -0.212 C  
BRANCH  13  14
HETATM   14  C   UNL     1     -10.387  10.034  67.173  1.00  0.00    -0.300 C  
BRANCH  14  15
HETATM   15  C   UNL     1     -10.091  11.034  66.059  1.00  0.00    -0.297 C  
BRANCH  15  16
HETATM   16  C   UNL     1      -9.102  10.440  65.055  1.00  0.00    -0.237 C  
HETATM   17  C   UNL     1      -8.834   8.971  65.341  1.00  0.00    -0.237 C  
ENDBRANCH  15  16
ENDBRANCH  14  15
ENDBRANCH  13  14
ENDBRANCH  12  13
ENDBRANCH  11  12
ENDBRANCH   9  11
ENDBRANCH   8   9
ENDBRANCH   7   8
ENDBRANCH   5   7
ENDBRANCH   2   5
TORSDOF 10
ENDMDL
MODEL      147
REMARK 921   NORMALIZED FREE ENERGY PREDICTED BY IDOCK:   -3.46 KCAL/MOL
REMARK 922        TOTAL FREE ENERGY PREDICTED BY IDOCK:   -5.96 KCAL/MOL
REMARK 923 INTER-LIGAND FREE ENERGY PREDICTED BY IDOCK:   -5.64 KCAL/MOL
REMARK 924 INTRA-LIGAND FREE ENERGY PREDICTED BY IDOCK:   -0.32 KCAL/MOL
REMARK 927      BINDING AFFINITY PREDICTED BY RF-SCORE:    0.00 PKD
ROOT
HETATM    1  N   UNL     1     -10.906  10.722  69.977  1.00  0.00    -0.457 NA 
HETATM    2  C   UNL     1     -11.723   9.856  70.828  1.00  0.00    -0.341 C  
HETATM    3  H1  UNL     1     -10.169  10.181  69.523  1.00  0.00     0.000 HD 
HETATM    4  H2  UNL     1     -10.532  11.518  70.493  1.00  0.00     0.000 HD 
ENDROOT
BRANCH   2   5
HETATM    5  C   UNL     1     -12.830  10.667  71.508  1.00  0.00    -0.462 C  
HETATM    6  O   UNL     1     -13.598  10.165  72.328  1.00  0.00    -0.355 OA 
BRANCH   5   7
HETATM    7  C   UNL     1     -12.860  12.140  71.162  1.00  0.00    -0.313 C  
BRANCH   7   8
HETATM    8  C   UNL     1     -13.567  12.975  72.221  1.00  0.00    -0.643 C  
BRANCH   8   9
HETATM    9  C   UNL     1     -13.648  14.445  71.882  1.00  0.00    -0.403 C  
HETATM   10  O   UNL     1     -14.316  15.257  72.505  1.00  0.00    -0.464 OA 
BRANCH   9  11
HETATM   11  O   UNL     1     -13.031  14.696  70.694  1.00  0.00    -0.352 OA 
BRANCH  11  12
HETATM   12  C   UNL     1     -12.081  15.762  70.738  1.00  0.00    -0.408 C  
BRANCH  12  13
HETATM   13  C   UNL     1     -11.078  15.673  69.600  1.00  0.00    -0.299 C  
BRANCH  13  14
HETATM   14  C   UNL     1     -10.649  17.083  69.202  1.00  0.00    -0.303 C  
BRANCH  14  15
HETATM   15  C   UNL     1      -9.946  17.121  67.849  1.00  0.00    -0.292 C  
BRANCH  15  16
HETATM   16  C   UNL     1      -8.636  17.905  67.948  1.00  0.00    -0.252 C  
HETATM   17  C   UNL     1      -8.068  18.214  66.571  1.00  0.00    -0.295 C  
ENDBRANCH  15  16
ENDBRANCH  14  15
ENDBRANCH  13  14
ENDBRANCH  12  13
ENDBRANCH  11  12
ENDBRANCH   9  11
ENDBRANCH   8   9
ENDBRANCH   7   8
ENDBRANCH   5   7
ENDBRANCH   2   5
TORSDOF 10
ENDMDL
MODEL      148
REMARK 921   NORMALIZED FREE ENERGY PREDICTED BY IDOCK:   -3.46 KCAL/MOL
REMARK 922        TOTAL FREE ENERGY PREDICTED BY IDOCK:   -5.96 KCAL/MOL
REMARK 923 INTER-LIGAND FREE ENERGY PREDICTED BY IDOCK:   -5.06 KCAL/MOL
REMARK 924 INTRA-LIGAND FREE ENERGY PREDICTED BY IDOCK:   -0.90 KCAL/MOL
REMARK 927      BINDING AFFINITY PREDICTED BY RF-SCORE:    0.00 PKD
ROOT
HETATM    1  N   UNL     1     -12.312  12.771  66.374  1.00  0.00    -0.462 NA 
HETATM    2  C   UNL     1     -12.614  13.388  65.083  1.00  0.00    -0.440 C  
HETATM    3  H1  UNL     1     -12.596  13.386  67.137  1.00  0.00     0.000 HD 
HETATM    4  H2  UNL     1     -11.330  12.503  66.446  1.00  0.00     0.000 HD 
ENDROOT
BRANCH   2   5
HETATM    5  C   UNL     1     -12.189  12.465  63.937  1.00  0.00    -0.513 C  
HETATM    6  O   UNL     1     -13.007  11.940  63.182  1.00  0.00    -0.640 OA 
BRANCH   5   7
HETATM    7  C   UNL     1     -10.695  12.309  63.752  1.00  0.00    -0.494 C  
BRANCH   7   8
HETATM    8  C   UNL     1     -10.224  10.879  63.984  1.00  0.00    -0.422 C  
BRANCH   8   9
HETATM    9  C   UNL     1      -9.680  10.636  65.373  1.00  0.00    -0.252 C  
HETATM   10  O   UNL     1      -9.458   9.528  65.838  1.00  0.00    -0.203 OA 
BRANCH   9  11
HETATM   11  O   UNL     1      -9.650  11.797  66.084  1.00  0.00    -0.221 OA 
BRANCH  11  12
HETATM   12  C   UNL     1      -8.637  11.845  67.090  1.00  0.00    -0.172 C  
BRANCH  12  13
HETATM   13  C   UNL     1      -7.922  13.186  67.109  1.00  0.00    -0.083 C  
BRANCH  13  14
HETATM   14  C   UNL     1      -8.951  14.302  66.942  1.00  0.00    -0.255 C  
BRANCH  14  15
HETATM   15  C   UNL     1      -9.561  14.739  68.270  1.00  0.00    -0.215 C  
BRANCH  15  16
HETATM   16  C   UNL     1     -10.865  15.504  68.034  1.00  0.00    -0.300 C  
HETATM   17  C   UNL     1     -11.678  15.622  69.313  1.00  0.00    -0.388 C  
ENDBRANCH  15  16
ENDBRANCH  14  15
ENDBRANCH  13  14
ENDBRANCH  12  13
ENDBRANCH  11  12
ENDBRANCH   9  11
ENDBRANCH   8   9
ENDBRANCH   7   8
ENDBRANCH   5   7
ENDBRANCH   2   5
TORSDOF 10
ENDMDL
MODEL      149
REMARK 921   NORMALIZED FREE ENERGY PREDICTED BY IDOCK:   -3.45 KCAL/MOL
REMARK 922        TOTAL FREE ENERGY PREDICTED BY IDOCK:   -5.95 KCAL/MOL
REMARK 923 INTER-LIGAND FREE ENERGY PREDICTED BY IDOCK:   -5.43 KCAL/MOL
REMARK 924 INTRA-LIGAND FREE ENERGY PREDICTED BY IDOCK:   -0.52 KCAL/MOL
REMARK 927      BINDING AFFINITY PREDICTED BY RF-SCORE:    0.00 PKD
ROOT
HETATM    1  N   UNL     1     -12.451  13.933  63.290  1.00  0.00    -1.112 NA 
HETATM    2  C   UNL     1     -11.787  12.640  63.458  1.00  0.00    -0.541 C  
HETATM    3  H1  UNL     1     -13.286  13.831  62.711  1.00  0.00     0.000 HD 
HETATM    4  H2  UNL     1     -11.816  14.641  62.921  1.00  0.00     0.000 HD 
ENDROOT
BRANCH   2   5
HETATM    5  C   UNL     1     -10.534  12.793  64.326  1.00  0.00    -0.399 C  
HETATM    6  O   UNL     1     -10.193  13.877  64.798  1.00  0.00    -0.412 OA 
BRANCH   5   7
HETATM    7  C   UNL     1      -9.794  11.507  64.627  1.00  0.00    -0.283 C  
BRANCH   7   8
HETATM    8  C   UNL     1     -10.531  10.631  65.632  1.00  0.00    -0.235 C  
BRANCH   8   9
HETATM    9  C   UNL     1     -10.335  11.055  67.069  1.00  0.00    -0.228 C  
HETATM   10  O   UNL     1      -9.353  10.777  67.739  1.00  0.00    -0.149 OA 
BRANCH   9  11
HETATM   11  O   UNL     1     -11.474  11.623  67.558  1.00  0.00    -0.342 OA 
BRANCH  11  12
HETATM   12  C   UNL     1     -11.396  12.010  68.930  1.00  0.00    -0.278 C  
BRANCH  12  13
HETATM   13  C   UNL     1     -11.842  13.448  69.139  1.00  0.00    -0.383 C  
BRANCH  13  14
HETATM   14  C   UNL     1     -11.167  14.335  68.095  1.00  0.00    -0.295 C  
BRANCH  14  15
HETATM   15  C   UNL     1     -10.246  15.378  68.721  1.00  0.00    -0.217 C  
BRANCH  15  16
HETATM   16  C   UNL     1      -9.505  16.160  67.635  1.00  0.00    -0.220 C  
HETATM   17  C   UNL     1     -10.200  17.477  67.328  1.00  0.00    -0.335 C  
ENDBRANCH  15  16
ENDBRANCH  14  15
ENDBRANCH  13  14
ENDBRANCH  12  13
ENDBRANCH  11  12
ENDBRANCH   9  11
ENDBRANCH   8   9
ENDBRANCH   7   8
ENDBRANCH   5   7
ENDBRANCH   2   5
TORSDOF 10
ENDMDL
MODEL      150
REMARK 921   NORMALIZED FREE ENERGY PREDICTED BY IDOCK:   -3.44 KCAL/MOL
REMARK 922        TOTAL FREE ENERGY PREDICTED BY IDOCK:   -5.94 KCAL/MOL
REMARK 923 INTER-LIGAND FREE ENERGY PREDICTED BY IDOCK:   -5.31 KCAL/MOL
REMARK 924 INTRA-LIGAND FREE ENERGY PREDICTED BY IDOCK:   -0.63 KCAL/MOL
REMARK 927      BINDING AFFINITY PREDICTED BY RF-SCORE:    0.00 PKD
ROOT
HETATM    1  N   UNL     1     -13.290  10.583  72.080  1.00  0.00    -0.569 NA 
HETATM    2  C   UNL     1     -12.188  10.627  71.119  1.00  0.00    -0.374 C  
HETATM    3  H1  UNL     1     -13.244   9.728  72.635  1.00  0.00     0.000 HD 
HETATM    4  H2  UNL     1     -14.196  10.693  71.625  1.00  0.00     0.000 HD 
ENDROOT
BRANCH   2   5
HETATM    5  C   UNL     1     -12.257  11.911  70.287  1.00  0.00    -0.271 C  
HETATM    6  O   UNL     1     -12.429  13.015  70.801  1.00  0.00    -0.354 OA 
BRANCH   5   7
HETATM    7  C   UNL     1     -12.019  11.734  68.803  1.00  0.00    -0.317 C  
BRANCH   7   8
HETATM    8  C   UNL     1     -10.744  12.418  68.329  1.00  0.00    -0.250 C  
BRANCH   8   9
HETATM    9  C   UNL     1     -10.939  13.865  67.938  1.00  0.00    -0.250 C  
HETATM   10  O   UNL     1     -10.193  14.773  68.271  1.00  0.00    -0.220 OA 
BRANCH   9  11
HETATM   11  O   UNL     1     -12.146  14.036  67.328  1.00  0.00    -0.409 OA 
BRANCH  11  12
HETATM   12  C   UNL     1     -12.195  13.567  65.980  1.00  0.00    -0.445 C  
BRANCH  12  13
HETATM   13  C   UNL     1     -11.025  14.082  65.159  1.00  0.00    -0.357 C  
BRANCH  13  14
HETATM   14  C   UNL     1     -10.527  12.964  64.245  1.00  0.00    -0.430 C  
BRANCH  14  15
HETATM   15  C   UNL     1     -10.907  11.578  64.756  1.00  0.00    -0.360 C  
BRANCH  15  16
HETATM   16  C   UNL     1      -9.705  10.634  64.690  1.00  0.00    -0.360 C  
HETATM   17  C   UNL     1      -9.715   9.640  65.840  1.00  0.00    -0.343 C  
ENDBRANCH  15  16
ENDBRANCH  14  15
ENDBRANCH  13  14
ENDBRANCH  12  13
ENDBRANCH  11  12
ENDBRANCH   9  11
ENDBRANCH   8   9
ENDBRANCH   7   8
ENDBRANCH   5   7
ENDBRANCH   2   5
TORSDOF 10
ENDMDL
MODEL      151
REMARK 921   NORMALIZED FREE ENERGY PREDICTED BY IDOCK:   -3.44 KCAL/MOL
REMARK 922        TOTAL FREE ENERGY PREDICTED BY IDOCK:   -5.93 KCAL/MOL
REMARK 923 INTER-LIGAND FREE ENERGY PREDICTED BY IDOCK:   -5.41 KCAL/MOL
REMARK 924 INTRA-LIGAND FREE ENERGY PREDICTED BY IDOCK:   -0.52 KCAL/MOL
REMARK 927      BINDING AFFINITY PREDICTED BY RF-SCORE:    0.00 PKD
ROOT
HETATM    1  N   UNL     1     -14.122   8.907  73.134  1.00  0.00    -1.225 NA 
HETATM    2  C   UNL     1     -13.595   8.389  71.871  1.00  0.00    -0.379 C  
HETATM    3  H1  UNL     1     -14.908   8.339  73.451  1.00  0.00     0.000 HD 
HETATM    4  H2  UNL     1     -14.369   9.894  73.066  1.00  0.00     0.000 HD 
ENDROOT
BRANCH   2   5
HETATM    5  C   UNL     1     -12.414   9.242  71.396  1.00  0.00    -0.341 C  
HETATM    6  O   UNL     1     -12.412  10.469  71.495  1.00  0.00    -0.380 OA 
BRANCH   5   7
HETATM    7  C   UNL     1     -11.225   8.467  70.873  1.00  0.00    -0.304 C  
BRANCH   7   8
HETATM    8  C   UNL     1     -10.786   8.933  69.491  1.00  0.00    -0.206 C  
BRANCH   8   9
HETATM    9  C   UNL     1      -9.322   8.689  69.203  1.00  0.00    -0.153 C  
HETATM   10  O   UNL     1      -8.559   8.117  69.966  1.00  0.00    -0.126 OA 
BRANCH   9  11
HETATM   11  O   UNL     1      -8.942   9.349  68.074  1.00  0.00    -0.128 OA 
BRANCH  11  12
HETATM   12  C   UNL     1      -9.880   9.268  67.000  1.00  0.00    -0.198 C  
BRANCH  12  13
HETATM   13  C   UNL     1      -9.844  10.509  66.123  1.00  0.00    -0.271 C  
BRANCH  13  14
HETATM   14  C   UNL     1     -10.163  11.733  66.978  1.00  0.00    -0.240 C  
BRANCH  14  15
HETATM   15  C   UNL     1     -11.628  12.146  66.886  1.00  0.00    -0.408 C  
BRANCH  15  16
HETATM   16  C   UNL     1     -11.956  12.647  65.478  1.00  0.00    -0.509 C  
HETATM   17  C   UNL     1     -12.604  14.022  65.515  1.00  0.00    -0.543 C  
ENDBRANCH  15  16
ENDBRANCH  14  15
ENDBRANCH  13  14
ENDBRANCH  12  13
ENDBRANCH  11  12
ENDBRANCH   9  11
ENDBRANCH   8   9
ENDBRANCH   7   8
ENDBRANCH   5   7
ENDBRANCH   2   5
TORSDOF 10
ENDMDL
MODEL      152
REMARK 921   NORMALIZED FREE ENERGY PREDICTED BY IDOCK:   -3.44 KCAL/MOL
REMARK 922        TOTAL FREE ENERGY PREDICTED BY IDOCK:   -5.93 KCAL/MOL
REMARK 923 INTER-LIGAND FREE ENERGY PREDICTED BY IDOCK:   -5.42 KCAL/MOL
REMARK 924 INTRA-LIGAND FREE ENERGY PREDICTED BY IDOCK:   -0.51 KCAL/MOL
REMARK 927      BINDING AFFINITY PREDICTED BY RF-SCORE:    0.00 PKD
ROOT
HETATM    1  N   UNL     1     -11.315   5.753  72.897  1.00  0.00    -0.423 NA 
HETATM    2  C   UNL     1     -10.571   6.813  73.577  1.00  0.00    -0.332 C  
HETATM    3  H1  UNL     1     -11.479   4.971  73.532  1.00  0.00     0.000 HD 
HETATM    4  H2  UNL     1     -10.853   5.456  72.038  1.00  0.00     0.000 HD 
ENDROOT
BRANCH   2   5
HETATM    5  C   UNL     1     -10.325   7.987  72.625  1.00  0.00    -0.329 C  
HETATM    6  O   UNL     1      -9.274   8.628  72.635  1.00  0.00    -0.299 OA 
BRANCH   5   7
HETATM    7  C   UNL     1     -11.428   8.252  71.624  1.00  0.00    -0.333 C  
BRANCH   7   8
HETATM    8  C   UNL     1     -11.325   9.634  70.993  1.00  0.00    -0.444 C  
BRANCH   8   9
HETATM    9  C   UNL     1     -12.450  10.566  71.382  1.00  0.00    -0.411 C  
HETATM   10  O   UNL     1     -13.331  10.282  72.178  1.00  0.00    -0.443 OA 
BRANCH   9  11
HETATM   11  O   UNL     1     -12.444  11.676  70.592  1.00  0.00    -0.333 OA 
BRANCH  11  12
HETATM   12  C   UNL     1     -12.109  11.425  69.226  1.00  0.00    -0.289 C  
BRANCH  12  13
HETATM   13  C   UNL     1     -11.762  12.705  68.485  1.00  0.00    -0.372 C  
BRANCH  13  14
HETATM   14  C   UNL     1     -11.238  13.734  69.484  1.00  0.00    -0.221 C  
BRANCH  14  15
HETATM   15  C   UNL     1     -11.901  15.098  69.322  1.00  0.00    -0.347 C  
BRANCH  15  16
HETATM   16  C   UNL     1     -12.315  15.658  70.684  1.00  0.00    -0.457 C  
HETATM   17  C   UNL     1     -11.186  15.551  71.695  1.00  0.00    -0.388 C  
ENDBRANCH  15  16
ENDBRANCH  14  15
ENDBRANCH  13  14
ENDBRANCH  12  13
ENDBRANCH  11  12
ENDBRANCH   9  11
ENDBRANCH   8   9
ENDBRANCH   7   8
ENDBRANCH   5   7
ENDBRANCH   2   5
TORSDOF 10
ENDMDL
MODEL      153
REMARK 921   NORMALIZED FREE ENERGY PREDICTED BY IDOCK:   -3.42 KCAL/MOL
REMARK 922        TOTAL FREE ENERGY PREDICTED BY IDOCK:   -5.91 KCAL/MOL
REMARK 923 INTER-LIGAND FREE ENERGY PREDICTED BY IDOCK:   -5.65 KCAL/MOL
REMARK 924 INTRA-LIGAND FREE ENERGY PREDICTED BY IDOCK:   -0.26 KCAL/MOL
REMARK 927      BINDING AFFINITY PREDICTED BY RF-SCORE:    0.00 PKD
ROOT
HETATM    1  N   UNL     1     -11.928  11.991  67.214  1.00  0.00    -0.590 NA 
HETATM    2  C   UNL     1     -11.896  12.349  65.796  1.00  0.00    -0.406 C  
HETATM    3  H1  UNL     1     -11.780  10.988  67.330  1.00  0.00     0.000 HD 
HETATM    4  H2  UNL     1     -12.787  12.304  67.666  1.00  0.00     0.000 HD 
ENDROOT
BRANCH   2   5
HETATM    5  C   UNL     1     -12.118  13.855  65.621  1.00  0.00    -0.421 C  
HETATM    6  O   UNL     1     -13.024  14.306  64.921  1.00  0.00    -0.682 OA 
BRANCH   5   7
HETATM    7  C   UNL     1     -11.197  14.743  66.429  1.00  0.00    -0.342 C  
BRANCH   7   8
HETATM    8  C   UNL     1     -10.690  15.938  65.632  1.00  0.00    -0.350 C  
BRANCH   8   9
HETATM    9  C   UNL     1     -10.072  17.021  66.486  1.00  0.00    -0.314 C  
HETATM   10  O   UNL     1     -10.428  17.284  67.624  1.00  0.00    -0.343 OA 
BRANCH   9  11
HETATM   11  O   UNL     1      -9.203  17.770  65.752  1.00  0.00    -0.505 OA 
BRANCH  11  12
HETATM   12  C   UNL     1      -8.101  18.291  66.496  1.00  0.00    -0.269 C  
BRANCH  12  13
HETATM   13  C   UNL     1      -7.406  19.425  65.760  1.00  0.00    -0.279 C  
BRANCH  13  14
HETATM   14  C   UNL     1      -6.133  19.802  66.513  1.00  0.00    -0.174 C  
BRANCH  14  15
HETATM   15  C   UNL     1      -6.161  19.356  67.971  1.00  0.00    -0.231 C  
BRANCH  15  16
HETATM   16  C   UNL     1      -5.995  20.557  68.903  1.00  0.00    -0.375 C  
HETATM   17  C   UNL     1      -6.273  20.181  70.349  1.00  0.00    -0.372 C  
ENDBRANCH  15  16
ENDBRANCH  14  15
ENDBRANCH  13  14
ENDBRANCH  12  13
ENDBRANCH  11  12
ENDBRANCH   9  11
ENDBRANCH   8   9
ENDBRANCH   7   8
ENDBRANCH   5   7
ENDBRANCH   2   5
TORSDOF 10
ENDMDL
MODEL      154
REMARK 921   NORMALIZED FREE ENERGY PREDICTED BY IDOCK:   -3.42 KCAL/MOL
REMARK 922        TOTAL FREE ENERGY PREDICTED BY IDOCK:   -5.90 KCAL/MOL
REMARK 923 INTER-LIGAND FREE ENERGY PREDICTED BY IDOCK:   -5.28 KCAL/MOL
REMARK 924 INTRA-LIGAND FREE ENERGY PREDICTED BY IDOCK:   -0.62 KCAL/MOL
REMARK 927      BINDING AFFINITY PREDICTED BY RF-SCORE:    0.00 PKD
ROOT
HETATM    1  N   UNL     1      -7.253  18.276  68.526  1.00  0.00    -0.273 NA 
HETATM    2  C   UNL     1      -8.180  18.982  67.641  1.00  0.00    -0.275 C  
HETATM    3  H1  UNL     1      -6.313  18.278  68.130  1.00  0.00     0.000 HD 
HETATM    4  H2  UNL     1      -7.575  17.332  68.738  1.00  0.00     0.000 HD 
ENDROOT
BRANCH   2   5
HETATM    5  C   UNL     1      -9.591  18.980  68.235  1.00  0.00    -0.355 C  
HETATM    6  O   UNL     1      -9.882  19.640  69.232  1.00  0.00    -0.416 OA 
BRANCH   5   7
HETATM    7  C   UNL     1     -10.617  18.177  67.466  1.00  0.00    -0.419 C  
BRANCH   7   8
HETATM    8  C   UNL     1     -10.423  16.675  67.627  1.00  0.00    -0.320 C  
BRANCH   8   9
HETATM    9  C   UNL     1     -11.198  16.082  68.781  1.00  0.00    -0.360 C  
HETATM   10  O   UNL     1     -10.987  16.343  69.955  1.00  0.00    -0.354 OA 
BRANCH   9  11
HETATM   11  O   UNL     1     -12.026  15.093  68.342  1.00  0.00    -0.299 OA 
BRANCH  11  12
HETATM   12  C   UNL     1     -11.548  14.392  67.193  1.00  0.00    -0.386 C  
BRANCH  12  13
HETATM   13  C   UNL     1     -11.957  12.928  67.213  1.00  0.00    -0.371 C  
BRANCH  13  14
HETATM   14  C   UNL     1     -11.222  12.221  68.349  1.00  0.00    -0.311 C  
BRANCH  14  15
HETATM   15  C   UNL     1     -12.083  11.166  69.036  1.00  0.00    -0.315 C  
BRANCH  15  16
HETATM   16  C   UNL     1     -12.094  11.384  70.549  1.00  0.00    -0.487 C  
HETATM   17  C   UNL     1     -12.540  12.793  70.905  1.00  0.00    -0.342 C  
ENDBRANCH  15  16
ENDBRANCH  14  15
ENDBRANCH  13  14
ENDBRANCH  12  13
ENDBRANCH  11  12
ENDBRANCH   9  11
ENDBRANCH   8   9
ENDBRANCH   7   8
ENDBRANCH   5   7
ENDBRANCH   2   5
TORSDOF 10
ENDMDL
MODEL      155
REMARK 921   NORMALIZED FREE ENERGY PREDICTED BY IDOCK:   -3.42 KCAL/MOL
REMARK 922        TOTAL FREE ENERGY PREDICTED BY IDOCK:   -5.90 KCAL/MOL
REMARK 923 INTER-LIGAND FREE ENERGY PREDICTED BY IDOCK:   -5.55 KCAL/MOL
REMARK 924 INTRA-LIGAND FREE ENERGY PREDICTED BY IDOCK:   -0.35 KCAL/MOL
REMARK 927      BINDING AFFINITY PREDICTED BY RF-SCORE:    0.00 PKD
ROOT
HETATM    1  N   UNL     1     -10.556   5.550  69.565  1.00  0.00    -0.306 NA 
HETATM    2  C   UNL     1     -10.988   5.708  70.954  1.00  0.00    -0.187 C  
HETATM    3  H1  UNL     1     -10.053   4.670  69.447  1.00  0.00     0.000 HD 
HETATM    4  H2  UNL     1     -10.008   6.348  69.245  1.00  0.00     0.000 HD 
ENDROOT
BRANCH   2   5
HETATM    5  C   UNL     1     -11.743   7.028  71.132  1.00  0.00    -0.325 C  
HETATM    6  O   UNL     1     -12.866   7.077  71.633  1.00  0.00    -0.366 OA 
BRANCH   5   7
HETATM    7  C   UNL     1     -10.982   8.270  70.721  1.00  0.00    -0.266 C  
BRANCH   7   8
HETATM    8  C   UNL     1     -11.825   9.535  70.831  1.00  0.00    -0.385 C  
BRANCH   8   9
HETATM    9  C   UNL     1     -11.383  10.642  69.902  1.00  0.00    -0.313 C  
HETATM   10  O   UNL     1     -10.244  10.772  69.482  1.00  0.00    -0.202 OA 
BRANCH   9  11
HETATM   11  O   UNL     1     -12.376  11.564  69.753  1.00  0.00    -0.240 OA 
BRANCH  11  12
HETATM   12  C   UNL     1     -12.486  12.490  70.835  1.00  0.00    -0.269 C  
BRANCH  12  13
HETATM   13  C   UNL     1     -12.217  13.917  70.387  1.00  0.00    -0.438 C  
BRANCH  13  14
HETATM   14  C   UNL     1     -13.194  14.854  71.092  1.00  0.00    -0.476 C  
BRANCH  14  15
HETATM   15  C   UNL     1     -13.584  14.356  72.481  1.00  0.00    -0.598 C  
BRANCH  15  16
HETATM   16  C   UNL     1     -12.654  14.946  73.542  1.00  0.00    -0.622 C  
HETATM   17  C   UNL     1     -12.233  16.362  73.186  1.00  0.00    -0.558 C  
ENDBRANCH  15  16
ENDBRANCH  14  15
ENDBRANCH  13  14
ENDBRANCH  12  13
ENDBRANCH  11  12
ENDBRANCH   9  11
ENDBRANCH   8   9
ENDBRANCH   7   8
ENDBRANCH   5   7
ENDBRANCH   2   5
TORSDOF 10
ENDMDL
MODEL      156
REMARK 921   NORMALIZED FREE ENERGY PREDICTED BY IDOCK:   -3.41 KCAL/MOL
REMARK 922        TOTAL FREE ENERGY PREDICTED BY IDOCK:   -5.89 KCAL/MOL
REMARK 923 INTER-LIGAND FREE ENERGY PREDICTED BY IDOCK:   -5.36 KCAL/MOL
REMARK 924 INTRA-LIGAND FREE ENERGY PREDICTED BY IDOCK:   -0.54 KCAL/MOL
REMARK 927      BINDING AFFINITY PREDICTED BY RF-SCORE:    0.00 PKD
ROOT
HETATM    1  N   UNL     1      -9.323   9.250  62.339  1.00  0.00    -0.579 NA 
HETATM    2  C   UNL     1      -9.210  10.659  62.717  1.00  0.00    -0.311 C  
HETATM    3  H1  UNL     1      -8.684   9.035  61.573  1.00  0.00     0.000 HD 
HETATM    4  H2  UNL     1     -10.284   8.992  62.116  1.00  0.00     0.000 HD 
ENDROOT
BRANCH   2   5
HETATM    5  C   UNL     1     -10.169  10.982  63.867  1.00  0.00    -0.364 C  
HETATM    6  O   UNL     1     -10.297  10.239  64.840  1.00  0.00    -0.283 OA 
BRANCH   5   7
HETATM    7  C   UNL     1     -10.884  12.311  63.760  1.00  0.00    -0.495 C  
BRANCH   7   8
HETATM    8  C   UNL     1     -12.338  12.229  64.207  1.00  0.00    -0.519 C  
BRANCH   8   9
HETATM    9  C   UNL     1     -12.656  13.095  65.404  1.00  0.00    -0.454 C  
HETATM   10  O   UNL     1     -13.532  13.946  65.423  1.00  0.00    -0.672 OA 
BRANCH   9  11
HETATM   11  O   UNL     1     -11.720  12.922  66.380  1.00  0.00    -0.355 OA 
BRANCH  11  12
HETATM   12  C   UNL     1     -11.762  13.904  67.416  1.00  0.00    -0.389 C  
BRANCH  12  13
HETATM   13  C   UNL     1     -10.795  15.046  67.151  1.00  0.00    -0.314 C  
BRANCH  13  14
HETATM   14  C   UNL     1      -9.704  15.033  68.220  1.00  0.00    -0.215 C  
BRANCH  14  15
HETATM   15  C   UNL     1      -8.943  13.712  68.262  1.00  0.00    -0.187 C  
BRANCH  15  16
HETATM   16  C   UNL     1      -7.935  13.637  67.115  1.00  0.00    -0.060 C  
HETATM   17  C   UNL     1      -6.637  12.979  67.557  1.00  0.00    -0.160 C  
ENDBRANCH  15  16
ENDBRANCH  14  15
ENDBRANCH  13  14
ENDBRANCH  12  13
ENDBRANCH  11  12
ENDBRANCH   9  11
ENDBRANCH   8   9
ENDBRANCH   7   8
ENDBRANCH   5   7
ENDBRANCH   2   5
TORSDOF 10
ENDMDL
MODEL      157
REMARK 921   NORMALIZED FREE ENERGY PREDICTED BY IDOCK:   -3.41 KCAL/MOL
REMARK 922        TOTAL FREE ENERGY PREDICTED BY IDOCK:   -5.88 KCAL/MOL
REMARK 923 INTER-LIGAND FREE ENERGY PREDICTED BY IDOCK:   -5.28 KCAL/MOL
REMARK 924 INTRA-LIGAND FREE ENERGY PREDICTED BY IDOCK:   -0.60 KCAL/MOL
REMARK 927      BINDING AFFINITY PREDICTED BY RF-SCORE:    0.00 PKD
ROOT
HETATM    1  N   UNL     1     -13.061  13.786  65.124  1.00  0.00    -0.751 NA 
HETATM    2  C   UNL     1     -12.235  12.580  65.070  1.00  0.00    -0.456 C  
HETATM    3  H1  UNL     1     -13.476  13.974  64.212  1.00  0.00     0.000 HD 
HETATM    4  H2  UNL     1     -12.539  14.588  65.477  1.00  0.00     0.000 HD 
ENDROOT
BRANCH   2   5
HETATM    5  C   UNL     1     -11.611  12.298  66.440  1.00  0.00    -0.383 C  
HETATM    6  O   UNL     1     -12.269  12.337  67.479  1.00  0.00    -0.457 OA 
BRANCH   5   7
HETATM    7  C   UNL     1     -10.153  11.892  66.417  1.00  0.00    -0.241 C  
BRANCH   7   8
HETATM    8  C   UNL     1      -9.932  10.477  66.936  1.00  0.00    -0.246 C  
BRANCH   8   9
HETATM    9  C   UNL     1      -9.192  10.420  68.252  1.00  0.00    -0.149 C  
HETATM   10  O   UNL     1      -8.338  11.224  68.594  1.00  0.00    -0.149 OA 
BRANCH   9  11
HETATM   11  O   UNL     1      -9.475   9.260  68.909  1.00  0.00    -0.151 OA 
BRANCH  11  12
HETATM   12  C   UNL     1     -10.833   9.143  69.337  1.00  0.00    -0.151 C  
BRANCH  12  13
HETATM   13  C   UNL     1     -11.135  10.053  70.515  1.00  0.00    -0.400 C  
BRANCH  13  14
HETATM   14  C   UNL     1     -11.775   9.229  71.630  1.00  0.00    -0.462 C  
BRANCH  14  15
HETATM   15  C   UNL     1     -12.044   7.787  71.211  1.00  0.00    -0.328 C  
BRANCH  15  16
HETATM   16  C   UNL     1     -13.448   7.357  71.641  1.00  0.00    -0.437 C  
HETATM   17  C   UNL     1     -14.272   8.544  72.113  1.00  0.00    -0.516 C  
ENDBRANCH  15  16
ENDBRANCH  14  15
ENDBRANCH  13  14
ENDBRANCH  12  13
ENDBRANCH  11  12
ENDBRANCH   9  11
ENDBRANCH   8   9
ENDBRANCH   7   8
ENDBRANCH   5   7
ENDBRANCH   2   5
TORSDOF 10
ENDMDL
MODEL      158
REMARK 921   NORMALIZED FREE ENERGY PREDICTED BY IDOCK:   -3.40 KCAL/MOL
REMARK 922        TOTAL FREE ENERGY PREDICTED BY IDOCK:   -5.87 KCAL/MOL
REMARK 923 INTER-LIGAND FREE ENERGY PREDICTED BY IDOCK:   -5.14 KCAL/MOL
REMARK 924 INTRA-LIGAND FREE ENERGY PREDICTED BY IDOCK:   -0.73 KCAL/MOL
REMARK 927      BINDING AFFINITY PREDICTED BY RF-SCORE:    0.00 PKD
ROOT
HETATM    1  N   UNL     1      -8.941  17.047  67.823  1.00  0.00    -0.221 NA 
HETATM    2  C   UNL     1      -9.003  16.936  66.366  1.00  0.00    -0.283 C  
HETATM    3  H1  UNL     1      -8.066  17.488  68.109  1.00  0.00     0.000 HD 
HETATM    4  H2  UNL     1      -9.079  16.146  68.279  1.00  0.00     0.000 HD 
ENDROOT
BRANCH   2   5
HETATM    5  C   UNL     1     -10.316  16.275  65.936  1.00  0.00    -0.365 C  
HETATM    6  O   UNL     1     -10.698  16.279  64.767  1.00  0.00    -0.680 OA 
BRANCH   5   7
HETATM    7  C   UNL     1     -11.066  15.552  67.034  1.00  0.00    -0.238 C  
BRANCH   7   8
HETATM    8  C   UNL     1     -10.948  14.038  66.923  1.00  0.00    -0.301 C  
BRANCH   8   9
HETATM    9  C   UNL     1      -9.996  13.427  67.926  1.00  0.00    -0.236 C  
HETATM   10  O   UNL     1      -8.917  13.911  68.231  1.00  0.00    -0.179 OA 
BRANCH   9  11
HETATM   11  O   UNL     1     -10.423  12.186  68.294  1.00  0.00    -0.200 OA 
BRANCH  11  12
HETATM   12  C   UNL     1     -11.784  12.135  68.722  1.00  0.00    -0.321 C  
BRANCH  12  13
HETATM   13  C   UNL     1     -11.926  12.471  70.198  1.00  0.00    -0.377 C  
BRANCH  13  14
HETATM   14  C   UNL     1     -12.642  11.321  70.903  1.00  0.00    -0.467 C  
BRANCH  14  15
HETATM   15  C   UNL     1     -11.687  10.208  71.324  1.00  0.00    -0.426 C  
BRANCH  15  16
HETATM   16  C   UNL     1     -12.423   9.157  72.157  1.00  0.00    -0.436 C  
HETATM   17  C   UNL     1     -11.643   7.853  72.221  1.00  0.00    -0.406 C  
ENDBRANCH  15  16
ENDBRANCH  14  15
ENDBRANCH  13  14
ENDBRANCH  12  13
ENDBRANCH  11  12
ENDBRANCH   9  11
ENDBRANCH   8   9
ENDBRANCH   7   8
ENDBRANCH   5   7
ENDBRANCH   2   5
TORSDOF 10
ENDMDL
MODEL      159
REMARK 921   NORMALIZED FREE ENERGY PREDICTED BY IDOCK:   -3.40 KCAL/MOL
REMARK 922        TOTAL FREE ENERGY PREDICTED BY IDOCK:   -5.87 KCAL/MOL
REMARK 923 INTER-LIGAND FREE ENERGY PREDICTED BY IDOCK:   -5.26 KCAL/MOL
REMARK 924 INTRA-LIGAND FREE ENERGY PREDICTED BY IDOCK:   -0.61 KCAL/MOL
REMARK 927      BINDING AFFINITY PREDICTED BY RF-SCORE:    0.00 PKD
ROOT
HETATM    1  N   UNL     1      -8.107  15.674  68.303  1.00  0.00    -0.132 NA 
HETATM    2  C   UNL     1      -8.543  16.726  67.385  1.00  0.00    -0.193 C  
HETATM    3  H1  UNL     1      -7.091  15.677  68.391  1.00  0.00     0.000 HD 
HETATM    4  H2  UNL     1      -8.463  14.759  68.027  1.00  0.00     0.000 HD 
ENDROOT
BRANCH   2   5
HETATM    5  C   UNL     1     -10.069  16.722  67.253  1.00  0.00    -0.281 C  
HETATM    6  O   UNL     1     -10.805  17.087  68.168  1.00  0.00    -0.370 OA 
BRANCH   5   7
HETATM    7  C   UNL     1     -10.600  16.314  65.896  1.00  0.00    -0.307 C  
BRANCH   7   8
HETATM    8  C   UNL     1     -10.764  14.806  65.762  1.00  0.00    -0.333 C  
BRANCH   8   9
HETATM    9  C   UNL     1     -12.109  14.296  66.226  1.00  0.00    -0.413 C  
HETATM   10  O   UNL     1     -12.449  14.225  67.397  1.00  0.00    -0.204 OA 
BRANCH   9  11
HETATM   11  O   UNL     1     -12.804  13.765  65.181  1.00  0.00    -0.695 OA 
BRANCH  11  12
HETATM   12  C   UNL     1     -12.039  13.605  63.986  1.00  0.00    -0.425 C  
BRANCH  12  13
HETATM   13  C   UNL     1     -12.157  12.198  63.423  1.00  0.00    -0.608 C  
BRANCH  13  14
HETATM   14  C   UNL     1     -11.010  11.347  63.965  1.00  0.00    -0.428 C  
BRANCH  14  15
HETATM   15  C   UNL     1      -9.710  11.560  63.195  1.00  0.00    -0.412 C  
BRANCH  15  16
HETATM   16  C   UNL     1      -8.993  10.227  62.977  1.00  0.00    -0.252 C  
HETATM   17  C   UNL     1      -8.920   9.418  64.262  1.00  0.00    -0.204 C  
ENDBRANCH  15  16
ENDBRANCH  14  15
ENDBRANCH  13  14
ENDBRANCH  12  13
ENDBRANCH  11  12
ENDBRANCH   9  11
ENDBRANCH   8   9
ENDBRANCH   7   8
ENDBRANCH   5   7
ENDBRANCH   2   5
TORSDOF 10
ENDMDL
MODEL      160
REMARK 921   NORMALIZED FREE ENERGY PREDICTED BY IDOCK:   -3.39 KCAL/MOL
REMARK 922        TOTAL FREE ENERGY PREDICTED BY IDOCK:   -5.86 KCAL/MOL
REMARK 923 INTER-LIGAND FREE ENERGY PREDICTED BY IDOCK:   -4.97 KCAL/MOL
REMARK 924 INTRA-LIGAND FREE ENERGY PREDICTED BY IDOCK:   -0.89 KCAL/MOL
REMARK 927      BINDING AFFINITY PREDICTED BY RF-SCORE:    0.00 PKD
ROOT
HETATM    1  N   UNL     1     -13.027   8.241  72.380  1.00  0.00    -0.561 NA 
HETATM    2  C   UNL     1     -13.501   9.511  71.828  1.00  0.00    -0.402 C  
HETATM    3  H1  UNL     1     -13.807   7.709  72.768  1.00  0.00     0.000 HD 
HETATM    4  H2  UNL     1     -12.283   8.379  73.063  1.00  0.00     0.000 HD 
ENDROOT
BRANCH   2   5
HETATM    5  C   UNL     1     -12.332  10.310  71.246  1.00  0.00    -0.403 C  
HETATM    6  O   UNL     1     -12.439  11.497  70.940  1.00  0.00    -0.379 OA 
BRANCH   5   7
HETATM    7  C   UNL     1     -11.021   9.561  71.148  1.00  0.00    -0.438 C  
BRANCH   7   8
HETATM    8  C   UNL     1     -10.503   9.473  69.718  1.00  0.00    -0.253 C  
BRANCH   8   9
HETATM    9  C   UNL     1     -10.651   8.101  69.101  1.00  0.00    -0.166 C  
HETATM   10  O   UNL     1     -10.507   7.864  67.912  1.00  0.00    -0.217 OA 
BRANCH   9  11
HETATM   11  O   UNL     1     -11.140   7.217  70.016  1.00  0.00    -0.263 OA 
BRANCH  11  12
HETATM   12  C   UNL     1     -10.996   5.845  69.643  1.00  0.00    -0.377 C  
BRANCH  12  13
HETATM   13  C   UNL     1     -10.217   5.056  70.682  1.00  0.00    -0.306 C  
BRANCH  13  14
HETATM   14  C   UNL     1     -10.732   5.418  72.073  1.00  0.00    -0.281 C  
BRANCH  14  15
HETATM   15  C   UNL     1     -10.557   4.282  73.076  1.00  0.00    -0.265 C  
BRANCH  15  16
HETATM   16  C   UNL     1     -10.453   4.834  74.498  1.00  0.00    -0.303 C  
HETATM   17  C   UNL     1     -10.080   6.308  74.496  1.00  0.00    -0.353 C  
ENDBRANCH  15  16
ENDBRANCH  14  15
ENDBRANCH  13  14
ENDBRANCH  12  13
ENDBRANCH  11  12
ENDBRANCH   9  11
ENDBRANCH   8   9
ENDBRANCH   7   8
ENDBRANCH   5   7
ENDBRANCH   2   5
TORSDOF 10
ENDMDL
MODEL      161
REMARK 921   NORMALIZED FREE ENERGY PREDICTED BY IDOCK:   -3.39 KCAL/MOL
REMARK 922        TOTAL FREE ENERGY PREDICTED BY IDOCK:   -5.85 KCAL/MOL
REMARK 923 INTER-LIGAND FREE ENERGY PREDICTED BY IDOCK:   -5.15 KCAL/MOL
REMARK 924 INTRA-LIGAND FREE ENERGY PREDICTED BY IDOCK:   -0.71 KCAL/MOL
REMARK 927      BINDING AFFINITY PREDICTED BY RF-SCORE:    0.00 PKD
ROOT
HETATM    1  N   UNL     1      -9.041  16.729  65.721  1.00  0.00    -0.503 NA 
HETATM    2  C   UNL     1     -10.381  16.839  66.300  1.00  0.00    -0.310 C  
HETATM    3  H1  UNL     1      -8.561  17.628  65.764  1.00  0.00     0.000 HD 
HETATM    4  H2  UNL     1      -9.067  16.356  64.772  1.00  0.00     0.000 HD 
ENDROOT
BRANCH   2   5
HETATM    5  C   UNL     1     -11.102  15.490  66.236  1.00  0.00    -0.177 C  
HETATM    6  O   UNL     1     -11.376  14.846  67.248  1.00  0.00    -0.336 OA 
BRANCH   5   7
HETATM    7  C   UNL     1     -11.522  15.044  64.852  1.00  0.00    -0.399 C  
BRANCH   7   8
HETATM    8  C   UNL     1     -11.008  13.654  64.504  1.00  0.00    -0.405 C  
BRANCH   8   9
HETATM    9  C   UNL     1     -11.974  12.544  64.847  1.00  0.00    -0.412 C  
HETATM   10  O   UNL     1     -13.188  12.639  64.756  1.00  0.00    -0.846 OA 
BRANCH   9  11
HETATM   11  O   UNL     1     -11.319  11.506  65.439  1.00  0.00    -0.207 OA 
BRANCH  11  12
HETATM   12  C   UNL     1     -10.038  11.846  65.971  1.00  0.00    -0.231 C  
BRANCH  12  13
HETATM   13  C   UNL     1      -9.891  11.404  67.418  1.00  0.00    -0.199 C  
BRANCH  13  14
HETATM   14  C   UNL     1     -10.935  10.331  67.719  1.00  0.00    -0.360 C  
BRANCH  14  15
HETATM   15  C   UNL     1     -10.308   9.011  68.157  1.00  0.00    -0.262 C  
BRANCH  15  16
HETATM   16  C   UNL     1     -10.046   8.114  66.947  1.00  0.00    -0.367 C  
HETATM   17  C   UNL     1      -8.562   7.828  66.778  1.00  0.00    -0.133 C  
ENDBRANCH  15  16
ENDBRANCH  14  15
ENDBRANCH  13  14
ENDBRANCH  12  13
ENDBRANCH  11  12
ENDBRANCH   9  11
ENDBRANCH   8   9
ENDBRANCH   7   8
ENDBRANCH   5   7
ENDBRANCH   2   5
TORSDOF 10
ENDMDL
MODEL      162
REMARK 921   NORMALIZED FREE ENERGY PREDICTED BY IDOCK:   -3.39 KCAL/MOL
REMARK 922        TOTAL FREE ENERGY PREDICTED BY IDOCK:   -5.85 KCAL/MOL
REMARK 923 INTER-LIGAND FREE ENERGY PREDICTED BY IDOCK:   -5.08 KCAL/MOL
REMARK 924 INTRA-LIGAND FREE ENERGY PREDICTED BY IDOCK:   -0.76 KCAL/MOL
REMARK 927      BINDING AFFINITY PREDICTED BY RF-SCORE:    0.00 PKD
ROOT
HETATM    1  N   UNL     1     -12.621  10.659  69.309  1.00  0.00    -0.683 NA 
HETATM    2  C   UNL     1     -11.697  10.845  70.427  1.00  0.00    -0.350 C  
HETATM    3  H1  UNL     1     -12.394  11.300  68.549  1.00  0.00     0.000 HD 
HETATM    4  H2  UNL     1     -13.594  10.746  69.602  1.00  0.00     0.000 HD 
ENDROOT
BRANCH   2   5
HETATM    5  C   UNL     1     -12.038   9.882  71.568  1.00  0.00    -0.410 C  
HETATM    6  O   UNL     1     -13.152   9.855  72.090  1.00  0.00    -0.427 OA 
BRANCH   5   7
HETATM    7  C   UNL     1     -10.937   8.916  71.951  1.00  0.00    -0.439 C  
BRANCH   7   8
HETATM    8  C   UNL     1     -10.670   7.877  70.871  1.00  0.00    -0.234 C  
BRANCH   8   9
HETATM    9  C   UNL     1     -11.722   6.795  70.793  1.00  0.00    -0.386 C  
HETATM   10  O   UNL     1     -12.439   6.467  71.726  1.00  0.00    -0.345 OA 
BRANCH   9  11
HETATM   11  O   UNL     1     -11.630   6.123  69.611  1.00  0.00    -0.407 OA 
BRANCH  11  12
HETATM   12  C   UNL     1     -10.310   5.683  69.286  1.00  0.00    -0.270 C  
BRANCH  12  13
HETATM   13  C   UNL     1     -10.020   5.816  67.801  1.00  0.00    -0.166 C  
BRANCH  13  14
HETATM   14  C   UNL     1     -10.915   6.905  67.214  1.00  0.00    -0.406 C  
BRANCH  14  15
HETATM   15  C   UNL     1     -10.302   8.296  67.336  1.00  0.00    -0.350 C  
BRANCH  15  16
HETATM   16  C   UNL     1      -8.899   8.319  66.727  1.00  0.00    -0.158 C  
HETATM   17  C   UNL     1      -8.954   8.388  65.209  1.00  0.00    -0.055 C  
ENDBRANCH  15  16
ENDBRANCH  14  15
ENDBRANCH  13  14
ENDBRANCH  12  13
ENDBRANCH  11  12
ENDBRANCH   9  11
ENDBRANCH   8   9
ENDBRANCH   7   8
ENDBRANCH   5   7
ENDBRANCH   2   5
TORSDOF 10
ENDMDL
MODEL      163
REMARK 921   NORMALIZED FREE ENERGY PREDICTED BY IDOCK:   -3.38 KCAL/MOL
REMARK 922        TOTAL FREE ENERGY PREDICTED BY IDOCK:   -5.84 KCAL/MOL
REMARK 923 INTER-LIGAND FREE ENERGY PREDICTED BY IDOCK:   -5.44 KCAL/MOL
REMARK 924 INTRA-LIGAND FREE ENERGY PREDICTED BY IDOCK:   -0.40 KCAL/MOL
REMARK 927      BINDING AFFINITY PREDICTED BY RF-SCORE:    0.00 PKD
ROOT
HETATM    1  N   UNL     1      -6.669  17.353  69.192  1.00  0.00    -0.242 NA 
HETATM    2  C   UNL     1      -6.244  18.750  69.284  1.00  0.00    -0.265 C  
HETATM    3  H1  UNL     1      -6.017  16.749  69.694  1.00  0.00     0.000 HD 
HETATM    4  H2  UNL     1      -6.795  17.057  68.225  1.00  0.00     0.000 HD 
ENDROOT
BRANCH   2   5
HETATM    5  C   UNL     1      -7.223  19.656  68.532  1.00  0.00    -0.328 C  
HETATM    6  O   UNL     1      -6.866  20.709  68.004  1.00  0.00    -0.298 OA 
BRANCH   5   7
HETATM    7  C   UNL     1      -8.637  19.129  68.417  1.00  0.00    -0.387 C  
BRANCH   7   8
HETATM    8  C   UNL     1      -9.078  18.948  66.971  1.00  0.00    -0.310 C  
BRANCH   8   9
HETATM    9  C   UNL     1     -10.053  17.811  66.769  1.00  0.00    -0.349 C  
HETATM   10  O   UNL     1     -10.811  17.396  67.633  1.00  0.00    -0.338 OA 
BRANCH   9  11
HETATM   11  O   UNL     1      -9.840  17.206  65.567  1.00  0.00    -0.549 OA 
BRANCH  11  12
HETATM   12  C   UNL     1     -10.998  16.589  65.005  1.00  0.00    -0.210 C  
BRANCH  12  13
HETATM   13  C   UNL     1     -10.818  15.088  64.845  1.00  0.00    -0.430 C  
BRANCH  13  14
HETATM   14  C   UNL     1     -12.185  14.441  64.640  1.00  0.00    -0.479 C  
BRANCH  14  15
HETATM   15  C   UNL     1     -12.454  13.315  65.633  1.00  0.00    -0.510 C  
BRANCH  15  16
HETATM   16  C   UNL     1     -12.200  13.789  67.064  1.00  0.00    -0.381 C  
HETATM   17  C   UNL     1     -11.476  12.731  67.880  1.00  0.00    -0.365 C  
ENDBRANCH  15  16
ENDBRANCH  14  15
ENDBRANCH  13  14
ENDBRANCH  12  13
ENDBRANCH  11  12
ENDBRANCH   9  11
ENDBRANCH   8   9
ENDBRANCH   7   8
ENDBRANCH   5   7
ENDBRANCH   2   5
TORSDOF 10
ENDMDL
MODEL      164
REMARK 921   NORMALIZED FREE ENERGY PREDICTED BY IDOCK:   -3.37 KCAL/MOL
REMARK 922        TOTAL FREE ENERGY PREDICTED BY IDOCK:   -5.82 KCAL/MOL
REMARK 923 INTER-LIGAND FREE ENERGY PREDICTED BY IDOCK:   -4.95 KCAL/MOL
REMARK 924 INTRA-LIGAND FREE ENERGY PREDICTED BY IDOCK:   -0.87 KCAL/MOL
REMARK 927      BINDING AFFINITY PREDICTED BY RF-SCORE:    0.00 PKD
ROOT
HETATM    1  N   UNL     1     -10.890   8.024  68.390  1.00  0.00    -0.432 NA 
HETATM    2  C   UNL     1      -9.788   8.924  68.049  1.00  0.00    -0.168 C  
HETATM    3  H1  UNL     1     -10.871   7.197  67.793  1.00  0.00     0.000 HD 
HETATM    4  H2  UNL     1     -11.792   8.498  68.355  1.00  0.00     0.000 HD 
ENDROOT
BRANCH   2   5
HETATM    5  C   UNL     1      -9.816  10.166  68.945  1.00  0.00    -0.189 C  
HETATM    6  O   UNL     1      -8.843  10.909  69.064  1.00  0.00    -0.158 OA 
BRANCH   5   7
HETATM    7  C   UNL     1     -11.145  10.456  69.609  1.00  0.00    -0.328 C  
BRANCH   7   8
HETATM    8  C   UNL     1     -11.976  11.471  68.834  1.00  0.00    -0.364 C  
BRANCH   8   9
HETATM    9  C   UNL     1     -11.667  12.907  69.189  1.00  0.00    -0.324 C  
HETATM   10  O   UNL     1     -12.042  13.457  70.213  1.00  0.00    -0.342 OA 
BRANCH   9  11
HETATM   11  O   UNL     1     -11.078  13.543  68.137  1.00  0.00    -0.240 OA 
BRANCH  11  12
HETATM   12  C   UNL     1     -11.941  14.436  67.432  1.00  0.00    -0.373 C  
BRANCH  12  13
HETATM   13  C   UNL     1     -11.767  14.321  65.927  1.00  0.00    -0.375 C  
BRANCH  13  14
HETATM   14  C   UNL     1     -12.547  13.107  65.427  1.00  0.00    -0.512 C  
BRANCH  14  15
HETATM   15  C   UNL     1     -11.713  12.207  64.521  1.00  0.00    -0.410 C  
BRANCH  15  16
HETATM   16  C   UNL     1     -10.659  11.456  65.336  1.00  0.00    -0.333 C  
HETATM   17  C   UNL     1      -9.797  10.572  64.449  1.00  0.00    -0.405 C  
ENDBRANCH  15  16
ENDBRANCH  14  15
ENDBRANCH  13  14
ENDBRANCH  12  13
ENDBRANCH  11  12
ENDBRANCH   9  11
ENDBRANCH   8   9
ENDBRANCH   7   8
ENDBRANCH   5   7
ENDBRANCH   2   5
TORSDOF 10
ENDMDL
MODEL      165
REMARK 921   NORMALIZED FREE ENERGY PREDICTED BY IDOCK:   -3.36 KCAL/MOL
REMARK 922        TOTAL FREE ENERGY PREDICTED BY IDOCK:   -5.80 KCAL/MOL
REMARK 923 INTER-LIGAND FREE ENERGY PREDICTED BY IDOCK:   -5.17 KCAL/MOL
REMARK 924 INTRA-LIGAND FREE ENERGY PREDICTED BY IDOCK:   -0.63 KCAL/MOL
REMARK 927      BINDING AFFINITY PREDICTED BY RF-SCORE:    0.00 PKD
ROOT
HETATM    1  N   UNL     1     -11.243  11.990  63.083  1.00  0.00    -0.700 NA 
HETATM    2  C   UNL     1     -12.226  12.151  64.155  1.00  0.00    -0.413 C  
HETATM    3  H1  UNL     1     -11.299  11.052  62.687  1.00  0.00     0.000 HD 
HETATM    4  H2  UNL     1     -10.299  12.215  63.397  1.00  0.00     0.000 HD 
ENDROOT
BRANCH   2   5
HETATM    5  C   UNL     1     -12.143  13.560  64.749  1.00  0.00    -0.404 C  
HETATM    6  O   UNL     1     -13.076  14.063  65.373  1.00  0.00    -0.763 OA 
BRANCH   5   7
HETATM    7  C   UNL     1     -10.808  14.255  64.583  1.00  0.00    -0.384 C  
BRANCH   7   8
HETATM    8  C   UNL     1     -10.913  15.766  64.738  1.00  0.00    -0.410 C  
BRANCH   8   9
HETATM    9  C   UNL     1     -10.087  16.320  65.876  1.00  0.00    -0.357 C  
HETATM   10  O   UNL     1     -10.287  17.401  66.407  1.00  0.00    -0.332 OA 
BRANCH   9  11
HETATM   11  O   UNL     1      -8.992  15.538  66.096  1.00  0.00    -0.316 OA 
BRANCH  11  12
HETATM   12  C   UNL     1      -8.887  15.034  67.428  1.00  0.00    -0.190 C  
BRANCH  12  13
HETATM   13  C   UNL     1      -7.708  14.088  67.583  1.00  0.00    -0.188 C  
BRANCH  13  14
HETATM   14  C   UNL     1      -8.227  12.700  67.947  1.00  0.00    -0.170 C  
BRANCH  14  15
HETATM   15  C   UNL     1      -9.529  12.355  67.230  1.00  0.00    -0.191 C  
BRANCH  15  16
HETATM   16  C   UNL     1      -9.268  11.378  66.083  1.00  0.00    -0.223 C  
HETATM   17  C   UNL     1      -8.488  10.161  66.557  1.00  0.00    -0.128 C  
ENDBRANCH  15  16
ENDBRANCH  14  15
ENDBRANCH  13  14
ENDBRANCH  12  13
ENDBRANCH  11  12
ENDBRANCH   9  11
ENDBRANCH   8   9
ENDBRANCH   7   8
ENDBRANCH   5   7
ENDBRANCH   2   5
TORSDOF 10
ENDMDL
MODEL      166
REMARK 921   NORMALIZED FREE ENERGY PREDICTED BY IDOCK:   -3.36 KCAL/MOL
REMARK 922        TOTAL FREE ENERGY PREDICTED BY IDOCK:   -5.80 KCAL/MOL
REMARK 923 INTER-LIGAND FREE ENERGY PREDICTED BY IDOCK:   -5.32 KCAL/MOL
REMARK 924 INTRA-LIGAND FREE ENERGY PREDICTED BY IDOCK:   -0.48 KCAL/MOL
REMARK 927      BINDING AFFINITY PREDICTED BY RF-SCORE:    0.00 PKD
ROOT
HETATM    1  N   UNL     1     -12.398  13.750  63.045  1.00  0.00    -1.030 NA 
HETATM    2  C   UNL     1     -11.512  13.242  64.093  1.00  0.00    -0.396 C  
HETATM    3  H1  UNL     1     -12.446  13.090  62.269  1.00  0.00     0.000 HD 
HETATM    4  H2  UNL     1     -12.124  14.682  62.736  1.00  0.00     0.000 HD 
ENDROOT
BRANCH   2   5
HETATM    5  C   UNL     1     -11.440  14.232  65.258  1.00  0.00    -0.344 C  
HETATM    6  O   UNL     1     -10.971  15.362  65.128  1.00  0.00    -0.374 OA 
BRANCH   5   7
HETATM    7  C   UNL     1     -12.056  13.753  66.555  1.00  0.00    -0.483 C  
BRANCH   7   8
HETATM    8  C   UNL     1     -11.123  12.846  67.346  1.00  0.00    -0.307 C  
BRANCH   8   9
HETATM    9  C   UNL     1     -11.738  12.294  68.611  1.00  0.00    -0.328 C  
HETATM   10  O   UNL     1     -11.950  12.955  69.616  1.00  0.00    -0.313 OA 
BRANCH   9  11
HETATM   11  O   UNL     1     -11.848  10.938  68.535  1.00  0.00    -0.464 OA 
BRANCH  11  12
HETATM   12  C   UNL     1     -10.856  10.225  69.274  1.00  0.00    -0.238 C  
BRANCH  12  13
HETATM   13  C   UNL     1     -10.376   8.989  68.531  1.00  0.00    -0.233 C  
BRANCH  13  14
HETATM   14  C   UNL     1     -10.609   9.186  67.035  1.00  0.00    -0.266 C  
BRANCH  14  15
HETATM   15  C   UNL     1      -9.348   8.949  66.210  1.00  0.00    -0.279 C  
BRANCH  15  16
HETATM   16  C   UNL     1      -8.695   7.621  66.598  1.00  0.00    -0.150 C  
HETATM   17  C   UNL     1      -8.521   6.714  65.390  1.00  0.00    -0.112 C  
ENDBRANCH  15  16
ENDBRANCH  14  15
ENDBRANCH  13  14
ENDBRANCH  12  13
ENDBRANCH  11  12
ENDBRANCH   9  11
ENDBRANCH   8   9
ENDBRANCH   7   8
ENDBRANCH   5   7
ENDBRANCH   2   5
TORSDOF 10
ENDMDL
MODEL      167
REMARK 921   NORMALIZED FREE ENERGY PREDICTED BY IDOCK:   -3.35 KCAL/MOL
REMARK 922        TOTAL FREE ENERGY PREDICTED BY IDOCK:   -5.80 KCAL/MOL
REMARK 923 INTER-LIGAND FREE ENERGY PREDICTED BY IDOCK:   -5.19 KCAL/MOL
REMARK 924 INTRA-LIGAND FREE ENERGY PREDICTED BY IDOCK:   -0.61 KCAL/MOL
REMARK 927      BINDING AFFINITY PREDICTED BY RF-SCORE:    0.00 PKD
ROOT
HETATM    1  N   UNL     1     -13.426   9.505  72.491  1.00  0.00    -0.649 NA 
HETATM    2  C   UNL     1     -13.081  10.677  71.685  1.00  0.00    -0.450 C  
HETATM    3  H1  UNL     1     -14.171   9.733  73.149  1.00  0.00     0.000 HD 
HETATM    4  H2  UNL     1     -12.610   9.114  72.961  1.00  0.00     0.000 HD 
ENDROOT
BRANCH   2   5
HETATM    5  C   UNL     1     -11.962  10.335  70.697  1.00  0.00    -0.342 C  
HETATM    6  O   UNL     1     -11.006   9.626  71.011  1.00  0.00    -0.315 OA 
BRANCH   5   7
HETATM    7  C   UNL     1     -12.155  10.863  69.292  1.00  0.00    -0.332 C  
BRANCH   7   8
HETATM    8  C   UNL     1     -11.027  11.788  68.855  1.00  0.00    -0.288 C  
BRANCH   8   9
HETATM    9  C   UNL     1     -11.337  12.577  67.605  1.00  0.00    -0.306 C  
HETATM   10  O   UNL     1     -11.703  13.743  67.602  1.00  0.00    -0.325 OA 
BRANCH   9  11
HETATM   11  O   UNL     1     -11.329  11.763  66.512  1.00  0.00    -0.325 OA 
BRANCH  11  12
HETATM   12  C   UNL     1     -10.066  11.155  66.240  1.00  0.00    -0.232 C  
BRANCH  12  13
HETATM   13  C   UNL     1     -10.215   9.699  65.831  1.00  0.00    -0.219 C  
BRANCH  13  14
HETATM   14  C   UNL     1      -9.959   8.811  67.047  1.00  0.00    -0.307 C  
BRANCH  14  15
HETATM   15  C   UNL     1      -9.841   7.335  66.679  1.00  0.00    -0.257 C  
BRANCH  15  16
HETATM   16  C   UNL     1     -11.088   6.570  67.126  1.00  0.00    -0.434 C  
HETATM   17  C   UNL     1     -11.042   6.253  68.612  1.00  0.00    -0.409 C  
ENDBRANCH  15  16
ENDBRANCH  14  15
ENDBRANCH  13  14
ENDBRANCH  12  13
ENDBRANCH  11  12
ENDBRANCH   9  11
ENDBRANCH   8   9
ENDBRANCH   7   8
ENDBRANCH   5   7
ENDBRANCH   2   5
TORSDOF 10
ENDMDL
MODEL      168
REMARK 921   NORMALIZED FREE ENERGY PREDICTED BY IDOCK:   -3.35 KCAL/MOL
REMARK 922        TOTAL FREE ENERGY PREDICTED BY IDOCK:   -5.79 KCAL/MOL
REMARK 923 INTER-LIGAND FREE ENERGY PREDICTED BY IDOCK:   -5.22 KCAL/MOL
REMARK 924 INTRA-LIGAND FREE ENERGY PREDICTED BY IDOCK:   -0.57 KCAL/MOL
REMARK 927      BINDING AFFINITY PREDICTED BY RF-SCORE:    0.00 PKD
ROOT
HETATM    1  N   UNL     1     -10.235  19.617  68.860  1.00  0.00    -0.599 NA 
HETATM    2  C   UNL     1      -9.582  20.077  67.635  1.00  0.00    -0.389 C  
HETATM    3  H1  UNL     1      -9.849  20.100  69.672  1.00  0.00     0.000 HD 
HETATM    4  H2  UNL     1     -10.182  18.603  68.961  1.00  0.00     0.000 HD 
ENDROOT
BRANCH   2   5
HETATM    5  C   UNL     1     -10.160  19.352  66.416  1.00  0.00    -0.444 C  
HETATM    6  O   UNL     1     -10.986  19.880  65.673  1.00  0.00    -0.349 OA 
BRANCH   5   7
HETATM    7  C   UNL     1      -9.588  17.977  66.149  1.00  0.00    -0.184 C  
BRANCH   7   8
HETATM    8  C   UNL     1     -10.640  16.879  66.234  1.00  0.00    -0.191 C  
BRANCH   8   9
HETATM    9  C   UNL     1     -11.026  16.301  64.892  1.00  0.00    -0.307 C  
HETATM   10  O   UNL     1     -11.519  16.949  63.982  1.00  0.00    -1.130 OA 
BRANCH   9  11
HETATM   11  O   UNL     1     -10.919  14.943  64.909  1.00  0.00    -0.381 OA 
BRANCH  11  12
HETATM   12  C   UNL     1     -11.051  14.358  66.205  1.00  0.00    -0.331 C  
BRANCH  12  13
HETATM   13  C   UNL     1      -9.758  13.710  66.668  1.00  0.00    -0.287 C  
BRANCH  13  14
HETATM   14  C   UNL     1      -9.698  13.748  68.193  1.00  0.00    -0.227 C  
BRANCH  14  15
HETATM   15  C   UNL     1      -8.304  14.081  68.716  1.00  0.00    -0.048 C  
BRANCH  15  16
HETATM   16  C   UNL     1      -8.304  15.444  69.411  1.00  0.00    -0.250 C  
HETATM   17  C   UNL     1      -6.893  15.893  69.752  1.00  0.00    -0.101 C  
ENDBRANCH  15  16
ENDBRANCH  14  15
ENDBRANCH  13  14
ENDBRANCH  12  13
ENDBRANCH  11  12
ENDBRANCH   9  11
ENDBRANCH   8   9
ENDBRANCH   7   8
ENDBRANCH   5   7
ENDBRANCH   2   5
TORSDOF 10
ENDMDL
MODEL      169
REMARK 921   NORMALIZED FREE ENERGY PREDICTED BY IDOCK:   -3.34 KCAL/MOL
REMARK 922        TOTAL FREE ENERGY PREDICTED BY IDOCK:   -5.78 KCAL/MOL
REMARK 923 INTER-LIGAND FREE ENERGY PREDICTED BY IDOCK:   -5.33 KCAL/MOL
REMARK 924 INTRA-LIGAND FREE ENERGY PREDICTED BY IDOCK:   -0.45 KCAL/MOL
REMARK 927      BINDING AFFINITY PREDICTED BY RF-SCORE:    0.00 PKD
ROOT
HETATM    1  N   UNL     1     -11.349   6.118  69.371  1.00  0.00    -0.438 NA 
HETATM    2  C   UNL     1     -11.101   7.333  70.149  1.00  0.00    -0.258 C  
HETATM    3  H1  UNL     1     -10.892   6.180  68.461  1.00  0.00     0.000 HD 
HETATM    4  H2  UNL     1     -12.345   5.920  69.285  1.00  0.00     0.000 HD 
ENDROOT
BRANCH   2   5
HETATM    5  C   UNL     1     -11.786   7.241  71.516  1.00  0.00    -0.304 C  
HETATM    6  O   UNL     1     -11.864   6.182  72.138  1.00  0.00    -0.317 OA 
BRANCH   5   7
HETATM    7  C   UNL     1     -12.288   8.553  72.079  1.00  0.00    -0.423 C  
BRANCH   7   8
HETATM    8  C   UNL     1     -11.593   9.758  71.459  1.00  0.00    -0.424 C  
BRANCH   8   9
HETATM    9  C   UNL     1     -12.546  10.828  70.978  1.00  0.00    -0.420 C  
HETATM   10  O   UNL     1     -13.183  11.563  71.717  1.00  0.00    -0.457 OA 
BRANCH   9  11
HETATM   11  O   UNL     1     -12.730  10.733  69.631  1.00  0.00    -0.234 OA 
BRANCH  11  12
HETATM   12  C   UNL     1     -11.562  11.008  68.856  1.00  0.00    -0.314 C  
BRANCH  12  13
HETATM   13  C   UNL     1     -11.725  12.263  68.014  1.00  0.00    -0.417 C  
BRANCH  13  14
HETATM   14  C   UNL     1     -10.979  13.414  68.684  1.00  0.00    -0.288 C  
BRANCH  14  15
HETATM   15  C   UNL     1     -11.046  14.705  67.875  1.00  0.00    -0.301 C  
BRANCH  15  16
HETATM   16  C   UNL     1     -11.289  15.902  68.795  1.00  0.00    -0.378 C  
HETATM   17  C   UNL     1     -10.347  17.051  68.473  1.00  0.00    -0.359 C  
ENDBRANCH  15  16
ENDBRANCH  14  15
ENDBRANCH  13  14
ENDBRANCH  12  13
ENDBRANCH  11  12
ENDBRANCH   9  11
ENDBRANCH   8   9
ENDBRANCH   7   8
ENDBRANCH   5   7
ENDBRANCH   2   5
TORSDOF 10
ENDMDL
MODEL      170
REMARK 921   NORMALIZED FREE ENERGY PREDICTED BY IDOCK:   -3.34 KCAL/MOL
REMARK 922        TOTAL FREE ENERGY PREDICTED BY IDOCK:   -5.78 KCAL/MOL
REMARK 923 INTER-LIGAND FREE ENERGY PREDICTED BY IDOCK:   -4.76 KCAL/MOL
REMARK 924 INTRA-LIGAND FREE ENERGY PREDICTED BY IDOCK:   -1.02 KCAL/MOL
REMARK 927      BINDING AFFINITY PREDICTED BY RF-SCORE:    0.00 PKD
ROOT
HETATM    1  N   UNL     1      -8.050  18.843  65.764  1.00  0.00    -0.435 NA 
HETATM    2  C   UNL     1      -7.498  19.705  66.809  1.00  0.00    -0.244 C  
HETATM    3  H1  UNL     1      -8.084  19.340  64.874  1.00  0.00     0.000 HD 
HETATM    4  H2  UNL     1      -8.962  18.467  66.025  1.00  0.00     0.000 HD 
ENDROOT
BRANCH   2   5
HETATM    5  C   UNL     1      -7.448  18.960  68.146  1.00  0.00    -0.270 C  
HETATM    6  O   UNL     1      -7.584  19.539  69.223  1.00  0.00    -0.343 OA 
BRANCH   5   7
HETATM    7  C   UNL     1      -7.300  17.457  68.044  1.00  0.00    -0.195 C  
BRANCH   7   8
HETATM    8  C   UNL     1      -8.366  16.710  68.835  1.00  0.00    -0.230 C  
BRANCH   8   9
HETATM    9  C   UNL     1      -9.737  16.756  68.201  1.00  0.00    -0.247 C  
HETATM   10  O   UNL     1      -9.935  16.878  67.002  1.00  0.00    -0.262 OA 
BRANCH   9  11
HETATM   11  O   UNL     1     -10.703  16.829  69.160  1.00  0.00    -0.329 OA 
BRANCH  11  12
HETATM   12  C   UNL     1     -11.764  15.886  68.998  1.00  0.00    -0.370 C  
BRANCH  12  13
HETATM   13  C   UNL     1     -11.352  14.491  69.438  1.00  0.00    -0.314 C  
BRANCH  13  14
HETATM   14  C   UNL     1     -11.922  13.470  68.455  1.00  0.00    -0.379 C  
BRANCH  14  15
HETATM   15  C   UNL     1     -12.153  14.060  67.067  1.00  0.00    -0.455 C  
BRANCH  15  16
HETATM   16  C   UNL     1     -11.126  13.511  66.074  1.00  0.00    -0.300 C  
HETATM   17  C   UNL     1     -11.317  12.021  65.844  1.00  0.00    -0.391 C  
ENDBRANCH  15  16
ENDBRANCH  14  15
ENDBRANCH  13  14
ENDBRANCH  12  13
ENDBRANCH  11  12
ENDBRANCH   9  11
ENDBRANCH   8   9
ENDBRANCH   7   8
ENDBRANCH   5   7
ENDBRANCH   2   5
TORSDOF 10
ENDMDL
MODEL      171
REMARK 921   NORMALIZED FREE ENERGY PREDICTED BY IDOCK:   -3.34 KCAL/MOL
REMARK 922        TOTAL FREE ENERGY PREDICTED BY IDOCK:   -5.77 KCAL/MOL
REMARK 923 INTER-LIGAND FREE ENERGY PREDICTED BY IDOCK:   -5.02 KCAL/MOL
REMARK 924 INTRA-LIGAND FREE ENERGY PREDICTED BY IDOCK:   -0.76 KCAL/MOL
REMARK 927      BINDING AFFINITY PREDICTED BY RF-SCORE:    0.00 PKD
ROOT
HETATM    1  N   UNL     1     -11.514   4.494  65.024  1.00  0.00    -1.108 NA 
HETATM    2  C   UNL     1     -10.181   4.622  65.612  1.00  0.00    -0.231 C  
HETATM    3  H1  UNL     1     -11.453   4.093  64.088  1.00  0.00     0.000 HD 
HETATM    4  H2  UNL     1     -12.017   5.381  65.025  1.00  0.00     0.000 HD 
ENDROOT
BRANCH   2   5
HETATM    5  C   UNL     1     -10.272   5.224  67.017  1.00  0.00    -0.234 C  
HETATM    6  O   UNL     1      -9.644   4.762  67.969  1.00  0.00    -0.138 OA 
BRANCH   5   7
HETATM    7  C   UNL     1     -11.124   6.470  67.134  1.00  0.00    -0.434 C  
BRANCH   7   8
HETATM    8  C   UNL     1     -10.299   7.749  67.075  1.00  0.00    -0.405 C  
BRANCH   8   9
HETATM    9  C   UNL     1      -9.618   8.095  68.379  1.00  0.00    -0.147 C  
HETATM   10  O   UNL     1      -8.421   7.970  68.582  1.00  0.00    -0.126 OA 
BRANCH   9  11
HETATM   11  O   UNL     1     -10.543   8.384  69.338  1.00  0.00    -0.224 OA 
BRANCH  11  12
HETATM   12  C   UNL     1     -10.383   9.669  69.941  1.00  0.00    -0.249 C  
BRANCH  12  13
HETATM   13  C   UNL     1     -11.720  10.349  70.185  1.00  0.00    -0.394 C  
BRANCH  13  14
HETATM   14  C   UNL     1     -11.774  11.645  69.380  1.00  0.00    -0.405 C  
BRANCH  14  15
HETATM   15  C   UNL     1     -10.648  11.745  68.356  1.00  0.00    -0.239 C  
BRANCH  15  16
HETATM   16  C   UNL     1     -11.216  11.764  66.936  1.00  0.00    -0.387 C  
HETATM   17  C   UNL     1     -10.185  11.303  65.918  1.00  0.00    -0.298 C  
ENDBRANCH  15  16
ENDBRANCH  14  15
ENDBRANCH  13  14
ENDBRANCH  12  13
ENDBRANCH  11  12
ENDBRANCH   9  11
ENDBRANCH   8   9
ENDBRANCH   7   8
ENDBRANCH   5   7
ENDBRANCH   2   5
TORSDOF 10
ENDMDL
MODEL      172
REMARK 921   NORMALIZED FREE ENERGY PREDICTED BY IDOCK:   -3.34 KCAL/MOL
REMARK 922        TOTAL FREE ENERGY PREDICTED BY IDOCK:   -5.77 KCAL/MOL
REMARK 923 INTER-LIGAND FREE ENERGY PREDICTED BY IDOCK:   -5.36 KCAL/MOL
REMARK 924 INTRA-LIGAND FREE ENERGY PREDICTED BY IDOCK:   -0.41 KCAL/MOL
REMARK 927      BINDING AFFINITY PREDICTED BY RF-SCORE:    0.00 PKD
ROOT
HETATM    1  N   UNL     1      -9.370   9.611  67.444  1.00  0.00    -0.133 NA 
HETATM    2  C   UNL     1      -9.782   9.220  66.096  1.00  0.00    -0.279 C  
HETATM    3  H1  UNL     1      -9.169   8.784  68.008  1.00  0.00     0.000 HD 
HETATM    4  H2  UNL     1     -10.057  10.218  67.890  1.00  0.00     0.000 HD 
ENDROOT
BRANCH   2   5
HETATM    5  C   UNL     1     -10.083  10.461  65.249  1.00  0.00    -0.300 C  
HETATM    6  O   UNL     1      -9.762  10.536  64.064  1.00  0.00    -0.280 OA 
BRANCH   5   7
HETATM    7  C   UNL     1     -10.868  11.548  65.950  1.00  0.00    -0.316 C  
BRANCH   7   8
HETATM    8  C   UNL     1     -11.078  12.775  65.072  1.00  0.00    -0.317 C  
BRANCH   8   9
HETATM    9  C   UNL     1     -12.072  13.763  65.637  1.00  0.00    -0.418 C  
HETATM   10  O   UNL     1     -13.169  13.988  65.149  1.00  0.00    -0.768 OA 
BRANCH   9  11
HETATM   11  O   UNL     1     -11.505  14.490  66.641  1.00  0.00    -0.347 OA 
BRANCH  11  12
HETATM   12  C   UNL     1     -12.216  14.437  67.878  1.00  0.00    -0.143 C  
BRANCH  12  13
HETATM   13  C   UNL     1     -11.275  14.333  69.067  1.00  0.00    -0.294 C  
BRANCH  13  14
HETATM   14  C   UNL     1     -12.079  13.954  70.308  1.00  0.00    -0.423 C  
BRANCH  14  15
HETATM   15  C   UNL     1     -12.242  12.445  70.462  1.00  0.00    -0.382 C  
BRANCH  15  16
HETATM   16  C   UNL     1     -13.003  12.117  71.747  1.00  0.00    -0.437 C  
HETATM   17  C   UNL     1     -13.184  10.617  71.917  1.00  0.00    -0.528 C  
ENDBRANCH  15  16
ENDBRANCH  14  15
ENDBRANCH  13  14
ENDBRANCH  12  13
ENDBRANCH  11  12
ENDBRANCH   9  11
ENDBRANCH   8   9
ENDBRANCH   7   8
ENDBRANCH   5   7
ENDBRANCH   2   5
TORSDOF 10
ENDMDL
MODEL      173
REMARK 921   NORMALIZED FREE ENERGY PREDICTED BY IDOCK:   -3.34 KCAL/MOL
REMARK 922        TOTAL FREE ENERGY PREDICTED BY IDOCK:   -5.77 KCAL/MOL
REMARK 923 INTER-LIGAND FREE ENERGY PREDICTED BY IDOCK:   -4.67 KCAL/MOL
REMARK 924 INTRA-LIGAND FREE ENERGY PREDICTED BY IDOCK:   -1.10 KCAL/MOL
REMARK 927      BINDING AFFINITY PREDICTED BY RF-SCORE:    0.00 PKD
ROOT
HETATM    1  N   UNL     1      -5.877  11.590  66.140  1.00  0.00    -0.470 NA 
HETATM    2  C   UNL     1      -6.343  10.793  67.275  1.00  0.00    -0.065 C  
HETATM    3  H1  UNL     1      -5.021  11.191  65.754  1.00  0.00     0.000 HD 
HETATM    4  H2  UNL     1      -5.762  12.572  66.388  1.00  0.00     0.000 HD 
ENDROOT
BRANCH   2   5
HETATM    5  C   UNL     1      -7.628  11.390  67.855  1.00  0.00    -0.108 C  
HETATM    6  O   UNL     1      -7.617  12.369  68.600  1.00  0.00    -0.116 OA 
BRANCH   5   7
HETATM    7  C   UNL     1      -8.913  10.743  67.385  1.00  0.00    -0.141 C  
BRANCH   7   8
HETATM    8  C   UNL     1      -9.540  11.476  66.206  1.00  0.00    -0.239 C  
BRANCH   8   9
HETATM    9  C   UNL     1      -9.385  10.754  64.888  1.00  0.00    -0.222 C  
HETATM   10  O   UNL     1      -8.317  10.368  64.438  1.00  0.00    -0.165 OA 
BRANCH   9  11
HETATM   11  O   UNL     1     -10.562  10.759  64.200  1.00  0.00    -0.347 OA 
BRANCH  11  12
HETATM   12  C   UNL     1     -10.781  11.934  63.419  1.00  0.00    -0.413 C  
BRANCH  12  13
HETATM   13  C   UNL     1     -12.218  12.418  63.517  1.00  0.00    -0.661 C  
BRANCH  13  14
HETATM   14  C   UNL     1     -12.244  13.755  64.255  1.00  0.00    -0.444 C  
BRANCH  14  15
HETATM   15  C   UNL     1     -12.508  13.593  65.749  1.00  0.00    -0.524 C  
BRANCH  15  16
HETATM   16  C   UNL     1     -11.640  14.560  66.555  1.00  0.00    -0.379 C  
HETATM   17  C   UNL     1     -10.523  15.145  65.704  1.00  0.00    -0.378 C  
ENDBRANCH  15  16
ENDBRANCH  14  15
ENDBRANCH  13  14
ENDBRANCH  12  13
ENDBRANCH  11  12
ENDBRANCH   9  11
ENDBRANCH   8   9
ENDBRANCH   7   8
ENDBRANCH   5   7
ENDBRANCH   2   5
TORSDOF 10
ENDMDL
MODEL      174
REMARK 921   NORMALIZED FREE ENERGY PREDICTED BY IDOCK:   -3.33 KCAL/MOL
REMARK 922        TOTAL FREE ENERGY PREDICTED BY IDOCK:   -5.76 KCAL/MOL
REMARK 923 INTER-LIGAND FREE ENERGY PREDICTED BY IDOCK:   -5.43 KCAL/MOL
REMARK 924 INTRA-LIGAND FREE ENERGY PREDICTED BY IDOCK:   -0.33 KCAL/MOL
REMARK 927      BINDING AFFINITY PREDICTED BY RF-SCORE:    0.00 PKD
ROOT
HETATM    1  N   UNL     1      -6.718  19.646  67.317  1.00  0.00    -0.202 NA 
HETATM    2  C   UNL     1      -7.563  19.823  68.498  1.00  0.00    -0.303 C  
HETATM    3  H1  UNL     1      -5.732  19.669  67.578  1.00  0.00     0.000 HD 
HETATM    4  H2  UNL     1      -6.935  20.327  66.590  1.00  0.00     0.000 HD 
ENDROOT
BRANCH   2   5
HETATM    5  C   UNL     1      -9.043  19.788  68.107  1.00  0.00    -0.314 C  
HETATM    6  O   UNL     1      -9.941  19.749  68.947  1.00  0.00    -0.441 OA 
BRANCH   5   7
HETATM    7  C   UNL     1      -9.323  19.884  66.623  1.00  0.00    -0.500 C  
BRANCH   7   8
HETATM    8  C   UNL     1     -10.664  19.273  66.240  1.00  0.00    -0.477 C  
BRANCH   8   9
HETATM    9  C   UNL     1     -10.567  17.846  65.753  1.00  0.00    -0.174 C  
HETATM   10  O   UNL     1     -11.042  17.446  64.701  1.00  0.00    -1.029 OA 
BRANCH   9  11
HETATM   11  O   UNL     1     -10.044  17.045  66.724  1.00  0.00    -0.280 OA 
BRANCH  11  12
HETATM   12  C   UNL     1      -8.791  16.450  66.384  1.00  0.00    -0.311 C  
BRANCH  12  13
HETATM   13  C   UNL     1      -8.795  14.949  66.621  1.00  0.00    -0.287 C  
BRANCH  13  14
HETATM   14  C   UNL     1      -9.435  14.661  67.977  1.00  0.00    -0.207 C  
BRANCH  14  15
HETATM   15  C   UNL     1      -9.945  13.227  68.091  1.00  0.00    -0.234 C  
BRANCH  15  16
HETATM   16  C   UNL     1     -11.465  13.212  68.258  1.00  0.00    -0.349 C  
HETATM   17  C   UNL     1     -11.932  11.957  68.979  1.00  0.00    -0.321 C  
ENDBRANCH  15  16
ENDBRANCH  14  15
ENDBRANCH  13  14
ENDBRANCH  12  13
ENDBRANCH  11  12
ENDBRANCH   9  11
ENDBRANCH   8   9
ENDBRANCH   7   8
ENDBRANCH   5   7
ENDBRANCH   2   5
TORSDOF 10
ENDMDL
MODEL      175
REMARK 921   NORMALIZED FREE ENERGY PREDICTED BY IDOCK:   -3.33 KCAL/MOL
REMARK 922        TOTAL FREE ENERGY PREDICTED BY IDOCK:   -5.76 KCAL/MOL
REMARK 923 INTER-LIGAND FREE ENERGY PREDICTED BY IDOCK:   -5.22 KCAL/MOL
REMARK 924 INTRA-LIGAND FREE ENERGY PREDICTED BY IDOCK:   -0.54 KCAL/MOL
REMARK 927      BINDING AFFINITY PREDICTED BY RF-SCORE:    0.00 PKD
ROOT
HETATM    1  N   UNL     1     -14.314   8.754  73.018  1.00  0.00    -1.133 NA 
HETATM    2  C   UNL     1     -13.884   8.019  71.828  1.00  0.00    -0.386 C  
HETATM    3  H1  UNL     1     -15.309   8.604  73.187  1.00  0.00     0.000 HD 
HETATM    4  H2  UNL     1     -14.083   9.745  72.955  1.00  0.00     0.000 HD 
ENDROOT
BRANCH   2   5
HETATM    5  C   UNL     1     -12.390   8.243  71.573  1.00  0.00    -0.306 C  
HETATM    6  O   UNL     1     -11.877   9.359  71.634  1.00  0.00    -0.351 OA 
BRANCH   5   7
HETATM    7  C   UNL     1     -11.581   6.989  71.319  1.00  0.00    -0.342 C  
BRANCH   7   8
HETATM    8  C   UNL     1     -11.649   6.534  69.867  1.00  0.00    -0.433 C  
BRANCH   8   9
HETATM    9  C   UNL     1     -10.587   5.524  69.497  1.00  0.00    -0.296 C  
HETATM   10  O   UNL     1     -10.087   4.734  70.283  1.00  0.00    -0.239 OA 
BRANCH   9  11
HETATM   11  O   UNL     1     -10.143   5.742  68.227  1.00  0.00    -0.142 OA 
BRANCH  11  12
HETATM   12  C   UNL     1     -10.898   6.712  67.499  1.00  0.00    -0.342 C  
BRANCH  12  13
HETATM   13  C   UNL     1      -9.999   7.720  66.801  1.00  0.00    -0.331 C  
BRANCH  13  14
HETATM   14  C   UNL     1      -9.185   8.471  67.851  1.00  0.00    -0.148 C  
BRANCH  14  15
HETATM   15  C   UNL     1      -9.362   9.984  67.757  1.00  0.00    -0.154 C  
BRANCH  15  16
HETATM   16  C   UNL     1     -10.698  10.326  67.095  1.00  0.00    -0.303 C  
HETATM   17  C   UNL     1     -10.505  11.246  65.900  1.00  0.00    -0.314 C  
ENDBRANCH  15  16
ENDBRANCH  14  15
ENDBRANCH  13  14
ENDBRANCH  12  13
ENDBRANCH  11  12
ENDBRANCH   9  11
ENDBRANCH   8   9
ENDBRANCH   7   8
ENDBRANCH   5   7
ENDBRANCH   2   5
TORSDOF 10
ENDMDL
MODEL      176
REMARK 921   NORMALIZED FREE ENERGY PREDICTED BY IDOCK:   -3.32 KCAL/MOL
REMARK 922        TOTAL FREE ENERGY PREDICTED BY IDOCK:   -5.74 KCAL/MOL
REMARK 923 INTER-LIGAND FREE ENERGY PREDICTED BY IDOCK:   -4.86 KCAL/MOL
REMARK 924 INTRA-LIGAND FREE ENERGY PREDICTED BY IDOCK:   -0.88 KCAL/MOL
REMARK 927      BINDING AFFINITY PREDICTED BY RF-SCORE:    0.00 PKD
ROOT
HETATM    1  N   UNL     1     -13.701   7.365  71.855  1.00  0.00    -0.535 NA 
HETATM    2  C   UNL     1     -14.181   8.747  71.833  1.00  0.00    -0.389 C  
HETATM    3  H1  UNL     1     -14.485   6.715  71.788  1.00  0.00     0.000 HD 
HETATM    4  H2  UNL     1     -13.120   7.178  72.672  1.00  0.00     0.000 HD 
ENDROOT
BRANCH   2   5
HETATM    5  C   UNL     1     -13.005   9.723  71.933  1.00  0.00    -0.440 C  
HETATM    6  O   UNL     1     -13.170  10.939  72.027  1.00  0.00    -0.492 OA 
BRANCH   5   7
HETATM    7  C   UNL     1     -11.635   9.082  71.987  1.00  0.00    -0.413 C  
BRANCH   7   8
HETATM    8  C   UNL     1     -10.759   9.475  70.805  1.00  0.00    -0.391 C  
BRANCH   8   9
HETATM    9  C   UNL     1     -10.572   8.369  69.792  1.00  0.00    -0.221 C  
HETATM   10  O   UNL     1      -9.844   8.449  68.815  1.00  0.00    -0.165 OA 
BRANCH   9  11
HETATM   11  O   UNL     1     -11.458   7.359  70.020  1.00  0.00    -0.189 OA 
BRANCH  11  12
HETATM   12  C   UNL     1     -11.088   6.108  69.438  1.00  0.00    -0.409 C  
BRANCH  12  13
HETATM   13  C   UNL     1     -10.374   5.210  70.434  1.00  0.00    -0.326 C  
BRANCH  13  14
HETATM   14  C   UNL     1      -9.451   4.259  69.676  1.00  0.00    -0.258 C  
BRANCH  14  15
HETATM   15  C   UNL     1      -9.238   4.682  68.226  1.00  0.00    -0.166 C  
BRANCH  15  16
HETATM   16  C   UNL     1      -9.414   3.487  67.288  1.00  0.00    -0.228 C  
HETATM   17  C   UNL     1      -9.263   2.170  68.032  1.00  0.00    -0.242 C  
ENDBRANCH  15  16
ENDBRANCH  14  15
ENDBRANCH  13  14
ENDBRANCH  12  13
ENDBRANCH  11  12
ENDBRANCH   9  11
ENDBRANCH   8   9
ENDBRANCH   7   8
ENDBRANCH   5   7
ENDBRANCH   2   5
TORSDOF 10
ENDMDL
MODEL      177
REMARK 921   NORMALIZED FREE ENERGY PREDICTED BY IDOCK:   -3.32 KCAL/MOL
REMARK 922        TOTAL FREE ENERGY PREDICTED BY IDOCK:   -5.74 KCAL/MOL
REMARK 923 INTER-LIGAND FREE ENERGY PREDICTED BY IDOCK:   -5.02 KCAL/MOL
REMARK 924 INTRA-LIGAND FREE ENERGY PREDICTED BY IDOCK:   -0.72 KCAL/MOL
REMARK 927      BINDING AFFINITY PREDICTED BY RF-SCORE:    0.00 PKD
ROOT
HETATM    1  N   UNL     1     -10.248  19.597  69.209  1.00  0.00    -0.628 NA 
HETATM    2  C   UNL     1      -9.136  19.203  68.344  1.00  0.00    -0.359 C  
HETATM    3  H1  UNL     1      -9.943  19.644  70.182  1.00  0.00     0.000 HD 
HETATM    4  H2  UNL     1     -11.055  18.985  69.093  1.00  0.00     0.000 HD 
ENDROOT
BRANCH   2   5
HETATM    5  C   UNL     1      -9.594  19.134  66.884  1.00  0.00    -0.325 C  
HETATM    6  O   UNL     1      -9.580  20.119  66.147  1.00  0.00    -0.389 OA 
BRANCH   5   7
HETATM    7  C   UNL     1      -9.988  17.758  66.394  1.00  0.00    -0.345 C  
BRANCH   7   8
HETATM    8  C   UNL     1      -8.788  16.840  66.200  1.00  0.00    -0.298 C  
BRANCH   8   9
HETATM    9  C   UNL     1      -8.813  15.611  67.079  1.00  0.00    -0.225 C  
HETATM   10  O   UNL     1      -8.009  15.388  67.971  1.00  0.00    -0.124 OA 
BRANCH   9  11
HETATM   11  O   UNL     1      -9.733  14.716  66.621  1.00  0.00    -0.248 OA 
BRANCH  11  12
HETATM   12  C   UNL     1      -9.583  13.397  67.148  1.00  0.00    -0.241 C  
BRANCH  12  13
HETATM   13  C   UNL     1     -10.923  12.777  67.509  1.00  0.00    -0.280 C  
BRANCH  13  14
HETATM   14  C   UNL     1     -11.794  13.833  68.186  1.00  0.00    -0.411 C  
BRANCH  14  15
HETATM   15  C   UNL     1     -11.938  13.598  69.687  1.00  0.00    -0.402 C  
BRANCH  15  16
HETATM   16  C   UNL     1     -12.123  14.926  70.422  1.00  0.00    -0.386 C  
HETATM   17  C   UNL     1     -11.068  15.940  70.010  1.00  0.00    -0.356 C  
ENDBRANCH  15  16
ENDBRANCH  14  15
ENDBRANCH  13  14
ENDBRANCH  12  13
ENDBRANCH  11  12
ENDBRANCH   9  11
ENDBRANCH   8   9
ENDBRANCH   7   8
ENDBRANCH   5   7
ENDBRANCH   2   5
TORSDOF 10
ENDMDL
MODEL      178
REMARK 921   NORMALIZED FREE ENERGY PREDICTED BY IDOCK:   -3.32 KCAL/MOL
REMARK 922        TOTAL FREE ENERGY PREDICTED BY IDOCK:   -5.74 KCAL/MOL
REMARK 923 INTER-LIGAND FREE ENERGY PREDICTED BY IDOCK:   -4.90 KCAL/MOL
REMARK 924 INTRA-LIGAND FREE ENERGY PREDICTED BY IDOCK:   -0.84 KCAL/MOL
REMARK 927      BINDING AFFINITY PREDICTED BY RF-SCORE:    0.00 PKD
ROOT
HETATM    1  N   UNL     1     -10.923   8.858  67.321  1.00  0.00    -0.370 NA 
HETATM    2  C   UNL     1     -10.643  10.212  66.845  1.00  0.00    -0.200 C  
HETATM    3  H1  UNL     1     -10.544   8.167  66.672  1.00  0.00     0.000 HD 
HETATM    4  H2  UNL     1     -11.918   8.714  67.492  1.00  0.00     0.000 HD 
ENDROOT
BRANCH   2   5
HETATM    5  C   UNL     1     -11.211  11.249  67.818  1.00  0.00    -0.291 C  
HETATM    6  O   UNL     1     -12.303  11.103  68.365  1.00  0.00    -0.556 OA 
BRANCH   5   7
HETATM    7  C   UNL     1     -10.302  12.421  68.118  1.00  0.00    -0.231 C  
BRANCH   7   8
HETATM    8  C   UNL     1     -10.894  13.369  69.154  1.00  0.00    -0.156 C  
BRANCH   8   9
HETATM    9  C   UNL     1     -11.312  14.706  68.588  1.00  0.00    -0.283 C  
HETATM   10  O   UNL     1     -10.976  15.121  67.489  1.00  0.00    -0.294 OA 
BRANCH   9  11
HETATM   11  O   UNL     1     -11.951  15.447  69.535  1.00  0.00    -0.325 OA 
BRANCH  11  12
HETATM   12  C   UNL     1     -11.223  15.598  70.754  1.00  0.00    -0.367 C  
BRANCH  12  13
HETATM   13  C   UNL     1     -12.148  15.726  71.954  1.00  0.00    -0.548 C  
BRANCH  13  14
HETATM   14  C   UNL     1     -13.309  14.748  71.793  1.00  0.00    -0.444 C  
BRANCH  14  15
HETATM   15  C   UNL     1     -13.048  13.411  72.478  1.00  0.00    -0.424 C  
BRANCH  15  16
HETATM   16  C   UNL     1     -13.496  12.253  71.584  1.00  0.00    -0.098 C  
HETATM   17  C   UNL     1     -12.620  11.027  71.783  1.00  0.00    -0.311 C  
ENDBRANCH  15  16
ENDBRANCH  14  15
ENDBRANCH  13  14
ENDBRANCH  12  13
ENDBRANCH  11  12
ENDBRANCH   9  11
ENDBRANCH   8   9
ENDBRANCH   7   8
ENDBRANCH   5   7
ENDBRANCH   2   5
TORSDOF 10
ENDMDL
MODEL      179
REMARK 921   NORMALIZED FREE ENERGY PREDICTED BY IDOCK:   -3.31 KCAL/MOL
REMARK 922        TOTAL FREE ENERGY PREDICTED BY IDOCK:   -5.72 KCAL/MOL
REMARK 923 INTER-LIGAND FREE ENERGY PREDICTED BY IDOCK:   -4.84 KCAL/MOL
REMARK 924 INTRA-LIGAND FREE ENERGY PREDICTED BY IDOCK:   -0.89 KCAL/MOL
REMARK 927      BINDING AFFINITY PREDICTED BY RF-SCORE:    0.00 PKD
ROOT
HETATM    1  N   UNL     1      -8.765   8.298  64.304  1.00  0.00    -0.392 NA 
HETATM    2  C   UNL     1      -8.857   9.567  63.582  1.00  0.00    -0.210 C  
HETATM    3  H1  UNL     1      -8.077   7.687  63.863  1.00  0.00     0.000 HD 
HETATM    4  H2  UNL     1      -9.674   7.845  64.394  1.00  0.00     0.000 HD 
ENDROOT
BRANCH   2   5
HETATM    5  C   UNL     1      -9.890  10.485  64.244  1.00  0.00    -0.338 C  
HETATM    6  O   UNL     1     -10.710  11.126  63.588  1.00  0.00    -0.377 OA 
BRANCH   5   7
HETATM    7  C   UNL     1      -9.880  10.485  65.757  1.00  0.00    -0.295 C  
BRANCH   7   8
HETATM    8  C   UNL     1      -8.988  11.575  66.335  1.00  0.00    -0.200 C  
BRANCH   8   9
HETATM    9  C   UNL     1      -9.196  11.811  67.813  1.00  0.00    -0.181 C  
HETATM   10  O   UNL     1      -9.301  10.921  68.643  1.00  0.00    -0.173 OA 
BRANCH   9  11
HETATM   11  O   UNL     1      -9.432  13.131  68.057  1.00  0.00    -0.207 OA 
BRANCH  11  12
HETATM   12  C   UNL     1     -10.649  13.391  68.759  1.00  0.00    -0.210 C  
BRANCH  12  13
HETATM   13  C   UNL     1     -11.866  12.959  67.959  1.00  0.00    -0.390 C  
BRANCH  13  14
HETATM   14  C   UNL     1     -12.196  14.038  66.930  1.00  0.00    -0.415 C  
BRANCH  14  15
HETATM   15  C   UNL     1     -12.535  13.457  65.561  1.00  0.00    -0.534 C  
BRANCH  15  16
HETATM   16  C   UNL     1     -12.004  14.361  64.448  1.00  0.00    -0.471 C  
HETATM   17  C   UNL     1     -10.877  15.251  64.946  1.00  0.00    -0.444 C  
ENDBRANCH  15  16
ENDBRANCH  14  15
ENDBRANCH  13  14
ENDBRANCH  12  13
ENDBRANCH  11  12
ENDBRANCH   9  11
ENDBRANCH   8   9
ENDBRANCH   7   8
ENDBRANCH   5   7
ENDBRANCH   2   5
TORSDOF 10
ENDMDL
MODEL      180
REMARK 921   NORMALIZED FREE ENERGY PREDICTED BY IDOCK:   -3.29 KCAL/MOL
REMARK 922        TOTAL FREE ENERGY PREDICTED BY IDOCK:   -5.71 KCAL/MOL
REMARK 923 INTER-LIGAND FREE ENERGY PREDICTED BY IDOCK:   -5.25 KCAL/MOL
REMARK 924 INTRA-LIGAND FREE ENERGY PREDICTED BY IDOCK:   -0.45 KCAL/MOL
REMARK 927      BINDING AFFINITY PREDICTED BY RF-SCORE:    0.00 PKD
ROOT
HETATM    1  N   UNL     1     -11.115   5.920  66.342  1.00  0.00    -0.759 NA 
HETATM    2  C   UNL     1     -10.954   6.927  67.390  1.00  0.00    -0.304 C  
HETATM    3  H1  UNL     1     -11.793   5.213  66.629  1.00  0.00     0.000 HD 
HETATM    4  H2  UNL     1     -10.223   5.504  66.074  1.00  0.00     0.000 HD 
ENDROOT
BRANCH   2   5
HETATM    5  C   UNL     1      -9.937   7.988  66.960  1.00  0.00    -0.254 C  
HETATM    6  O   UNL     1      -9.137   7.794  66.045  1.00  0.00    -0.173 OA 
BRANCH   5   7
HETATM    7  C   UNL     1     -10.038   9.313  67.684  1.00  0.00    -0.266 C  
BRANCH   7   8
HETATM    8  C   UNL     1     -11.008   9.266  68.857  1.00  0.00    -0.050 C  
BRANCH   8   9
HETATM    9  C   UNL     1     -10.394   9.693  70.171  1.00  0.00    -0.266 C  
HETATM   10  O   UNL     1      -9.200   9.636  70.421  1.00  0.00    -0.250 OA 
BRANCH   9  11
HETATM   11  O   UNL     1     -11.367   9.970  71.084  1.00  0.00    -0.360 OA 
BRANCH  11  12
HETATM   12  C   UNL     1     -12.395  10.838  70.603  1.00  0.00    -0.372 C  
BRANCH  12  13
HETATM   13  C   UNL     1     -13.284  11.339  71.729  1.00  0.00    -0.480 C  
BRANCH  13  14
HETATM   14  C   UNL     1     -12.959  12.806  72.005  1.00  0.00    -0.380 C  
BRANCH  14  15
HETATM   15  C   UNL     1     -12.623  13.579  70.733  1.00  0.00    -0.382 C  
BRANCH  15  16
HETATM   16  C   UNL     1     -13.342  14.929  70.721  1.00  0.00    -0.338 C  
HETATM   17  C   UNL     1     -13.769  15.343  72.120  1.00  0.00    -0.618 C  
ENDBRANCH  15  16
ENDBRANCH  14  15
ENDBRANCH  13  14
ENDBRANCH  12  13
ENDBRANCH  11  12
ENDBRANCH   9  11
ENDBRANCH   8   9
ENDBRANCH   7   8
ENDBRANCH   5   7
ENDBRANCH   2   5
TORSDOF 10
ENDMDL
MODEL      181
REMARK 921   NORMALIZED FREE ENERGY PREDICTED BY IDOCK:   -3.29 KCAL/MOL
REMARK 922        TOTAL FREE ENERGY PREDICTED BY IDOCK:   -5.69 KCAL/MOL
REMARK 923 INTER-LIGAND FREE ENERGY PREDICTED BY IDOCK:   -5.35 KCAL/MOL
REMARK 924 INTRA-LIGAND FREE ENERGY PREDICTED BY IDOCK:   -0.34 KCAL/MOL
REMARK 927      BINDING AFFINITY PREDICTED BY RF-SCORE:    0.00 PKD
ROOT
HETATM    1  N   UNL     1      -8.224  10.013  70.442  1.00  0.00    -0.401 NA 
HETATM    2  C   UNL     1      -9.651   9.808  70.190  1.00  0.00    -0.237 C  
HETATM    3  H1  UNL     1      -7.963   9.618  71.346  1.00  0.00     0.000 HD 
HETATM    4  H2  UNL     1      -7.962  10.995  70.365  1.00  0.00     0.000 HD 
ENDROOT
BRANCH   2   5
HETATM    5  C   UNL     1     -10.044  10.400  68.834  1.00  0.00    -0.201 C  
HETATM    6  O   UNL     1      -9.232  10.535  67.919  1.00  0.00    -0.138 OA 
BRANCH   5   7
HETATM    7  C   UNL     1     -11.512  10.730  68.672  1.00  0.00    -0.365 C  
BRANCH   7   8
HETATM    8  C   UNL     1     -11.796  12.219  68.821  1.00  0.00    -0.356 C  
BRANCH   8   9
HETATM    9  C   UNL     1     -11.669  12.995  67.531  1.00  0.00    -0.370 C  
HETATM   10  O   UNL     1     -12.156  12.644  66.468  1.00  0.00    -0.525 OA 
BRANCH   9  11
HETATM   11  O   UNL     1     -10.792  14.028  67.680  1.00  0.00    -0.257 OA 
BRANCH  11  12
HETATM   12  C   UNL     1     -11.340  15.176  68.327  1.00  0.00    -0.327 C  
BRANCH  12  13
HETATM   13  C   UNL     1     -10.859  16.469  67.689  1.00  0.00    -0.269 C  
BRANCH  13  14
HETATM   14  C   UNL     1     -10.088  17.281  68.727  1.00  0.00    -0.337 C  
BRANCH  14  15
HETATM   15  C   UNL     1      -9.602  18.619  68.180  1.00  0.00    -0.364 C  
BRANCH  15  16
HETATM   16  C   UNL     1     -10.730  19.336  67.437  1.00  0.00    -0.594 C  
HETATM   17  C   UNL     1     -10.377  19.564  65.976  1.00  0.00    -0.604 C  
ENDBRANCH  15  16
ENDBRANCH  14  15
ENDBRANCH  13  14
ENDBRANCH  12  13
ENDBRANCH  11  12
ENDBRANCH   9  11
ENDBRANCH   8   9
ENDBRANCH   7   8
ENDBRANCH   5   7
ENDBRANCH   2   5
TORSDOF 10
ENDMDL
MODEL      182
REMARK 921   NORMALIZED FREE ENERGY PREDICTED BY IDOCK:   -3.27 KCAL/MOL
REMARK 922        TOTAL FREE ENERGY PREDICTED BY IDOCK:   -5.67 KCAL/MOL
REMARK 923 INTER-LIGAND FREE ENERGY PREDICTED BY IDOCK:   -5.19 KCAL/MOL
REMARK 924 INTRA-LIGAND FREE ENERGY PREDICTED BY IDOCK:   -0.48 KCAL/MOL
REMARK 927      BINDING AFFINITY PREDICTED BY RF-SCORE:    0.00 PKD
ROOT
HETATM    1  N   UNL     1     -12.166  13.576  63.307  1.00  0.00    -1.002 NA 
HETATM    2  C   UNL     1     -12.391  14.388  64.503  1.00  0.00    -0.418 C  
HETATM    3  H1  UNL     1     -12.797  12.774  63.299  1.00  0.00     0.000 HD 
HETATM    4  H2  UNL     1     -11.190  13.294  63.217  1.00  0.00     0.000 HD 
ENDROOT
BRANCH   2   5
HETATM    5  C   UNL     1     -11.445  15.593  64.516  1.00  0.00    -0.300 C  
HETATM    6  O   UNL     1     -11.661  16.601  63.845  1.00  0.00    -1.153 OA 
BRANCH   5   7
HETATM    7  C   UNL     1     -10.273  15.486  65.468  1.00  0.00    -0.415 C  
BRANCH   7   8
HETATM    8  C   UNL     1     -10.271  14.178  66.248  1.00  0.00    -0.301 C  
BRANCH   8   9
HETATM    9  C   UNL     1     -10.592  14.344  67.715  1.00  0.00    -0.246 C  
HETATM   10  O   UNL     1     -11.587  14.911  68.140  1.00  0.00    -0.315 OA 
BRANCH   9  11
HETATM   11  O   UNL     1      -9.539  13.943  68.482  1.00  0.00    -0.213 OA 
BRANCH  11  12
HETATM   12  C   UNL     1      -8.317  13.776  67.763  1.00  0.00    -0.180 C  
BRANCH  12  13
HETATM   13  C   UNL     1      -7.423  12.727  68.403  1.00  0.00    -0.124 C  
BRANCH  13  14
HETATM   14  C   UNL     1      -7.203  11.588  67.410  1.00  0.00    -0.119 C  
BRANCH  14  15
HETATM   15  C   UNL     1      -7.408  10.214  68.041  1.00  0.00    -0.086 C  
BRANCH  15  16
HETATM   16  C   UNL     1      -8.205  10.334  69.341  1.00  0.00    -0.171 C  
HETATM   17  C   UNL     1      -7.475   9.679  70.503  1.00  0.00    -0.147 C  
ENDBRANCH  15  16
ENDBRANCH  14  15
ENDBRANCH  13  14
ENDBRANCH  12  13
ENDBRANCH  11  12
ENDBRANCH   9  11
ENDBRANCH   8   9
ENDBRANCH   7   8
ENDBRANCH   5   7
ENDBRANCH   2   5
TORSDOF 10
ENDMDL
MODEL      183
REMARK 921   NORMALIZED FREE ENERGY PREDICTED BY IDOCK:   -3.27 KCAL/MOL
REMARK 922        TOTAL FREE ENERGY PREDICTED BY IDOCK:   -5.67 KCAL/MOL
REMARK 923 INTER-LIGAND FREE ENERGY PREDICTED BY IDOCK:   -5.12 KCAL/MOL
REMARK 924 INTRA-LIGAND FREE ENERGY PREDICTED BY IDOCK:   -0.55 KCAL/MOL
REMARK 927      BINDING AFFINITY PREDICTED BY RF-SCORE:    0.00 PKD
ROOT
HETATM    1  N   UNL     1     -10.980   5.904  70.381  1.00  0.00    -0.314 NA 
HETATM    2  C   UNL     1     -11.601   7.163  70.794  1.00  0.00    -0.318 C  
HETATM    3  H1  UNL     1     -11.367   5.126  70.915  1.00  0.00     0.000 HD 
HETATM    4  H2  UNL     1      -9.963   5.944  70.447  1.00  0.00     0.000 HD 
ENDROOT
BRANCH   2   5
HETATM    5  C   UNL     1     -11.021   8.333  69.993  1.00  0.00    -0.197 C  
HETATM    6  O   UNL     1     -10.613   8.197  68.840  1.00  0.00    -0.212 OA 
BRANCH   5   7
HETATM    7  C   UNL     1     -11.059   9.676  70.689  1.00  0.00    -0.384 C  
BRANCH   7   8
HETATM    8  C   UNL     1     -12.299  10.485  70.332  1.00  0.00    -0.409 C  
BRANCH   8   9
HETATM    9  C   UNL     1     -12.079  11.471  69.208  1.00  0.00    -0.278 C  
HETATM   10  O   UNL     1     -12.153  11.189  68.022  1.00  0.00    -0.635 OA 
BRANCH   9  11
HETATM   11  O   UNL     1     -11.612  12.655  69.696  1.00  0.00    -0.285 OA 
BRANCH  11  12
HETATM   12  C   UNL     1     -11.838  13.775  68.840  1.00  0.00    -0.360 C  
BRANCH  12  13
HETATM   13  C   UNL     1     -10.536  14.423  68.401  1.00  0.00    -0.248 C  
BRANCH  13  14
HETATM   14  C   UNL     1     -10.055  13.753  67.116  1.00  0.00    -0.241 C  
BRANCH  14  15
HETATM   15  C   UNL     1     -10.309  14.608  65.879  1.00  0.00    -0.334 C  
BRANCH  15  16
HETATM   16  C   UNL     1     -10.993  13.783  64.788  1.00  0.00    -0.396 C  
HETATM   17  C   UNL     1     -12.426  13.444  65.163  1.00  0.00    -0.509 C  
ENDBRANCH  15  16
ENDBRANCH  14  15
ENDBRANCH  13  14
ENDBRANCH  12  13
ENDBRANCH  11  12
ENDBRANCH   9  11
ENDBRANCH   8   9
ENDBRANCH   7   8
ENDBRANCH   5   7
ENDBRANCH   2   5
TORSDOF 10
ENDMDL
MODEL      184
REMARK 921   NORMALIZED FREE ENERGY PREDICTED BY IDOCK:   -3.27 KCAL/MOL
REMARK 922        TOTAL FREE ENERGY PREDICTED BY IDOCK:   -5.66 KCAL/MOL
REMARK 923 INTER-LIGAND FREE ENERGY PREDICTED BY IDOCK:   -5.28 KCAL/MOL
REMARK 924 INTRA-LIGAND FREE ENERGY PREDICTED BY IDOCK:   -0.38 KCAL/MOL
REMARK 927      BINDING AFFINITY PREDICTED BY RF-SCORE:    0.00 PKD
ROOT
HETATM    1  N   UNL     1     -10.727   5.949  66.556  1.00  0.00    -0.554 NA 
HETATM    2  C   UNL     1     -11.068   6.810  67.689  1.00  0.00    -0.230 C  
HETATM    3  H1  UNL     1     -10.794   6.470  65.681  1.00  0.00     0.000 HD 
HETATM    4  H2  UNL     1     -11.294   5.102  66.539  1.00  0.00     0.000 HD 
ENDROOT
BRANCH   2   5
HETATM    5  C   UNL     1     -10.967   6.028  69.002  1.00  0.00    -0.339 C  
HETATM    6  O   UNL     1     -10.336   4.975  69.090  1.00  0.00    -0.193 OA 
BRANCH   5   7
HETATM    7  C   UNL     1     -11.628   6.681  70.197  1.00  0.00    -0.446 C  
BRANCH   7   8
HETATM    8  C   UNL     1     -10.677   6.843  71.375  1.00  0.00    -0.247 C  
BRANCH   8   9
HETATM    9  C   UNL     1     -10.353   8.282  71.704  1.00  0.00    -0.224 C  
HETATM   10  O   UNL     1      -9.352   8.640  72.303  1.00  0.00    -0.276 OA 
BRANCH   9  11
HETATM   11  O   UNL     1     -11.410   9.089  71.405  1.00  0.00    -0.272 OA 
BRANCH  11  12
HETATM   12  C   UNL     1     -11.059  10.282  70.703  1.00  0.00    -0.280 C  
BRANCH  12  13
HETATM   13  C   UNL     1     -12.200  11.285  70.688  1.00  0.00    -0.489 C  
BRANCH  13  14
HETATM   14  C   UNL     1     -11.808  12.473  69.811  1.00  0.00    -0.380 C  
BRANCH  14  15
HETATM   15  C   UNL     1     -11.963  13.808  70.532  1.00  0.00    -0.367 C  
BRANCH  15  16
HETATM   16  C   UNL     1     -13.094  13.735  71.559  1.00  0.00    -0.435 C  
HETATM   17  C   UNL     1     -14.080  14.879  71.383  1.00  0.00    -0.552 C  
ENDBRANCH  15  16
ENDBRANCH  14  15
ENDBRANCH  13  14
ENDBRANCH  12  13
ENDBRANCH  11  12
ENDBRANCH   9  11
ENDBRANCH   8   9
ENDBRANCH   7   8
ENDBRANCH   5   7
ENDBRANCH   2   5
TORSDOF 10
ENDMDL
MODEL      185
REMARK 921   NORMALIZED FREE ENERGY PREDICTED BY IDOCK:   -3.27 KCAL/MOL
REMARK 922        TOTAL FREE ENERGY PREDICTED BY IDOCK:   -5.66 KCAL/MOL
REMARK 923 INTER-LIGAND FREE ENERGY PREDICTED BY IDOCK:   -5.15 KCAL/MOL
REMARK 924 INTRA-LIGAND FREE ENERGY PREDICTED BY IDOCK:   -0.51 KCAL/MOL
REMARK 927      BINDING AFFINITY PREDICTED BY RF-SCORE:    0.00 PKD
ROOT
HETATM    1  N   UNL     1     -12.147  12.141  66.796  1.00  0.00    -0.565 NA 
HETATM    2  C   UNL     1     -10.689  12.025  66.831  1.00  0.00    -0.244 C  
HETATM    3  H1  UNL     1     -12.464  12.837  67.471  1.00  0.00     0.000 HD 
HETATM    4  H2  UNL     1     -12.603  11.240  66.936  1.00  0.00     0.000 HD 
ENDROOT
BRANCH   2   5
HETATM    5  C   UNL     1     -10.212  10.981  65.817  1.00  0.00    -0.260 C  
HETATM    6  O   UNL     1     -10.701  10.891  64.692  1.00  0.00    -0.308 OA 
BRANCH   5   7
HETATM    7  C   UNL     1      -9.049  10.124  66.268  1.00  0.00    -0.180 C  
BRANCH   7   8
HETATM    8  C   UNL     1      -9.325   8.634  66.112  1.00  0.00    -0.291 C  
BRANCH   8   9
HETATM    9  C   UNL     1     -10.039   8.021  67.294  1.00  0.00    -0.240 C  
HETATM   10  O   UNL     1     -10.919   7.179  67.203  1.00  0.00    -0.342 OA 
BRANCH   9  11
HETATM   11  O   UNL     1      -9.697   8.664  68.445  1.00  0.00    -0.156 OA 
BRANCH  11  12
HETATM   12  C   UNL     1     -10.558   8.391  69.551  1.00  0.00    -0.213 C  
BRANCH  12  13
HETATM   13  C   UNL     1     -10.499   9.489  70.599  1.00  0.00    -0.374 C  
BRANCH  13  14
HETATM   14  C   UNL     1     -11.471   9.153  71.728  1.00  0.00    -0.452 C  
BRANCH  14  15
HETATM   15  C   UNL     1     -12.816   9.856  71.571  1.00  0.00    -0.522 C  
BRANCH  15  16
HETATM   16  C   UNL     1     -12.618  11.285  71.064  1.00  0.00    -0.495 C  
HETATM   17  C   UNL     1     -13.278  12.298  71.986  1.00  0.00    -0.508 C  
ENDBRANCH  15  16
ENDBRANCH  14  15
ENDBRANCH  13  14
ENDBRANCH  12  13
ENDBRANCH  11  12
ENDBRANCH   9  11
ENDBRANCH   8   9
ENDBRANCH   7   8
ENDBRANCH   5   7
ENDBRANCH   2   5
TORSDOF 10
ENDMDL
MODEL      186
REMARK 921   NORMALIZED FREE ENERGY PREDICTED BY IDOCK:   -3.25 KCAL/MOL
REMARK 922        TOTAL FREE ENERGY PREDICTED BY IDOCK:   -5.64 KCAL/MOL
REMARK 923 INTER-LIGAND FREE ENERGY PREDICTED BY IDOCK:   -5.22 KCAL/MOL
REMARK 924 INTRA-LIGAND FREE ENERGY PREDICTED BY IDOCK:   -0.42 KCAL/MOL
REMARK 927      BINDING AFFINITY PREDICTED BY RF-SCORE:    0.00 PKD
ROOT
HETATM    1  N   UNL     1     -10.340  13.242  64.001  1.00  0.00    -0.690 NA 
HETATM    2  C   UNL     1     -10.896  14.331  64.804  1.00  0.00    -0.405 C  
HETATM    3  H1  UNL     1      -9.566  13.581  63.429  1.00  0.00     0.000 HD 
HETATM    4  H2  UNL     1     -11.055  12.781  63.438  1.00  0.00     0.000 HD 
ENDROOT
BRANCH   2   5
HETATM    5  C   UNL     1     -12.058  13.822  65.662  1.00  0.00    -0.418 C  
HETATM    6  O   UNL     1     -13.232  13.955  65.319  1.00  0.00    -0.774 OA 
BRANCH   5   7
HETATM    7  C   UNL     1     -11.658  13.078  66.917  1.00  0.00    -0.419 C  
BRANCH   7   8
HETATM    8  C   UNL     1     -12.109  13.788  68.187  1.00  0.00    -0.316 C  
BRANCH   8   9
HETATM    9  C   UNL     1     -11.357  15.068  68.467  1.00  0.00    -0.303 C  
HETATM   10  O   UNL     1     -11.890  16.156  68.625  1.00  0.00    -0.321 OA 
BRANCH   9  11
HETATM   11  O   UNL     1     -10.015  14.873  68.336  1.00  0.00    -0.212 OA 
BRANCH  11  12
HETATM   12  C   UNL     1      -9.212  15.754  69.123  1.00  0.00    -0.256 C  
BRANCH  12  13
HETATM   13  C   UNL     1      -7.731  15.439  68.990  1.00  0.00    -0.186 C  
BRANCH  13  14
HETATM   14  C   UNL     1      -6.924  16.685  69.348  1.00  0.00    -0.194 C  
BRANCH  14  15
HETATM   15  C   UNL     1      -6.307  17.355  68.124  1.00  0.00    -0.167 C  
BRANCH  15  16
HETATM   16  C   UNL     1      -6.801  16.685  66.841  1.00  0.00    -0.253 C  
HETATM   17  C   UNL     1      -7.784  17.571  66.094  1.00  0.00    -0.304 C  
ENDBRANCH  15  16
ENDBRANCH  14  15
ENDBRANCH  13  14
ENDBRANCH  12  13
ENDBRANCH  11  12
ENDBRANCH   9  11
ENDBRANCH   8   9
ENDBRANCH   7   8
ENDBRANCH   5   7
ENDBRANCH   2   5
TORSDOF 10
ENDMDL
MODEL      187
REMARK 921   NORMALIZED FREE ENERGY PREDICTED BY IDOCK:   -3.25 KCAL/MOL
REMARK 922        TOTAL FREE ENERGY PREDICTED BY IDOCK:   -5.64 KCAL/MOL
REMARK 923 INTER-LIGAND FREE ENERGY PREDICTED BY IDOCK:   -4.82 KCAL/MOL
REMARK 924 INTRA-LIGAND FREE ENERGY PREDICTED BY IDOCK:   -0.82 KCAL/MOL
REMARK 927      BINDING AFFINITY PREDICTED BY RF-SCORE:    0.00 PKD
ROOT
HETATM    1  N   UNL     1      -8.916   6.581  65.417  1.00  0.00    -0.368 NA 
HETATM    2  C   UNL     1      -8.995   7.857  66.129  1.00  0.00    -0.175 C  
HETATM    3  H1  UNL     1      -8.051   6.527  64.878  1.00  0.00     0.000 HD 
HETATM    4  H2  UNL     1      -9.738   6.419  64.835  1.00  0.00     0.000 HD 
ENDROOT
BRANCH   2   5
HETATM    5  C   UNL     1     -10.292   7.938  66.938  1.00  0.00    -0.330 C  
HETATM    6  O   UNL     1     -10.778   9.012  67.289  1.00  0.00    -0.269 OA 
BRANCH   5   7
HETATM    7  C   UNL     1     -10.973   6.613  67.206  1.00  0.00    -0.456 C  
BRANCH   7   8
HETATM    8  C   UNL     1     -11.107   6.314  68.693  1.00  0.00    -0.409 C  
BRANCH   8   9
HETATM    9  C   UNL     1      -9.785   6.262  69.425  1.00  0.00    -0.141 C  
HETATM   10  O   UNL     1      -8.826   5.600  69.061  1.00  0.00    -0.106 OA 
BRANCH   9  11
HETATM   11  O   UNL     1      -9.879   6.900  70.625  1.00  0.00    -0.182 OA 
BRANCH  11  12
HETATM   12  C   UNL     1     -10.411   6.096  71.679  1.00  0.00    -0.222 C  
BRANCH  12  13
HETATM   13  C   UNL     1     -11.666   6.709  72.279  1.00  0.00    -0.305 C  
BRANCH  13  14
HETATM   14  C   UNL     1     -11.531   8.230  72.268  1.00  0.00    -0.452 C  
BRANCH  14  15
HETATM   15  C   UNL     1     -12.883   8.937  72.241  1.00  0.00    -0.475 C  
BRANCH  15  16
HETATM   16  C   UNL     1     -12.856  10.108  71.258  1.00  0.00    -0.508 C  
HETATM   17  C   UNL     1     -11.517  10.204  70.545  1.00  0.00    -0.417 C  
ENDBRANCH  15  16
ENDBRANCH  14  15
ENDBRANCH  13  14
ENDBRANCH  12  13
ENDBRANCH  11  12
ENDBRANCH   9  11
ENDBRANCH   8   9
ENDBRANCH   7   8
ENDBRANCH   5   7
ENDBRANCH   2   5
TORSDOF 10
ENDMDL
MODEL      188
REMARK 921   NORMALIZED FREE ENERGY PREDICTED BY IDOCK:   -3.25 KCAL/MOL
REMARK 922        TOTAL FREE ENERGY PREDICTED BY IDOCK:   -5.63 KCAL/MOL
REMARK 923 INTER-LIGAND FREE ENERGY PREDICTED BY IDOCK:   -5.20 KCAL/MOL
REMARK 924 INTRA-LIGAND FREE ENERGY PREDICTED BY IDOCK:   -0.43 KCAL/MOL
REMARK 927      BINDING AFFINITY PREDICTED BY RF-SCORE:    0.00 PKD
ROOT
HETATM    1  N   UNL     1      -9.351   5.422  68.855  1.00  0.00    -0.123 NA 
HETATM    2  C   UNL     1     -10.539   6.190  69.230  1.00  0.00    -0.285 C  
HETATM    3  H1  UNL     1      -9.324   5.278  67.846  1.00  0.00     0.000 HD 
HETATM    4  H2  UNL     1      -9.291   4.542  69.367  1.00  0.00     0.000 HD 
ENDROOT
BRANCH   2   5
HETATM    5  C   UNL     1     -10.579   6.406  70.745  1.00  0.00    -0.238 C  
HETATM    6  O   UNL     1     -11.032   5.559  71.515  1.00  0.00    -0.230 OA 
BRANCH   5   7
HETATM    7  C   UNL     1      -9.954   7.694  71.233  1.00  0.00    -0.195 C  
BRANCH   7   8
HETATM    8  C   UNL     1     -10.631   8.235  72.486  1.00  0.00    -0.407 C  
BRANCH   8   9
HETATM    9  C   UNL     1     -11.928   8.960  72.212  1.00  0.00    -0.310 C  
HETATM   10  O   UNL     1     -13.035   8.483  72.409  1.00  0.00    -0.351 OA 
BRANCH   9  11
HETATM   11  O   UNL     1     -11.692  10.129  71.553  1.00  0.00    -0.343 OA 
BRANCH  11  12
HETATM   12  C   UNL     1     -12.828  10.658  70.868  1.00  0.00    -0.382 C  
BRANCH  12  13
HETATM   13  C   UNL     1     -12.480  11.912  70.082  1.00  0.00    -0.151 C  
BRANCH  13  14
HETATM   14  C   UNL     1     -12.303  13.076  71.054  1.00  0.00    -0.335 C  
BRANCH  14  15
HETATM   15  C   UNL     1     -13.476  13.217  72.019  1.00  0.00    -0.596 C  
BRANCH  15  16
HETATM   16  C   UNL     1     -14.205  14.541  71.785  1.00  0.00    -0.592 C  
HETATM   17  C   UNL     1     -13.695  15.629  72.717  1.00  0.00    -0.662 C  
ENDBRANCH  15  16
ENDBRANCH  14  15
ENDBRANCH  13  14
ENDBRANCH  12  13
ENDBRANCH  11  12
ENDBRANCH   9  11
ENDBRANCH   8   9
ENDBRANCH   7   8
ENDBRANCH   5   7
ENDBRANCH   2   5
TORSDOF 10
ENDMDL
MODEL      189
REMARK 921   NORMALIZED FREE ENERGY PREDICTED BY IDOCK:   -3.25 KCAL/MOL
REMARK 922        TOTAL FREE ENERGY PREDICTED BY IDOCK:   -5.63 KCAL/MOL
REMARK 923 INTER-LIGAND FREE ENERGY PREDICTED BY IDOCK:   -5.30 KCAL/MOL
REMARK 924 INTRA-LIGAND FREE ENERGY PREDICTED BY IDOCK:   -0.33 KCAL/MOL
REMARK 927      BINDING AFFINITY PREDICTED BY RF-SCORE:    0.00 PKD
ROOT
HETATM    1  N   UNL     1     -12.959   8.252  72.392  1.00  0.00    -0.561 NA 
HETATM    2  C   UNL     1     -12.939   7.117  71.469  1.00  0.00    -0.383 C  
HETATM    3  H1  UNL     1     -13.917   8.461  72.678  1.00  0.00     0.000 HD 
HETATM    4  H2  UNL     1     -12.493   9.069  71.999  1.00  0.00     0.000 HD 
ENDROOT
BRANCH   2   5
HETATM    5  C   UNL     1     -11.503   6.804  71.040  1.00  0.00    -0.324 C  
HETATM    6  O   UNL     1     -10.571   6.776  71.844  1.00  0.00    -0.207 OA 
BRANCH   5   7
HETATM    7  C   UNL     1     -11.325   6.453  69.578  1.00  0.00    -0.460 C  
BRANCH   7   8
HETATM    8  C   UNL     1     -10.598   7.543  68.801  1.00  0.00    -0.179 C  
BRANCH   8   9
HETATM    9  C   UNL     1     -10.645   7.354  67.302  1.00  0.00    -0.323 C  
HETATM   10  O   UNL     1     -10.879   6.290  66.751  1.00  0.00    -0.326 OA 
BRANCH   9  11
HETATM   11  O   UNL     1     -10.212   8.479  66.666  1.00  0.00    -0.288 OA 
BRANCH  11  12
HETATM   12  C   UNL     1     -10.491   9.694  67.364  1.00  0.00    -0.257 C  
BRANCH  12  13
HETATM   13  C   UNL     1     -10.390  10.905  66.452  1.00  0.00    -0.306 C  
BRANCH  13  14
HETATM   14  C   UNL     1     -11.495  11.895  66.814  1.00  0.00    -0.384 C  
BRANCH  14  15
HETATM   15  C   UNL     1     -11.141  13.331  66.437  1.00  0.00    -0.313 C  
BRANCH  15  16
HETATM   16  C   UNL     1     -12.355  14.043  65.840  1.00  0.00    -0.515 C  
HETATM   17  C   UNL     1     -12.189  14.266  64.345  1.00  0.00    -0.471 C  
ENDBRANCH  15  16
ENDBRANCH  14  15
ENDBRANCH  13  14
ENDBRANCH  12  13
ENDBRANCH  11  12
ENDBRANCH   9  11
ENDBRANCH   8   9
ENDBRANCH   7   8
ENDBRANCH   5   7
ENDBRANCH   2   5
TORSDOF 10
ENDMDL
MODEL      190
REMARK 921   NORMALIZED FREE ENERGY PREDICTED BY IDOCK:   -3.23 KCAL/MOL
REMARK 922        TOTAL FREE ENERGY PREDICTED BY IDOCK:   -5.60 KCAL/MOL
REMARK 923 INTER-LIGAND FREE ENERGY PREDICTED BY IDOCK:   -5.04 KCAL/MOL
REMARK 924 INTRA-LIGAND FREE ENERGY PREDICTED BY IDOCK:   -0.56 KCAL/MOL
REMARK 927      BINDING AFFINITY PREDICTED BY RF-SCORE:    0.00 PKD
ROOT
HETATM    1  N   UNL     1      -9.664   7.839  66.148  1.00  0.00    -0.449 NA 
HETATM    2  C   UNL     1     -10.656   7.815  67.223  1.00  0.00    -0.306 C  
HETATM    3  H1  UNL     1      -9.538   8.791  65.802  1.00  0.00     0.000 HD 
HETATM    4  H2  UNL     1      -9.901   7.190  65.398  1.00  0.00     0.000 HD 
ENDROOT
BRANCH   2   5
HETATM    5  C   UNL     1     -10.845   6.387  67.743  1.00  0.00    -0.334 C  
HETATM    6  O   UNL     1     -10.698   5.402  67.019  1.00  0.00    -0.252 OA 
BRANCH   5   7
HETATM    7  C   UNL     1     -11.146   6.270  69.222  1.00  0.00    -0.461 C  
BRANCH   7   8
HETATM    8  C   UNL     1     -10.503   7.383  70.038  1.00  0.00    -0.233 C  
BRANCH   8   9
HETATM    9  C   UNL     1     -11.487   8.175  70.868  1.00  0.00    -0.271 C  
HETATM   10  O   UNL     1     -12.567   7.747  71.246  1.00  0.00    -0.311 OA 
BRANCH   9  11
HETATM   11  O   UNL     1     -11.086   9.473  70.974  1.00  0.00    -0.303 OA 
BRANCH  11  12
HETATM   12  C   UNL     1     -11.777  10.375  70.109  1.00  0.00    -0.312 C  
BRANCH  12  13
HETATM   13  C   UNL     1     -10.817  11.189  69.258  1.00  0.00    -0.277 C  
BRANCH  13  14
HETATM   14  C   UNL     1     -11.612  11.959  68.206  1.00  0.00    -0.390 C  
BRANCH  14  15
HETATM   15  C   UNL     1     -11.319  11.483  66.787  1.00  0.00    -0.309 C  
BRANCH  15  16
HETATM   16  C   UNL     1     -11.194  12.675  65.837  1.00  0.00    -0.350 C  
HETATM   17  C   UNL     1     -12.106  13.817  66.256  1.00  0.00    -0.484 C  
ENDBRANCH  15  16
ENDBRANCH  14  15
ENDBRANCH  13  14
ENDBRANCH  12  13
ENDBRANCH  11  12
ENDBRANCH   9  11
ENDBRANCH   8   9
ENDBRANCH   7   8
ENDBRANCH   5   7
ENDBRANCH   2   5
TORSDOF 10
ENDMDL
MODEL      191
REMARK 921   NORMALIZED FREE ENERGY PREDICTED BY IDOCK:   -3.23 KCAL/MOL
REMARK 922        TOTAL FREE ENERGY PREDICTED BY IDOCK:   -5.60 KCAL/MOL
REMARK 923 INTER-LIGAND FREE ENERGY PREDICTED BY IDOCK:   -5.24 KCAL/MOL
REMARK 924 INTRA-LIGAND FREE ENERGY PREDICTED BY IDOCK:   -0.36 KCAL/MOL
REMARK 927      BINDING AFFINITY PREDICTED BY RF-SCORE:    0.00 PKD
ROOT
HETATM    1  N   UNL     1     -10.781   7.266  73.939  1.00  0.00    -0.556 NA 
HETATM    2  C   UNL     1     -10.949   6.377  72.789  1.00  0.00    -0.257 C  
HETATM    3  H1  UNL     1     -11.001   6.773  74.804  1.00  0.00     0.000 HD 
HETATM    4  H2  UNL     1     -11.325   8.123  73.840  1.00  0.00     0.000 HD 
ENDROOT
BRANCH   2   5
HETATM    5  C   UNL     1     -10.618   7.117  71.489  1.00  0.00    -0.207 C  
HETATM    6  O   UNL     1      -9.499   7.076  70.980  1.00  0.00    -0.160 OA 
BRANCH   5   7
HETATM    7  C   UNL     1     -11.781   7.834  70.838  1.00  0.00    -0.281 C  
BRANCH   7   8
HETATM    8  C   UNL     1     -11.748   9.338  71.075  1.00  0.00    -0.378 C  
BRANCH   8   9
HETATM    9  C   UNL     1     -11.083  10.115  69.963  1.00  0.00    -0.308 C  
HETATM   10  O   UNL     1      -9.874  10.213  69.822  1.00  0.00    -0.232 OA 
BRANCH   9  11
HETATM   11  O   UNL     1     -12.007  10.830  69.262  1.00  0.00    -0.308 OA 
BRANCH  11  12
HETATM   12  C   UNL     1     -11.452  11.831  68.407  1.00  0.00    -0.294 C  
BRANCH  12  13
HETATM   13  C   UNL     1     -11.275  11.324  66.985  1.00  0.00    -0.324 C  
BRANCH  13  14
HETATM   14  C   UNL     1     -11.750  12.399  66.010  1.00  0.00    -0.469 C  
BRANCH  14  15
HETATM   15  C   UNL     1     -10.682  12.775  64.988  1.00  0.00    -0.321 C  
BRANCH  15  16
HETATM   16  C   UNL     1     -11.134  12.397  63.577  1.00  0.00    -0.521 C  
HETATM   17  C   UNL     1     -12.594  11.971  63.557  1.00  0.00    -0.625 C  
ENDBRANCH  15  16
ENDBRANCH  14  15
ENDBRANCH  13  14
ENDBRANCH  12  13
ENDBRANCH  11  12
ENDBRANCH   9  11
ENDBRANCH   8   9
ENDBRANCH   7   8
ENDBRANCH   5   7
ENDBRANCH   2   5
TORSDOF 10
ENDMDL
MODEL      192
REMARK 921   NORMALIZED FREE ENERGY PREDICTED BY IDOCK:   -3.22 KCAL/MOL
REMARK 922        TOTAL FREE ENERGY PREDICTED BY IDOCK:   -5.59 KCAL/MOL
REMARK 923 INTER-LIGAND FREE ENERGY PREDICTED BY IDOCK:   -4.90 KCAL/MOL
REMARK 924 INTRA-LIGAND FREE ENERGY PREDICTED BY IDOCK:   -0.70 KCAL/MOL
REMARK 927      BINDING AFFINITY PREDICTED BY RF-SCORE:    0.00 PKD
ROOT
HETATM    1  N   UNL     1     -11.489   6.577  66.837  1.00  0.00    -0.780 NA 
HETATM    2  C   UNL     1     -10.747   5.890  67.895  1.00  0.00    -0.255 C  
HETATM    3  H1  UNL     1     -12.068   5.914  66.321  1.00  0.00     0.000 HD 
HETATM    4  H2  UNL     1     -10.871   7.104  66.221  1.00  0.00     0.000 HD 
ENDROOT
BRANCH   2   5
HETATM    5  C   UNL     1      -9.879   6.885  68.671  1.00  0.00    -0.145 C  
HETATM    6  O   UNL     1      -8.925   7.464  68.152  1.00  0.00    -0.130 OA 
BRANCH   5   7
HETATM    7  C   UNL     1     -10.324   7.164  70.090  1.00  0.00    -0.218 C  
BRANCH   7   8
HETATM    8  C   UNL     1     -11.730   6.651  70.373  1.00  0.00    -0.446 C  
BRANCH   8   9
HETATM    9  C   UNL     1     -12.487   7.478  71.386  1.00  0.00    -0.352 C  
HETATM   10  O   UNL     1     -13.547   7.143  71.892  1.00  0.00    -0.303 OA 
BRANCH   9  11
HETATM   11  O   UNL     1     -11.923   8.712  71.512  1.00  0.00    -0.278 OA 
BRANCH  11  12
HETATM   12  C   UNL     1     -12.834   9.797  71.330  1.00  0.00    -0.377 C  
BRANCH  12  13
HETATM   13  C   UNL     1     -12.131  11.046  70.823  1.00  0.00    -0.467 C  
BRANCH  13  14
HETATM   14  C   UNL     1     -12.263  11.109  69.303  1.00  0.00    -0.295 C  
BRANCH  14  15
HETATM   15  C   UNL     1     -11.085  10.456  68.586  1.00  0.00    -0.313 C  
BRANCH  15  16
HETATM   16  C   UNL     1     -10.476  11.421  67.568  1.00  0.00    -0.233 C  
HETATM   17  C   UNL     1     -10.269  10.748  66.220  1.00  0.00    -0.301 C  
ENDBRANCH  15  16
ENDBRANCH  14  15
ENDBRANCH  13  14
ENDBRANCH  12  13
ENDBRANCH  11  12
ENDBRANCH   9  11
ENDBRANCH   8   9
ENDBRANCH   7   8
ENDBRANCH   5   7
ENDBRANCH   2   5
TORSDOF 10
ENDMDL
MODEL      193
REMARK 921   NORMALIZED FREE ENERGY PREDICTED BY IDOCK:   -3.22 KCAL/MOL
REMARK 922        TOTAL FREE ENERGY PREDICTED BY IDOCK:   -5.59 KCAL/MOL
REMARK 923 INTER-LIGAND FREE ENERGY PREDICTED BY IDOCK:   -4.89 KCAL/MOL
REMARK 924 INTRA-LIGAND FREE ENERGY PREDICTED BY IDOCK:   -0.70 KCAL/MOL
REMARK 927      BINDING AFFINITY PREDICTED BY RF-SCORE:    0.00 PKD
ROOT
HETATM    1  N   UNL     1     -12.216  12.502  66.445  1.00  0.00    -0.555 NA 
HETATM    2  C   UNL     1     -11.443  13.302  65.494  1.00  0.00    -0.311 C  
HETATM    3  H1  UNL     1     -12.677  13.106  67.125  1.00  0.00     0.000 HD 
HETATM    4  H2  UNL     1     -11.641  11.790  66.896  1.00  0.00     0.000 HD 
ENDROOT
BRANCH   2   5
HETATM    5  C   UNL     1     -10.750  12.396  64.473  1.00  0.00    -0.321 C  
HETATM    6  O   UNL     1     -11.074  12.381  63.286  1.00  0.00    -0.438 OA 
BRANCH   5   7
HETATM    7  C   UNL     1      -9.592  11.583  65.009  1.00  0.00    -0.222 C  
BRANCH   7   8
HETATM    8  C   UNL     1      -9.854  10.083  64.951  1.00  0.00    -0.352 C  
BRANCH   8   9
HETATM    9  C   UNL     1     -10.183   9.470  66.292  1.00  0.00    -0.220 C  
HETATM   10  O   UNL     1     -10.650  10.091  67.234  1.00  0.00    -0.244 OA 
BRANCH   9  11
HETATM   11  O   UNL     1      -9.719   8.190  66.358  1.00  0.00    -0.227 OA 
BRANCH  11  12
HETATM   12  C   UNL     1      -9.872   7.575  67.638  1.00  0.00    -0.161 C  
BRANCH  12  13
HETATM   13  C   UNL     1     -10.935   6.489  67.620  1.00  0.00    -0.426 C  
BRANCH  13  14
HETATM   14  C   UNL     1     -11.159   5.987  69.044  1.00  0.00    -0.377 C  
BRANCH  14  15
HETATM   15  C   UNL     1     -10.736   7.006  70.097  1.00  0.00    -0.265 C  
BRANCH  15  16
HETATM   16  C   UNL     1     -11.926   7.397  70.974  1.00  0.00    -0.337 C  
HETATM   17  C   UNL     1     -11.480   8.168  72.206  1.00  0.00    -0.435 C  
ENDBRANCH  15  16
ENDBRANCH  14  15
ENDBRANCH  13  14
ENDBRANCH  12  13
ENDBRANCH  11  12
ENDBRANCH   9  11
ENDBRANCH   8   9
ENDBRANCH   7   8
ENDBRANCH   5   7
ENDBRANCH   2   5
TORSDOF 10
ENDMDL
MODEL      194
REMARK 921   NORMALIZED FREE ENERGY PREDICTED BY IDOCK:   -3.22 KCAL/MOL
REMARK 922        TOTAL FREE ENERGY PREDICTED BY IDOCK:   -5.58 KCAL/MOL
REMARK 923 INTER-LIGAND FREE ENERGY PREDICTED BY IDOCK:   -4.99 KCAL/MOL
REMARK 924 INTRA-LIGAND FREE ENERGY PREDICTED BY IDOCK:   -0.60 KCAL/MOL
REMARK 927      BINDING AFFINITY PREDICTED BY RF-SCORE:    0.00 PKD
ROOT
HETATM    1  N   UNL     1     -13.761  15.979  73.426  1.00  0.00    -0.807 NA 
HETATM    2  C   UNL     1     -13.719  15.344  72.109  1.00  0.00    -0.515 C  
HETATM    3  H1  UNL     1     -14.615  15.718  73.920  1.00  0.00     0.000 HD 
HETATM    4  H2  UNL     1     -13.653  16.992  73.363  1.00  0.00     0.000 HD 
ENDROOT
BRANCH   2   5
HETATM    5  C   UNL     1     -12.438  15.735  71.368  1.00  0.00    -0.455 C  
HETATM    6  O   UNL     1     -11.675  16.603  71.793  1.00  0.00    -0.350 OA 
BRANCH   5   7
HETATM    7  C   UNL     1     -12.137  14.929  70.123  1.00  0.00    -0.379 C  
BRANCH   7   8
HETATM    8  C   UNL     1     -11.778  15.806  68.931  1.00  0.00    -0.404 C  
BRANCH   8   9
HETATM    9  C   UNL     1     -10.307  15.792  68.586  1.00  0.00    -0.225 C  
HETATM   10  O   UNL     1      -9.437  16.313  69.268  1.00  0.00    -0.242 OA 
BRANCH   9  11
HETATM   11  O   UNL     1     -10.114  15.286  67.336  1.00  0.00    -0.230 OA 
BRANCH  11  12
HETATM   12  C   UNL     1     -11.252  14.616  66.791  1.00  0.00    -0.344 C  
BRANCH  12  13
HETATM   13  C   UNL     1     -10.946  13.166  66.453  1.00  0.00    -0.305 C  
BRANCH  13  14
HETATM   14  C   UNL     1      -9.448  13.021  66.193  1.00  0.00    -0.159 C  
BRANCH  14  15
HETATM   15  C   UNL     1      -8.782  12.032  67.145  1.00  0.00    -0.183 C  
BRANCH  15  16
HETATM   16  C   UNL     1      -9.814  11.433  68.103  1.00  0.00    -0.195 C  
HETATM   17  C   UNL     1      -9.191  10.373  68.997  1.00  0.00    -0.194 C  
ENDBRANCH  15  16
ENDBRANCH  14  15
ENDBRANCH  13  14
ENDBRANCH  12  13
ENDBRANCH  11  12
ENDBRANCH   9  11
ENDBRANCH   8   9
ENDBRANCH   7   8
ENDBRANCH   5   7
ENDBRANCH   2   5
TORSDOF 10
ENDMDL
MODEL      195
REMARK 921   NORMALIZED FREE ENERGY PREDICTED BY IDOCK:   -3.21 KCAL/MOL
REMARK 922        TOTAL FREE ENERGY PREDICTED BY IDOCK:   -5.57 KCAL/MOL
REMARK 923 INTER-LIGAND FREE ENERGY PREDICTED BY IDOCK:   -4.87 KCAL/MOL
REMARK 924 INTRA-LIGAND FREE ENERGY PREDICTED BY IDOCK:   -0.70 KCAL/MOL
REMARK 927      BINDING AFFINITY PREDICTED BY RF-SCORE:    0.00 PKD
ROOT
HETATM    1  N   UNL     1     -10.096   8.413  66.318  1.00  0.00    -0.455 NA 
HETATM    2  C   UNL     1      -9.832   9.585  65.483  1.00  0.00    -0.234 C  
HETATM    3  H1  UNL     1      -9.775   7.565  65.851  1.00  0.00     0.000 HD 
HETATM    4  H2  UNL     1     -11.078   8.351  66.586  1.00  0.00     0.000 HD 
ENDROOT
BRANCH   2   5
HETATM    5  C   UNL     1     -10.313  10.859  66.184  1.00  0.00    -0.248 C  
HETATM    6  O   UNL     1     -11.330  10.880  66.878  1.00  0.00    -0.329 OA 
BRANCH   5   7
HETATM    7  C   UNL     1      -9.412  12.064  66.029  1.00  0.00    -0.229 C  
BRANCH   7   8
HETATM    8  C   UNL     1      -9.917  13.276  66.800  1.00  0.00    -0.263 C  
BRANCH   8   9
HETATM    9  C   UNL     1     -10.507  14.355  65.920  1.00  0.00    -0.308 C  
HETATM   10  O   UNL     1     -10.418  14.371  64.702  1.00  0.00    -0.412 OA 
BRANCH   9  11
HETATM   11  O   UNL     1     -10.981  15.383  66.678  1.00  0.00    -0.313 OA 
BRANCH  11  12
HETATM   12  C   UNL     1      -9.996  16.012  67.499  1.00  0.00    -0.240 C  
BRANCH  12  13
HETATM   13  C   UNL     1     -10.609  16.635  68.742  1.00  0.00    -0.340 C  
BRANCH  13  14
HETATM   14  C   UNL     1     -11.918  15.918  69.065  1.00  0.00    -0.243 C  
BRANCH  14  15
HETATM   15  C   UNL     1     -12.075  15.631  70.555  1.00  0.00    -0.430 C  
BRANCH  15  16
HETATM   16  C   UNL     1     -12.604  14.212  70.774  1.00  0.00    -0.432 C  
HETATM   17  C   UNL     1     -12.034  13.243  69.750  1.00  0.00    -0.391 C  
ENDBRANCH  15  16
ENDBRANCH  14  15
ENDBRANCH  13  14
ENDBRANCH  12  13
ENDBRANCH  11  12
ENDBRANCH   9  11
ENDBRANCH   8   9
ENDBRANCH   7   8
ENDBRANCH   5   7
ENDBRANCH   2   5
TORSDOF 10
ENDMDL
MODEL      196
REMARK 921   NORMALIZED FREE ENERGY PREDICTED BY IDOCK:   -3.21 KCAL/MOL
REMARK 922        TOTAL FREE ENERGY PREDICTED BY IDOCK:   -5.57 KCAL/MOL
REMARK 923 INTER-LIGAND FREE ENERGY PREDICTED BY IDOCK:   -4.74 KCAL/MOL
REMARK 924 INTRA-LIGAND FREE ENERGY PREDICTED BY IDOCK:   -0.83 KCAL/MOL
REMARK 927      BINDING AFFINITY PREDICTED BY RF-SCORE:    0.00 PKD
ROOT
HETATM    1  N   UNL     1     -11.113   5.364  66.119  1.00  0.00    -0.784 NA 
HETATM    2  C   UNL     1     -11.036   6.522  67.010  1.00  0.00    -0.396 C  
HETATM    3  H1  UNL     1     -11.904   4.772  66.374  1.00  0.00     0.000 HD 
HETATM    4  H2  UNL     1     -10.237   4.841  66.100  1.00  0.00     0.000 HD 
ENDROOT
BRANCH   2   5
HETATM    5  C   UNL     1      -9.848   7.410  66.629  1.00  0.00    -0.193 C  
HETATM    6  O   UNL     1      -8.932   7.006  65.914  1.00  0.00    -0.143 OA 
BRANCH   5   7
HETATM    7  C   UNL     1      -9.920   8.837  67.127  1.00  0.00    -0.295 C  
BRANCH   7   8
HETATM    8  C   UNL     1     -10.636   8.953  68.466  1.00  0.00    -0.183 C  
BRANCH   8   9
HETATM    9  C   UNL     1     -10.069  10.025  69.368  1.00  0.00    -0.219 C  
HETATM   10  O   UNL     1      -8.877  10.186  69.578  1.00  0.00    -0.185 OA 
BRANCH   9  11
HETATM   11  O   UNL     1     -11.069  10.656  70.047  1.00  0.00    -0.281 OA 
BRANCH  11  12
HETATM   12  C   UNL     1     -12.029  11.304  69.212  1.00  0.00    -0.342 C  
BRANCH  12  13
HETATM   13  C   UNL     1     -11.754  12.792  69.083  1.00  0.00    -0.375 C  
BRANCH  13  14
HETATM   14  C   UNL     1     -11.935  13.209  67.625  1.00  0.00    -0.363 C  
BRANCH  14  15
HETATM   15  C   UNL     1     -11.573  12.094  66.649  1.00  0.00    -0.416 C  
BRANCH  15  16
HETATM   16  C   UNL     1     -10.223  12.377  65.988  1.00  0.00    -0.267 C  
HETATM   17  C   UNL     1      -9.771  13.807  66.239  1.00  0.00    -0.297 C  
ENDBRANCH  15  16
ENDBRANCH  14  15
ENDBRANCH  13  14
ENDBRANCH  12  13
ENDBRANCH  11  12
ENDBRANCH   9  11
ENDBRANCH   8   9
ENDBRANCH   7   8
ENDBRANCH   5   7
ENDBRANCH   2   5
TORSDOF 10
ENDMDL
MODEL      197
REMARK 921   NORMALIZED FREE ENERGY PREDICTED BY IDOCK:   -3.20 KCAL/MOL
REMARK 922        TOTAL FREE ENERGY PREDICTED BY IDOCK:   -5.55 KCAL/MOL
REMARK 923 INTER-LIGAND FREE ENERGY PREDICTED BY IDOCK:   -5.01 KCAL/MOL
REMARK 924 INTRA-LIGAND FREE ENERGY PREDICTED BY IDOCK:   -0.54 KCAL/MOL
REMARK 927      BINDING AFFINITY PREDICTED BY RF-SCORE:    0.00 PKD
ROOT
HETATM    1  N   UNL     1     -13.030  13.940  65.141  1.00  0.00    -0.773 NA 
HETATM    2  C   UNL     1     -12.391  12.715  64.660  1.00  0.00    -0.476 C  
HETATM    3  H1  UNL     1     -13.627  14.339  64.416  1.00  0.00     0.000 HD 
HETATM    4  H2  UNL     1     -12.347  14.614  65.486  1.00  0.00     0.000 HD 
ENDROOT
BRANCH   2   5
HETATM    5  C   UNL     1     -11.496  12.116  65.749  1.00  0.00    -0.361 C  
HETATM    6  O   UNL     1     -11.909  11.896  66.887  1.00  0.00    -0.590 OA 
BRANCH   5   7
HETATM    7  C   UNL     1     -10.098  11.743  65.305  1.00  0.00    -0.300 C  
BRANCH   7   8
HETATM    8  C   UNL     1      -9.985  10.280  64.898  1.00  0.00    -0.393 C  
BRANCH   8   9
HETATM    9  C   UNL     1      -8.968   9.502  65.700  1.00  0.00    -0.183 C  
HETATM   10  O   UNL     1      -7.950   9.017  65.231  1.00  0.00    -0.105 OA 
BRANCH   9  11
HETATM   11  O   UNL     1      -9.433   9.263  66.958  1.00  0.00    -0.148 OA 
BRANCH  11  12
HETATM   12  C   UNL     1     -10.643   8.505  67.004  1.00  0.00    -0.235 C  
BRANCH  12  13
HETATM   13  C   UNL     1     -10.372   7.012  67.069  1.00  0.00    -0.360 C  
BRANCH  13  14
HETATM   14  C   UNL     1     -10.976   6.451  68.355  1.00  0.00    -0.390 C  
BRANCH  14  15
HETATM   15  C   UNL     1      -9.920   6.155  69.416  1.00  0.00    -0.205 C  
BRANCH  15  16
HETATM   16  C   UNL     1      -9.887   4.659  69.736  1.00  0.00    -0.296 C  
HETATM   17  C   UNL     1      -9.100   3.885  68.691  1.00  0.00    -0.193 C  
ENDBRANCH  15  16
ENDBRANCH  14  15
ENDBRANCH  13  14
ENDBRANCH  12  13
ENDBRANCH  11  12
ENDBRANCH   9  11
ENDBRANCH   8   9
ENDBRANCH   7   8
ENDBRANCH   5   7
ENDBRANCH   2   5
TORSDOF 10
ENDMDL
MODEL      198
REMARK 921   NORMALIZED FREE ENERGY PREDICTED BY IDOCK:   -3.18 KCAL/MOL
REMARK 922        TOTAL FREE ENERGY PREDICTED BY IDOCK:   -5.53 KCAL/MOL
REMARK 923 INTER-LIGAND FREE ENERGY PREDICTED BY IDOCK:   -4.87 KCAL/MOL
REMARK 924 INTRA-LIGAND FREE ENERGY PREDICTED BY IDOCK:   -0.66 KCAL/MOL
REMARK 927      BINDING AFFINITY PREDICTED BY RF-SCORE:    0.00 PKD
ROOT
HETATM    1  N   UNL     1      -6.534   9.396  71.819  1.00  0.00    -0.297 NA 
HETATM    2  C   UNL     1      -7.325   8.181  71.620  1.00  0.00    -0.083 C  
HETATM    3  H1  UNL     1      -5.540   9.195  71.709  1.00  0.00     0.000 HD 
HETATM    4  H2  UNL     1      -6.736   9.837  72.715  1.00  0.00     0.000 HD 
ENDROOT
BRANCH   2   5
HETATM    5  C   UNL     1      -8.817   8.482  71.785  1.00  0.00    -0.211 C  
HETATM    6  O   UNL     1      -9.358   9.435  71.225  1.00  0.00    -0.246 OA 
BRANCH   5   7
HETATM    7  C   UNL     1      -9.592   7.483  72.617  1.00  0.00    -0.220 C  
BRANCH   7   8
HETATM    8  C   UNL     1     -11.068   7.840  72.735  1.00  0.00    -0.457 C  
BRANCH   8   9
HETATM    9  C   UNL     1     -11.944   7.147  71.717  1.00  0.00    -0.313 C  
HETATM   10  O   UNL     1     -11.569   6.236  70.995  1.00  0.00    -0.324 OA 
BRANCH   9  11
HETATM   11  O   UNL     1     -13.135   7.797  71.592  1.00  0.00    -0.334 OA 
BRANCH  11  12
HETATM   12  C   UNL     1     -13.136   9.129  72.108  1.00  0.00    -0.446 C  
BRANCH  12  13
HETATM   13  C   UNL     1     -13.450  10.153  71.030  1.00  0.00    -0.220 C  
BRANCH  13  14
HETATM   14  C   UNL     1     -12.301  11.154  70.943  1.00  0.00    -0.500 C  
BRANCH  14  15
HETATM   15  C   UNL     1     -11.999  11.575  69.509  1.00  0.00    -0.402 C  
BRANCH  15  16
HETATM   16  C   UNL     1     -11.750  13.082  69.433  1.00  0.00    -0.386 C  
HETATM   17  C   UNL     1     -12.422  13.815  70.584  1.00  0.00    -0.429 C  
ENDBRANCH  15  16
ENDBRANCH  14  15
ENDBRANCH  13  14
ENDBRANCH  12  13
ENDBRANCH  11  12
ENDBRANCH   9  11
ENDBRANCH   8   9
ENDBRANCH   7   8
ENDBRANCH   5   7
ENDBRANCH   2   5
TORSDOF 10
ENDMDL
MODEL      199
REMARK 921   NORMALIZED FREE ENERGY PREDICTED BY IDOCK:   -3.18 KCAL/MOL
REMARK 922        TOTAL FREE ENERGY PREDICTED BY IDOCK:   -5.52 KCAL/MOL
REMARK 923 INTER-LIGAND FREE ENERGY PREDICTED BY IDOCK:   -5.07 KCAL/MOL
REMARK 924 INTRA-LIGAND FREE ENERGY PREDICTED BY IDOCK:   -0.46 KCAL/MOL
REMARK 927      BINDING AFFINITY PREDICTED BY RF-SCORE:    0.00 PKD
ROOT
HETATM    1  N   UNL     1     -11.407   6.213  70.332  1.00  0.00    -0.357 NA 
HETATM    2  C   UNL     1     -11.315   7.664  70.497  1.00  0.00    -0.250 C  
HETATM    3  H1  UNL     1     -10.607   5.864  69.804  1.00  0.00     0.000 HD 
HETATM    4  H2  UNL     1     -12.292   5.934  69.910  1.00  0.00     0.000 HD 
ENDROOT
BRANCH   2   5
HETATM    5  C   UNL     1     -12.516   8.188  71.290  1.00  0.00    -0.252 C  
HETATM    6  O   UNL     1     -13.237   7.444  71.954  1.00  0.00    -0.311 OA 
BRANCH   5   7
HETATM    7  C   UNL     1     -12.704   9.689  71.263  1.00  0.00    -0.443 C  
BRANCH   7   8
HETATM    8  C   UNL     1     -11.501  10.419  70.680  1.00  0.00    -0.438 C  
BRANCH   8   9
HETATM    9  C   UNL     1     -11.870  11.570  69.772  1.00  0.00    -0.357 C  
HETATM   10  O   UNL     1     -12.076  12.710  70.159  1.00  0.00    -0.341 OA 
BRANCH   9  11
HETATM   11  O   UNL     1     -12.116  11.122  68.509  1.00  0.00    -0.586 OA 
BRANCH  11  12
HETATM   12  C   UNL     1     -11.039  11.325  67.592  1.00  0.00    -0.277 C  
BRANCH  12  13
HETATM   13  C   UNL     1     -10.023  10.197  67.655  1.00  0.00    -0.216 C  
BRANCH  13  14
HETATM   14  C   UNL     1     -10.350   9.172  66.571  1.00  0.00    -0.269 C  
BRANCH  14  15
HETATM   15  C   UNL     1      -9.776   7.792  66.879  1.00  0.00    -0.282 C  
BRANCH  15  16
HETATM   16  C   UNL     1     -10.879   6.733  66.844  1.00  0.00    -0.402 C  
HETATM   17  C   UNL     1     -10.317   5.338  67.065  1.00  0.00    -0.286 C  
ENDBRANCH  15  16
ENDBRANCH  14  15
ENDBRANCH  13  14
ENDBRANCH  12  13
ENDBRANCH  11  12
ENDBRANCH   9  11
ENDBRANCH   8   9
ENDBRANCH   7   8
ENDBRANCH   5   7
ENDBRANCH   2   5
TORSDOF 10
ENDMDL
MODEL      200
REMARK 921   NORMALIZED FREE ENERGY PREDICTED BY IDOCK:   -3.18 KCAL/MOL
REMARK 922        TOTAL FREE ENERGY PREDICTED BY IDOCK:   -5.52 KCAL/MOL
REMARK 923 INTER-LIGAND FREE ENERGY PREDICTED BY IDOCK:   -4.83 KCAL/MOL
REMARK 924 INTRA-LIGAND FREE ENERGY PREDICTED BY IDOCK:   -0.69 KCAL/MOL
REMARK 927      BINDING AFFINITY PREDICTED BY RF-SCORE:    0.00 PKD
ROOT
HETATM    1  N   UNL     1     -10.243   4.305  71.623  1.00  0.00    -0.138 NA 
HETATM    2  C   UNL     1     -10.370   4.698  73.027  1.00  0.00    -0.181 C  
HETATM    3  H1  UNL     1     -10.326   3.292  71.529  1.00  0.00     0.000 HD 
HETATM    4  H2  UNL     1      -9.380   4.656  71.207  1.00  0.00     0.000 HD 
ENDROOT
BRANCH   2   5
HETATM    5  C   UNL     1     -10.245   6.218  73.169  1.00  0.00    -0.202 C  
HETATM    6  O   UNL     1     -10.588   6.809  74.192  1.00  0.00    -0.312 OA 
BRANCH   5   7
HETATM    7  C   UNL     1      -9.600   6.927  71.998  1.00  0.00    -0.150 C  
BRANCH   7   8
HETATM    8  C   UNL     1     -10.446   8.079  71.474  1.00  0.00    -0.265 C  
BRANCH   8   9
HETATM    9  C   UNL     1     -11.818   7.659  70.998  1.00  0.00    -0.285 C  
HETATM   10  O   UNL     1     -12.035   6.668  70.318  1.00  0.00    -0.387 OA 
BRANCH   9  11
HETATM   11  O   UNL     1     -12.736   8.627  71.275  1.00  0.00    -0.297 OA 
BRANCH  11  12
HETATM   12  C   UNL     1     -12.171   9.884  71.650  1.00  0.00    -0.395 C  
BRANCH  12  13
HETATM   13  C   UNL     1     -12.464  10.965  70.624  1.00  0.00    -0.460 C  
BRANCH  13  14
HETATM   14  C   UNL     1     -12.713  12.286  71.348  1.00  0.00    -0.351 C  
BRANCH  14  15
HETATM   15  C   UNL     1     -12.292  13.496  70.520  1.00  0.00    -0.412 C  
BRANCH  15  16
HETATM   16  C   UNL     1     -12.867  14.781  71.118  1.00  0.00    -0.406 C  
HETATM   17  C   UNL     1     -13.537  14.519  72.458  1.00  0.00    -0.586 C  
ENDBRANCH  15  16
ENDBRANCH  14  15
ENDBRANCH  13  14
ENDBRANCH  12  13
ENDBRANCH  11  12
ENDBRANCH   9  11
ENDBRANCH   8   9
ENDBRANCH   7   8
ENDBRANCH   5   7
ENDBRANCH   2   5
TORSDOF 10
ENDMDL
MODEL      201
REMARK 921   NORMALIZED FREE ENERGY PREDICTED BY IDOCK:   -3.17 KCAL/MOL
REMARK 922        TOTAL FREE ENERGY PREDICTED BY IDOCK:   -5.51 KCAL/MOL
REMARK 923 INTER-LIGAND FREE ENERGY PREDICTED BY IDOCK:   -4.66 KCAL/MOL
REMARK 924 INTRA-LIGAND FREE ENERGY PREDICTED BY IDOCK:   -0.85 KCAL/MOL
REMARK 927      BINDING AFFINITY PREDICTED BY RF-SCORE:    0.00 PKD
ROOT
HETATM    1  N   UNL     1      -8.452  18.396  68.084  1.00  0.00    -0.277 NA 
HETATM    2  C   UNL     1      -8.954  18.655  66.735  1.00  0.00    -0.297 C  
HETATM    3  H1  UNL     1      -7.569  18.884  68.235  1.00  0.00     0.000 HD 
HETATM    4  H2  UNL     1      -8.372  17.397  68.273  1.00  0.00     0.000 HD 
ENDROOT
BRANCH   2   5
HETATM    5  C   UNL     1     -10.280  17.923  66.508  1.00  0.00    -0.379 C  
HETATM    6  O   UNL     1     -10.813  17.864  65.401  1.00  0.00    -0.548 OA 
BRANCH   5   7
HETATM    7  C   UNL     1     -10.843  17.213  67.720  1.00  0.00    -0.270 C  
BRANCH   7   8
HETATM    8  C   UNL     1     -10.932  15.705  67.525  1.00  0.00    -0.309 C  
BRANCH   8   9
HETATM    9  C   UNL     1      -9.604  15.051  67.223  1.00  0.00    -0.207 C  
HETATM   10  O   UNL     1      -8.639  15.079  67.972  1.00  0.00    -0.151 OA 
BRANCH   9  11
HETATM   11  O   UNL     1      -9.577  14.593  65.940  1.00  0.00    -0.308 OA 
BRANCH  11  12
HETATM   12  C   UNL     1     -10.830  14.099  65.466  1.00  0.00    -0.310 C  
BRANCH  12  13
HETATM   13  C   UNL     1     -10.811  12.590  65.285  1.00  0.00    -0.321 C  
BRANCH  13  14
HETATM   14  C   UNL     1     -10.638  12.268  63.803  1.00  0.00    -0.488 C  
BRANCH  14  15
HETATM   15  C   UNL     1      -9.871  10.969  63.572  1.00  0.00    -0.403 C  
BRANCH  15  16
HETATM   16  C   UNL     1      -9.136  10.548  64.846  1.00  0.00    -0.235 C  
HETATM   17  C   UNL     1      -9.255   9.051  65.086  1.00  0.00    -0.159 C  
ENDBRANCH  15  16
ENDBRANCH  14  15
ENDBRANCH  13  14
ENDBRANCH  12  13
ENDBRANCH  11  12
ENDBRANCH   9  11
ENDBRANCH   8   9
ENDBRANCH   7   8
ENDBRANCH   5   7
ENDBRANCH   2   5
TORSDOF 10
ENDMDL
MODEL      202
REMARK 921   NORMALIZED FREE ENERGY PREDICTED BY IDOCK:   -3.17 KCAL/MOL
REMARK 922        TOTAL FREE ENERGY PREDICTED BY IDOCK:   -5.51 KCAL/MOL
REMARK 923 INTER-LIGAND FREE ENERGY PREDICTED BY IDOCK:   -4.88 KCAL/MOL
REMARK 924 INTRA-LIGAND FREE ENERGY PREDICTED BY IDOCK:   -0.63 KCAL/MOL
REMARK 927      BINDING AFFINITY PREDICTED BY RF-SCORE:    0.00 PKD
ROOT
HETATM    1  N   UNL     1     -10.500   4.870  72.005  1.00  0.00    -0.199 NA 
HETATM    2  C   UNL     1     -11.512   5.759  72.579  1.00  0.00    -0.296 C  
HETATM    3  H1  UNL     1     -10.284   4.113  72.653  1.00  0.00     0.000 HD 
HETATM    4  H2  UNL     1      -9.664   5.381  71.723  1.00  0.00     0.000 HD 
ENDROOT
BRANCH   2   5
HETATM    5  C   UNL     1     -11.837   6.896  71.606  1.00  0.00    -0.324 C  
HETATM    6  O   UNL     1     -12.274   6.685  70.475  1.00  0.00    -0.364 OA 
BRANCH   5   7
HETATM    7  C   UNL     1     -11.660   8.293  72.161  1.00  0.00    -0.428 C  
BRANCH   7   8
HETATM    8  C   UNL     1     -12.933   9.124  72.069  1.00  0.00    -0.496 C  
BRANCH   8   9
HETATM    9  C   UNL     1     -12.689  10.573  71.717  1.00  0.00    -0.402 C  
HETATM   10  O   UNL     1     -13.406  11.496  72.072  1.00  0.00    -0.476 OA 
BRANCH   9  11
HETATM   11  O   UNL     1     -11.678  10.681  70.809  1.00  0.00    -0.328 OA 
BRANCH  11  12
HETATM   12  C   UNL     1     -12.049  11.323  69.589  1.00  0.00    -0.322 C  
BRANCH  12  13
HETATM   13  C   UNL     1     -11.445  10.630  68.379  1.00  0.00    -0.330 C  
BRANCH  13  14
HETATM   14  C   UNL     1     -10.309   9.721  68.841  1.00  0.00    -0.225 C  
BRANCH  14  15
HETATM   15  C   UNL     1      -9.304   9.431  67.730  1.00  0.00    -0.144 C  
BRANCH  15  16
HETATM   16  C   UNL     1      -9.990   8.738  66.553  1.00  0.00    -0.360 C  
HETATM   17  C   UNL     1      -9.523   7.299  66.405  1.00  0.00    -0.185 C  
ENDBRANCH  15  16
ENDBRANCH  14  15
ENDBRANCH  13  14
ENDBRANCH  12  13
ENDBRANCH  11  12
ENDBRANCH   9  11
ENDBRANCH   8   9
ENDBRANCH   7   8
ENDBRANCH   5   7
ENDBRANCH   2   5
TORSDOF 10
ENDMDL
MODEL      203
REMARK 921   NORMALIZED FREE ENERGY PREDICTED BY IDOCK:   -3.17 KCAL/MOL
REMARK 922        TOTAL FREE ENERGY PREDICTED BY IDOCK:   -5.51 KCAL/MOL
REMARK 923 INTER-LIGAND FREE ENERGY PREDICTED BY IDOCK:   -4.64 KCAL/MOL
REMARK 924 INTRA-LIGAND FREE ENERGY PREDICTED BY IDOCK:   -0.87 KCAL/MOL
REMARK 927      BINDING AFFINITY PREDICTED BY RF-SCORE:    0.00 PKD
ROOT
HETATM    1  N   UNL     1     -11.158   9.362  67.609  1.00  0.00    -0.459 NA 
HETATM    2  C   UNL     1     -10.024  10.208  67.236  1.00  0.00    -0.195 C  
HETATM    3  H1  UNL     1     -10.942   8.380  67.432  1.00  0.00     0.000 HD 
HETATM    4  H2  UNL     1     -12.018   9.653  67.145  1.00  0.00     0.000 HD 
ENDROOT
BRANCH   2   5
HETATM    5  C   UNL     1     -10.347  11.681  67.502  1.00  0.00    -0.197 C  
HETATM    6  O   UNL     1      -9.613  12.591  67.119  1.00  0.00    -0.199 OA 
BRANCH   5   7
HETATM    7  C   UNL     1     -11.666  11.940  68.197  1.00  0.00    -0.388 C  
BRANCH   7   8
HETATM    8  C   UNL     1     -11.494  12.267  69.674  1.00  0.00    -0.285 C  
BRANCH   8   9
HETATM    9  C   UNL     1     -11.995  11.182  70.600  1.00  0.00    -0.360 C  
HETATM   10  O   UNL     1     -12.916  11.325  71.389  1.00  0.00    -0.407 OA 
BRANCH   9  11
HETATM   11  O   UNL     1     -11.166  10.101  70.560  1.00  0.00    -0.294 OA 
BRANCH  11  12
HETATM   12  C   UNL     1     -11.642   8.968  71.287  1.00  0.00    -0.317 C  
BRANCH  12  13
HETATM   13  C   UNL     1     -10.502   8.160  71.885  1.00  0.00    -0.312 C  
BRANCH  13  14
HETATM   14  C   UNL     1     -10.636   6.705  71.442  1.00  0.00    -0.255 C  
BRANCH  14  15
HETATM   15  C   UNL     1     -11.525   6.547  70.213  1.00  0.00    -0.474 C  
BRANCH  15  16
HETATM   16  C   UNL     1     -10.778   5.807  69.102  1.00  0.00    -0.370 C  
HETATM   17  C   UNL     1      -9.338   6.281  68.991  1.00  0.00    -0.127 C  
ENDBRANCH  15  16
ENDBRANCH  14  15
ENDBRANCH  13  14
ENDBRANCH  12  13
ENDBRANCH  11  12
ENDBRANCH   9  11
ENDBRANCH   8   9
ENDBRANCH   7   8
ENDBRANCH   5   7
ENDBRANCH   2   5
TORSDOF 10
ENDMDL
MODEL      204
REMARK 921   NORMALIZED FREE ENERGY PREDICTED BY IDOCK:   -3.17 KCAL/MOL
REMARK 922        TOTAL FREE ENERGY PREDICTED BY IDOCK:   -5.51 KCAL/MOL
REMARK 923 INTER-LIGAND FREE ENERGY PREDICTED BY IDOCK:   -5.03 KCAL/MOL
REMARK 924 INTRA-LIGAND FREE ENERGY PREDICTED BY IDOCK:   -0.48 KCAL/MOL
REMARK 927      BINDING AFFINITY PREDICTED BY RF-SCORE:    0.00 PKD
ROOT
HETATM    1  N   UNL     1     -11.399   4.453  64.907  1.00  0.00    -1.085 NA 
HETATM    2  C   UNL     1      -9.965   4.530  65.187  1.00  0.00    -0.131 C  
HETATM    3  H1  UNL     1     -11.558   4.103  63.962  1.00  0.00     0.000 HD 
HETATM    4  H2  UNL     1     -11.865   5.346  65.066  1.00  0.00     0.000 HD 
ENDROOT
BRANCH   2   5
HETATM    5  C   UNL     1      -9.725   5.055  66.605  1.00  0.00    -0.177 C  
HETATM    6  O   UNL     1      -8.698   4.798  67.233  1.00  0.00    -0.105 OA 
BRANCH   5   7
HETATM    7  C   UNL     1     -10.799   5.974  67.146  1.00  0.00    -0.414 C  
BRANCH   7   8
HETATM    8  C   UNL     1     -10.408   7.444  67.061  1.00  0.00    -0.384 C  
BRANCH   8   9
HETATM    9  C   UNL     1      -9.530   7.907  68.200  1.00  0.00    -0.147 C  
HETATM   10  O   UNL     1      -8.455   8.467  68.054  1.00  0.00    -0.129 OA 
BRANCH   9  11
HETATM   11  O   UNL     1     -10.014   7.453  69.391  1.00  0.00    -0.170 OA 
BRANCH  11  12
HETATM   12  C   UNL     1      -9.930   8.398  70.459  1.00  0.00    -0.185 C  
BRANCH  12  13
HETATM   13  C   UNL     1     -10.852   9.585  70.237  1.00  0.00    -0.319 C  
BRANCH  13  14
HETATM   14  C   UNL     1     -11.751   9.753  71.460  1.00  0.00    -0.450 C  
BRANCH  14  15
HETATM   15  C   UNL     1     -13.026  10.529  71.146  1.00  0.00    -0.506 C  
BRANCH  15  16
HETATM   16  C   UNL     1     -12.966  11.929  71.760  1.00  0.00    -0.455 C  
HETATM   17  C   UNL     1     -12.477  12.957  70.752  1.00  0.00    -0.370 C  
ENDBRANCH  15  16
ENDBRANCH  14  15
ENDBRANCH  13  14
ENDBRANCH  12  13
ENDBRANCH  11  12
ENDBRANCH   9  11
ENDBRANCH   8   9
ENDBRANCH   7   8
ENDBRANCH   5   7
ENDBRANCH   2   5
TORSDOF 10
ENDMDL
MODEL      205
REMARK 921   NORMALIZED FREE ENERGY PREDICTED BY IDOCK:   -3.17 KCAL/MOL
REMARK 922        TOTAL FREE ENERGY PREDICTED BY IDOCK:   -5.50 KCAL/MOL
REMARK 923 INTER-LIGAND FREE ENERGY PREDICTED BY IDOCK:   -4.64 KCAL/MOL
REMARK 924 INTRA-LIGAND FREE ENERGY PREDICTED BY IDOCK:   -0.86 KCAL/MOL
REMARK 927      BINDING AFFINITY PREDICTED BY RF-SCORE:    0.00 PKD
ROOT
HETATM    1  N   UNL     1      -7.010  19.512  67.176  1.00  0.00    -0.198 NA 
HETATM    2  C   UNL     1      -7.657  19.387  68.482  1.00  0.00    -0.334 C  
HETATM    3  H1  UNL     1      -6.001  19.392  67.266  1.00  0.00     0.000 HD 
HETATM    4  H2  UNL     1      -7.249  20.391  66.717  1.00  0.00     0.000 HD 
ENDROOT
BRANCH   2   5
HETATM    5  C   UNL     1      -9.172  19.567  68.347  1.00  0.00    -0.353 C  
HETATM    6  O   UNL     1      -9.928  19.497  69.316  1.00  0.00    -0.427 OA 
BRANCH   5   7
HETATM    7  C   UNL     1      -9.662  19.914  66.958  1.00  0.00    -0.529 C  
BRANCH   7   8
HETATM    8  C   UNL     1     -10.500  18.802  66.339  1.00  0.00    -0.485 C  
BRANCH   8   9
HETATM    9  C   UNL     1      -9.781  17.476  66.250  1.00  0.00    -0.258 C  
HETATM   10  O   UNL     1      -8.665  17.331  65.777  1.00  0.00    -0.531 OA 
BRANCH   9  11
HETATM   11  O   UNL     1     -10.616  16.457  66.597  1.00  0.00    -0.302 OA 
BRANCH  11  12
HETATM   12  C   UNL     1     -10.929  16.401  67.990  1.00  0.00    -0.327 C  
BRANCH  12  13
HETATM   13  C   UNL     1     -10.068  15.386  68.723  1.00  0.00    -0.213 C  
BRANCH  13  14
HETATM   14  C   UNL     1      -9.783  14.210  67.793  1.00  0.00    -0.223 C  
BRANCH  14  15
HETATM   15  C   UNL     1      -8.640  13.332  68.293  1.00  0.00    -0.169 C  
BRANCH  15  16
HETATM   16  C   UNL     1      -7.293  14.017  68.051  1.00  0.00    -0.142 C  
HETATM   17  C   UNL     1      -6.188  13.000  67.814  1.00  0.00    -0.149 C  
ENDBRANCH  15  16
ENDBRANCH  14  15
ENDBRANCH  13  14
ENDBRANCH  12  13
ENDBRANCH  11  12
ENDBRANCH   9  11
ENDBRANCH   8   9
ENDBRANCH   7   8
ENDBRANCH   5   7
ENDBRANCH   2   5
TORSDOF 10
ENDMDL
MODEL      206
REMARK 921   NORMALIZED FREE ENERGY PREDICTED BY IDOCK:   -3.16 KCAL/MOL
REMARK 922        TOTAL FREE ENERGY PREDICTED BY IDOCK:   -5.50 KCAL/MOL
REMARK 923 INTER-LIGAND FREE ENERGY PREDICTED BY IDOCK:   -5.17 KCAL/MOL
REMARK 924 INTRA-LIGAND FREE ENERGY PREDICTED BY IDOCK:   -0.32 KCAL/MOL
REMARK 927      BINDING AFFINITY PREDICTED BY RF-SCORE:    0.00 PKD
ROOT
HETATM    1  N   UNL     1      -9.835  19.211  66.142  1.00  0.00    -0.419 NA 
HETATM    2  C   UNL     1     -10.108  18.034  66.967  1.00  0.00    -0.346 C  
HETATM    3  H1  UNL     1     -10.161  20.057  66.610  1.00  0.00     0.000 HD 
HETATM    4  H2  UNL     1     -10.229  19.117  65.206  1.00  0.00     0.000 HD 
ENDROOT
BRANCH   2   5
HETATM    5  C   UNL     1      -9.618  16.764  66.265  1.00  0.00    -0.289 C  
HETATM    6  O   UNL     1      -8.559  16.217  66.568  1.00  0.00    -0.244 OA 
BRANCH   5   7
HETATM    7  C   UNL     1     -10.564  16.189  65.234  1.00  0.00    -0.390 C  
BRANCH   7   8
HETATM    8  C   UNL     1     -10.758  14.686  65.391  1.00  0.00    -0.382 C  
BRANCH   8   9
HETATM    9  C   UNL     1     -12.186  14.233  65.193  1.00  0.00    -0.421 C  
HETATM   10  O   UNL     1     -12.866  14.513  64.218  1.00  0.00    -0.590 OA 
BRANCH   9  11
HETATM   11  O   UNL     1     -12.657  13.634  66.323  1.00  0.00    -0.391 OA 
BRANCH  11  12
HETATM   12  C   UNL     1     -11.670  13.426  67.335  1.00  0.00    -0.373 C  
BRANCH  12  13
HETATM   13  C   UNL     1     -12.102  12.369  68.337  1.00  0.00    -0.114 C  
BRANCH  13  14
HETATM   14  C   UNL     1     -10.863  11.786  69.012  1.00  0.00    -0.239 C  
BRANCH  14  15
HETATM   15  C   UNL     1     -11.209  10.745  70.071  1.00  0.00    -0.366 C  
BRANCH  15  16
HETATM   16  C   UNL     1     -10.217   9.582  70.024  1.00  0.00    -0.281 C  
HETATM   17  C   UNL     1     -10.289   8.737  71.286  1.00  0.00    -0.331 C  
ENDBRANCH  15  16
ENDBRANCH  14  15
ENDBRANCH  13  14
ENDBRANCH  12  13
ENDBRANCH  11  12
ENDBRANCH   9  11
ENDBRANCH   8   9
ENDBRANCH   7   8
ENDBRANCH   5   7
ENDBRANCH   2   5
TORSDOF 10
ENDMDL
MODEL      207
REMARK 921   NORMALIZED FREE ENERGY PREDICTED BY IDOCK:   -3.16 KCAL/MOL
REMARK 922        TOTAL FREE ENERGY PREDICTED BY IDOCK:   -5.49 KCAL/MOL
REMARK 923 INTER-LIGAND FREE ENERGY PREDICTED BY IDOCK:   -5.11 KCAL/MOL
REMARK 924 INTRA-LIGAND FREE ENERGY PREDICTED BY IDOCK:   -0.39 KCAL/MOL
REMARK 927      BINDING AFFINITY PREDICTED BY RF-SCORE:    0.00 PKD
ROOT
HETATM    1  N   UNL     1     -12.934  14.223  70.645  1.00  0.00    -0.355 NA 
HETATM    2  C   UNL     1     -11.744  13.887  69.863  1.00  0.00    -0.291 C  
HETATM    3  H1  UNL     1     -12.950  15.221  70.857  1.00  0.00     0.000 HD 
HETATM    4  H2  UNL     1     -13.008  13.654  71.488  1.00  0.00     0.000 HD 
ENDROOT
BRANCH   2   5
HETATM    5  C   UNL     1     -11.719  12.389  69.545  1.00  0.00    -0.322 C  
HETATM    6  O   UNL     1     -12.354  11.570  70.208  1.00  0.00    -0.304 OA 
BRANCH   5   7
HETATM    7  C   UNL     1     -10.926  12.001  68.317  1.00  0.00    -0.275 C  
BRANCH   7   8
HETATM    8  C   UNL     1     -11.669  12.302  67.022  1.00  0.00    -0.399 C  
BRANCH   8   9
HETATM    9  C   UNL     1     -10.776  12.796  65.908  1.00  0.00    -0.270 C  
HETATM   10  O   UNL     1     -10.225  12.069  65.095  1.00  0.00    -0.262 OA 
BRANCH   9  11
HETATM   11  O   UNL     1     -10.528  14.129  66.051  1.00  0.00    -0.289 OA 
BRANCH  11  12
HETATM   12  C   UNL     1     -10.595  14.874  64.834  1.00  0.00    -0.391 C  
BRANCH  12  13
HETATM   13  C   UNL     1     -10.988  16.321  65.078  1.00  0.00    -0.311 C  
BRANCH  13  14
HETATM   14  C   UNL     1      -9.977  16.958  66.028  1.00  0.00    -0.313 C  
BRANCH  14  15
HETATM   15  C   UNL     1     -10.581  17.284  67.391  1.00  0.00    -0.303 C  
BRANCH  15  16
HETATM   16  C   UNL     1     -10.422  18.772  67.706  1.00  0.00    -0.479 C  
HETATM   17  C   UNL     1     -10.687  19.631  66.479  1.00  0.00    -0.543 C  
ENDBRANCH  15  16
ENDBRANCH  14  15
ENDBRANCH  13  14
ENDBRANCH  12  13
ENDBRANCH  11  12
ENDBRANCH   9  11
ENDBRANCH   8   9
ENDBRANCH   7   8
ENDBRANCH   5   7
ENDBRANCH   2   5
TORSDOF 10
ENDMDL
MODEL      208
REMARK 921   NORMALIZED FREE ENERGY PREDICTED BY IDOCK:   -3.16 KCAL/MOL
REMARK 922        TOTAL FREE ENERGY PREDICTED BY IDOCK:   -5.49 KCAL/MOL
REMARK 923 INTER-LIGAND FREE ENERGY PREDICTED BY IDOCK:   -4.89 KCAL/MOL
REMARK 924 INTRA-LIGAND FREE ENERGY PREDICTED BY IDOCK:   -0.60 KCAL/MOL
REMARK 927      BINDING AFFINITY PREDICTED BY RF-SCORE:    0.00 PKD
ROOT
HETATM    1  N   UNL     1     -12.690  15.958  70.041  1.00  0.00    -0.615 NA 
HETATM    2  C   UNL     1     -11.709  15.399  69.111  1.00  0.00    -0.345 C  
HETATM    3  H1  UNL     1     -13.161  15.211  70.553  1.00  0.00     0.000 HD 
HETATM    4  H2  UNL     1     -13.353  16.573  69.570  1.00  0.00     0.000 HD 
ENDROOT
BRANCH   2   5
HETATM    5  C   UNL     1     -11.002  16.520  68.343  1.00  0.00    -0.348 C  
HETATM    6  O   UNL     1     -10.642  17.562  68.891  1.00  0.00    -0.316 OA 
BRANCH   5   7
HETATM    7  C   UNL     1     -10.709  16.224  66.889  1.00  0.00    -0.217 C  
BRANCH   7   8
HETATM    8  C   UNL     1     -10.048  14.866  66.691  1.00  0.00    -0.264 C  
BRANCH   8   9
HETATM    9  C   UNL     1     -10.735  14.000  65.660  1.00  0.00    -0.303 C  
HETATM   10  O   UNL     1     -10.554  14.092  64.456  1.00  0.00    -0.406 OA 
BRANCH   9  11
HETATM   11  O   UNL     1     -11.706  13.242  66.244  1.00  0.00    -0.335 OA 
BRANCH  11  12
HETATM   12  C   UNL     1     -11.219  12.082  66.921  1.00  0.00    -0.320 C  
BRANCH  12  13
HETATM   13  C   UNL     1     -12.009  11.792  68.186  1.00  0.00    -0.214 C  
BRANCH  13  14
HETATM   14  C   UNL     1     -11.050  11.314  69.273  1.00  0.00    -0.314 C  
BRANCH  14  15
HETATM   15  C   UNL     1     -11.658  10.225  70.152  1.00  0.00    -0.376 C  
BRANCH  15  16
HETATM   16  C   UNL     1     -10.651   9.097  70.381  1.00  0.00    -0.275 C  
HETATM   17  C   UNL     1      -9.255   9.500  69.936  1.00  0.00    -0.242 C  
ENDBRANCH  15  16
ENDBRANCH  14  15
ENDBRANCH  13  14
ENDBRANCH  12  13
ENDBRANCH  11  12
ENDBRANCH   9  11
ENDBRANCH   8   9
ENDBRANCH   7   8
ENDBRANCH   5   7
ENDBRANCH   2   5
TORSDOF 10
ENDMDL
MODEL      209
REMARK 921   NORMALIZED FREE ENERGY PREDICTED BY IDOCK:   -3.15 KCAL/MOL
REMARK 922        TOTAL FREE ENERGY PREDICTED BY IDOCK:   -5.47 KCAL/MOL
REMARK 923 INTER-LIGAND FREE ENERGY PREDICTED BY IDOCK:   -5.02 KCAL/MOL
REMARK 924 INTRA-LIGAND FREE ENERGY PREDICTED BY IDOCK:   -0.45 KCAL/MOL
REMARK 927      BINDING AFFINITY PREDICTED BY RF-SCORE:    0.00 PKD
ROOT
HETATM    1  N   UNL     1     -12.283  13.140  63.059  1.00  0.00    -0.850 NA 
HETATM    2  C   UNL     1     -11.478  13.126  64.281  1.00  0.00    -0.384 C  
HETATM    3  H1  UNL     1     -11.734  12.803  62.268  1.00  0.00     0.000 HD 
HETATM    4  H2  UNL     1     -12.684  14.060  62.880  1.00  0.00     0.000 HD 
ENDROOT
BRANCH   2   5
HETATM    5  C   UNL     1     -12.303  13.631  65.469  1.00  0.00    -0.482 C  
HETATM    6  O   UNL     1     -13.413  14.141  65.325  1.00  0.00    -0.606 OA 
BRANCH   5   7
HETATM    7  C   UNL     1     -11.692  13.387  66.832  1.00  0.00    -0.434 C  
BRANCH   7   8
HETATM    8  C   UNL     1     -10.296  12.784  66.747  1.00  0.00    -0.248 C  
BRANCH   8   9
HETATM    9  C   UNL     1      -9.458  13.013  67.984  1.00  0.00    -0.217 C  
HETATM   10  O   UNL     1      -9.410  14.070  68.594  1.00  0.00    -0.196 OA 
BRANCH   9  11
HETATM   11  O   UNL     1      -8.636  11.949  68.208  1.00  0.00    -0.154 OA 
BRANCH  11  12
HETATM   12  C   UNL     1      -9.263  10.852  68.873  1.00  0.00    -0.160 C  
BRANCH  12  13
HETATM   13  C   UNL     1      -9.015   9.538  68.151  1.00  0.00    -0.123 C  
BRANCH  13  14
HETATM   14  C   UNL     1     -10.324   8.755  68.077  1.00  0.00    -0.273 C  
BRANCH  14  15
HETATM   15  C   UNL     1     -10.179   7.443  67.311  1.00  0.00    -0.330 C  
BRANCH  15  16
HETATM   16  C   UNL     1     -11.114   6.380  67.888  1.00  0.00    -0.370 C  
HETATM   17  C   UNL     1     -10.338   5.292  68.614  1.00  0.00    -0.193 C  
ENDBRANCH  15  16
ENDBRANCH  14  15
ENDBRANCH  13  14
ENDBRANCH  12  13
ENDBRANCH  11  12
ENDBRANCH   9  11
ENDBRANCH   8   9
ENDBRANCH   7   8
ENDBRANCH   5   7
ENDBRANCH   2   5
TORSDOF 10
ENDMDL
MODEL      210
REMARK 921   NORMALIZED FREE ENERGY PREDICTED BY IDOCK:   -3.15 KCAL/MOL
REMARK 922        TOTAL FREE ENERGY PREDICTED BY IDOCK:   -5.47 KCAL/MOL
REMARK 923 INTER-LIGAND FREE ENERGY PREDICTED BY IDOCK:   -5.06 KCAL/MOL
REMARK 924 INTRA-LIGAND FREE ENERGY PREDICTED BY IDOCK:   -0.41 KCAL/MOL
REMARK 927      BINDING AFFINITY PREDICTED BY RF-SCORE:    0.00 PKD
ROOT
HETATM    1  N   UNL     1     -12.422  13.363  62.705  1.00  0.00    -0.714 NA 
HETATM    2  C   UNL     1     -12.153  12.937  64.079  1.00  0.00    -0.455 C  
HETATM    3  H1  UNL     1     -12.315  12.578  62.063  1.00  0.00     0.000 HD 
HETATM    4  H2  UNL     1     -11.844  14.158  62.435  1.00  0.00     0.000 HD 
ENDROOT
BRANCH   2   5
HETATM    5  C   UNL     1     -12.314  14.115  65.045  1.00  0.00    -0.440 C  
HETATM    6  O   UNL     1     -12.355  15.281  64.653  1.00  0.00    -0.240 OA 
BRANCH   5   7
HETATM    7  C   UNL     1     -12.496  13.740  66.499  1.00  0.00    -0.356 C  
BRANCH   7   8
HETATM    8  C   UNL     1     -11.182  13.377  67.178  1.00  0.00    -0.325 C  
BRANCH   8   9
HETATM    9  C   UNL     1     -10.164  14.495  67.170  1.00  0.00    -0.260 C  
HETATM   10  O   UNL     1      -9.168  14.510  66.464  1.00  0.00    -0.265 OA 
BRANCH   9  11
HETATM   11  O   UNL     1     -10.415  15.376  68.178  1.00  0.00    -0.239 OA 
BRANCH  11  12
HETATM   12  C   UNL     1     -10.433  16.745  67.772  1.00  0.00    -0.335 C  
BRANCH  12  13
HETATM   13  C   UNL     1      -9.104  17.432  68.041  1.00  0.00    -0.259 C  
BRANCH  13  14
HETATM   14  C   UNL     1      -9.206  18.896  67.620  1.00  0.00    -0.318 C  
BRANCH  14  15
HETATM   15  C   UNL     1      -8.181  19.780  68.325  1.00  0.00    -0.312 C  
BRANCH  15  16
HETATM   16  C   UNL     1      -6.867  19.024  68.524  1.00  0.00    -0.297 C  
HETATM   17  C   UNL     1      -5.673  19.865  68.105  1.00  0.00    -0.241 C  
ENDBRANCH  15  16
ENDBRANCH  14  15
ENDBRANCH  13  14
ENDBRANCH  12  13
ENDBRANCH  11  12
ENDBRANCH   9  11
ENDBRANCH   8   9
ENDBRANCH   7   8
ENDBRANCH   5   7
ENDBRANCH   2   5
TORSDOF 10
ENDMDL
MODEL      211
REMARK 921   NORMALIZED FREE ENERGY PREDICTED BY IDOCK:   -3.14 KCAL/MOL
REMARK 922        TOTAL FREE ENERGY PREDICTED BY IDOCK:   -5.47 KCAL/MOL
REMARK 923 INTER-LIGAND FREE ENERGY PREDICTED BY IDOCK:   -4.61 KCAL/MOL
REMARK 924 INTRA-LIGAND FREE ENERGY PREDICTED BY IDOCK:   -0.85 KCAL/MOL
REMARK 927      BINDING AFFINITY PREDICTED BY RF-SCORE:    0.00 PKD
ROOT
HETATM    1  N   UNL     1      -8.948   9.174  63.982  1.00  0.00    -0.425 NA 
HETATM    2  C   UNL     1      -9.272  10.328  63.143  1.00  0.00    -0.287 C  
HETATM    3  H1  UNL     1      -8.264   8.577  63.517  1.00  0.00     0.000 HD 
HETATM    4  H2  UNL     1      -9.783   8.657  64.255  1.00  0.00     0.000 HD 
ENDROOT
BRANCH   2   5
HETATM    5  C   UNL     1     -10.298  11.225  63.842  1.00  0.00    -0.381 C  
HETATM    6  O   UNL     1     -10.884  12.132  63.251  1.00  0.00    -0.415 OA 
BRANCH   5   7
HETATM    7  C   UNL     1     -10.596  10.869  65.282  1.00  0.00    -0.259 C  
BRANCH   7   8
HETATM    8  C   UNL     1      -9.935  11.821  66.269  1.00  0.00    -0.246 C  
BRANCH   8   9
HETATM    9  C   UNL     1      -8.771  11.212  67.015  1.00  0.00    -0.148 C  
HETATM   10  O   UNL     1      -7.860  10.597  66.482  1.00  0.00    -0.127 OA 
BRANCH   9  11
HETATM   11  O   UNL     1      -8.975  11.286  68.361  1.00  0.00    -0.156 OA 
BRANCH  11  12
HETATM   12  C   UNL     1      -8.873  10.034  69.040  1.00  0.00    -0.159 C  
BRANCH  12  13
HETATM   13  C   UNL     1     -10.237   9.412  69.288  1.00  0.00    -0.209 C  
BRANCH  13  14
HETATM   14  C   UNL     1     -10.721   9.809  70.681  1.00  0.00    -0.394 C  
BRANCH  14  15
HETATM   15  C   UNL     1     -11.923  10.747  70.637  1.00  0.00    -0.466 C  
BRANCH  15  16
HETATM   16  C   UNL     1     -13.094  10.154  71.422  1.00  0.00    -0.512 C  
HETATM   17  C   UNL     1     -12.771   8.758  71.932  1.00  0.00    -0.427 C  
ENDBRANCH  15  16
ENDBRANCH  14  15
ENDBRANCH  13  14
ENDBRANCH  12  13
ENDBRANCH  11  12
ENDBRANCH   9  11
ENDBRANCH   8   9
ENDBRANCH   7   8
ENDBRANCH   5   7
ENDBRANCH   2   5
TORSDOF 10
ENDMDL
MODEL      212
REMARK 921   NORMALIZED FREE ENERGY PREDICTED BY IDOCK:   -3.13 KCAL/MOL
REMARK 922        TOTAL FREE ENERGY PREDICTED BY IDOCK:   -5.45 KCAL/MOL
REMARK 923 INTER-LIGAND FREE ENERGY PREDICTED BY IDOCK:   -4.80 KCAL/MOL
REMARK 924 INTRA-LIGAND FREE ENERGY PREDICTED BY IDOCK:   -0.65 KCAL/MOL
REMARK 927      BINDING AFFINITY PREDICTED BY RF-SCORE:    0.00 PKD
ROOT
HETATM    1  N   UNL     1     -11.380   4.404  64.713  1.00  0.00    -1.031 NA 
HETATM    2  C   UNL     1     -10.001   4.239  65.171  1.00  0.00    -0.204 C  
HETATM    3  H1  UNL     1     -11.608   3.701  64.010  1.00  0.00     0.000 HD 
HETATM    4  H2  UNL     1     -11.558   5.351  64.377  1.00  0.00     0.000 HD 
ENDROOT
BRANCH   2   5
HETATM    5  C   UNL     1      -9.658   5.293  66.227  1.00  0.00    -0.161 C  
HETATM    6  O   UNL     1      -8.499   5.637  66.455  1.00  0.00    -0.112 OA 
BRANCH   5   7
HETATM    7  C   UNL     1     -10.846   5.936  66.909  1.00  0.00    -0.376 C  
BRANCH   7   8
HETATM    8  C   UNL     1     -10.433   6.930  67.987  1.00  0.00    -0.255 C  
BRANCH   8   9
HETATM    9  C   UNL     1     -10.293   6.315  69.360  1.00  0.00    -0.216 C  
HETATM   10  O   UNL     1     -10.488   5.135  69.607  1.00  0.00    -0.280 OA 
BRANCH   9  11
HETATM   11  O   UNL     1     -10.103   7.284  70.300  1.00  0.00    -0.190 OA 
BRANCH  11  12
HETATM   12  C   UNL     1     -11.293   7.978  70.678  1.00  0.00    -0.252 C  
BRANCH  12  13
HETATM   13  C   UNL     1     -11.929   7.374  71.920  1.00  0.00    -0.337 C  
BRANCH  13  14
HETATM   14  C   UNL     1     -10.991   7.575  73.108  1.00  0.00    -0.420 C  
BRANCH  14  15
HETATM   15  C   UNL     1     -10.468   6.257  73.670  1.00  0.00    -0.299 C  
BRANCH  15  16
HETATM   16  C   UNL     1     -11.248   5.078  73.086  1.00  0.00    -0.408 C  
HETATM   17  C   UNL     1     -10.444   3.790  73.158  1.00  0.00    -0.257 C  
ENDBRANCH  15  16
ENDBRANCH  14  15
ENDBRANCH  13  14
ENDBRANCH  12  13
ENDBRANCH  11  12
ENDBRANCH   9  11
ENDBRANCH   8   9
ENDBRANCH   7   8
ENDBRANCH   5   7
ENDBRANCH   2   5
TORSDOF 10
ENDMDL
MODEL      213
REMARK 921   NORMALIZED FREE ENERGY PREDICTED BY IDOCK:   -3.12 KCAL/MOL
REMARK 922        TOTAL FREE ENERGY PREDICTED BY IDOCK:   -5.44 KCAL/MOL
REMARK 923 INTER-LIGAND FREE ENERGY PREDICTED BY IDOCK:   -4.81 KCAL/MOL
REMARK 924 INTRA-LIGAND FREE ENERGY PREDICTED BY IDOCK:   -0.62 KCAL/MOL
REMARK 927      BINDING AFFINITY PREDICTED BY RF-SCORE:    0.00 PKD
ROOT
HETATM    1  N   UNL     1     -13.039  11.594  62.867  1.00  0.00    -0.706 NA 
HETATM    2  C   UNL     1     -11.752  11.871  63.506  1.00  0.00    -0.452 C  
HETATM    3  H1  UNL     1     -12.897  11.179  61.946  1.00  0.00     0.000 HD 
HETATM    4  H2  UNL     1     -13.628  12.425  62.824  1.00  0.00     0.000 HD 
ENDROOT
BRANCH   2   5
HETATM    5  C   UNL     1     -11.966  12.493  64.889  1.00  0.00    -0.412 C  
HETATM    6  O   UNL     1     -12.846  13.326  65.103  1.00  0.00    -0.670 OA 
BRANCH   5   7
HETATM    7  C   UNL     1     -11.073  11.956  65.986  1.00  0.00    -0.369 C  
BRANCH   7   8
HETATM    8  C   UNL     1      -9.617  11.841  65.551  1.00  0.00    -0.222 C  
BRANCH   8   9
HETATM    9  C   UNL     1      -9.034  10.459  65.739  1.00  0.00    -0.168 C  
HETATM   10  O   UNL     1      -7.842  10.231  65.875  1.00  0.00    -0.127 OA 
BRANCH   9  11
HETATM   11  O   UNL     1      -9.991   9.507  65.551  1.00  0.00    -0.304 OA 
BRANCH  11  12
HETATM   12  C   UNL     1      -9.828   8.342  66.360  1.00  0.00    -0.213 C  
BRANCH  12  13
HETATM   13  C   UNL     1     -10.422   8.529  67.746  1.00  0.00    -0.287 C  
BRANCH  13  14
HETATM   14  C   UNL     1      -9.293   8.559  68.773  1.00  0.00    -0.143 C  
BRANCH  14  15
HETATM   15  C   UNL     1      -9.440   7.477  69.837  1.00  0.00    -0.160 C  
BRANCH  15  16
HETATM   16  C   UNL     1     -10.892   7.004  69.924  1.00  0.00    -0.280 C  
HETATM   17  C   UNL     1     -11.640   7.711  71.043  1.00  0.00    -0.301 C  
ENDBRANCH  15  16
ENDBRANCH  14  15
ENDBRANCH  13  14
ENDBRANCH  12  13
ENDBRANCH  11  12
ENDBRANCH   9  11
ENDBRANCH   8   9
ENDBRANCH   7   8
ENDBRANCH   5   7
ENDBRANCH   2   5
TORSDOF 10
ENDMDL
MODEL      214
REMARK 921   NORMALIZED FREE ENERGY PREDICTED BY IDOCK:   -3.12 KCAL/MOL
REMARK 922        TOTAL FREE ENERGY PREDICTED BY IDOCK:   -5.44 KCAL/MOL
REMARK 923 INTER-LIGAND FREE ENERGY PREDICTED BY IDOCK:   -4.67 KCAL/MOL
REMARK 924 INTRA-LIGAND FREE ENERGY PREDICTED BY IDOCK:   -0.77 KCAL/MOL
REMARK 927      BINDING AFFINITY PREDICTED BY RF-SCORE:    0.00 PKD
ROOT
HETATM    1  N   UNL     1      -8.804   4.731  68.550  1.00  0.00    -0.098 NA 
HETATM    2  C   UNL     1      -9.847   4.915  69.560  1.00  0.00    -0.217 C  
HETATM    3  H1  UNL     1      -8.119   4.044  68.867  1.00  0.00     0.000 HD 
HETATM    4  H2  UNL     1      -8.365   5.615  68.292  1.00  0.00     0.000 HD 
ENDROOT
BRANCH   2   5
HETATM    5  C   UNL     1     -10.875   5.946  69.083  1.00  0.00    -0.336 C  
HETATM    6  O   UNL     1     -11.577   6.580  69.870  1.00  0.00    -0.409 OA 
BRANCH   5   7
HETATM    7  C   UNL     1     -10.909   6.184  67.589  1.00  0.00    -0.421 C  
BRANCH   7   8
HETATM    8  C   UNL     1     -10.635   7.636  67.223  1.00  0.00    -0.388 C  
BRANCH   8   9
HETATM    9  C   UNL     1      -9.231   7.883  66.722  1.00  0.00    -0.166 C  
HETATM   10  O   UNL     1      -8.220   7.588  67.340  1.00  0.00    -0.114 OA 
BRANCH   9  11
HETATM   11  O   UNL     1      -9.254   8.635  65.586  1.00  0.00    -0.200 OA 
BRANCH  11  12
HETATM   12  C   UNL     1      -9.033  10.030  65.799  1.00  0.00    -0.157 C  
BRANCH  12  13
HETATM   13  C   UNL     1     -10.186  10.871  65.278  1.00  0.00    -0.351 C  
BRANCH  13  14
HETATM   14  C   UNL     1     -10.941  11.471  66.462  1.00  0.00    -0.346 C  
BRANCH  14  15
HETATM   15  C   UNL     1     -11.667  12.763  66.100  1.00  0.00    -0.458 C  
BRANCH  15  16
HETATM   16  C   UNL     1     -12.505  12.570  64.835  1.00  0.00    -0.524 C  
HETATM   17  C   UNL     1     -12.095  13.545  63.743  1.00  0.00    -0.482 C  
ENDBRANCH  15  16
ENDBRANCH  14  15
ENDBRANCH  13  14
ENDBRANCH  12  13
ENDBRANCH  11  12
ENDBRANCH   9  11
ENDBRANCH   8   9
ENDBRANCH   7   8
ENDBRANCH   5   7
ENDBRANCH   2   5
TORSDOF 10
ENDMDL
MODEL      215
REMARK 921   NORMALIZED FREE ENERGY PREDICTED BY IDOCK:   -3.12 KCAL/MOL
REMARK 922        TOTAL FREE ENERGY PREDICTED BY IDOCK:   -5.43 KCAL/MOL
REMARK 923 INTER-LIGAND FREE ENERGY PREDICTED BY IDOCK:   -4.73 KCAL/MOL
REMARK 924 INTRA-LIGAND FREE ENERGY PREDICTED BY IDOCK:   -0.70 KCAL/MOL
REMARK 927      BINDING AFFINITY PREDICTED BY RF-SCORE:    0.00 PKD
ROOT
HETATM    1  N   UNL     1     -10.568  10.199  67.725  1.00  0.00    -0.236 NA 
HETATM    2  C   UNL     1      -9.558  11.253  67.621  1.00  0.00    -0.171 C  
HETATM    3  H1  UNL     1     -10.204   9.321  67.353  1.00  0.00     0.000 HD 
HETATM    4  H2  UNL     1     -11.444  10.467  67.278  1.00  0.00     0.000 HD 
ENDROOT
BRANCH   2   5
HETATM    5  C   UNL     1     -10.103  12.571  68.179  1.00  0.00    -0.225 C  
HETATM    6  O   UNL     1      -9.402  13.577  68.282  1.00  0.00    -0.204 OA 
BRANCH   5   7
HETATM    7  C   UNL     1     -11.578  12.570  68.519  1.00  0.00    -0.364 C  
BRANCH   7   8
HETATM    8  C   UNL     1     -11.843  12.935  69.974  1.00  0.00    -0.356 C  
BRANCH   8   9
HETATM    9  C   UNL     1     -12.387  11.792  70.799  1.00  0.00    -0.337 C  
HETATM   10  O   UNL     1     -13.175  11.927  71.722  1.00  0.00    -0.454 OA 
BRANCH   9  11
HETATM   11  O   UNL     1     -11.741  10.632  70.492  1.00  0.00    -0.308 OA 
BRANCH  11  12
HETATM   12  C   UNL     1     -12.104   9.521  71.313  1.00  0.00    -0.360 C  
BRANCH  12  13
HETATM   13  C   UNL     1     -10.884   8.783  71.837  1.00  0.00    -0.431 C  
BRANCH  13  14
HETATM   14  C   UNL     1     -11.319   7.819  72.938  1.00  0.00    -0.406 C  
BRANCH  14  15
HETATM   15  C   UNL     1     -10.139   7.249  73.718  1.00  0.00    -0.375 C  
BRANCH  15  16
HETATM   16  C   UNL     1      -9.833   5.822  73.262  1.00  0.00    -0.174 C  
HETATM   17  C   UNL     1     -11.086   5.115  72.771  1.00  0.00    -0.330 C  
ENDBRANCH  15  16
ENDBRANCH  14  15
ENDBRANCH  13  14
ENDBRANCH  12  13
ENDBRANCH  11  12
ENDBRANCH   9  11
ENDBRANCH   8   9
ENDBRANCH   7   8
ENDBRANCH   5   7
ENDBRANCH   2   5
TORSDOF 10
ENDMDL
MODEL      216
REMARK 921   NORMALIZED FREE ENERGY PREDICTED BY IDOCK:   -3.12 KCAL/MOL
REMARK 922        TOTAL FREE ENERGY PREDICTED BY IDOCK:   -5.43 KCAL/MOL
REMARK 923 INTER-LIGAND FREE ENERGY PREDICTED BY IDOCK:   -4.59 KCAL/MOL
REMARK 924 INTRA-LIGAND FREE ENERGY PREDICTED BY IDOCK:   -0.84 KCAL/MOL
REMARK 927      BINDING AFFINITY PREDICTED BY RF-SCORE:    0.00 PKD
ROOT
HETATM    1  N   UNL     1     -11.426   4.281  64.892  1.00  0.00    -1.013 NA 
HETATM    2  C   UNL     1      -9.984   4.037  64.886  1.00  0.00    -0.205 C  
HETATM    3  H1  UNL     1     -11.804   4.198  63.948  1.00  0.00     0.000 HD 
HETATM    4  H2  UNL     1     -11.658   5.179  65.317  1.00  0.00     0.000 HD 
ENDROOT
BRANCH   2   5
HETATM    5  C   UNL     1      -9.416   4.162  66.303  1.00  0.00    -0.186 C  
HETATM    6  O   UNL     1      -9.706   3.366  67.196  1.00  0.00    -0.156 OA 
BRANCH   5   7
HETATM    7  C   UNL     1      -8.416   5.279  66.505  1.00  0.00    -0.112 C  
BRANCH   7   8
HETATM    8  C   UNL     1      -9.075   6.651  66.554  1.00  0.00    -0.167 C  
BRANCH   8   9
HETATM    9  C   UNL     1     -10.367   6.678  67.338  1.00  0.00    -0.220 C  
HETATM   10  O   UNL     1     -11.472   6.807  66.835  1.00  0.00    -0.176 OA 
BRANCH   9  11
HETATM   11  O   UNL     1     -10.113   6.723  68.676  1.00  0.00    -0.149 OA 
BRANCH  11  12
HETATM   12  C   UNL     1     -10.933   5.857  69.460  1.00  0.00    -0.368 C  
BRANCH  12  13
HETATM   13  C   UNL     1     -11.336   6.499  70.778  1.00  0.00    -0.399 C  
BRANCH  13  14
HETATM   14  C   UNL     1     -11.264   8.017  70.634  1.00  0.00    -0.266 C  
BRANCH  14  15
HETATM   15  C   UNL     1     -10.542   8.682  71.803  1.00  0.00    -0.395 C  
BRANCH  15  16
HETATM   16  C   UNL     1     -10.471   7.732  72.999  1.00  0.00    -0.432 C  
HETATM   17  C   UNL     1      -9.102   7.769  73.658  1.00  0.00    -0.345 C  
ENDBRANCH  15  16
ENDBRANCH  14  15
ENDBRANCH  13  14
ENDBRANCH  12  13
ENDBRANCH  11  12
ENDBRANCH   9  11
ENDBRANCH   8   9
ENDBRANCH   7   8
ENDBRANCH   5   7
ENDBRANCH   2   5
TORSDOF 10
ENDMDL
MODEL      217
REMARK 921   NORMALIZED FREE ENERGY PREDICTED BY IDOCK:   -3.12 KCAL/MOL
REMARK 922        TOTAL FREE ENERGY PREDICTED BY IDOCK:   -5.42 KCAL/MOL
REMARK 923 INTER-LIGAND FREE ENERGY PREDICTED BY IDOCK:   -5.05 KCAL/MOL
REMARK 924 INTRA-LIGAND FREE ENERGY PREDICTED BY IDOCK:   -0.37 KCAL/MOL
REMARK 927      BINDING AFFINITY PREDICTED BY RF-SCORE:    0.00 PKD
ROOT
HETATM    1  N   UNL     1     -10.976   4.996  66.173  1.00  0.00    -0.682 NA 
HETATM    2  C   UNL     1     -11.061   6.354  66.711  1.00  0.00    -0.170 C  
HETATM    3  H1  UNL     1     -11.689   4.852  65.457  1.00  0.00     0.000 HD 
HETATM    4  H2  UNL     1     -11.028   4.293  66.909  1.00  0.00     0.000 HD 
ENDROOT
BRANCH   2   5
HETATM    5  C   UNL     1      -9.991   6.571  67.785  1.00  0.00    -0.131 C  
HETATM    6  O   UNL     1      -9.335   5.640  68.252  1.00  0.00    -0.110 OA 
BRANCH   5   7
HETATM    7  C   UNL     1      -9.743   8.013  68.170  1.00  0.00    -0.179 C  
BRANCH   7   8
HETATM    8  C   UNL     1     -10.642   8.983  67.415  1.00  0.00    -0.309 C  
BRANCH   8   9
HETATM    9  C   UNL     1     -10.881  10.285  68.144  1.00  0.00    -0.265 C  
HETATM   10  O   UNL     1     -10.442  10.540  69.255  1.00  0.00    -0.210 OA 
BRANCH   9  11
HETATM   11  O   UNL     1     -11.794  11.045  67.476  1.00  0.00    -0.571 OA 
BRANCH  11  12
HETATM   12  C   UNL     1     -11.223  11.973  66.553  1.00  0.00    -0.334 C  
BRANCH  12  13
HETATM   13  C   UNL     1     -12.272  12.565  65.626  1.00  0.00    -0.403 C  
BRANCH  13  14
HETATM   14  C   UNL     1     -12.385  14.064  65.895  1.00  0.00    -0.515 C  
BRANCH  14  15
HETATM   15  C   UNL     1     -11.761  14.468  67.227  1.00  0.00    -0.429 C  
BRANCH  15  16
HETATM   16  C   UNL     1     -10.746  15.595  67.023  1.00  0.00    -0.314 C  
HETATM   17  C   UNL     1     -10.460  15.825  65.548  1.00  0.00    -0.425 C  
ENDBRANCH  15  16
ENDBRANCH  14  15
ENDBRANCH  13  14
ENDBRANCH  12  13
ENDBRANCH  11  12
ENDBRANCH   9  11
ENDBRANCH   8   9
ENDBRANCH   7   8
ENDBRANCH   5   7
ENDBRANCH   2   5
TORSDOF 10
ENDMDL
MODEL      218
REMARK 921   NORMALIZED FREE ENERGY PREDICTED BY IDOCK:   -3.09 KCAL/MOL
REMARK 922        TOTAL FREE ENERGY PREDICTED BY IDOCK:   -5.38 KCAL/MOL
REMARK 923 INTER-LIGAND FREE ENERGY PREDICTED BY IDOCK:   -4.86 KCAL/MOL
REMARK 924 INTRA-LIGAND FREE ENERGY PREDICTED BY IDOCK:   -0.52 KCAL/MOL
REMARK 927      BINDING AFFINITY PREDICTED BY RF-SCORE:    0.00 PKD
ROOT
HETATM    1  N   UNL     1     -11.535   4.763  65.323  1.00  0.00    -1.061 NA 
HETATM    2  C   UNL     1     -10.287   5.139  65.987  1.00  0.00    -0.188 C  
HETATM    3  H1  UNL     1     -11.410   3.900  64.793  1.00  0.00     0.000 HD 
HETATM    4  H2  UNL     1     -11.897   5.518  64.740  1.00  0.00     0.000 HD 
ENDROOT
BRANCH   2   5
HETATM    5  C   UNL     1     -10.474   6.434  66.782  1.00  0.00    -0.234 C  
HETATM    6  O   UNL     1     -11.236   6.506  67.746  1.00  0.00    -0.305 OA 
BRANCH   5   7
HETATM    7  C   UNL     1      -9.601   7.592  66.349  1.00  0.00    -0.194 C  
BRANCH   7   8
HETATM    8  C   UNL     1     -10.214   8.945  66.686  1.00  0.00    -0.338 C  
BRANCH   8   9
HETATM    9  C   UNL     1      -9.236  10.094  66.601  1.00  0.00    -0.155 C  
HETATM   10  O   UNL     1      -8.802  10.698  67.569  1.00  0.00    -0.131 OA 
BRANCH   9  11
HETATM   11  O   UNL     1      -9.057  10.473  65.304  1.00  0.00    -0.172 OA 
BRANCH  11  12
HETATM   12  C   UNL     1     -10.269  10.713  64.588  1.00  0.00    -0.334 C  
BRANCH  12  13
HETATM   13  C   UNL     1     -10.243  12.048  63.863  1.00  0.00    -0.424 C  
BRANCH  13  14
HETATM   14  C   UNL     1     -11.078  13.058  64.647  1.00  0.00    -0.357 C  
BRANCH  14  15
HETATM   15  C   UNL     1     -10.373  14.401  64.806  1.00  0.00    -0.352 C  
BRANCH  15  16
HETATM   16  C   UNL     1      -9.694  14.491  66.173  1.00  0.00    -0.340 C  
HETATM   17  C   UNL     1     -10.570  13.906  67.269  1.00  0.00    -0.276 C  
ENDBRANCH  15  16
ENDBRANCH  14  15
ENDBRANCH  13  14
ENDBRANCH  12  13
ENDBRANCH  11  12
ENDBRANCH   9  11
ENDBRANCH   8   9
ENDBRANCH   7   8
ENDBRANCH   5   7
ENDBRANCH   2   5
TORSDOF 10
ENDMDL
MODEL      219
REMARK 921   NORMALIZED FREE ENERGY PREDICTED BY IDOCK:   -3.08 KCAL/MOL
REMARK 922        TOTAL FREE ENERGY PREDICTED BY IDOCK:   -5.37 KCAL/MOL
REMARK 923 INTER-LIGAND FREE ENERGY PREDICTED BY IDOCK:   -4.54 KCAL/MOL
REMARK 924 INTRA-LIGAND FREE ENERGY PREDICTED BY IDOCK:   -0.83 KCAL/MOL
REMARK 927      BINDING AFFINITY PREDICTED BY RF-SCORE:    0.00 PKD
ROOT
HETATM    1  N   UNL     1      -7.955   7.622  71.238  1.00  0.00    -0.093 NA 
HETATM    2  C   UNL     1      -8.147   6.933  72.514  1.00  0.00    -0.102 C  
HETATM    3  H1  UNL     1      -7.070   7.343  70.813  1.00  0.00     0.000 HD 
HETATM    4  H2  UNL     1      -8.027   8.634  71.338  1.00  0.00     0.000 HD 
ENDROOT
BRANCH   2   5
HETATM    5  C   UNL     1      -9.475   7.351  73.152  1.00  0.00    -0.201 C  
HETATM    6  O   UNL     1      -9.785   7.020  74.296  1.00  0.00    -0.275 OA 
BRANCH   5   7
HETATM    7  C   UNL     1     -10.341   8.262  72.308  1.00  0.00    -0.386 C  
BRANCH   7   8
HETATM    8  C   UNL     1     -11.812   7.869  72.345  1.00  0.00    -0.402 C  
BRANCH   8   9
HETATM    9  C   UNL     1     -12.756   9.023  72.094  1.00  0.00    -0.401 C  
HETATM   10  O   UNL     1     -13.971   8.946  72.181  1.00  0.00    -0.427 OA 
BRANCH   9  11
HETATM   11  O   UNL     1     -12.080  10.090  71.583  1.00  0.00    -0.387 OA 
BRANCH  11  12
HETATM   12  C   UNL     1     -12.881  11.257  71.392  1.00  0.00    -0.410 C  
BRANCH  12  13
HETATM   13  C   UNL     1     -12.215  12.252  70.456  1.00  0.00    -0.387 C  
BRANCH  13  14
HETATM   14  C   UNL     1     -11.990  11.588  69.100  1.00  0.00    -0.386 C  
BRANCH  14  15
HETATM   15  C   UNL     1     -10.562  11.762  68.593  1.00  0.00    -0.250 C  
BRANCH  15  16
HETATM   16  C   UNL     1      -9.664  10.644  69.124  1.00  0.00    -0.205 C  
HETATM   17  C   UNL     1     -10.198   9.273  68.742  1.00  0.00    -0.223 C  
ENDBRANCH  15  16
ENDBRANCH  14  15
ENDBRANCH  13  14
ENDBRANCH  12  13
ENDBRANCH  11  12
ENDBRANCH   9  11
ENDBRANCH   8   9
ENDBRANCH   7   8
ENDBRANCH   5   7
ENDBRANCH   2   5
TORSDOF 10
ENDMDL
MODEL      220
REMARK 921   NORMALIZED FREE ENERGY PREDICTED BY IDOCK:   -3.08 KCAL/MOL
REMARK 922        TOTAL FREE ENERGY PREDICTED BY IDOCK:   -5.36 KCAL/MOL
REMARK 923 INTER-LIGAND FREE ENERGY PREDICTED BY IDOCK:   -4.77 KCAL/MOL
REMARK 924 INTRA-LIGAND FREE ENERGY PREDICTED BY IDOCK:   -0.59 KCAL/MOL
REMARK 927      BINDING AFFINITY PREDICTED BY RF-SCORE:    0.00 PKD
ROOT
HETATM    1  N   UNL     1     -10.058  13.135  63.965  1.00  0.00    -0.768 NA 
HETATM    2  C   UNL     1     -10.435  14.105  64.993  1.00  0.00    -0.425 C  
HETATM    3  H1  UNL     1      -9.191  13.419  63.509  1.00  0.00     0.000 HD 
HETATM    4  H2  UNL     1     -10.810  12.982  63.293  1.00  0.00     0.000 HD 
ENDROOT
BRANCH   2   5
HETATM    5  C   UNL     1     -11.737  13.679  65.678  1.00  0.00    -0.342 C  
HETATM    6  O   UNL     1     -12.842  13.997  65.239  1.00  0.00    -0.686 OA 
BRANCH   5   7
HETATM    7  C   UNL     1     -11.570  12.778  66.883  1.00  0.00    -0.428 C  
BRANCH   7   8
HETATM    8  C   UNL     1     -12.096  13.411  68.164  1.00  0.00    -0.267 C  
BRANCH   8   9
HETATM    9  C   UNL     1     -11.370  14.676  68.560  1.00  0.00    -0.284 C  
HETATM   10  O   UNL     1     -11.892  15.779  68.613  1.00  0.00    -0.385 OA 
BRANCH   9  11
HETATM   11  O   UNL     1     -10.031  14.444  68.667  1.00  0.00    -0.234 OA 
BRANCH  11  12
HETATM   12  C   UNL     1      -9.264  15.588  69.045  1.00  0.00    -0.238 C  
BRANCH  12  13
HETATM   13  C   UNL     1      -7.798  15.245  69.245  1.00  0.00    -0.221 C  
BRANCH  13  14
HETATM   14  C   UNL     1      -7.141  15.050  67.881  1.00  0.00    -0.165 C  
BRANCH  14  15
HETATM   15  C   UNL     1      -6.822  13.587  67.589  1.00  0.00    -0.178 C  
BRANCH  15  16
HETATM   16  C   UNL     1      -5.906  13.012  68.671  1.00  0.00    -0.070 C  
HETATM   17  C   UNL     1      -6.405  11.663  69.162  1.00  0.00    -0.084 C  
ENDBRANCH  15  16
ENDBRANCH  14  15
ENDBRANCH  13  14
ENDBRANCH  12  13
ENDBRANCH  11  12
ENDBRANCH   9  11
ENDBRANCH   8   9
ENDBRANCH   7   8
ENDBRANCH   5   7
ENDBRANCH   2   5
TORSDOF 10
ENDMDL
MODEL      221
REMARK 921   NORMALIZED FREE ENERGY PREDICTED BY IDOCK:   -3.08 KCAL/MOL
REMARK 922        TOTAL FREE ENERGY PREDICTED BY IDOCK:   -5.36 KCAL/MOL
REMARK 923 INTER-LIGAND FREE ENERGY PREDICTED BY IDOCK:   -4.88 KCAL/MOL
REMARK 924 INTRA-LIGAND FREE ENERGY PREDICTED BY IDOCK:   -0.48 KCAL/MOL
REMARK 927      BINDING AFFINITY PREDICTED BY RF-SCORE:    0.00 PKD
ROOT
HETATM    1  N   UNL     1     -12.219  10.760  68.397  1.00  0.00    -0.809 NA 
HETATM    2  C   UNL     1     -11.006  10.229  67.774  1.00  0.00    -0.300 C  
HETATM    3  H1  UNL     1     -13.048  10.363  67.954  1.00  0.00     0.000 HD 
HETATM    4  H2  UNL     1     -12.234  11.780  68.389  1.00  0.00     0.000 HD 
ENDROOT
BRANCH   2   5
HETATM    5  C   UNL     1      -9.761  10.824  68.438  1.00  0.00    -0.174 C  
HETATM    6  O   UNL     1      -9.197  10.273  69.383  1.00  0.00    -0.197 OA 
BRANCH   5   7
HETATM    7  C   UNL     1      -9.229  12.089  67.801  1.00  0.00    -0.190 C  
BRANCH   7   8
HETATM    8  C   UNL     1      -9.250  12.031  66.279  1.00  0.00    -0.208 C  
BRANCH   8   9
HETATM    9  C   UNL     1      -9.921  13.221  65.633  1.00  0.00    -0.230 C  
HETATM   10  O   UNL     1     -10.617  13.157  64.632  1.00  0.00    -0.347 OA 
BRANCH   9  11
HETATM   11  O   UNL     1      -9.494  14.380  66.210  1.00  0.00    -0.290 OA 
BRANCH  11  12
HETATM   12  C   UNL     1     -10.529  15.334  66.448  1.00  0.00    -0.303 C  
BRANCH  12  13
HETATM   13  C   UNL     1     -10.368  16.020  67.794  1.00  0.00    -0.279 C  
BRANCH  13  14
HETATM   14  C   UNL     1     -11.011  17.403  67.730  1.00  0.00    -0.142 C  
BRANCH  14  15
HETATM   15  C   UNL     1     -10.412  18.276  66.632  1.00  0.00    -0.382 C  
BRANCH  15  16
HETATM   16  C   UNL     1     -10.027  19.648  67.188  1.00  0.00    -0.507 C  
HETATM   17  C   UNL     1      -9.810  19.597  68.692  1.00  0.00    -0.519 C  
ENDBRANCH  15  16
ENDBRANCH  14  15
ENDBRANCH  13  14
ENDBRANCH  12  13
ENDBRANCH  11  12
ENDBRANCH   9  11
ENDBRANCH   8   9
ENDBRANCH   7   8
ENDBRANCH   5   7
ENDBRANCH   2   5
TORSDOF 10
ENDMDL
MODEL      222
REMARK 921   NORMALIZED FREE ENERGY PREDICTED BY IDOCK:   -3.07 KCAL/MOL
REMARK 922        TOTAL FREE ENERGY PREDICTED BY IDOCK:   -5.35 KCAL/MOL
REMARK 923 INTER-LIGAND FREE ENERGY PREDICTED BY IDOCK:   -4.46 KCAL/MOL
REMARK 924 INTRA-LIGAND FREE ENERGY PREDICTED BY IDOCK:   -0.89 KCAL/MOL
REMARK 927      BINDING AFFINITY PREDICTED BY RF-SCORE:    0.00 PKD
ROOT
HETATM    1  N   UNL     1      -9.757  18.610  66.145  1.00  0.00    -0.484 NA 
HETATM    2  C   UNL     1     -10.357  17.397  65.588  1.00  0.00    -0.149 C  
HETATM    3  H1  UNL     1      -9.806  19.373  65.469  1.00  0.00     0.000 HD 
HETATM    4  H2  UNL     1      -8.803  18.448  66.467  1.00  0.00     0.000 HD 
ENDROOT
BRANCH   2   5
HETATM    5  C   UNL     1     -10.283  16.251  66.602  1.00  0.00    -0.284 C  
HETATM    6  O   UNL     1     -10.699  16.370  67.754  1.00  0.00    -0.322 OA 
BRANCH   5   7
HETATM    7  C   UNL     1      -9.738  14.946  66.066  1.00  0.00    -0.358 C  
BRANCH   7   8
HETATM    8  C   UNL     1      -9.846  13.809  67.073  1.00  0.00    -0.251 C  
BRANCH   8   9
HETATM    9  C   UNL     1      -8.522  13.404  67.678  1.00  0.00    -0.187 C  
HETATM   10  O   UNL     1      -7.791  14.160  68.298  1.00  0.00    -0.120 OA 
BRANCH   9  11
HETATM   11  O   UNL     1      -8.180  12.146  67.280  1.00  0.00    -0.164 OA 
BRANCH  11  12
HETATM   12  C   UNL     1      -9.292  11.307  66.962  1.00  0.00    -0.172 C  
BRANCH  12  13
HETATM   13  C   UNL     1      -8.916  10.224  65.966  1.00  0.00    -0.173 C  
BRANCH  13  14
HETATM   14  C   UNL     1      -9.916  10.239  64.812  1.00  0.00    -0.392 C  
BRANCH  14  15
HETATM   15  C   UNL     1     -10.061  11.620  64.181  1.00  0.00    -0.338 C  
BRANCH  15  16
HETATM   16  C   UNL     1     -11.403  11.741  63.457  1.00  0.00    -0.496 C  
HETATM   17  C   UNL     1     -12.090  13.059  63.777  1.00  0.00    -0.574 C  
ENDBRANCH  15  16
ENDBRANCH  14  15
ENDBRANCH  13  14
ENDBRANCH  12  13
ENDBRANCH  11  12
ENDBRANCH   9  11
ENDBRANCH   8   9
ENDBRANCH   7   8
ENDBRANCH   5   7
ENDBRANCH   2   5
TORSDOF 10
ENDMDL
MODEL      223
REMARK 921   NORMALIZED FREE ENERGY PREDICTED BY IDOCK:   -3.07 KCAL/MOL
REMARK 922        TOTAL FREE ENERGY PREDICTED BY IDOCK:   -5.34 KCAL/MOL
REMARK 923 INTER-LIGAND FREE ENERGY PREDICTED BY IDOCK:   -4.91 KCAL/MOL
REMARK 924 INTRA-LIGAND FREE ENERGY PREDICTED BY IDOCK:   -0.43 KCAL/MOL
REMARK 927      BINDING AFFINITY PREDICTED BY RF-SCORE:    0.00 PKD
ROOT
HETATM    1  N   UNL     1     -11.379   4.374  65.073  1.00  0.00    -1.102 NA 
HETATM    2  C   UNL     1      -9.936   4.239  65.269  1.00  0.00    -0.219 C  
HETATM    3  H1  UNL     1     -11.601   4.412  64.078  1.00  0.00     0.000 HD 
HETATM    4  H2  UNL     1     -11.757   5.176  65.578  1.00  0.00     0.000 HD 
ENDROOT
BRANCH   2   5
HETATM    5  C   UNL     1      -9.602   4.182  66.762  1.00  0.00    -0.208 C  
HETATM    6  O   UNL     1      -9.647   3.133  67.403  1.00  0.00    -0.185 OA 
BRANCH   5   7
HETATM    7  C   UNL     1      -9.139   5.487  67.372  1.00  0.00    -0.110 C  
BRANCH   7   8
HETATM    8  C   UNL     1      -8.728   6.511  66.322  1.00  0.00    -0.148 C  
BRANCH   8   9
HETATM    9  C   UNL     1      -9.443   7.836  66.451  1.00  0.00    -0.180 C  
HETATM   10  O   UNL     1     -10.586   7.961  66.861  1.00  0.00    -0.341 OA 
BRANCH   9  11
HETATM   11  O   UNL     1      -8.709   8.832  65.879  1.00  0.00    -0.149 OA 
BRANCH  11  12
HETATM   12  C   UNL     1      -9.487   9.829  65.215  1.00  0.00    -0.279 C  
BRANCH  12  13
HETATM   13  C   UNL     1      -9.252  11.211  65.800  1.00  0.00    -0.234 C  
BRANCH  13  14
HETATM   14  C   UNL     1     -10.354  12.151  65.316  1.00  0.00    -0.310 C  
BRANCH  14  15
HETATM   15  C   UNL     1     -11.221  11.525  64.229  1.00  0.00    -0.358 C  
BRANCH  15  16
HETATM   16  C   UNL     1     -11.962  12.609  63.444  1.00  0.00    -0.613 C  
HETATM   17  C   UNL     1     -12.156  13.865  64.278  1.00  0.00    -0.477 C  
ENDBRANCH  15  16
ENDBRANCH  14  15
ENDBRANCH  13  14
ENDBRANCH  12  13
ENDBRANCH  11  12
ENDBRANCH   9  11
ENDBRANCH   8   9
ENDBRANCH   7   8
ENDBRANCH   5   7
ENDBRANCH   2   5
TORSDOF 10
ENDMDL
MODEL      224
REMARK 921   NORMALIZED FREE ENERGY PREDICTED BY IDOCK:   -3.06 KCAL/MOL
REMARK 922        TOTAL FREE ENERGY PREDICTED BY IDOCK:   -5.34 KCAL/MOL
REMARK 923 INTER-LIGAND FREE ENERGY PREDICTED BY IDOCK:   -4.94 KCAL/MOL
REMARK 924 INTRA-LIGAND FREE ENERGY PREDICTED BY IDOCK:   -0.40 KCAL/MOL
REMARK 927      BINDING AFFINITY PREDICTED BY RF-SCORE:    0.00 PKD
ROOT
HETATM    1  N   UNL     1      -8.156   6.281  72.701  1.00  0.00    -0.106 NA 
HETATM    2  C   UNL     1      -9.302   5.528  72.191  1.00  0.00    -0.143 C  
HETATM    3  H1  UNL     1      -7.304   6.006  72.212  1.00  0.00     0.000 HD 
HETATM    4  H2  UNL     1      -8.061   6.189  73.712  1.00  0.00     0.000 HD 
ENDROOT
BRANCH   2   5
HETATM    5  C   UNL     1     -10.581   5.941  72.925  1.00  0.00    -0.235 C  
HETATM    6  O   UNL     1     -10.566   6.351  74.085  1.00  0.00    -0.283 OA 
BRANCH   5   7
HETATM    7  C   UNL     1     -11.849   5.884  72.100  1.00  0.00    -0.247 C  
BRANCH   7   8
HETATM    8  C   UNL     1     -12.043   7.126  71.241  1.00  0.00    -0.386 C  
BRANCH   8   9
HETATM    9  C   UNL     1     -13.252   7.948  71.624  1.00  0.00    -0.334 C  
HETATM   10  O   UNL     1     -14.407   7.600  71.433  1.00  0.00    -0.433 OA 
BRANCH   9  11
HETATM   11  O   UNL     1     -12.873   9.191  72.035  1.00  0.00    -0.350 OA 
BRANCH  11  12
HETATM   12  C   UNL     1     -11.831   9.777  71.254  1.00  0.00    -0.399 C  
BRANCH  12  13
HETATM   13  C   UNL     1     -12.351  10.896  70.367  1.00  0.00    -0.436 C  
BRANCH  13  14
HETATM   14  C   UNL     1     -11.383  11.101  69.204  1.00  0.00    -0.340 C  
BRANCH  14  15
HETATM   15  C   UNL     1     -11.686  12.365  68.406  1.00  0.00    -0.386 C  
BRANCH  15  16
HETATM   16  C   UNL     1     -11.214  12.212  66.959  1.00  0.00    -0.370 C  
HETATM   17  C   UNL     1     -12.088  13.007  66.002  1.00  0.00    -0.493 C  
ENDBRANCH  15  16
ENDBRANCH  14  15
ENDBRANCH  13  14
ENDBRANCH  12  13
ENDBRANCH  11  12
ENDBRANCH   9  11
ENDBRANCH   8   9
ENDBRANCH   7   8
ENDBRANCH   5   7
ENDBRANCH   2   5
TORSDOF 10
ENDMDL
MODEL      225
REMARK 921   NORMALIZED FREE ENERGY PREDICTED BY IDOCK:   -3.05 KCAL/MOL
REMARK 922        TOTAL FREE ENERGY PREDICTED BY IDOCK:   -5.32 KCAL/MOL
REMARK 923 INTER-LIGAND FREE ENERGY PREDICTED BY IDOCK:   -4.61 KCAL/MOL
REMARK 924 INTRA-LIGAND FREE ENERGY PREDICTED BY IDOCK:   -0.71 KCAL/MOL
REMARK 927      BINDING AFFINITY PREDICTED BY RF-SCORE:    0.00 PKD
ROOT
HETATM    1  N   UNL     1     -11.170   7.610  68.630  1.00  0.00    -0.297 NA 
HETATM    2  C   UNL     1     -10.134   8.291  67.854  1.00  0.00    -0.202 C  
HETATM    3  H1  UNL     1     -10.783   6.788  69.095  1.00  0.00     0.000 HD 
HETATM    4  H2  UNL     1     -11.981   7.376  68.058  1.00  0.00     0.000 HD 
ENDROOT
BRANCH   2   5
HETATM    5  C   UNL     1     -10.715   9.525  67.156  1.00  0.00    -0.182 C  
HETATM    6  O   UNL     1     -11.533  10.262  67.705  1.00  0.00    -0.345 OA 
BRANCH   5   7
HETATM    7  C   UNL     1     -10.154   9.815  65.781  1.00  0.00    -0.308 C  
BRANCH   7   8
HETATM    8  C   UNL     1      -9.923  11.302  65.546  1.00  0.00    -0.293 C  
BRANCH   8   9
HETATM    9  C   UNL     1     -10.606  11.836  64.308  1.00  0.00    -0.335 C  
HETATM   10  O   UNL     1     -11.140  11.135  63.463  1.00  0.00    -0.300 OA 
BRANCH   9  11
HETATM   11  O   UNL     1     -10.384  13.174  64.180  1.00  0.00    -0.421 OA 
BRANCH  11  12
HETATM   12  C   UNL     1     -11.571  13.963  64.097  1.00  0.00    -0.298 C  
BRANCH  12  13
HETATM   13  C   UNL     1     -11.476  15.219  64.947  1.00  0.00    -0.343 C  
BRANCH  13  14
HETATM   14  C   UNL     1     -10.042  15.375  65.447  1.00  0.00    -0.394 C  
BRANCH  14  15
HETATM   15  C   UNL     1      -9.922  15.164  66.953  1.00  0.00    -0.243 C  
BRANCH  15  16
HETATM   16  C   UNL     1     -11.285  14.822  67.557  1.00  0.00    -0.339 C  
HETATM   17  C   UNL     1     -11.201  13.604  68.463  1.00  0.00    -0.310 C  
ENDBRANCH  15  16
ENDBRANCH  14  15
ENDBRANCH  13  14
ENDBRANCH  12  13
ENDBRANCH  11  12
ENDBRANCH   9  11
ENDBRANCH   8   9
ENDBRANCH   7   8
ENDBRANCH   5   7
ENDBRANCH   2   5
TORSDOF 10
ENDMDL
MODEL      226
REMARK 921   NORMALIZED FREE ENERGY PREDICTED BY IDOCK:   -3.05 KCAL/MOL
REMARK 922        TOTAL FREE ENERGY PREDICTED BY IDOCK:   -5.32 KCAL/MOL
REMARK 923 INTER-LIGAND FREE ENERGY PREDICTED BY IDOCK:   -4.84 KCAL/MOL
REMARK 924 INTRA-LIGAND FREE ENERGY PREDICTED BY IDOCK:   -0.48 KCAL/MOL
REMARK 927      BINDING AFFINITY PREDICTED BY RF-SCORE:    0.00 PKD
ROOT
HETATM    1  N   UNL     1      -8.699   8.215  64.625  1.00  0.00    -0.397 NA 
HETATM    2  C   UNL     1      -8.559   9.252  65.647  1.00  0.00    -0.153 C  
HETATM    3  H1  UNL     1      -7.824   8.103  64.111  1.00  0.00     0.000 HD 
HETATM    4  H2  UNL     1      -9.485   8.398  64.003  1.00  0.00     0.000 HD 
ENDROOT
BRANCH   2   5
HETATM    5  C   UNL     1      -9.871   9.421  66.419  1.00  0.00    -0.269 C  
HETATM    6  O   UNL     1     -10.502  10.477  66.414  1.00  0.00    -0.235 OA 
BRANCH   5   7
HETATM    7  C   UNL     1     -10.374   8.177  67.120  1.00  0.00    -0.391 C  
BRANCH   7   8
HETATM    8  C   UNL     1      -9.785   8.014  68.515  1.00  0.00    -0.166 C  
BRANCH   8   9
HETATM    9  C   UNL     1     -10.713   7.330  69.492  1.00  0.00    -0.232 C  
HETATM   10  O   UNL     1     -11.630   6.592  69.164  1.00  0.00    -0.276 OA 
BRANCH   9  11
HETATM   11  O   UNL     1     -10.502   7.792  70.756  1.00  0.00    -0.207 OA 
BRANCH  11  12
HETATM   12  C   UNL     1     -10.613   9.209  70.890  1.00  0.00    -0.273 C  
BRANCH  12  13
HETATM   13  C   UNL     1     -11.839   9.607  71.695  1.00  0.00    -0.457 C  
BRANCH  13  14
HETATM   14  C   UNL     1     -12.543  10.765  70.991  1.00  0.00    -0.520 C  
BRANCH  14  15
HETATM   15  C   UNL     1     -13.397  11.596  71.943  1.00  0.00    -0.403 C  
BRANCH  15  16
HETATM   16  C   UNL     1     -13.139  13.089  71.731  1.00  0.00    -0.469 C  
HETATM   17  C   UNL     1     -12.288  13.335  70.495  1.00  0.00    -0.389 C  
ENDBRANCH  15  16
ENDBRANCH  14  15
ENDBRANCH  13  14
ENDBRANCH  12  13
ENDBRANCH  11  12
ENDBRANCH   9  11
ENDBRANCH   8   9
ENDBRANCH   7   8
ENDBRANCH   5   7
ENDBRANCH   2   5
TORSDOF 10
ENDMDL
MODEL      227
REMARK 921   NORMALIZED FREE ENERGY PREDICTED BY IDOCK:   -3.05 KCAL/MOL
REMARK 922        TOTAL FREE ENERGY PREDICTED BY IDOCK:   -5.32 KCAL/MOL
REMARK 923 INTER-LIGAND FREE ENERGY PREDICTED BY IDOCK:   -4.53 KCAL/MOL
REMARK 924 INTRA-LIGAND FREE ENERGY PREDICTED BY IDOCK:   -0.79 KCAL/MOL
REMARK 927      BINDING AFFINITY PREDICTED BY RF-SCORE:    0.00 PKD
ROOT
HETATM    1  N   UNL     1      -6.062  11.660  66.276  1.00  0.00    -0.466 NA 
HETATM    2  C   UNL     1      -6.475  11.627  67.679  1.00  0.00    -0.075 C  
HETATM    3  H1  UNL     1      -5.313  10.987  66.110  1.00  0.00     0.000 HD 
HETATM    4  H2  UNL     1      -5.802  12.600  65.978  1.00  0.00     0.000 HD 
ENDROOT
BRANCH   2   5
HETATM    5  C   UNL     1      -7.600  12.636  67.928  1.00  0.00    -0.132 C  
HETATM    6  O   UNL     1      -7.401  13.850  67.926  1.00  0.00    -0.118 OA 
BRANCH   5   7
HETATM    7  C   UNL     1      -8.980  12.039  68.098  1.00  0.00    -0.190 C  
BRANCH   7   8
HETATM    8  C   UNL     1      -9.957  12.512  67.030  1.00  0.00    -0.217 C  
BRANCH   8   9
HETATM    9  C   UNL     1     -10.995  13.484  67.541  1.00  0.00    -0.268 C  
HETATM   10  O   UNL     1     -11.594  13.354  68.598  1.00  0.00    -0.281 OA 
BRANCH   9  11
HETATM   11  O   UNL     1     -11.296  14.408  66.586  1.00  0.00    -0.332 OA 
BRANCH  11  12
HETATM   12  C   UNL     1     -12.396  14.051  65.748  1.00  0.00    -0.480 C  
BRANCH  12  13
HETATM   13  C   UNL     1     -12.017  14.073  64.277  1.00  0.00    -0.463 C  
BRANCH  13  14
HETATM   14  C   UNL     1     -11.870  12.638  63.778  1.00  0.00    -0.574 C  
BRANCH  14  15
HETATM   15  C   UNL     1     -10.430  12.290  63.412  1.00  0.00    -0.408 C  
BRANCH  15  16
HETATM   16  C   UNL     1     -10.199  10.782  63.517  1.00  0.00    -0.315 C  
HETATM   17  C   UNL     1      -8.800  10.468  64.021  1.00  0.00    -0.206 C  
ENDBRANCH  15  16
ENDBRANCH  14  15
ENDBRANCH  13  14
ENDBRANCH  12  13
ENDBRANCH  11  12
ENDBRANCH   9  11
ENDBRANCH   8   9
ENDBRANCH   7   8
ENDBRANCH   5   7
ENDBRANCH   2   5
TORSDOF 10
ENDMDL
MODEL      228
REMARK 921   NORMALIZED FREE ENERGY PREDICTED BY IDOCK:   -3.05 KCAL/MOL
REMARK 922        TOTAL FREE ENERGY PREDICTED BY IDOCK:   -5.32 KCAL/MOL
REMARK 923 INTER-LIGAND FREE ENERGY PREDICTED BY IDOCK:   -4.52 KCAL/MOL
REMARK 924 INTRA-LIGAND FREE ENERGY PREDICTED BY IDOCK:   -0.80 KCAL/MOL
REMARK 927      BINDING AFFINITY PREDICTED BY RF-SCORE:    0.00 PKD
ROOT
HETATM    1  N   UNL     1     -12.673   8.857  72.273  1.00  0.00    -0.394 NA 
HETATM    2  C   UNL     1     -12.725   7.561  71.596  1.00  0.00    -0.355 C  
HETATM    3  H1  UNL     1     -13.550   9.036  72.764  1.00  0.00     0.000 HD 
HETATM    4  H2  UNL     1     -12.436   9.612  71.630  1.00  0.00     0.000 HD 
ENDROOT
BRANCH   2   5
HETATM    5  C   UNL     1     -11.410   7.291  70.859  1.00  0.00    -0.280 C  
HETATM    6  O   UNL     1     -10.344   7.789  71.220  1.00  0.00    -0.198 OA 
BRANCH   5   7
HETATM    7  C   UNL     1     -11.501   6.311  69.710  1.00  0.00    -0.449 C  
BRANCH   7   8
HETATM    8  C   UNL     1     -10.290   6.376  68.788  1.00  0.00    -0.232 C  
BRANCH   8   9
HETATM    9  C   UNL     1     -10.625   6.174  67.328  1.00  0.00    -0.290 C  
HETATM   10  O   UNL     1     -10.526   5.107  66.743  1.00  0.00    -0.253 OA 
BRANCH   9  11
HETATM   11  O   UNL     1     -10.870   7.371  66.725  1.00  0.00    -0.303 OA 
BRANCH  11  12
HETATM   12  C   UNL     1      -9.815   8.324  66.858  1.00  0.00    -0.247 C  
BRANCH  12  13
HETATM   13  C   UNL     1     -10.154   9.641  66.180  1.00  0.00    -0.328 C  
BRANCH  13  14
HETATM   14  C   UNL     1     -10.122  10.760  67.219  1.00  0.00    -0.233 C  
BRANCH  14  15
HETATM   15  C   UNL     1     -10.339  10.246  68.639  1.00  0.00    -0.203 C  
BRANCH  15  16
HETATM   16  C   UNL     1     -11.582  10.887  69.257  1.00  0.00    -0.388 C  
HETATM   17  C   UNL     1     -11.656  12.372  68.942  1.00  0.00    -0.364 C  
ENDBRANCH  15  16
ENDBRANCH  14  15
ENDBRANCH  13  14
ENDBRANCH  12  13
ENDBRANCH  11  12
ENDBRANCH   9  11
ENDBRANCH   8   9
ENDBRANCH   7   8
ENDBRANCH   5   7
ENDBRANCH   2   5
TORSDOF 10
ENDMDL
MODEL      229
REMARK 921   NORMALIZED FREE ENERGY PREDICTED BY IDOCK:   -3.05 KCAL/MOL
REMARK 922        TOTAL FREE ENERGY PREDICTED BY IDOCK:   -5.31 KCAL/MOL
REMARK 923 INTER-LIGAND FREE ENERGY PREDICTED BY IDOCK:   -4.70 KCAL/MOL
REMARK 924 INTRA-LIGAND FREE ENERGY PREDICTED BY IDOCK:   -0.61 KCAL/MOL
REMARK 927      BINDING AFFINITY PREDICTED BY RF-SCORE:    0.00 PKD
ROOT
HETATM    1  N   UNL     1      -8.823   6.576  64.970  1.00  0.00    -0.352 NA 
HETATM    2  C   UNL     1      -8.029   7.792  65.142  1.00  0.00    -0.129 C  
HETATM    3  H1  UNL     1      -8.372   5.948  64.304  1.00  0.00     0.000 HD 
HETATM    4  H2  UNL     1      -9.785   6.785  64.704  1.00  0.00     0.000 HD 
ENDROOT
BRANCH   2   5
HETATM    5  C   UNL     1      -8.706   8.735  66.142  1.00  0.00    -0.160 C  
HETATM    6  O   UNL     1      -8.213   8.984  67.242  1.00  0.00    -0.103 OA 
BRANCH   5   7
HETATM    7  C   UNL     1      -9.976   9.395  65.652  1.00  0.00    -0.210 C  
BRANCH   7   8
HETATM    8  C   UNL     1      -9.771  10.861  65.294  1.00  0.00    -0.296 C  
BRANCH   8   9
HETATM    9  C   UNL     1     -10.257  11.223  63.909  1.00  0.00    -0.365 C  
HETATM   10  O   UNL     1      -9.522  11.525  62.982  1.00  0.00    -0.367 OA 
BRANCH   9  11
HETATM   11  O   UNL     1     -11.614  11.343  63.896  1.00  0.00    -0.299 OA 
BRANCH  11  12
HETATM   12  C   UNL     1     -12.086  12.652  63.572  1.00  0.00    -0.561 C  
BRANCH  12  13
HETATM   13  C   UNL     1     -12.343  13.484  64.818  1.00  0.00    -0.435 C  
BRANCH  13  14
HETATM   14  C   UNL     1     -11.321  14.617  64.879  1.00  0.00    -0.403 C  
BRANCH  14  15
HETATM   15  C   UNL     1     -10.995  15.034  66.310  1.00  0.00    -0.338 C  
BRANCH  15  16
HETATM   16  C   UNL     1     -10.757  13.803  67.186  1.00  0.00    -0.283 C  
HETATM   17  C   UNL     1     -11.776  13.715  68.310  1.00  0.00    -0.398 C  
ENDBRANCH  15  16
ENDBRANCH  14  15
ENDBRANCH  13  14
ENDBRANCH  12  13
ENDBRANCH  11  12
ENDBRANCH   9  11
ENDBRANCH   8   9
ENDBRANCH   7   8
ENDBRANCH   5   7
ENDBRANCH   2   5
TORSDOF 10
ENDMDL
MODEL      230
REMARK 921   NORMALIZED FREE ENERGY PREDICTED BY IDOCK:   -3.04 KCAL/MOL
REMARK 922        TOTAL FREE ENERGY PREDICTED BY IDOCK:   -5.31 KCAL/MOL
REMARK 923 INTER-LIGAND FREE ENERGY PREDICTED BY IDOCK:   -4.89 KCAL/MOL
REMARK 924 INTRA-LIGAND FREE ENERGY PREDICTED BY IDOCK:   -0.41 KCAL/MOL
REMARK 927      BINDING AFFINITY PREDICTED BY RF-SCORE:    0.00 PKD
ROOT
HETATM    1  N   UNL     1     -10.736   5.635  70.827  1.00  0.00    -0.264 NA 
HETATM    2  C   UNL     1     -11.686   6.584  70.246  1.00  0.00    -0.366 C  
HETATM    3  H1  UNL     1     -10.290   5.085  70.093  1.00  0.00     0.000 HD 
HETATM    4  H2  UNL     1     -11.175   5.044  71.532  1.00  0.00     0.000 HD 
ENDROOT
BRANCH   2   5
HETATM    5  C   UNL     1     -12.357   7.411  71.347  1.00  0.00    -0.361 C  
HETATM    6  O   UNL     1     -13.454   7.107  71.816  1.00  0.00    -0.355 OA 
BRANCH   5   7
HETATM    7  C   UNL     1     -11.544   8.575  71.870  1.00  0.00    -0.410 C  
BRANCH   7   8
HETATM    8  C   UNL     1     -11.426   9.707  70.858  1.00  0.00    -0.427 C  
BRANCH   8   9
HETATM    9  C   UNL     1     -10.030   9.890  70.310  1.00  0.00    -0.203 C  
HETATM   10  O   UNL     1      -9.050   9.278  70.708  1.00  0.00    -0.236 OA 
BRANCH   9  11
HETATM   11  O   UNL     1      -9.989  10.948  69.452  1.00  0.00    -0.172 OA 
BRANCH  11  12
HETATM   12  C   UNL     1     -11.260  11.543  69.191  1.00  0.00    -0.274 C  
BRANCH  12  13
HETATM   13  C   UNL     1     -11.124  12.969  68.684  1.00  0.00    -0.305 C  
BRANCH  13  14
HETATM   14  C   UNL     1     -11.810  13.083  67.325  1.00  0.00    -0.419 C  
BRANCH  14  15
HETATM   15  C   UNL     1     -10.843  13.475  66.212  1.00  0.00    -0.291 C  
BRANCH  15  16
HETATM   16  C   UNL     1     -11.516  13.342  64.845  1.00  0.00    -0.346 C  
HETATM   17  C   UNL     1     -10.716  12.443  63.916  1.00  0.00    -0.465 C  
ENDBRANCH  15  16
ENDBRANCH  14  15
ENDBRANCH  13  14
ENDBRANCH  12  13
ENDBRANCH  11  12
ENDBRANCH   9  11
ENDBRANCH   8   9
ENDBRANCH   7   8
ENDBRANCH   5   7
ENDBRANCH   2   5
TORSDOF 10
ENDMDL
MODEL      231
REMARK 921   NORMALIZED FREE ENERGY PREDICTED BY IDOCK:   -3.04 KCAL/MOL
REMARK 922        TOTAL FREE ENERGY PREDICTED BY IDOCK:   -5.29 KCAL/MOL
REMARK 923 INTER-LIGAND FREE ENERGY PREDICTED BY IDOCK:   -4.45 KCAL/MOL
REMARK 924 INTRA-LIGAND FREE ENERGY PREDICTED BY IDOCK:   -0.84 KCAL/MOL
REMARK 927      BINDING AFFINITY PREDICTED BY RF-SCORE:    0.00 PKD
ROOT
HETATM    1  N   UNL     1      -7.413  10.291  70.608  1.00  0.00    -0.402 NA 
HETATM    2  C   UNL     1      -7.193   8.852  70.753  1.00  0.00    -0.083 C  
HETATM    3  H1  UNL     1      -6.766  10.683  69.924  1.00  0.00     0.000 HD 
HETATM    4  H2  UNL     1      -7.358  10.775  71.505  1.00  0.00     0.000 HD 
ENDROOT
BRANCH   2   5
HETATM    5  C   UNL     1      -8.165   8.263  71.780  1.00  0.00    -0.145 C  
HETATM    6  O   UNL     1      -8.210   8.665  72.942  1.00  0.00    -0.393 OA 
BRANCH   5   7
HETATM    7  C   UNL     1      -9.115   7.214  71.246  1.00  0.00    -0.151 C  
BRANCH   7   8
HETATM    8  C   UNL     1     -10.268   6.929  72.200  1.00  0.00    -0.213 C  
BRANCH   8   9
HETATM    9  C   UNL     1     -11.631   7.184  71.600  1.00  0.00    -0.276 C  
HETATM   10  O   UNL     1     -12.075   6.593  70.628  1.00  0.00    -0.394 OA 
BRANCH   9  11
HETATM   11  O   UNL     1     -12.208   8.277  72.174  1.00  0.00    -0.325 OA 
BRANCH  11  12
HETATM   12  C   UNL     1     -11.731   9.526  71.673  1.00  0.00    -0.390 C  
BRANCH  12  13
HETATM   13  C   UNL     1     -12.783  10.240  70.840  1.00  0.00    -0.462 C  
BRANCH  13  14
HETATM   14  C   UNL     1     -12.118  10.833  69.600  1.00  0.00    -0.361 C  
BRANCH  14  15
HETATM   15  C   UNL     1     -10.691  10.332  69.404  1.00  0.00    -0.272 C  
BRANCH  15  16
HETATM   16  C   UNL     1     -10.435  10.004  67.933  1.00  0.00    -0.276 C  
HETATM   17  C   UNL     1     -10.512   8.508  67.675  1.00  0.00    -0.308 C  
ENDBRANCH  15  16
ENDBRANCH  14  15
ENDBRANCH  13  14
ENDBRANCH  12  13
ENDBRANCH  11  12
ENDBRANCH   9  11
ENDBRANCH   8   9
ENDBRANCH   7   8
ENDBRANCH   5   7
ENDBRANCH   2   5
TORSDOF 10
ENDMDL
MODEL      232
REMARK 921   NORMALIZED FREE ENERGY PREDICTED BY IDOCK:   -3.03 KCAL/MOL
REMARK 922        TOTAL FREE ENERGY PREDICTED BY IDOCK:   -5.28 KCAL/MOL
REMARK 923 INTER-LIGAND FREE ENERGY PREDICTED BY IDOCK:   -4.62 KCAL/MOL
REMARK 924 INTRA-LIGAND FREE ENERGY PREDICTED BY IDOCK:   -0.66 KCAL/MOL
REMARK 927      BINDING AFFINITY PREDICTED BY RF-SCORE:    0.00 PKD
ROOT
HETATM    1  N   UNL     1     -11.444  15.363  68.379  1.00  0.00    -0.342 NA 
HETATM    2  C   UNL     1     -11.933  14.198  67.641  1.00  0.00    -0.370 C  
HETATM    3  H1  UNL     1     -11.886  15.413  69.297  1.00  0.00     0.000 HD 
HETATM    4  H2  UNL     1     -11.567  16.226  67.850  1.00  0.00     0.000 HD 
ENDROOT
BRANCH   2   5
HETATM    5  C   UNL     1     -11.270  14.123  66.262  1.00  0.00    -0.329 C  
HETATM    6  O   UNL     1     -11.461  14.977  65.397  1.00  0.00    -0.343 OA 
BRANCH   5   7
HETATM    7  C   UNL     1     -10.307  12.972  66.069  1.00  0.00    -0.293 C  
BRANCH   7   8
HETATM    8  C   UNL     1     -10.825  11.670  66.665  1.00  0.00    -0.327 C  
BRANCH   8   9
HETATM    9  C   UNL     1     -10.103  10.441  66.164  1.00  0.00    -0.237 C  
HETATM   10  O   UNL     1     -10.112  10.066  65.002  1.00  0.00    -0.323 OA 
BRANCH   9  11
HETATM   11  O   UNL     1      -9.603   9.722  67.208  1.00  0.00    -0.150 OA 
BRANCH  11  12
HETATM   12  C   UNL     1     -10.169   8.418  67.350  1.00  0.00    -0.260 C  
BRANCH  12  13
HETATM   13  C   UNL     1     -10.458   8.082  68.803  1.00  0.00    -0.196 C  
BRANCH  13  14
HETATM   14  C   UNL     1      -9.834   9.152  69.696  1.00  0.00    -0.188 C  
BRANCH  14  15
HETATM   15  C   UNL     1     -10.553   9.291  71.034  1.00  0.00    -0.386 C  
BRANCH  15  16
HETATM   16  C   UNL     1     -11.962   9.849  70.830  1.00  0.00    -0.410 C  
HETATM   17  C   UNL     1     -11.925  11.298  70.370  1.00  0.00    -0.471 C  
ENDBRANCH  15  16
ENDBRANCH  14  15
ENDBRANCH  13  14
ENDBRANCH  12  13
ENDBRANCH  11  12
ENDBRANCH   9  11
ENDBRANCH   8   9
ENDBRANCH   7   8
ENDBRANCH   5   7
ENDBRANCH   2   5
TORSDOF 10
ENDMDL
MODEL      233
REMARK 921   NORMALIZED FREE ENERGY PREDICTED BY IDOCK:   -3.02 KCAL/MOL
REMARK 922        TOTAL FREE ENERGY PREDICTED BY IDOCK:   -5.27 KCAL/MOL
REMARK 923 INTER-LIGAND FREE ENERGY PREDICTED BY IDOCK:   -4.57 KCAL/MOL
REMARK 924 INTRA-LIGAND FREE ENERGY PREDICTED BY IDOCK:   -0.70 KCAL/MOL
REMARK 927      BINDING AFFINITY PREDICTED BY RF-SCORE:    0.00 PKD
ROOT
HETATM    1  N   UNL     1     -11.415   4.533  65.140  1.00  0.00    -1.109 NA 
HETATM    2  C   UNL     1      -9.978   4.255  65.136  1.00  0.00    -0.204 C  
HETATM    3  H1  UNL     1     -11.819   4.327  64.227  1.00  0.00     0.000 HD 
HETATM    4  H2  UNL     1     -11.616   5.488  65.439  1.00  0.00     0.000 HD 
ENDROOT
BRANCH   2   5
HETATM    5  C   UNL     1      -9.371   4.565  66.508  1.00  0.00    -0.151 C  
HETATM    6  O   UNL     1      -9.490   3.799  67.464  1.00  0.00    -0.185 OA 
BRANCH   5   7
HETATM    7  C   UNL     1      -8.551   5.834  66.581  1.00  0.00    -0.118 C  
BRANCH   7   8
HETATM    8  C   UNL     1      -9.369   7.078  66.259  1.00  0.00    -0.146 C  
BRANCH   8   9
HETATM    9  C   UNL     1     -10.450   7.375  67.272  1.00  0.00    -0.315 C  
HETATM   10  O   UNL     1     -11.530   6.805  67.311  1.00  0.00    -0.193 OA 
BRANCH   9  11
HETATM   11  O   UNL     1     -10.126   8.476  68.006  1.00  0.00    -0.182 OA 
BRANCH  11  12
HETATM   12  C   UNL     1      -9.702   9.597  67.230  1.00  0.00    -0.166 C  
BRANCH  12  13
HETATM   13  C   UNL     1     -10.818  10.613  67.047  1.00  0.00    -0.298 C  
BRANCH  13  14
HETATM   14  C   UNL     1     -11.519  10.829  68.386  1.00  0.00    -0.358 C  
BRANCH  14  15
HETATM   15  C   UNL     1     -11.745  12.305  68.697  1.00  0.00    -0.377 C  
BRANCH  15  16
HETATM   16  C   UNL     1     -11.069  13.184  67.644  1.00  0.00    -0.295 C  
HETATM   17  C   UNL     1     -12.036  14.210  67.074  1.00  0.00    -0.471 C  
ENDBRANCH  15  16
ENDBRANCH  14  15
ENDBRANCH  13  14
ENDBRANCH  12  13
ENDBRANCH  11  12
ENDBRANCH   9  11
ENDBRANCH   8   9
ENDBRANCH   7   8
ENDBRANCH   5   7
ENDBRANCH   2   5
TORSDOF 10
ENDMDL
MODEL      234
REMARK 921   NORMALIZED FREE ENERGY PREDICTED BY IDOCK:   -3.02 KCAL/MOL
REMARK 922        TOTAL FREE ENERGY PREDICTED BY IDOCK:   -5.27 KCAL/MOL
REMARK 923 INTER-LIGAND FREE ENERGY PREDICTED BY IDOCK:   -4.59 KCAL/MOL
REMARK 924 INTRA-LIGAND FREE ENERGY PREDICTED BY IDOCK:   -0.68 KCAL/MOL
REMARK 927      BINDING AFFINITY PREDICTED BY RF-SCORE:    0.00 PKD
ROOT
HETATM    1  N   UNL     1      -7.884  11.106  65.445  1.00  0.00    -0.351 NA 
HETATM    2  C   UNL     1      -9.129  10.349  65.577  1.00  0.00    -0.177 C  
HETATM    3  H1  UNL     1      -7.197  10.571  64.913  1.00  0.00     0.000 HD 
HETATM    4  H2  UNL     1      -7.520  11.399  66.351  1.00  0.00     0.000 HD 
ENDROOT
BRANCH   2   5
HETATM    5  C   UNL     1     -10.160  11.153  66.374  1.00  0.00    -0.226 C  
HETATM    6  O   UNL     1     -10.078  11.296  67.594  1.00  0.00    -0.176 OA 
BRANCH   5   7
HETATM    7  C   UNL     1     -11.239  11.822  65.550  1.00  0.00    -0.316 C  
BRANCH   7   8
HETATM    8  C   UNL     1     -10.737  13.066  64.830  1.00  0.00    -0.370 C  
BRANCH   8   9
HETATM    9  C   UNL     1     -11.840  13.997  64.382  1.00  0.00    -0.431 C  
HETATM   10  O   UNL     1     -12.490  13.849  63.359  1.00  0.00    -0.833 OA 
BRANCH   9  11
HETATM   11  O   UNL     1     -11.878  15.106  65.173  1.00  0.00    -0.248 OA 
BRANCH  11  12
HETATM   12  C   UNL     1     -10.881  16.082  64.866  1.00  0.00    -0.372 C  
BRANCH  12  13
HETATM   13  C   UNL     1     -10.368  16.778  66.116  1.00  0.00    -0.338 C  
BRANCH  13  14
HETATM   14  C   UNL     1     -10.061  15.728  67.181  1.00  0.00    -0.251 C  
BRANCH  14  15
HETATM   15  C   UNL     1      -8.710  15.054  66.966  1.00  0.00    -0.262 C  
BRANCH  15  16
HETATM   16  C   UNL     1      -8.010  14.817  68.304  1.00  0.00    -0.130 C  
HETATM   17  C   UNL     1      -7.271  13.489  68.318  1.00  0.00    -0.111 C  
ENDBRANCH  15  16
ENDBRANCH  14  15
ENDBRANCH  13  14
ENDBRANCH  12  13
ENDBRANCH  11  12
ENDBRANCH   9  11
ENDBRANCH   8   9
ENDBRANCH   7   8
ENDBRANCH   5   7
ENDBRANCH   2   5
TORSDOF 10
ENDMDL
MODEL      235
REMARK 921   NORMALIZED FREE ENERGY PREDICTED BY IDOCK:   -3.01 KCAL/MOL
REMARK 922        TOTAL FREE ENERGY PREDICTED BY IDOCK:   -5.26 KCAL/MOL
REMARK 923 INTER-LIGAND FREE ENERGY PREDICTED BY IDOCK:   -4.89 KCAL/MOL
REMARK 924 INTRA-LIGAND FREE ENERGY PREDICTED BY IDOCK:   -0.37 KCAL/MOL
REMARK 927      BINDING AFFINITY PREDICTED BY RF-SCORE:    0.00 PKD
ROOT
HETATM    1  N   UNL     1     -10.892  10.930  64.119  1.00  0.00    -0.399 NA 
HETATM    2  C   UNL     1     -11.632  12.173  64.337  1.00  0.00    -0.350 C  
HETATM    3  H1  UNL     1     -11.121  10.535  63.206  1.00  0.00     0.000 HD 
HETATM    4  H2  UNL     1     -11.044  10.260  64.873  1.00  0.00     0.000 HD 
ENDROOT
BRANCH   2   5
HETATM    5  C   UNL     1     -11.289  12.766  65.706  1.00  0.00    -0.320 C  
HETATM    6  O   UNL     1     -10.559  12.182  66.507  1.00  0.00    -0.227 OA 
BRANCH   5   7
HETATM    7  C   UNL     1     -11.843  14.149  65.970  1.00  0.00    -0.409 C  
BRANCH   7   8
HETATM    8  C   UNL     1     -10.816  15.079  66.604  1.00  0.00    -0.318 C  
BRANCH   8   9
HETATM    9  C   UNL     1     -10.393  16.219  65.707  1.00  0.00    -0.374 C  
HETATM   10  O   UNL     1     -11.125  16.758  64.891  1.00  0.00    -0.573 OA 
BRANCH   9  11
HETATM   11  O   UNL     1      -9.051  16.432  65.807  1.00  0.00    -0.465 OA 
BRANCH  11  12
HETATM   12  C   UNL     1      -8.667  17.260  66.906  1.00  0.00    -0.240 C  
BRANCH  12  13
HETATM   13  C   UNL     1      -7.159  17.426  66.988  1.00  0.00    -0.216 C  
BRANCH  13  14
HETATM   14  C   UNL     1      -6.682  16.975  68.366  1.00  0.00    -0.170 C  
BRANCH  14  15
HETATM   15  C   UNL     1      -6.399  18.148  69.300  1.00  0.00    -0.257 C  
BRANCH  15  16
HETATM   16  C   UNL     1      -5.593  19.228  68.576  1.00  0.00    -0.215 C  
HETATM   17  C   UNL     1      -6.141  20.616  68.864  1.00  0.00    -0.357 C  
ENDBRANCH  15  16
ENDBRANCH  14  15
ENDBRANCH  13  14
ENDBRANCH  12  13
ENDBRANCH  11  12
ENDBRANCH   9  11
ENDBRANCH   8   9
ENDBRANCH   7   8
ENDBRANCH   5   7
ENDBRANCH   2   5
TORSDOF 10
ENDMDL
MODEL      236
REMARK 921   NORMALIZED FREE ENERGY PREDICTED BY IDOCK:   -3.01 KCAL/MOL
REMARK 922        TOTAL FREE ENERGY PREDICTED BY IDOCK:   -5.25 KCAL/MOL
REMARK 923 INTER-LIGAND FREE ENERGY PREDICTED BY IDOCK:   -4.85 KCAL/MOL
REMARK 924 INTRA-LIGAND FREE ENERGY PREDICTED BY IDOCK:   -0.40 KCAL/MOL
REMARK 927      BINDING AFFINITY PREDICTED BY RF-SCORE:    0.00 PKD
ROOT
HETATM    1  N   UNL     1      -9.363  14.914  69.426  1.00  0.00    -0.406 NA 
HETATM    2  C   UNL     1      -9.802  14.766  68.038  1.00  0.00    -0.218 C  
HETATM    3  H1  UNL     1      -8.351  14.799  69.492  1.00  0.00     0.000 HD 
HETATM    4  H2  UNL     1      -9.860  14.279  70.050  1.00  0.00     0.000 HD 
ENDROOT
BRANCH   2   5
HETATM    5  C   UNL     1     -11.321  14.938  67.937  1.00  0.00    -0.327 C  
HETATM    6  O   UNL     1     -11.922  15.814  68.557  1.00  0.00    -0.314 OA 
BRANCH   5   7
HETATM    7  C   UNL     1     -12.015  14.009  66.965  1.00  0.00    -0.472 C  
BRANCH   7   8
HETATM    8  C   UNL     1     -11.256  13.864  65.652  1.00  0.00    -0.306 C  
BRANCH   8   9
HETATM    9  C   UNL     1     -11.942  12.965  64.649  1.00  0.00    -0.392 C  
HETATM   10  O   UNL     1     -13.070  12.518  64.787  1.00  0.00    -0.853 OA 
BRANCH   9  11
HETATM   11  O   UNL     1     -11.068  12.583  63.676  1.00  0.00    -0.418 OA 
BRANCH  11  12
HETATM   12  C   UNL     1      -9.948  11.835  64.152  1.00  0.00    -0.272 C  
BRANCH  12  13
HETATM   13  C   UNL     1     -10.285  10.364  64.332  1.00  0.00    -0.245 C  
BRANCH  13  14
HETATM   14  C   UNL     1      -8.990   9.575  64.510  1.00  0.00    -0.256 C  
BRANCH  14  15
HETATM   15  C   UNL     1      -7.956   9.895  63.435  1.00  0.00    -0.153 C  
BRANCH  15  16
HETATM   16  C   UNL     1      -7.836   8.735  62.445  1.00  0.00    -0.135 C  
HETATM   17  C   UNL     1      -6.460   8.090  62.510  1.00  0.00    -0.086 C  
ENDBRANCH  15  16
ENDBRANCH  14  15
ENDBRANCH  13  14
ENDBRANCH  12  13
ENDBRANCH  11  12
ENDBRANCH   9  11
ENDBRANCH   8   9
ENDBRANCH   7   8
ENDBRANCH   5   7
ENDBRANCH   2   5
TORSDOF 10
ENDMDL
MODEL      237
REMARK 921   NORMALIZED FREE ENERGY PREDICTED BY IDOCK:   -3.00 KCAL/MOL
REMARK 922        TOTAL FREE ENERGY PREDICTED BY IDOCK:   -5.24 KCAL/MOL
REMARK 923 INTER-LIGAND FREE ENERGY PREDICTED BY IDOCK:   -4.81 KCAL/MOL
REMARK 924 INTRA-LIGAND FREE ENERGY PREDICTED BY IDOCK:   -0.43 KCAL/MOL
REMARK 927      BINDING AFFINITY PREDICTED BY RF-SCORE:    0.00 PKD
ROOT
HETATM    1  N   UNL     1     -13.441  15.555  72.103  1.00  0.00    -0.457 NA 
HETATM    2  C   UNL     1     -13.149  14.123  72.052  1.00  0.00    -0.387 C  
HETATM    3  H1  UNL     1     -13.998  15.775  72.929  1.00  0.00     0.000 HD 
HETATM    4  H2  UNL     1     -13.886  15.883  71.246  1.00  0.00     0.000 HD 
ENDROOT
BRANCH   2   5
HETATM    5  C   UNL     1     -12.312  13.792  70.812  1.00  0.00    -0.379 C  
HETATM    6  O   UNL     1     -12.082  12.634  70.468  1.00  0.00    -0.363 OA 
BRANCH   5   7
HETATM    7  C   UNL     1     -11.859  14.986  69.999  1.00  0.00    -0.360 C  
BRANCH   7   8
HETATM    8  C   UNL     1     -11.687  14.656  68.522  1.00  0.00    -0.348 C  
BRANCH   8   9
HETATM    9  C   UNL     1     -10.837  15.655  67.771  1.00  0.00    -0.307 C  
HETATM   10  O   UNL     1     -10.934  16.866  67.892  1.00  0.00    -0.342 OA 
BRANCH   9  11
HETATM   11  O   UNL     1     -10.090  15.027  66.820  1.00  0.00    -0.247 OA 
BRANCH  11  12
HETATM   12  C   UNL     1      -9.560  13.765  67.228  1.00  0.00    -0.237 C  
BRANCH  12  13
HETATM   13  C   UNL     1      -9.545  12.762  66.086  1.00  0.00    -0.214 C  
BRANCH  13  14
HETATM   14  C   UNL     1     -10.250  11.485  66.536  1.00  0.00    -0.253 C  
BRANCH  14  15
HETATM   15  C   UNL     1     -10.024  10.322  65.575  1.00  0.00    -0.364 C  
BRANCH  15  16
HETATM   16  C   UNL     1      -9.973   8.998  66.338  1.00  0.00    -0.370 C  
HETATM   17  C   UNL     1      -8.730   8.198  65.982  1.00  0.00    -0.182 C  
ENDBRANCH  15  16
ENDBRANCH  14  15
ENDBRANCH  13  14
ENDBRANCH  12  13
ENDBRANCH  11  12
ENDBRANCH   9  11
ENDBRANCH   8   9
ENDBRANCH   7   8
ENDBRANCH   5   7
ENDBRANCH   2   5
TORSDOF 10
ENDMDL
MODEL      238
REMARK 921   NORMALIZED FREE ENERGY PREDICTED BY IDOCK:   -2.99 KCAL/MOL
REMARK 922        TOTAL FREE ENERGY PREDICTED BY IDOCK:   -5.23 KCAL/MOL
REMARK 923 INTER-LIGAND FREE ENERGY PREDICTED BY IDOCK:   -4.60 KCAL/MOL
REMARK 924 INTRA-LIGAND FREE ENERGY PREDICTED BY IDOCK:   -0.63 KCAL/MOL
REMARK 927      BINDING AFFINITY PREDICTED BY RF-SCORE:    0.00 PKD
ROOT
HETATM    1  N   UNL     1     -12.143  12.460  66.611  1.00  0.00    -0.584 NA 
HETATM    2  C   UNL     1     -11.424  13.243  65.606  1.00  0.00    -0.318 C  
HETATM    3  H1  UNL     1     -12.555  13.075  67.313  1.00  0.00     0.000 HD 
HETATM    4  H2  UNL     1     -11.549  11.745  67.031  1.00  0.00     0.000 HD 
ENDROOT
BRANCH   2   5
HETATM    5  C   UNL     1     -10.806  12.320  64.551  1.00  0.00    -0.315 C  
HETATM    6  O   UNL     1     -11.246  12.251  63.404  1.00  0.00    -0.438 OA 
BRANCH   5   7
HETATM    7  C   UNL     1      -9.574  11.561  64.996  1.00  0.00    -0.222 C  
BRANCH   7   8
HETATM    8  C   UNL     1      -9.871  10.104  65.322  1.00  0.00    -0.388 C  
BRANCH   8   9
HETATM    9  C   UNL     1      -9.628   9.742  66.769  1.00  0.00    -0.177 C  
HETATM   10  O   UNL     1      -8.551   9.373  67.212  1.00  0.00    -0.127 OA 
BRANCH   9  11
HETATM   11  O   UNL     1     -10.803   9.709  67.457  1.00  0.00    -0.286 OA 
BRANCH  11  12
HETATM   12  C   UNL     1     -10.685   9.241  68.801  1.00  0.00    -0.154 C  
BRANCH  12  13
HETATM   13  C   UNL     1     -10.973  10.341  69.810  1.00  0.00    -0.338 C  
BRANCH  13  14
HETATM   14  C   UNL     1     -11.322   9.705  71.154  1.00  0.00    -0.456 C  
BRANCH  14  15
HETATM   15  C   UNL     1     -10.772   8.289  71.292  1.00  0.00    -0.276 C  
BRANCH  15  16
HETATM   16  C   UNL     1      -9.797   8.205  72.466  1.00  0.00    -0.363 C  
HETATM   17  C   UNL     1      -9.464   6.762  72.810  1.00  0.00    -0.157 C  
ENDBRANCH  15  16
ENDBRANCH  14  15
ENDBRANCH  13  14
ENDBRANCH  12  13
ENDBRANCH  11  12
ENDBRANCH   9  11
ENDBRANCH   8   9
ENDBRANCH   7   8
ENDBRANCH   5   7
ENDBRANCH   2   5
TORSDOF 10
ENDMDL
MODEL      239
REMARK 921   NORMALIZED FREE ENERGY PREDICTED BY IDOCK:   -2.99 KCAL/MOL
REMARK 922        TOTAL FREE ENERGY PREDICTED BY IDOCK:   -5.22 KCAL/MOL
REMARK 923 INTER-LIGAND FREE ENERGY PREDICTED BY IDOCK:   -4.01 KCAL/MOL
REMARK 924 INTRA-LIGAND FREE ENERGY PREDICTED BY IDOCK:   -1.22 KCAL/MOL
REMARK 927      BINDING AFFINITY PREDICTED BY RF-SCORE:    0.00 PKD
ROOT
HETATM    1  N   UNL     1     -11.435  10.660  68.507  1.00  0.00    -0.414 NA 
HETATM    2  C   UNL     1     -10.706   9.573  67.853  1.00  0.00    -0.228 C  
HETATM    3  H1  UNL     1     -11.955  11.204  67.817  1.00  0.00     0.000 HD 
HETATM    4  H2  UNL     1     -10.818  11.247  69.068  1.00  0.00     0.000 HD 
ENDROOT
BRANCH   2   5
HETATM    5  C   UNL     1      -9.925   8.756  68.887  1.00  0.00    -0.192 C  
HETATM    6  O   UNL     1      -9.663   7.566  68.718  1.00  0.00    -0.148 OA 
BRANCH   5   7
HETATM    7  C   UNL     1      -9.433   9.534  70.088  1.00  0.00    -0.287 C  
BRANCH   7   8
HETATM    8  C   UNL     1      -9.863   8.906  71.407  1.00  0.00    -0.376 C  
BRANCH   8   9
HETATM    9  C   UNL     1     -11.343   9.035  71.689  1.00  0.00    -0.360 C  
HETATM   10  O   UNL     1     -12.024   9.991  71.352  1.00  0.00    -0.365 OA 
BRANCH   9  11
HETATM   11  O   UNL     1     -11.760   8.038  72.519  1.00  0.00    -0.367 OA 
BRANCH  11  12
HETATM   12  C   UNL     1     -12.010   6.794  71.864  1.00  0.00    -0.333 C  
BRANCH  12  13
HETATM   13  C   UNL     1     -11.341   5.633  72.581  1.00  0.00    -0.356 C  
BRANCH  13  14
HETATM   14  C   UNL     1     -10.364   4.953  71.625  1.00  0.00    -0.241 C  
BRANCH  14  15
HETATM   15  C   UNL     1      -8.948   5.509  71.741  1.00  0.00    -0.144 C  
BRANCH  15  16
HETATM   16  C   UNL     1      -8.554   5.667  73.210  1.00  0.00    -0.116 C  
HETATM   17  C   UNL     1      -7.490   6.739  73.387  1.00  0.00    -0.082 C  
ENDBRANCH  15  16
ENDBRANCH  14  15
ENDBRANCH  13  14
ENDBRANCH  12  13
ENDBRANCH  11  12
ENDBRANCH   9  11
ENDBRANCH   8   9
ENDBRANCH   7   8
ENDBRANCH   5   7
ENDBRANCH   2   5
TORSDOF 10
ENDMDL
MODEL      240
REMARK 921   NORMALIZED FREE ENERGY PREDICTED BY IDOCK:   -2.98 KCAL/MOL
REMARK 922        TOTAL FREE ENERGY PREDICTED BY IDOCK:   -5.21 KCAL/MOL
REMARK 923 INTER-LIGAND FREE ENERGY PREDICTED BY IDOCK:   -4.50 KCAL/MOL
REMARK 924 INTRA-LIGAND FREE ENERGY PREDICTED BY IDOCK:   -0.72 KCAL/MOL
REMARK 927      BINDING AFFINITY PREDICTED BY RF-SCORE:    0.00 PKD
ROOT
HETATM    1  N   UNL     1     -10.096   5.140  71.322  1.00  0.00    -0.202 NA 
HETATM    2  C   UNL     1     -11.070   5.713  72.250  1.00  0.00    -0.261 C  
HETATM    3  H1  UNL     1      -9.704   4.279  71.704  1.00  0.00     0.000 HD 
HETATM    4  H2  UNL     1      -9.369   5.811  71.073  1.00  0.00     0.000 HD 
ENDROOT
BRANCH   2   5
HETATM    5  C   UNL     1     -11.658   7.006  71.677  1.00  0.00    -0.285 C  
HETATM    6  O   UNL     1     -12.503   7.000  70.782  1.00  0.00    -0.338 OA 
BRANCH   5   7
HETATM    7  C   UNL     1     -11.186   8.282  72.340  1.00  0.00    -0.451 C  
BRANCH   7   8
HETATM    8  C   UNL     1      -9.950   8.867  71.670  1.00  0.00    -0.397 C  
BRANCH   8   9
HETATM    9  C   UNL     1     -10.264   9.798  70.522  1.00  0.00    -0.255 C  
HETATM   10  O   UNL     1     -11.269  10.489  70.454  1.00  0.00    -0.304 OA 
BRANCH   9  11
HETATM   11  O   UNL     1      -9.373   9.621  69.506  1.00  0.00    -0.173 OA 
BRANCH  11  12
HETATM   12  C   UNL     1      -9.558   8.414  68.765  1.00  0.00    -0.149 C  
BRANCH  12  13
HETATM   13  C   UNL     1     -10.520   8.604  67.604  1.00  0.00    -0.311 C  
BRANCH  13  14
HETATM   14  C   UNL     1     -10.048   9.782  66.755  1.00  0.00    -0.295 C  
BRANCH  14  15
HETATM   15  C   UNL     1     -10.969  10.993  66.871  1.00  0.00    -0.311 C  
BRANCH  15  16
HETATM   16  C   UNL     1     -11.003  11.769  65.553  1.00  0.00    -0.344 C  
HETATM   17  C   UNL     1     -10.363  10.975  64.425  1.00  0.00    -0.424 C  
ENDBRANCH  15  16
ENDBRANCH  14  15
ENDBRANCH  13  14
ENDBRANCH  12  13
ENDBRANCH  11  12
ENDBRANCH   9  11
ENDBRANCH   8   9
ENDBRANCH   7   8
ENDBRANCH   5   7
ENDBRANCH   2   5
TORSDOF 10
ENDMDL
MODEL      241
REMARK 921   NORMALIZED FREE ENERGY PREDICTED BY IDOCK:   -2.98 KCAL/MOL
REMARK 922        TOTAL FREE ENERGY PREDICTED BY IDOCK:   -5.21 KCAL/MOL
REMARK 923 INTER-LIGAND FREE ENERGY PREDICTED BY IDOCK:   -4.47 KCAL/MOL
REMARK 924 INTRA-LIGAND FREE ENERGY PREDICTED BY IDOCK:   -0.75 KCAL/MOL
REMARK 927      BINDING AFFINITY PREDICTED BY RF-SCORE:    0.00 PKD
ROOT
HETATM    1  N   UNL     1      -9.793   8.906  65.675  1.00  0.00    -0.453 NA 
HETATM    2  C   UNL     1      -9.482   8.504  67.047  1.00  0.00    -0.173 C  
HETATM    3  H1  UNL     1      -9.246   9.727  65.412  1.00  0.00     0.000 HD 
HETATM    4  H2  UNL     1     -10.792   9.055  65.540  1.00  0.00     0.000 HD 
ENDROOT
BRANCH   2   5
HETATM    5  C   UNL     1     -10.302   7.272  67.442  1.00  0.00    -0.260 C  
HETATM    6  O   UNL     1     -11.215   6.842  66.738  1.00  0.00    -0.279 OA 
BRANCH   5   7
HETATM    7  C   UNL     1      -9.859   6.579  68.712  1.00  0.00    -0.146 C  
BRANCH   7   8
HETATM    8  C   UNL     1     -11.032   6.079  69.544  1.00  0.00    -0.467 C  
BRANCH   8   9
HETATM    9  C   UNL     1     -10.623   5.218  70.717  1.00  0.00    -0.186 C  
HETATM   10  O   UNL     1      -9.906   4.234  70.628  1.00  0.00    -0.196 OA 
BRANCH   9  11
HETATM   11  O   UNL     1     -11.307   5.583  71.838  1.00  0.00    -0.193 OA 
BRANCH  11  12
HETATM   12  C   UNL     1     -12.252   6.634  71.635  1.00  0.00    -0.352 C  
BRANCH  12  13
HETATM   13  C   UNL     1     -11.849   7.905  72.365  1.00  0.00    -0.402 C  
BRANCH  13  14
HETATM   14  C   UNL     1     -10.593   7.629  73.189  1.00  0.00    -0.438 C  
BRANCH  14  15
HETATM   15  C   UNL     1      -9.383   8.414  72.692  1.00  0.00    -0.334 C  
BRANCH  15  16
HETATM   16  C   UNL     1      -9.706   9.119  71.374  1.00  0.00    -0.338 C  
HETATM   17  C   UNL     1      -8.453   9.348  70.545  1.00  0.00    -0.251 C  
ENDBRANCH  15  16
ENDBRANCH  14  15
ENDBRANCH  13  14
ENDBRANCH  12  13
ENDBRANCH  11  12
ENDBRANCH   9  11
ENDBRANCH   8   9
ENDBRANCH   7   8
ENDBRANCH   5   7
ENDBRANCH   2   5
TORSDOF 10
ENDMDL
MODEL      242
REMARK 921   NORMALIZED FREE ENERGY PREDICTED BY IDOCK:   -2.98 KCAL/MOL
REMARK 922        TOTAL FREE ENERGY PREDICTED BY IDOCK:   -5.20 KCAL/MOL
REMARK 923 INTER-LIGAND FREE ENERGY PREDICTED BY IDOCK:   -4.60 KCAL/MOL
REMARK 924 INTRA-LIGAND FREE ENERGY PREDICTED BY IDOCK:   -0.60 KCAL/MOL
REMARK 927      BINDING AFFINITY PREDICTED BY RF-SCORE:    0.00 PKD
ROOT
HETATM    1  N   UNL     1     -12.266  10.880  68.447  1.00  0.00    -0.810 NA 
HETATM    2  C   UNL     1     -11.202  10.965  67.446  1.00  0.00    -0.273 C  
HETATM    3  H1  UNL     1     -13.010  10.260  68.123  1.00  0.00     0.000 HD 
HETATM    4  H2  UNL     1     -12.622  11.801  68.702  1.00  0.00     0.000 HD 
ENDROOT
BRANCH   2   5
HETATM    5  C   UNL     1     -10.086  11.894  67.932  1.00  0.00    -0.192 C  
HETATM    6  O   UNL     1     -10.264  13.101  68.093  1.00  0.00    -0.227 OA 
BRANCH   5   7
HETATM    7  C   UNL     1      -8.778  11.213  68.272  1.00  0.00    -0.151 C  
BRANCH   7   8
HETATM    8  C   UNL     1      -8.977   9.804  68.816  1.00  0.00    -0.133 C  
BRANCH   8   9
HETATM    9  C   UNL     1      -8.292   9.561  70.140  1.00  0.00    -0.192 C  
HETATM   10  O   UNL     1      -7.309  10.174  70.528  1.00  0.00    -0.292 OA 
BRANCH   9  11
HETATM   11  O   UNL     1      -8.805   8.454  70.747  1.00  0.00    -0.135 OA 
BRANCH  11  12
HETATM   12  C   UNL     1      -9.476   8.716  71.980  1.00  0.00    -0.300 C  
BRANCH  12  13
HETATM   13  C   UNL     1     -10.921   9.134  71.759  1.00  0.00    -0.429 C  
BRANCH  13  14
HETATM   14  C   UNL     1     -11.842   8.012  72.234  1.00  0.00    -0.424 C  
BRANCH  14  15
HETATM   15  C   UNL     1     -11.573   6.692  71.519  1.00  0.00    -0.357 C  
BRANCH  15  16
HETATM   16  C   UNL     1     -11.911   6.809  70.032  1.00  0.00    -0.265 C  
HETATM   17  C   UNL     1     -10.886   6.087  69.171  1.00  0.00    -0.422 C  
ENDBRANCH  15  16
ENDBRANCH  14  15
ENDBRANCH  13  14
ENDBRANCH  12  13
ENDBRANCH  11  12
ENDBRANCH   9  11
ENDBRANCH   8   9
ENDBRANCH   7   8
ENDBRANCH   5   7
ENDBRANCH   2   5
TORSDOF 10
ENDMDL
MODEL      243
REMARK 921   NORMALIZED FREE ENERGY PREDICTED BY IDOCK:   -2.97 KCAL/MOL
REMARK 922        TOTAL FREE ENERGY PREDICTED BY IDOCK:   -5.19 KCAL/MOL
REMARK 923 INTER-LIGAND FREE ENERGY PREDICTED BY IDOCK:   -4.88 KCAL/MOL
REMARK 924 INTRA-LIGAND FREE ENERGY PREDICTED BY IDOCK:   -0.30 KCAL/MOL
REMARK 927      BINDING AFFINITY PREDICTED BY RF-SCORE:    0.00 PKD
ROOT
HETATM    1  N   UNL     1      -7.304  10.897  70.050  1.00  0.00    -0.426 NA 
HETATM    2  C   UNL     1      -7.153   9.481  70.387  1.00  0.00    -0.120 C  
HETATM    3  H1  UNL     1      -6.464  11.243  69.585  1.00  0.00     0.000 HD 
HETATM    4  H2  UNL     1      -7.545  11.458  70.867  1.00  0.00     0.000 HD 
ENDROOT
BRANCH   2   5
HETATM    5  C   UNL     1      -8.413   8.961  71.085  1.00  0.00    -0.198 C  
HETATM    6  O   UNL     1      -8.536   8.977  72.309  1.00  0.00    -0.362 OA 
BRANCH   5   7
HETATM    7  C   UNL     1      -9.521   8.501  70.163  1.00  0.00    -0.169 C  
BRANCH   7   8
HETATM    8  C   UNL     1      -9.594   6.984  70.048  1.00  0.00    -0.164 C  
BRANCH   8   9
HETATM    9  C   UNL     1     -10.884   6.482  69.441  1.00  0.00    -0.308 C  
HETATM   10  O   UNL     1     -11.166   6.571  68.256  1.00  0.00    -0.277 OA 
BRANCH   9  11
HETATM   11  O   UNL     1     -11.750   6.090  70.418  1.00  0.00    -0.214 OA 
BRANCH  11  12
HETATM   12  C   UNL     1     -12.075   7.112  71.361  1.00  0.00    -0.344 C  
BRANCH  12  13
HETATM   13  C   UNL     1     -13.577   7.310  71.485  1.00  0.00    -0.442 C  
BRANCH  13  14
HETATM   14  C   UNL     1     -13.861   8.776  71.804  1.00  0.00    -0.469 C  
BRANCH  14  15
HETATM   15  C   UNL     1     -12.593   9.565  72.113  1.00  0.00    -0.411 C  
BRANCH  15  16
HETATM   16  C   UNL     1     -12.454  10.751  71.158  1.00  0.00    -0.519 C  
HETATM   17  C   UNL     1     -13.099  12.003  71.730  1.00  0.00    -0.460 C  
ENDBRANCH  15  16
ENDBRANCH  14  15
ENDBRANCH  13  14
ENDBRANCH  12  13
ENDBRANCH  11  12
ENDBRANCH   9  11
ENDBRANCH   8   9
ENDBRANCH   7   8
ENDBRANCH   5   7
ENDBRANCH   2   5
TORSDOF 10
ENDMDL
MODEL      244
REMARK 921   NORMALIZED FREE ENERGY PREDICTED BY IDOCK:   -2.97 KCAL/MOL
REMARK 922        TOTAL FREE ENERGY PREDICTED BY IDOCK:   -5.19 KCAL/MOL
REMARK 923 INTER-LIGAND FREE ENERGY PREDICTED BY IDOCK:   -4.55 KCAL/MOL
REMARK 924 INTRA-LIGAND FREE ENERGY PREDICTED BY IDOCK:   -0.63 KCAL/MOL
REMARK 927      BINDING AFFINITY PREDICTED BY RF-SCORE:    0.00 PKD
ROOT
HETATM    1  N   UNL     1      -8.450   5.760  66.146  1.00  0.00    -0.125 NA 
HETATM    2  C   UNL     1      -8.619   7.157  65.747  1.00  0.00    -0.133 C  
HETATM    3  H1  UNL     1      -8.126   5.201  65.355  1.00  0.00     0.000 HD 
HETATM    4  H2  UNL     1      -9.300   5.378  66.559  1.00  0.00     0.000 HD 
ENDROOT
BRANCH   2   5
HETATM    5  C   UNL     1      -9.104   7.996  66.933  1.00  0.00    -0.152 C  
HETATM    6  O   UNL     1      -8.403   8.193  67.925  1.00  0.00    -0.126 OA 
BRANCH   5   7
HETATM    7  C   UNL     1     -10.469   8.627  66.765  1.00  0.00    -0.298 C  
BRANCH   7   8
HETATM    8  C   UNL     1     -10.446  10.135  66.978  1.00  0.00    -0.302 C  
BRANCH   8   9
HETATM    9  C   UNL     1      -9.692  10.890  65.907  1.00  0.00    -0.224 C  
HETATM   10  O   UNL     1      -8.971  11.852  66.124  1.00  0.00    -0.195 OA 
BRANCH   9  11
HETATM   11  O   UNL     1     -10.071  10.466  64.669  1.00  0.00    -0.345 OA 
BRANCH  11  12
HETATM   12  C   UNL     1     -10.439  11.518  63.775  1.00  0.00    -0.405 C  
BRANCH  12  13
HETATM   13  C   UNL     1     -11.910  11.880  63.903  1.00  0.00    -0.509 C  
BRANCH  13  14
HETATM   14  C   UNL     1     -12.088  13.362  63.581  1.00  0.00    -0.513 C  
BRANCH  14  15
HETATM   15  C   UNL     1     -12.278  14.214  64.831  1.00  0.00    -0.451 C  
BRANCH  15  16
HETATM   16  C   UNL     1     -11.267  15.361  64.857  1.00  0.00    -0.410 C  
HETATM   17  C   UNL     1      -9.921  14.903  65.394  1.00  0.00    -0.367 C  
ENDBRANCH  15  16
ENDBRANCH  14  15
ENDBRANCH  13  14
ENDBRANCH  12  13
ENDBRANCH  11  12
ENDBRANCH   9  11
ENDBRANCH   8   9
ENDBRANCH   7   8
ENDBRANCH   5   7
ENDBRANCH   2   5
TORSDOF 10
ENDMDL
MODEL      245
REMARK 921   NORMALIZED FREE ENERGY PREDICTED BY IDOCK:   -2.95 KCAL/MOL
REMARK 922        TOTAL FREE ENERGY PREDICTED BY IDOCK:   -5.15 KCAL/MOL
REMARK 923 INTER-LIGAND FREE ENERGY PREDICTED BY IDOCK:   -4.98 KCAL/MOL
REMARK 924 INTRA-LIGAND FREE ENERGY PREDICTED BY IDOCK:   -0.18 KCAL/MOL
REMARK 927      BINDING AFFINITY PREDICTED BY RF-SCORE:    0.00 PKD
ROOT
HETATM    1  N   UNL     1     -12.598   6.342  72.245  1.00  0.00    -0.552 NA 
HETATM    2  C   UNL     1     -11.366   5.810  72.829  1.00  0.00    -0.282 C  
HETATM    3  H1  UNL     1     -13.410   5.851  72.621  1.00  0.00     0.000 HD 
HETATM    4  H2  UNL     1     -12.576   6.318  71.226  1.00  0.00     0.000 HD 
ENDROOT
BRANCH   2   5
HETATM    5  C   UNL     1     -10.147   6.548  72.266  1.00  0.00    -0.175 C  
HETATM    6  O   UNL     1      -9.379   6.022  71.462  1.00  0.00    -0.149 OA 
BRANCH   5   7
HETATM    7  C   UNL     1     -10.001   7.988  72.707  1.00  0.00    -0.364 C  
BRANCH   7   8
HETATM    8  C   UNL     1      -9.941   8.955  71.532  1.00  0.00    -0.391 C  
BRANCH   8   9
HETATM    9  C   UNL     1     -11.292   9.265  70.930  1.00  0.00    -0.308 C  
HETATM   10  O   UNL     1     -12.294   9.515  71.583  1.00  0.00    -0.348 OA 
BRANCH   9  11
HETATM   11  O   UNL     1     -11.277   9.047  69.585  1.00  0.00    -0.132 OA 
BRANCH  11  12
HETATM   12  C   UNL     1     -11.295  10.238  68.796  1.00  0.00    -0.167 C  
BRANCH  12  13
HETATM   13  C   UNL     1     -11.420  11.484  69.656  1.00  0.00    -0.373 C  
BRANCH  13  14
HETATM   14  C   UNL     1     -11.478  12.711  68.749  1.00  0.00    -0.349 C  
BRANCH  14  15
HETATM   15  C   UNL     1     -11.381  12.351  67.270  1.00  0.00    -0.384 C  
BRANCH  15  16
HETATM   16  C   UNL     1     -12.162  13.356  66.421  1.00  0.00    -0.435 C  
HETATM   17  C   UNL     1     -12.519  12.776  65.062  1.00  0.00    -0.572 C  
ENDBRANCH  15  16
ENDBRANCH  14  15
ENDBRANCH  13  14
ENDBRANCH  12  13
ENDBRANCH  11  12
ENDBRANCH   9  11
ENDBRANCH   8   9
ENDBRANCH   7   8
ENDBRANCH   5   7
ENDBRANCH   2   5
TORSDOF 10
ENDMDL
MODEL      246
REMARK 921   NORMALIZED FREE ENERGY PREDICTED BY IDOCK:   -2.95 KCAL/MOL
REMARK 922        TOTAL FREE ENERGY PREDICTED BY IDOCK:   -5.15 KCAL/MOL
REMARK 923 INTER-LIGAND FREE ENERGY PREDICTED BY IDOCK:   -4.59 KCAL/MOL
REMARK 924 INTRA-LIGAND FREE ENERGY PREDICTED BY IDOCK:   -0.56 KCAL/MOL
REMARK 927      BINDING AFFINITY PREDICTED BY RF-SCORE:    0.00 PKD
ROOT
HETATM    1  N   UNL     1      -9.438   2.742  67.398  1.00  0.00    -0.383 NA 
HETATM    2  C   UNL     1      -9.643   4.085  67.940  1.00  0.00    -0.143 C  
HETATM    3  H1  UNL     1      -9.467   2.762  66.378  1.00  0.00     0.000 HD 
HETATM    4  H2  UNL     1     -10.102   2.071  67.784  1.00  0.00     0.000 HD 
ENDROOT
BRANCH   2   5
HETATM    5  C   UNL     1      -9.599   4.055  69.471  1.00  0.00    -0.195 C  
HETATM    6  O   UNL     1      -9.389   3.017  70.099  1.00  0.00    -0.142 OA 
BRANCH   5   7
HETATM    7  C   UNL     1      -9.752   5.398  70.150  1.00  0.00    -0.252 C  
BRANCH   7   8
HETATM    8  C   UNL     1     -11.121   6.021  69.912  1.00  0.00    -0.469 C  
BRANCH   8   9
HETATM    9  C   UNL     1     -11.727   6.649  71.146  1.00  0.00    -0.346 C  
HETATM   10  O   UNL     1     -11.943   6.048  72.187  1.00  0.00    -0.309 OA 
BRANCH   9  11
HETATM   11  O   UNL     1     -12.161   7.912  70.874  1.00  0.00    -0.269 OA 
BRANCH  11  12
HETATM   12  C   UNL     1     -11.621   8.917  71.733  1.00  0.00    -0.352 C  
BRANCH  12  13
HETATM   13  C   UNL     1     -10.134   9.122  71.500  1.00  0.00    -0.381 C  
BRANCH  13  14
HETATM   14  C   UNL     1      -9.933   9.841  70.168  1.00  0.00    -0.315 C  
BRANCH  14  15
HETATM   15  C   UNL     1     -10.969  10.935  69.932  1.00  0.00    -0.266 C  
BRANCH  15  16
HETATM   16  C   UNL     1     -11.389  10.967  68.461  1.00  0.00    -0.355 C  
HETATM   17  C   UNL     1     -11.719  12.381  68.008  1.00  0.00    -0.414 C  
ENDBRANCH  15  16
ENDBRANCH  14  15
ENDBRANCH  13  14
ENDBRANCH  12  13
ENDBRANCH  11  12
ENDBRANCH   9  11
ENDBRANCH   8   9
ENDBRANCH   7   8
ENDBRANCH   5   7
ENDBRANCH   2   5
TORSDOF 10
ENDMDL
MODEL      247
REMARK 921   NORMALIZED FREE ENERGY PREDICTED BY IDOCK:   -2.93 KCAL/MOL
REMARK 922        TOTAL FREE ENERGY PREDICTED BY IDOCK:   -5.13 KCAL/MOL
REMARK 923 INTER-LIGAND FREE ENERGY PREDICTED BY IDOCK:   -4.58 KCAL/MOL
REMARK 924 INTRA-LIGAND FREE ENERGY PREDICTED BY IDOCK:   -0.55 KCAL/MOL
REMARK 927      BINDING AFFINITY PREDICTED BY RF-SCORE:    0.00 PKD
ROOT
HETATM    1  N   UNL     1      -9.701   5.448  68.879  1.00  0.00    -0.140 NA 
HETATM    2  C   UNL     1     -10.866   5.904  69.638  1.00  0.00    -0.374 C  
HETATM    3  H1  UNL     1      -9.926   5.387  67.885  1.00  0.00     0.000 HD 
HETATM    4  H2  UNL     1      -9.332   4.569  69.241  1.00  0.00     0.000 HD 
ENDROOT
BRANCH   2   5
HETATM    5  C   UNL     1     -10.529   5.997  71.129  1.00  0.00    -0.230 C  
HETATM    6  O   UNL     1     -10.661   5.039  71.890  1.00  0.00    -0.209 OA 
BRANCH   5   7
HETATM    7  C   UNL     1      -9.950   7.319  71.581  1.00  0.00    -0.192 C  
BRANCH   7   8
HETATM    8  C   UNL     1     -10.838   8.031  72.593  1.00  0.00    -0.436 C  
BRANCH   8   9
HETATM    9  C   UNL     1     -11.994   8.778  71.968  1.00  0.00    -0.376 C  
HETATM   10  O   UNL     1     -13.112   8.310  71.816  1.00  0.00    -0.329 OA 
BRANCH   9  11
HETATM   11  O   UNL     1     -11.568   9.960  71.440  1.00  0.00    -0.374 OA 
BRANCH  11  12
HETATM   12  C   UNL     1     -12.616  10.887  71.151  1.00  0.00    -0.428 C  
BRANCH  12  13
HETATM   13  C   UNL     1     -12.271  11.782  69.973  1.00  0.00    -0.317 C  
BRANCH  13  14
HETATM   14  C   UNL     1     -11.306  11.041  69.051  1.00  0.00    -0.345 C  
BRANCH  14  15
HETATM   15  C   UNL     1     -10.215  11.950  68.493  1.00  0.00    -0.221 C  
BRANCH  15  16
HETATM   16  C   UNL     1     -10.832  13.091  67.681  1.00  0.00    -0.256 C  
HETATM   17  C   UNL     1     -11.279  12.616  66.307  1.00  0.00    -0.354 C  
ENDBRANCH  15  16
ENDBRANCH  14  15
ENDBRANCH  13  14
ENDBRANCH  12  13
ENDBRANCH  11  12
ENDBRANCH   9  11
ENDBRANCH   8   9
ENDBRANCH   7   8
ENDBRANCH   5   7
ENDBRANCH   2   5
TORSDOF 10
ENDMDL
MODEL      248
REMARK 921   NORMALIZED FREE ENERGY PREDICTED BY IDOCK:   -2.93 KCAL/MOL
REMARK 922        TOTAL FREE ENERGY PREDICTED BY IDOCK:   -5.13 KCAL/MOL
REMARK 923 INTER-LIGAND FREE ENERGY PREDICTED BY IDOCK:   -4.62 KCAL/MOL
REMARK 924 INTRA-LIGAND FREE ENERGY PREDICTED BY IDOCK:   -0.51 KCAL/MOL
REMARK 927      BINDING AFFINITY PREDICTED BY RF-SCORE:    0.00 PKD
ROOT
HETATM    1  N   UNL     1      -8.148  16.417  68.164  1.00  0.00    -0.161 NA 
HETATM    2  C   UNL     1      -8.244  16.318  66.708  1.00  0.00    -0.259 C  
HETATM    3  H1  UNL     1      -7.178  16.556  68.448  1.00  0.00     0.000 HD 
HETATM    4  H2  UNL     1      -8.568  15.611  68.627  1.00  0.00     0.000 HD 
ENDROOT
BRANCH   2   5
HETATM    5  C   UNL     1      -9.700  16.109  66.282  1.00  0.00    -0.307 C  
HETATM    6  O   UNL     1     -10.108  16.429  65.165  1.00  0.00    -0.529 OA 
BRANCH   5   7
HETATM    7  C   UNL     1     -10.579  15.412  67.298  1.00  0.00    -0.294 C  
BRANCH   7   8
HETATM    8  C   UNL     1     -10.616  13.902  67.099  1.00  0.00    -0.277 C  
BRANCH   8   9
HETATM    9  C   UNL     1     -11.912  13.398  66.508  1.00  0.00    -0.400 C  
HETATM   10  O   UNL     1     -12.729  14.107  65.941  1.00  0.00    -0.487 OA 
BRANCH   9  11
HETATM   11  O   UNL     1     -12.121  12.097  66.854  1.00  0.00    -0.600 OA 
BRANCH  11  12
HETATM   12  C   UNL     1     -11.137  11.558  67.738  1.00  0.00    -0.260 C  
BRANCH  12  13
HETATM   13  C   UNL     1     -10.865  10.090  67.454  1.00  0.00    -0.313 C  
BRANCH  13  14
HETATM   14  C   UNL     1      -9.479   9.729  67.983  1.00  0.00    -0.144 C  
BRANCH  14  15
HETATM   15  C   UNL     1      -9.432   9.663  69.506  1.00  0.00    -0.211 C  
BRANCH  15  16
HETATM   16  C   UNL     1      -9.398   8.209  69.979  1.00  0.00    -0.159 C  
HETATM   17  C   UNL     1      -9.929   8.073  71.397  1.00  0.00    -0.221 C  
ENDBRANCH  15  16
ENDBRANCH  14  15
ENDBRANCH  13  14
ENDBRANCH  12  13
ENDBRANCH  11  12
ENDBRANCH   9  11
ENDBRANCH   8   9
ENDBRANCH   7   8
ENDBRANCH   5   7
ENDBRANCH   2   5
TORSDOF 10
ENDMDL
MODEL      249
REMARK 921   NORMALIZED FREE ENERGY PREDICTED BY IDOCK:   -2.92 KCAL/MOL
REMARK 922        TOTAL FREE ENERGY PREDICTED BY IDOCK:   -5.12 KCAL/MOL
REMARK 923 INTER-LIGAND FREE ENERGY PREDICTED BY IDOCK:   -4.28 KCAL/MOL
REMARK 924 INTRA-LIGAND FREE ENERGY PREDICTED BY IDOCK:   -0.84 KCAL/MOL
REMARK 927      BINDING AFFINITY PREDICTED BY RF-SCORE:    0.00 PKD
ROOT
HETATM    1  N   UNL     1     -12.158  13.932  66.311  1.00  0.00    -0.429 NA 
HETATM    2  C   UNL     1     -11.279  15.089  66.487  1.00  0.00    -0.312 C  
HETATM    3  H1  UNL     1     -13.136  14.217  66.369  1.00  0.00     0.000 HD 
HETATM    4  H2  UNL     1     -11.939  13.185  66.970  1.00  0.00     0.000 HD 
ENDROOT
BRANCH   2   5
HETATM    5  C   UNL     1      -9.811  14.663  66.400  1.00  0.00    -0.285 C  
HETATM    6  O   UNL     1      -9.477  13.541  66.019  1.00  0.00    -0.208 OA 
BRANCH   5   7
HETATM    7  C   UNL     1      -8.803  15.739  66.738  1.00  0.00    -0.299 C  
BRANCH   7   8
HETATM    8  C   UNL     1      -7.484  15.167  67.243  1.00  0.00    -0.228 C  
BRANCH   8   9
HETATM    9  C   UNL     1      -6.861  15.971  68.361  1.00  0.00    -0.124 C  
HETATM   10  O   UNL     1      -6.620  15.528  69.473  1.00  0.00    -0.150 OA 
BRANCH   9  11
HETATM   11  O   UNL     1      -6.779  17.287  68.014  1.00  0.00    -0.166 OA 
BRANCH  11  12
HETATM   12  C   UNL     1      -7.116  18.194  69.065  1.00  0.00    -0.235 C  
BRANCH  12  13
HETATM   13  C   UNL     1      -7.905  19.386  68.551  1.00  0.00    -0.389 C  
BRANCH  13  14
HETATM   14  C   UNL     1      -7.397  19.757  67.159  1.00  0.00    -0.260 C  
BRANCH  14  15
HETATM   15  C   UNL     1      -8.526  19.895  66.143  1.00  0.00    -0.350 C  
BRANCH  15  16
HETATM   16  C   UNL     1      -9.883  19.687  66.817  1.00  0.00    -0.503 C  
HETATM   17  C   UNL     1     -10.785  18.789  65.985  1.00  0.00    -0.337 C  
ENDBRANCH  15  16
ENDBRANCH  14  15
ENDBRANCH  13  14
ENDBRANCH  12  13
ENDBRANCH  11  12
ENDBRANCH   9  11
ENDBRANCH   8   9
ENDBRANCH   7   8
ENDBRANCH   5   7
ENDBRANCH   2   5
TORSDOF 10
ENDMDL
MODEL      250
REMARK 921   NORMALIZED FREE ENERGY PREDICTED BY IDOCK:   -2.91 KCAL/MOL
REMARK 922        TOTAL FREE ENERGY PREDICTED BY IDOCK:   -5.10 KCAL/MOL
REMARK 923 INTER-LIGAND FREE ENERGY PREDICTED BY IDOCK:   -4.74 KCAL/MOL
REMARK 924 INTRA-LIGAND FREE ENERGY PREDICTED BY IDOCK:   -0.36 KCAL/MOL
REMARK 927      BINDING AFFINITY PREDICTED BY RF-SCORE:    0.00 PKD
ROOT
HETATM    1  N   UNL     1     -11.753   7.273  72.988  1.00  0.00    -0.558 NA 
HETATM    2  C   UNL     1     -10.722   8.141  72.418  1.00  0.00    -0.334 C  
HETATM    3  H1  UNL     1     -11.541   7.063  73.964  1.00  0.00     0.000 HD 
HETATM    4  H2  UNL     1     -11.884   6.426  72.436  1.00  0.00     0.000 HD 
ENDROOT
BRANCH   2   5
HETATM    5  C   UNL     1     -11.040   8.457  70.954  1.00  0.00    -0.254 C  
HETATM    6  O   UNL     1     -11.610   7.651  70.220  1.00  0.00    -0.195 OA 
BRANCH   5   7
HETATM    7  C   UNL     1     -10.676   9.854  70.499  1.00  0.00    -0.382 C  
BRANCH   7   8
HETATM    8  C   UNL     1     -11.876  10.791  70.473  1.00  0.00    -0.453 C  
BRANCH   8   9
HETATM    9  C   UNL     1     -11.986  11.603  69.202  1.00  0.00    -0.313 C  
HETATM   10  O   UNL     1     -12.275  11.135  68.112  1.00  0.00    -0.612 OA 
BRANCH   9  11
HETATM   11  O   UNL     1     -11.544  12.875  69.409  1.00  0.00    -0.285 OA 
BRANCH  11  12
HETATM   12  C   UNL     1     -11.825  13.777  68.338  1.00  0.00    -0.376 C  
BRANCH  12  13
HETATM   13  C   UNL     1     -10.618  13.978  67.436  1.00  0.00    -0.278 C  
BRANCH  13  14
HETATM   14  C   UNL     1      -9.375  13.442  68.142  1.00  0.00    -0.217 C  
BRANCH  14  15
HETATM   15  C   UNL     1      -8.878  12.132  67.539  1.00  0.00    -0.175 C  
BRANCH  15  16
HETATM   16  C   UNL     1      -7.359  12.161  67.370  1.00  0.00    -0.151 C  
HETATM   17  C   UNL     1      -6.808  13.568  67.540  1.00  0.00    -0.156 C  
ENDBRANCH  15  16
ENDBRANCH  14  15
ENDBRANCH  13  14
ENDBRANCH  12  13
ENDBRANCH  11  12
ENDBRANCH   9  11
ENDBRANCH   8   9
ENDBRANCH   7   8
ENDBRANCH   5   7
ENDBRANCH   2   5
TORSDOF 10
ENDMDL
MODEL      251
REMARK 921   NORMALIZED FREE ENERGY PREDICTED BY IDOCK:   -2.91 KCAL/MOL
REMARK 922        TOTAL FREE ENERGY PREDICTED BY IDOCK:   -5.10 KCAL/MOL
REMARK 923 INTER-LIGAND FREE ENERGY PREDICTED BY IDOCK:   -4.69 KCAL/MOL
REMARK 924 INTRA-LIGAND FREE ENERGY PREDICTED BY IDOCK:   -0.41 KCAL/MOL
REMARK 927      BINDING AFFINITY PREDICTED BY RF-SCORE:    0.00 PKD
ROOT
HETATM    1  N   UNL     1     -13.540   9.615  72.494  1.00  0.00    -0.680 NA 
HETATM    2  C   UNL     1     -13.111  10.842  71.823  1.00  0.00    -0.468 C  
HETATM    3  H1  UNL     1     -14.274   9.819  73.172  1.00  0.00     0.000 HD 
HETATM    4  H2  UNL     1     -12.756   9.121  72.919  1.00  0.00     0.000 HD 
ENDROOT
BRANCH   2   5
HETATM    5  C   UNL     1     -12.008  10.536  70.804  1.00  0.00    -0.370 C  
HETATM    6  O   UNL     1     -11.003   9.892  71.103  1.00  0.00    -0.333 OA 
BRANCH   5   7
HETATM    7  C   UNL     1     -12.279  11.012  69.394  1.00  0.00    -0.329 C  
BRANCH   7   8
HETATM    8  C   UNL     1     -11.179  11.920  68.861  1.00  0.00    -0.310 C  
BRANCH   8   9
HETATM    9  C   UNL     1     -11.524  12.592  67.553  1.00  0.00    -0.340 C  
HETATM   10  O   UNL     1     -12.076  13.678  67.464  1.00  0.00    -0.369 OA 
BRANCH   9  11
HETATM   11  O   UNL     1     -11.305  11.745  66.508  1.00  0.00    -0.325 OA 
BRANCH  11  12
HETATM   12  C   UNL     1     -10.059  11.050  66.566  1.00  0.00    -0.226 C  
BRANCH  12  13
HETATM   13  C   UNL     1     -10.213   9.582  66.206  1.00  0.00    -0.290 C  
BRANCH  13  14
HETATM   14  C   UNL     1      -8.946   9.107  65.497  1.00  0.00    -0.252 C  
BRANCH  14  15
HETATM   15  C   UNL     1      -8.084  10.264  65.001  1.00  0.00    -0.146 C  
BRANCH  15  16
HETATM   16  C   UNL     1      -7.130   9.790  63.905  1.00  0.00    -0.122 C  
HETATM   17  C   UNL     1      -7.745   8.673  63.077  1.00  0.00    -0.126 C  
ENDBRANCH  15  16
ENDBRANCH  14  15
ENDBRANCH  13  14
ENDBRANCH  12  13
ENDBRANCH  11  12
ENDBRANCH   9  11
ENDBRANCH   8   9
ENDBRANCH   7   8
ENDBRANCH   5   7
ENDBRANCH   2   5
TORSDOF 10
ENDMDL
MODEL      252
REMARK 921   NORMALIZED FREE ENERGY PREDICTED BY IDOCK:   -2.91 KCAL/MOL
REMARK 922        TOTAL FREE ENERGY PREDICTED BY IDOCK:   -5.09 KCAL/MOL
REMARK 923 INTER-LIGAND FREE ENERGY PREDICTED BY IDOCK:   -4.68 KCAL/MOL
REMARK 924 INTRA-LIGAND FREE ENERGY PREDICTED BY IDOCK:   -0.42 KCAL/MOL
REMARK 927      BINDING AFFINITY PREDICTED BY RF-SCORE:    0.00 PKD
ROOT
HETATM    1  N   UNL     1      -6.082  16.754  69.896  1.00  0.00    -0.222 NA 
HETATM    2  C   UNL     1      -5.633  16.194  68.621  1.00  0.00    -0.105 C  
HETATM    3  H1  UNL     1      -5.523  16.383  70.664  1.00  0.00     0.000 HD 
HETATM    4  H2  UNL     1      -7.080  16.606  70.045  1.00  0.00     0.000 HD 
ENDROOT
BRANCH   2   5
HETATM    5  C   UNL     1      -6.472  16.751  67.467  1.00  0.00    -0.152 C  
HETATM    6  O   UNL     1      -6.030  16.843  66.323  1.00  0.00    -0.290 OA 
BRANCH   5   7
HETATM    7  C   UNL     1      -7.901  17.105  67.817  1.00  0.00    -0.189 C  
BRANCH   7   8
HETATM    8  C   UNL     1      -8.698  17.582  66.610  1.00  0.00    -0.288 C  
BRANCH   8   9
HETATM    9  C   UNL     1     -10.195  17.513  66.803  1.00  0.00    -0.327 C  
HETATM   10  O   UNL     1     -10.865  18.406  67.299  1.00  0.00    -0.389 OA 
BRANCH   9  11
HETATM   11  O   UNL     1     -10.655  16.261  66.522  1.00  0.00    -0.308 OA 
BRANCH  11  12
HETATM   12  C   UNL     1     -10.612  15.916  65.137  1.00  0.00    -0.397 C  
BRANCH  12  13
HETATM   13  C   UNL     1     -11.479  14.707  64.828  1.00  0.00    -0.410 C  
BRANCH  13  14
HETATM   14  C   UNL     1     -12.067  14.170  66.131  1.00  0.00    -0.454 C  
BRANCH  14  15
HETATM   15  C   UNL     1     -11.986  12.650  66.226  1.00  0.00    -0.439 C  
BRANCH  15  16
HETATM   16  C   UNL     1     -11.185  12.232  67.460  1.00  0.00    -0.354 C  
HETATM   17  C   UNL     1     -11.353  10.750  67.756  1.00  0.00    -0.354 C  
ENDBRANCH  15  16
ENDBRANCH  14  15
ENDBRANCH  13  14
ENDBRANCH  12  13
ENDBRANCH  11  12
ENDBRANCH   9  11
ENDBRANCH   8   9
ENDBRANCH   7   8
ENDBRANCH   5   7
ENDBRANCH   2   5
TORSDOF 10
ENDMDL
MODEL      253
REMARK 921   NORMALIZED FREE ENERGY PREDICTED BY IDOCK:   -2.89 KCAL/MOL
REMARK 922        TOTAL FREE ENERGY PREDICTED BY IDOCK:   -5.07 KCAL/MOL
REMARK 923 INTER-LIGAND FREE ENERGY PREDICTED BY IDOCK:   -4.63 KCAL/MOL
REMARK 924 INTRA-LIGAND FREE ENERGY PREDICTED BY IDOCK:   -0.43 KCAL/MOL
REMARK 927      BINDING AFFINITY PREDICTED BY RF-SCORE:    0.00 PKD
ROOT
HETATM    1  N   UNL     1      -9.047   6.878  65.438  1.00  0.00    -0.353 NA 
HETATM    2  C   UNL     1      -8.191   8.059  65.319  1.00  0.00    -0.146 C  
HETATM    3  H1  UNL     1      -8.736   6.147  64.798  1.00  0.00     0.000 HD 
HETATM    4  H2  UNL     1     -10.032   7.108  65.303  1.00  0.00     0.000 HD 
ENDROOT
BRANCH   2   5
HETATM    5  C   UNL     1      -8.658   9.156  66.280  1.00  0.00    -0.126 C  
HETATM    6  O   UNL     1      -7.966   9.537  67.223  1.00  0.00    -0.105 OA 
BRANCH   5   7
HETATM    7  C   UNL     1      -9.989   9.791  65.940  1.00  0.00    -0.345 C  
BRANCH   7   8
HETATM    8  C   UNL     1      -9.941  11.312  65.989  1.00  0.00    -0.273 C  
BRANCH   8   9
HETATM    9  C   UNL     1     -11.121  11.980  65.322  1.00  0.00    -0.317 C  
HETATM   10  O   UNL     1     -11.178  12.244  64.131  1.00  0.00    -0.318 OA 
BRANCH   9  11
HETATM   11  O   UNL     1     -12.018  12.406  66.256  1.00  0.00    -0.553 OA 
BRANCH  11  12
HETATM   12  C   UNL     1     -12.253  13.814  66.247  1.00  0.00    -0.447 C  
BRANCH  12  13
HETATM   13  C   UNL     1     -11.630  14.499  67.452  1.00  0.00    -0.406 C  
BRANCH  13  14
HETATM   14  C   UNL     1     -10.275  15.078  67.052  1.00  0.00    -0.257 C  
BRANCH  14  15
HETATM   15  C   UNL     1     -10.393  16.148  65.971  1.00  0.00    -0.372 C  
BRANCH  15  16
HETATM   16  C   UNL     1      -9.973  17.512  66.519  1.00  0.00    -0.323 C  
HETATM   17  C   UNL     1     -10.591  18.647  65.718  1.00  0.00    -0.290 C  
ENDBRANCH  15  16
ENDBRANCH  14  15
ENDBRANCH  13  14
ENDBRANCH  12  13
ENDBRANCH  11  12
ENDBRANCH   9  11
ENDBRANCH   8   9
ENDBRANCH   7   8
ENDBRANCH   5   7
ENDBRANCH   2   5
TORSDOF 10
ENDMDL
MODEL      254
REMARK 921   NORMALIZED FREE ENERGY PREDICTED BY IDOCK:   -2.89 KCAL/MOL
REMARK 922        TOTAL FREE ENERGY PREDICTED BY IDOCK:   -5.07 KCAL/MOL
REMARK 923 INTER-LIGAND FREE ENERGY PREDICTED BY IDOCK:   -4.49 KCAL/MOL
REMARK 924 INTRA-LIGAND FREE ENERGY PREDICTED BY IDOCK:   -0.57 KCAL/MOL
REMARK 927      BINDING AFFINITY PREDICTED BY RF-SCORE:    0.00 PKD
ROOT
HETATM    1  N   UNL     1     -11.567   6.239  72.960  1.00  0.00    -0.472 NA 
HETATM    2  C   UNL     1     -11.231   7.661  72.890  1.00  0.00    -0.372 C  
HETATM    3  H1  UNL     1     -11.417   5.884  73.904  1.00  0.00     0.000 HD 
HETATM    4  H2  UNL     1     -11.059   5.694  72.263  1.00  0.00     0.000 HD 
ENDROOT
BRANCH   2   5
HETATM    5  C   UNL     1     -11.457   8.195  71.472  1.00  0.00    -0.267 C  
HETATM    6  O   UNL     1     -12.014   7.526  70.603  1.00  0.00    -0.241 OA 
BRANCH   5   7
HETATM    7  C   UNL     1     -11.019   9.625  71.241  1.00  0.00    -0.399 C  
BRANCH   7   8
HETATM    8  C   UNL     1     -11.472  10.163  69.890  1.00  0.00    -0.317 C  
BRANCH   8   9
HETATM    9  C   UNL     1     -10.416  10.071  68.813  1.00  0.00    -0.208 C  
HETATM   10  O   UNL     1     -10.211   9.076  68.137  1.00  0.00    -0.187 OA 
BRANCH   9  11
HETATM   11  O   UNL     1      -9.617  11.175  68.833  1.00  0.00    -0.198 OA 
BRANCH  11  12
HETATM   12  C   UNL     1      -9.564  11.884  67.594  1.00  0.00    -0.185 C  
BRANCH  12  13
HETATM   13  C   UNL     1      -9.645  13.388  67.799  1.00  0.00    -0.213 C  
BRANCH  13  14
HETATM   14  C   UNL     1     -10.989  13.731  68.439  1.00  0.00    -0.275 C  
BRANCH  14  15
HETATM   15  C   UNL     1     -12.080  13.988  67.404  1.00  0.00    -0.384 C  
BRANCH  15  16
HETATM   16  C   UNL     1     -11.489  14.633  66.150  1.00  0.00    -0.339 C  
HETATM   17  C   UNL     1     -12.048  14.002  64.885  1.00  0.00    -0.435 C  
ENDBRANCH  15  16
ENDBRANCH  14  15
ENDBRANCH  13  14
ENDBRANCH  12  13
ENDBRANCH  11  12
ENDBRANCH   9  11
ENDBRANCH   8   9
ENDBRANCH   7   8
ENDBRANCH   5   7
ENDBRANCH   2   5
TORSDOF 10
ENDMDL
MODEL      255
REMARK 921   NORMALIZED FREE ENERGY PREDICTED BY IDOCK:   -2.89 KCAL/MOL
REMARK 922        TOTAL FREE ENERGY PREDICTED BY IDOCK:   -5.06 KCAL/MOL
REMARK 923 INTER-LIGAND FREE ENERGY PREDICTED BY IDOCK:   -4.38 KCAL/MOL
REMARK 924 INTRA-LIGAND FREE ENERGY PREDICTED BY IDOCK:   -0.68 KCAL/MOL
REMARK 927      BINDING AFFINITY PREDICTED BY RF-SCORE:    0.00 PKD
ROOT
HETATM    1  N   UNL     1     -12.784   7.206  70.538  1.00  0.00    -0.573 NA 
HETATM    2  C   UNL     1     -11.330   7.361  70.572  1.00  0.00    -0.271 C  
HETATM    3  H1  UNL     1     -13.181   7.366  71.464  1.00  0.00     0.000 HD 
HETATM    4  H2  UNL     1     -13.061   6.302  70.156  1.00  0.00     0.000 HD 
ENDROOT
BRANCH   2   5
HETATM    5  C   UNL     1     -10.735   7.122  69.181  1.00  0.00    -0.198 C  
HETATM    6  O   UNL     1     -10.790   6.025  68.626  1.00  0.00    -0.279 OA 
BRANCH   5   7
HETATM    7  C   UNL     1     -10.147   8.344  68.510  1.00  0.00    -0.218 C  
BRANCH   7   8
HETATM    8  C   UNL     1     -10.597   8.488  67.062  1.00  0.00    -0.305 C  
BRANCH   8   9
HETATM    9  C   UNL     1      -9.456   8.625  66.080  1.00  0.00    -0.240 C  
HETATM   10  O   UNL     1      -8.861   7.681  65.584  1.00  0.00    -0.140 OA 
BRANCH   9  11
HETATM   11  O   UNL     1      -9.073   9.928  65.974  1.00  0.00    -0.146 OA 
BRANCH  11  12
HETATM   12  C   UNL     1      -9.973  10.748  65.227  1.00  0.00    -0.282 C  
BRANCH  12  13
HETATM   13  C   UNL     1     -10.005  12.174  65.749  1.00  0.00    -0.271 C  
BRANCH  13  14
HETATM   14  C   UNL     1     -11.405  12.481  66.276  1.00  0.00    -0.386 C  
BRANCH  14  15
HETATM   15  C   UNL     1     -11.681  11.819  67.622  1.00  0.00    -0.320 C  
BRANCH  15  16
HETATM   16  C   UNL     1     -11.742  12.868  68.733  1.00  0.00    -0.363 C  
HETATM   17  C   UNL     1     -11.765  14.278  68.165  1.00  0.00    -0.385 C  
ENDBRANCH  15  16
ENDBRANCH  14  15
ENDBRANCH  13  14
ENDBRANCH  12  13
ENDBRANCH  11  12
ENDBRANCH   9  11
ENDBRANCH   8   9
ENDBRANCH   7   8
ENDBRANCH   5   7
ENDBRANCH   2   5
TORSDOF 10
ENDMDL
MODEL      256
REMARK 921   NORMALIZED FREE ENERGY PREDICTED BY IDOCK:   -2.89 KCAL/MOL
REMARK 922        TOTAL FREE ENERGY PREDICTED BY IDOCK:   -5.06 KCAL/MOL
REMARK 923 INTER-LIGAND FREE ENERGY PREDICTED BY IDOCK:   -4.85 KCAL/MOL
REMARK 924 INTRA-LIGAND FREE ENERGY PREDICTED BY IDOCK:   -0.21 KCAL/MOL
REMARK 927      BINDING AFFINITY PREDICTED BY RF-SCORE:    0.00 PKD
ROOT
HETATM    1  N   UNL     1     -11.289  15.194  72.777  1.00  0.00    -0.227 NA 
HETATM    2  C   UNL     1     -12.151  16.168  72.106  1.00  0.00    -0.512 C  
HETATM    3  H1  UNL     1     -10.769  15.640  73.532  1.00  0.00     0.000 HD 
HETATM    4  H2  UNL     1     -10.672  14.717  72.119  1.00  0.00     0.000 HD 
ENDROOT
BRANCH   2   5
HETATM    5  C   UNL     1     -12.933  15.498  70.972  1.00  0.00    -0.489 C  
HETATM    6  O   UNL     1     -14.154  15.605  70.868  1.00  0.00    -0.434 OA 
BRANCH   5   7
HETATM    7  C   UNL     1     -12.091  14.764  69.951  1.00  0.00    -0.381 C  
BRANCH   7   8
HETATM    8  C   UNL     1     -11.670  15.658  68.791  1.00  0.00    -0.382 C  
BRANCH   8   9
HETATM    9  C   UNL     1     -10.420  16.462  69.066  1.00  0.00    -0.288 C  
HETATM   10  O   UNL     1     -10.346  17.676  68.951  1.00  0.00    -0.363 OA 
BRANCH   9  11
HETATM   11  O   UNL     1      -9.357  15.635  69.275  1.00  0.00    -0.234 OA 
BRANCH  11  12
HETATM   12  C   UNL     1      -8.904  14.952  68.105  1.00  0.00    -0.174 C  
BRANCH  12  13
HETATM   13  C   UNL     1      -8.973  15.836  66.872  1.00  0.00    -0.266 C  
BRANCH  13  14
HETATM   14  C   UNL     1      -7.583  16.399  66.584  1.00  0.00    -0.288 C  
BRANCH  14  15
HETATM   15  C   UNL     1      -7.580  17.920  66.464  1.00  0.00    -0.285 C  
BRANCH  15  16
HETATM   16  C   UNL     1      -6.528  18.529  67.392  1.00  0.00    -0.199 C  
HETATM   17  C   UNL     1      -7.079  19.728  68.146  1.00  0.00    -0.327 C  
ENDBRANCH  15  16
ENDBRANCH  14  15
ENDBRANCH  13  14
ENDBRANCH  12  13
ENDBRANCH  11  12
ENDBRANCH   9  11
ENDBRANCH   8   9
ENDBRANCH   7   8
ENDBRANCH   5   7
ENDBRANCH   2   5
TORSDOF 10
ENDMDL
MODEL      257
REMARK 921   NORMALIZED FREE ENERGY PREDICTED BY IDOCK:   -2.87 KCAL/MOL
REMARK 922        TOTAL FREE ENERGY PREDICTED BY IDOCK:   -5.03 KCAL/MOL
REMARK 923 INTER-LIGAND FREE ENERGY PREDICTED BY IDOCK:   -4.49 KCAL/MOL
REMARK 924 INTRA-LIGAND FREE ENERGY PREDICTED BY IDOCK:   -0.54 KCAL/MOL
REMARK 927      BINDING AFFINITY PREDICTED BY RF-SCORE:    0.00 PKD
ROOT
HETATM    1  N   UNL     1     -12.424  14.490  63.643  1.00  0.00    -1.078 NA 
HETATM    2  C   UNL     1     -12.057  15.696  64.385  1.00  0.00    -0.084 C  
HETATM    3  H1  UNL     1     -13.206  14.682  63.016  1.00  0.00     0.000 HD 
HETATM    4  H2  UNL     1     -12.619  13.706  64.266  1.00  0.00     0.000 HD 
ENDROOT
BRANCH   2   5
HETATM    5  C   UNL     1     -10.884  15.409  65.326  1.00  0.00    -0.409 C  
HETATM    6  O   UNL     1      -9.906  16.152  65.397  1.00  0.00    -0.474 OA 
BRANCH   5   7
HETATM    7  C   UNL     1     -11.048  14.195  66.215  1.00  0.00    -0.318 C  
BRANCH   7   8
HETATM    8  C   UNL     1     -10.576  14.446  67.641  1.00  0.00    -0.260 C  
BRANCH   8   9
HETATM    9  C   UNL     1      -9.717  13.337  68.201  1.00  0.00    -0.227 C  
HETATM   10  O   UNL     1     -10.149  12.260  68.582  1.00  0.00    -0.212 OA 
BRANCH   9  11
HETATM   11  O   UNL     1      -8.439  13.771  68.391  1.00  0.00    -0.160 OA 
BRANCH  11  12
HETATM   12  C   UNL     1      -8.299  15.192  68.420  1.00  0.00    -0.154 C  
BRANCH  12  13
HETATM   13  C   UNL     1      -6.939  15.637  67.910  1.00  0.00    -0.155 C  
BRANCH  13  14
HETATM   14  C   UNL     1      -6.725  17.104  68.276  1.00  0.00    -0.167 C  
BRANCH  14  15
HETATM   15  C   UNL     1      -7.527  18.051  67.389  1.00  0.00    -0.212 C  
BRANCH  15  16
HETATM   16  C   UNL     1      -6.626  18.685  66.329  1.00  0.00    -0.244 C  
HETATM   17  C   UNL     1      -7.279  19.906  65.702  1.00  0.00    -0.331 C  
ENDBRANCH  15  16
ENDBRANCH  14  15
ENDBRANCH  13  14
ENDBRANCH  12  13
ENDBRANCH  11  12
ENDBRANCH   9  11
ENDBRANCH   8   9
ENDBRANCH   7   8
ENDBRANCH   5   7
ENDBRANCH   2   5
TORSDOF 10
ENDMDL
MODEL      258
REMARK 921   NORMALIZED FREE ENERGY PREDICTED BY IDOCK:   -2.87 KCAL/MOL
REMARK 922        TOTAL FREE ENERGY PREDICTED BY IDOCK:   -5.03 KCAL/MOL
REMARK 923 INTER-LIGAND FREE ENERGY PREDICTED BY IDOCK:   -4.49 KCAL/MOL
REMARK 924 INTRA-LIGAND FREE ENERGY PREDICTED BY IDOCK:   -0.53 KCAL/MOL
REMARK 927      BINDING AFFINITY PREDICTED BY RF-SCORE:    0.00 PKD
ROOT
HETATM    1  N   UNL     1     -12.592  13.710  63.089  1.00  0.00    -0.949 NA 
HETATM    2  C   UNL     1     -12.173  14.519  64.234  1.00  0.00    -0.415 C  
HETATM    3  H1  UNL     1     -13.495  14.032  62.738  1.00  0.00     0.000 HD 
HETATM    4  H2  UNL     1     -12.603  12.715  63.311  1.00  0.00     0.000 HD 
ENDROOT
BRANCH   2   5
HETATM    5  C   UNL     1     -10.818  14.036  64.761  1.00  0.00    -0.419 C  
HETATM    6  O   UNL     1      -9.978  14.813  65.214  1.00  0.00    -0.361 OA 
BRANCH   5   7
HETATM    7  C   UNL     1     -10.619  12.536  64.758  1.00  0.00    -0.333 C  
BRANCH   7   8
HETATM    8  C   UNL     1     -10.835  11.915  66.132  1.00  0.00    -0.334 C  
BRANCH   8   9
HETATM    9  C   UNL     1      -9.950  10.722  66.406  1.00  0.00    -0.216 C  
HETATM   10  O   UNL     1     -10.250   9.568  66.141  1.00  0.00    -0.273 OA 
BRANCH   9  11
HETATM   11  O   UNL     1      -8.868  11.092  67.148  1.00  0.00    -0.138 OA 
BRANCH  11  12
HETATM   12  C   UNL     1      -8.996  12.365  67.781  1.00  0.00    -0.182 C  
BRANCH  12  13
HETATM   13  C   UNL     1      -7.758  13.224  67.579  1.00  0.00    -0.175 C  
BRANCH  13  14
HETATM   14  C   UNL     1      -8.067  14.654  68.016  1.00  0.00    -0.135 C  
BRANCH  14  15
HETATM   15  C   UNL     1      -7.134  15.676  67.374  1.00  0.00    -0.241 C  
BRANCH  15  16
HETATM   16  C   UNL     1      -5.877  15.862  68.225  1.00  0.00    -0.112 C  
HETATM   17  C   UNL     1      -6.214  16.413  69.601  1.00  0.00    -0.210 C  
ENDBRANCH  15  16
ENDBRANCH  14  15
ENDBRANCH  13  14
ENDBRANCH  12  13
ENDBRANCH  11  12
ENDBRANCH   9  11
ENDBRANCH   8   9
ENDBRANCH   7   8
ENDBRANCH   5   7
ENDBRANCH   2   5
TORSDOF 10
ENDMDL
MODEL      259
REMARK 921   NORMALIZED FREE ENERGY PREDICTED BY IDOCK:   -2.86 KCAL/MOL
REMARK 922        TOTAL FREE ENERGY PREDICTED BY IDOCK:   -5.02 KCAL/MOL
REMARK 923 INTER-LIGAND FREE ENERGY PREDICTED BY IDOCK:   -4.56 KCAL/MOL
REMARK 924 INTRA-LIGAND FREE ENERGY PREDICTED BY IDOCK:   -0.46 KCAL/MOL
REMARK 927      BINDING AFFINITY PREDICTED BY RF-SCORE:    0.00 PKD
ROOT
HETATM    1  N   UNL     1     -10.730   8.732  67.358  1.00  0.00    -0.442 NA 
HETATM    2  C   UNL     1     -10.019   8.911  66.091  1.00  0.00    -0.220 C  
HETATM    3  H1  UNL     1     -11.194   7.824  67.380  1.00  0.00     0.000 HD 
HETATM    4  H2  UNL     1     -11.380   9.497  67.539  1.00  0.00     0.000 HD 
ENDROOT
BRANCH   2   5
HETATM    5  C   UNL     1      -9.322  10.274  66.058  1.00  0.00    -0.180 C  
HETATM    6  O   UNL     1      -8.771  10.752  67.050  1.00  0.00    -0.134 OA 
BRANCH   5   7
HETATM    7  C   UNL     1      -9.290  10.953  64.706  1.00  0.00    -0.259 C  
BRANCH   7   8
HETATM    8  C   UNL     1     -10.580  10.754  63.922  1.00  0.00    -0.149 C  
BRANCH   8   9
HETATM    9  C   UNL     1     -11.399  12.015  63.767  1.00  0.00    -0.445 C  
HETATM   10  O   UNL     1     -12.412  12.097  63.090  1.00  0.00    -0.486 OA 
BRANCH   9  11
HETATM   11  O   UNL     1     -10.754  13.075  64.331  1.00  0.00    -0.350 OA 
BRANCH  11  12
HETATM   12  C   UNL     1     -11.502  13.747  65.346  1.00  0.00    -0.311 C  
BRANCH  12  13
HETATM   13  C   UNL     1     -11.078  13.315  66.740  1.00  0.00    -0.313 C  
BRANCH  13  14
HETATM   14  C   UNL     1     -11.416  14.427  67.730  1.00  0.00    -0.360 C  
BRANCH  14  15
HETATM   15  C   UNL     1     -10.856  15.780  67.304  1.00  0.00    -0.298 C  
BRANCH  15  16
HETATM   16  C   UNL     1      -9.911  16.330  68.374  1.00  0.00    -0.234 C  
HETATM   17  C   UNL     1     -10.190  17.797  68.661  1.00  0.00    -0.377 C  
ENDBRANCH  15  16
ENDBRANCH  14  15
ENDBRANCH  13  14
ENDBRANCH  12  13
ENDBRANCH  11  12
ENDBRANCH   9  11
ENDBRANCH   8   9
ENDBRANCH   7   8
ENDBRANCH   5   7
ENDBRANCH   2   5
TORSDOF 10
ENDMDL
MODEL      260
REMARK 921   NORMALIZED FREE ENERGY PREDICTED BY IDOCK:   -2.86 KCAL/MOL
REMARK 922        TOTAL FREE ENERGY PREDICTED BY IDOCK:   -5.01 KCAL/MOL
REMARK 923 INTER-LIGAND FREE ENERGY PREDICTED BY IDOCK:   -4.28 KCAL/MOL
REMARK 924 INTRA-LIGAND FREE ENERGY PREDICTED BY IDOCK:   -0.73 KCAL/MOL
REMARK 927      BINDING AFFINITY PREDICTED BY RF-SCORE:    0.00 PKD
ROOT
HETATM    1  N   UNL     1     -12.482  14.061  63.436  1.00  0.00    -1.123 NA 
HETATM    2  C   UNL     1     -12.120  13.770  64.823  1.00  0.00    -0.410 C  
HETATM    3  H1  UNL     1     -13.208  13.420  63.116  1.00  0.00     0.000 HD 
HETATM    4  H2  UNL     1     -11.667  14.051  62.822  1.00  0.00     0.000 HD 
ENDROOT
BRANCH   2   5
HETATM    5  C   UNL     1     -11.031  14.733  65.305  1.00  0.00    -0.374 C  
HETATM    6  O   UNL     1     -10.915  15.870  64.849  1.00  0.00    -0.443 OA 
BRANCH   5   7
HETATM    7  C   UNL     1     -10.161  14.216  66.430  1.00  0.00    -0.299 C  
BRANCH   7   8
HETATM    8  C   UNL     1      -8.858  14.993  66.566  1.00  0.00    -0.286 C  
BRANCH   8   9
HETATM    9  C   UNL     1      -8.828  15.928  67.752  1.00  0.00    -0.175 C  
HETATM   10  O   UNL     1      -9.078  17.122  67.692  1.00  0.00    -0.223 OA 
BRANCH   9  11
HETATM   11  O   UNL     1      -8.311  15.298  68.844  1.00  0.00    -0.167 OA 
BRANCH  11  12
HETATM   12  C   UNL     1      -7.147  15.921  69.387  1.00  0.00    -0.215 C  
BRANCH  12  13
HETATM   13  C   UNL     1      -5.905  15.068  69.190  1.00  0.00    -0.097 C  
BRANCH  13  14
HETATM   14  C   UNL     1      -6.082  13.749  69.938  1.00  0.00    -0.140 C  
BRANCH  14  15
HETATM   15  C   UNL     1      -5.638  12.544  69.114  1.00  0.00    -0.072 C  
BRANCH  15  16
HETATM   16  C   UNL     1      -6.327  12.545  67.749  1.00  0.00    -0.121 C  
HETATM   17  C   UNL     1      -5.600  11.648  66.759  1.00  0.00    -0.134 C  
ENDBRANCH  15  16
ENDBRANCH  14  15
ENDBRANCH  13  14
ENDBRANCH  12  13
ENDBRANCH  11  12
ENDBRANCH   9  11
ENDBRANCH   8   9
ENDBRANCH   7   8
ENDBRANCH   5   7
ENDBRANCH   2   5
TORSDOF 10
ENDMDL
MODEL      261
REMARK 921   NORMALIZED FREE ENERGY PREDICTED BY IDOCK:   -2.85 KCAL/MOL
REMARK 922        TOTAL FREE ENERGY PREDICTED BY IDOCK:   -5.00 KCAL/MOL
REMARK 923 INTER-LIGAND FREE ENERGY PREDICTED BY IDOCK:   -4.50 KCAL/MOL
REMARK 924 INTRA-LIGAND FREE ENERGY PREDICTED BY IDOCK:   -0.51 KCAL/MOL
REMARK 927      BINDING AFFINITY PREDICTED BY RF-SCORE:    0.00 PKD
ROOT
HETATM    1  N   UNL     1     -11.438   4.426  64.857  1.00  0.00    -1.068 NA 
HETATM    2  C   UNL     1     -10.044   4.265  65.271  1.00  0.00    -0.218 C  
HETATM    3  H1  UNL     1     -11.600   3.960  63.964  1.00  0.00     0.000 HD 
HETATM    4  H2  UNL     1     -11.715   5.408  64.829  1.00  0.00     0.000 HD 
ENDROOT
BRANCH   2   5
HETATM    5  C   UNL     1      -9.801   4.965  66.611  1.00  0.00    -0.204 C  
HETATM    6  O   UNL     1      -9.731   4.344  67.671  1.00  0.00    -0.169 OA 
BRANCH   5   7
HETATM    7  C   UNL     1      -9.577   6.460  66.530  1.00  0.00    -0.185 C  
BRANCH   7   8
HETATM    8  C   UNL     1     -10.678   7.255  67.220  1.00  0.00    -0.391 C  
BRANCH   8   9
HETATM    9  C   UNL     1     -10.269   7.823  68.559  1.00  0.00    -0.204 C  
HETATM   10  O   UNL     1     -10.200   7.170  69.589  1.00  0.00    -0.197 OA 
BRANCH   9  11
HETATM   11  O   UNL     1     -10.171   9.180  68.492  1.00  0.00    -0.186 OA 
BRANCH  11  12
HETATM   12  C   UNL     1     -11.134   9.798  67.636  1.00  0.00    -0.049 C  
BRANCH  12  13
HETATM   13  C   UNL     1     -11.016  11.313  67.653  1.00  0.00    -0.312 C  
BRANCH  13  14
HETATM   14  C   UNL     1     -11.512  11.866  66.319  1.00  0.00    -0.367 C  
BRANCH  14  15
HETATM   15  C   UNL     1     -11.330  13.377  66.208  1.00  0.00    -0.329 C  
BRANCH  15  16
HETATM   16  C   UNL     1     -10.707  13.937  67.488  1.00  0.00    -0.271 C  
HETATM   17  C   UNL     1     -11.410  15.207  67.938  1.00  0.00    -0.346 C  
ENDBRANCH  15  16
ENDBRANCH  14  15
ENDBRANCH  13  14
ENDBRANCH  12  13
ENDBRANCH  11  12
ENDBRANCH   9  11
ENDBRANCH   8   9
ENDBRANCH   7   8
ENDBRANCH   5   7
ENDBRANCH   2   5
TORSDOF 10
ENDMDL
MODEL      262
REMARK 921   NORMALIZED FREE ENERGY PREDICTED BY IDOCK:   -2.83 KCAL/MOL
REMARK 922        TOTAL FREE ENERGY PREDICTED BY IDOCK:   -4.97 KCAL/MOL
REMARK 923 INTER-LIGAND FREE ENERGY PREDICTED BY IDOCK:   -4.11 KCAL/MOL
REMARK 924 INTRA-LIGAND FREE ENERGY PREDICTED BY IDOCK:   -0.86 KCAL/MOL
REMARK 927      BINDING AFFINITY PREDICTED BY RF-SCORE:    0.00 PKD
ROOT
HETATM    1  N   UNL     1      -7.913  11.128  65.566  1.00  0.00    -0.367 NA 
HETATM    2  C   UNL     1      -8.141  10.124  66.605  1.00  0.00    -0.120 C  
HETATM    3  H1  UNL     1      -7.830  10.681  64.652  1.00  0.00     0.000 HD 
HETATM    4  H2  UNL     1      -7.107  11.716  65.777  1.00  0.00     0.000 HD 
ENDROOT
BRANCH   2   5
HETATM    5  C   UNL     1      -8.266  10.794  67.977  1.00  0.00    -0.115 C  
HETATM    6  O   UNL     1      -7.290  10.994  68.698  1.00  0.00    -0.088 OA 
BRANCH   5   7
HETATM    7  C   UNL     1      -9.658  11.263  68.344  1.00  0.00    -0.195 C  
BRANCH   7   8
HETATM    8  C   UNL     1      -9.849  12.757  68.123  1.00  0.00    -0.226 C  
BRANCH   8   9
HETATM    9  C   UNL     1     -10.671  13.090  66.899  1.00  0.00    -0.262 C  
HETATM   10  O   UNL     1     -10.327  12.845  65.753  1.00  0.00    -0.274 OA 
BRANCH   9  11
HETATM   11  O   UNL     1     -11.746  13.856  67.241  1.00  0.00    -0.342 OA 
BRANCH  11  12
HETATM   12  C   UNL     1     -11.463  15.252  67.345  1.00  0.00    -0.241 C  
BRANCH  12  13
HETATM   13  C   UNL     1     -11.736  15.781  68.744  1.00  0.00    -0.387 C  
BRANCH  13  14
HETATM   14  C   UNL     1     -10.455  16.395  69.303  1.00  0.00    -0.303 C  
BRANCH  14  15
HETATM   15  C   UNL     1      -9.646  17.132  68.240  1.00  0.00    -0.280 C  
BRANCH  15  16
HETATM   16  C   UNL     1      -9.327  18.555  68.700  1.00  0.00    -0.352 C  
HETATM   17  C   UNL     1     -10.252  19.570  68.047  1.00  0.00    -0.552 C  
ENDBRANCH  15  16
ENDBRANCH  14  15
ENDBRANCH  13  14
ENDBRANCH  12  13
ENDBRANCH  11  12
ENDBRANCH   9  11
ENDBRANCH   8   9
ENDBRANCH   7   8
ENDBRANCH   5   7
ENDBRANCH   2   5
TORSDOF 10
ENDMDL
MODEL      263
REMARK 921   NORMALIZED FREE ENERGY PREDICTED BY IDOCK:   -2.83 KCAL/MOL
REMARK 922        TOTAL FREE ENERGY PREDICTED BY IDOCK:   -4.96 KCAL/MOL
REMARK 923 INTER-LIGAND FREE ENERGY PREDICTED BY IDOCK:   -4.32 KCAL/MOL
REMARK 924 INTRA-LIGAND FREE ENERGY PREDICTED BY IDOCK:   -0.64 KCAL/MOL
REMARK 927      BINDING AFFINITY PREDICTED BY RF-SCORE:    0.00 PKD
ROOT
HETATM    1  N   UNL     1      -9.859  12.434  65.238  1.00  0.00    -0.414 NA 
HETATM    2  C   UNL     1     -11.163  12.658  65.864  1.00  0.00    -0.314 C  
HETATM    3  H1  UNL     1      -9.805  12.925  64.345  1.00  0.00     0.000 HD 
HETATM    4  H2  UNL     1      -9.651  11.440  65.139  1.00  0.00     0.000 HD 
ENDROOT
BRANCH   2   5
HETATM    5  C   UNL     1     -11.245  11.921  67.204  1.00  0.00    -0.319 C  
HETATM    6  O   UNL     1     -12.109  12.181  68.041  1.00  0.00    -0.478 OA 
BRANCH   5   7
HETATM    7  C   UNL     1     -10.242  10.803  67.392  1.00  0.00    -0.241 C  
BRANCH   7   8
HETATM    8  C   UNL     1      -9.439  10.948  68.678  1.00  0.00    -0.192 C  
BRANCH   8   9
HETATM    9  C   UNL     1      -9.923  10.059  69.800  1.00  0.00    -0.241 C  
HETATM   10  O   UNL     1     -10.859  10.332  70.537  1.00  0.00    -0.301 OA 
BRANCH   9  11
HETATM   11  O   UNL     1      -9.066   9.017  69.988  1.00  0.00    -0.153 OA 
BRANCH  11  12
HETATM   12  C   UNL     1      -8.759   8.746  71.356  1.00  0.00    -0.214 C  
BRANCH  12  13
HETATM   13  C   UNL     1      -8.685   7.254  71.634  1.00  0.00    -0.122 C  
BRANCH  13  14
HETATM   14  C   UNL     1      -9.012   6.491  70.353  1.00  0.00    -0.152 C  
BRANCH  14  15
HETATM   15  C   UNL     1     -10.318   5.710  70.454  1.00  0.00    -0.330 C  
BRANCH  15  16
HETATM   16  C   UNL     1     -11.516   6.643  70.270  1.00  0.00    -0.449 C  
HETATM   17  C   UNL     1     -12.326   6.766  71.551  1.00  0.00    -0.407 C  
ENDBRANCH  15  16
ENDBRANCH  14  15
ENDBRANCH  13  14
ENDBRANCH  12  13
ENDBRANCH  11  12
ENDBRANCH   9  11
ENDBRANCH   8   9
ENDBRANCH   7   8
ENDBRANCH   5   7
ENDBRANCH   2   5
TORSDOF 10
ENDMDL
MODEL      264
REMARK 921   NORMALIZED FREE ENERGY PREDICTED BY IDOCK:   -2.82 KCAL/MOL
REMARK 922        TOTAL FREE ENERGY PREDICTED BY IDOCK:   -4.95 KCAL/MOL
REMARK 923 INTER-LIGAND FREE ENERGY PREDICTED BY IDOCK:   -4.19 KCAL/MOL
REMARK 924 INTRA-LIGAND FREE ENERGY PREDICTED BY IDOCK:   -0.76 KCAL/MOL
REMARK 927      BINDING AFFINITY PREDICTED BY RF-SCORE:    0.00 PKD
ROOT
HETATM    1  N   UNL     1     -10.343  14.877  66.688  1.00  0.00    -0.278 NA 
HETATM    2  C   UNL     1     -11.247  15.274  67.768  1.00  0.00    -0.326 C  
HETATM    3  H1  UNL     1      -9.920  15.699  66.259  1.00  0.00     0.000 HD 
HETATM    4  H2  UNL     1     -10.811  14.286  66.000  1.00  0.00     0.000 HD 
ENDROOT
BRANCH   2   5
HETATM    5  C   UNL     1     -11.884  14.039  68.413  1.00  0.00    -0.362 C  
HETATM    6  O   UNL     1     -12.396  14.076  69.531  1.00  0.00    -0.332 OA 
BRANCH   5   7
HETATM    7  C   UNL     1     -11.907  12.797  67.550  1.00  0.00    -0.402 C  
BRANCH   7   8
HETATM    8  C   UNL     1     -11.264  11.597  68.234  1.00  0.00    -0.320 C  
BRANCH   8   9
HETATM    9  C   UNL     1      -9.799  11.424  67.908  1.00  0.00    -0.179 C  
HETATM   10  O   UNL     1      -8.986  12.336  67.894  1.00  0.00    -0.170 OA 
BRANCH   9  11
HETATM   11  O   UNL     1      -9.555  10.161  67.459  1.00  0.00    -0.153 OA 
BRANCH  11  12
HETATM   12  C   UNL     1     -10.657   9.263  67.602  1.00  0.00    -0.261 C  
BRANCH  12  13
HETATM   13  C   UNL     1     -10.303   7.857  67.150  1.00  0.00    -0.398 C  
BRANCH  13  14
HETATM   14  C   UNL     1      -9.312   7.249  68.140  1.00  0.00    -0.131 C  
BRANCH  14  15
HETATM   15  C   UNL     1      -9.849   7.232  69.568  1.00  0.00    -0.163 C  
BRANCH  15  16
HETATM   16  C   UNL     1     -10.702   5.985  69.805  1.00  0.00    -0.399 C  
HETATM   17  C   UNL     1     -10.742   5.611  71.278  1.00  0.00    -0.312 C  
ENDBRANCH  15  16
ENDBRANCH  14  15
ENDBRANCH  13  14
ENDBRANCH  12  13
ENDBRANCH  11  12
ENDBRANCH   9  11
ENDBRANCH   8   9
ENDBRANCH   7   8
ENDBRANCH   5   7
ENDBRANCH   2   5
TORSDOF 10
ENDMDL
MODEL      265
REMARK 921   NORMALIZED FREE ENERGY PREDICTED BY IDOCK:   -2.81 KCAL/MOL
REMARK 922        TOTAL FREE ENERGY PREDICTED BY IDOCK:   -4.94 KCAL/MOL
REMARK 923 INTER-LIGAND FREE ENERGY PREDICTED BY IDOCK:   -4.55 KCAL/MOL
REMARK 924 INTRA-LIGAND FREE ENERGY PREDICTED BY IDOCK:   -0.39 KCAL/MOL
REMARK 927      BINDING AFFINITY PREDICTED BY RF-SCORE:    0.00 PKD
ROOT
HETATM    1  N   UNL     1     -10.700   6.991  74.113  1.00  0.00    -0.522 NA 
HETATM    2  C   UNL     1     -11.082   6.355  72.852  1.00  0.00    -0.226 C  
HETATM    3  H1  UNL     1     -10.959   6.399  74.903  1.00  0.00     0.000 HD 
HETATM    4  H2  UNL     1     -11.089   7.930  74.197  1.00  0.00     0.000 HD 
ENDROOT
BRANCH   2   5
HETATM    5  C   UNL     1     -10.694   7.243  71.666  1.00  0.00    -0.215 C  
HETATM    6  O   UNL     1      -9.618   7.119  71.081  1.00  0.00    -0.165 OA 
BRANCH   5   7
HETATM    7  C   UNL     1     -11.754   8.225  71.218  1.00  0.00    -0.318 C  
BRANCH   7   8
HETATM    8  C   UNL     1     -11.327   9.674  71.412  1.00  0.00    -0.444 C  
BRANCH   8   9
HETATM    9  C   UNL     1     -11.037  10.401  70.119  1.00  0.00    -0.314 C  
HETATM   10  O   UNL     1      -9.977  10.332  69.516  1.00  0.00    -0.223 OA 
BRANCH   9  11
HETATM   11  O   UNL     1     -12.041  11.274  69.826  1.00  0.00    -0.306 OA 
BRANCH  11  12
HETATM   12  C   UNL     1     -11.685  12.287  68.884  1.00  0.00    -0.328 C  
BRANCH  12  13
HETATM   13  C   UNL     1     -12.116  13.668  69.349  1.00  0.00    -0.364 C  
BRANCH  13  14
HETATM   14  C   UNL     1     -11.590  14.711  68.367  1.00  0.00    -0.351 C  
BRANCH  14  15
HETATM   15  C   UNL     1     -11.262  16.039  69.044  1.00  0.00    -0.347 C  
BRANCH  15  16
HETATM   16  C   UNL     1      -9.763  16.327  68.961  1.00  0.00    -0.252 C  
HETATM   17  C   UNL     1      -9.029  15.236  68.198  1.00  0.00    -0.173 C  
ENDBRANCH  15  16
ENDBRANCH  14  15
ENDBRANCH  13  14
ENDBRANCH  12  13
ENDBRANCH  11  12
ENDBRANCH   9  11
ENDBRANCH   8   9
ENDBRANCH   7   8
ENDBRANCH   5   7
ENDBRANCH   2   5
TORSDOF 10
ENDMDL
MODEL      266
REMARK 921   NORMALIZED FREE ENERGY PREDICTED BY IDOCK:   -2.81 KCAL/MOL
REMARK 922        TOTAL FREE ENERGY PREDICTED BY IDOCK:   -4.94 KCAL/MOL
REMARK 923 INTER-LIGAND FREE ENERGY PREDICTED BY IDOCK:   -4.14 KCAL/MOL
REMARK 924 INTRA-LIGAND FREE ENERGY PREDICTED BY IDOCK:   -0.80 KCAL/MOL
REMARK 927      BINDING AFFINITY PREDICTED BY RF-SCORE:    0.00 PKD
ROOT
HETATM    1  N   UNL     1     -13.335   8.545  72.323  1.00  0.00    -0.512 NA 
HETATM    2  C   UNL     1     -13.466   7.219  71.719  1.00  0.00    -0.300 C  
HETATM    3  H1  UNL     1     -14.255   8.962  72.467  1.00  0.00     0.000 HD 
HETATM    4  H2  UNL     1     -12.723   9.152  71.778  1.00  0.00     0.000 HD 
ENDROOT
BRANCH   2   5
HETATM    5  C   UNL     1     -12.085   6.592  71.503  1.00  0.00    -0.355 C  
HETATM    6  O   UNL     1     -11.449   6.080  72.423  1.00  0.00    -0.288 OA 
BRANCH   5   7
HETATM    7  C   UNL     1     -11.597   6.577  70.071  1.00  0.00    -0.455 C  
BRANCH   7   8
HETATM    8  C   UNL     1     -10.576   7.672  69.790  1.00  0.00    -0.245 C  
BRANCH   8   9
HETATM    9  C   UNL     1      -9.276   7.158  69.214  1.00  0.00    -0.140 C  
HETATM   10  O   UNL     1      -8.967   5.977  69.165  1.00  0.00    -0.124 OA 
BRANCH   9  11
HETATM   11  O   UNL     1      -8.436   8.193  68.932  1.00  0.00    -0.127 OA 
BRANCH  11  12
HETATM   12  C   UNL     1      -8.899   9.466  69.387  1.00  0.00    -0.159 C  
BRANCH  12  13
HETATM   13  C   UNL     1      -8.305  10.606  68.576  1.00  0.00    -0.130 C  
BRANCH  13  14
HETATM   14  C   UNL     1      -9.409  11.607  68.242  1.00  0.00    -0.191 C  
BRANCH  14  15
HETATM   15  C   UNL     1     -10.762  10.937  68.028  1.00  0.00    -0.263 C  
BRANCH  15  16
HETATM   16  C   UNL     1     -11.856  11.677  68.799  1.00  0.00    -0.387 C  
HETATM   17  C   UNL     1     -11.944  11.195  70.238  1.00  0.00    -0.460 C  
ENDBRANCH  15  16
ENDBRANCH  14  15
ENDBRANCH  13  14
ENDBRANCH  12  13
ENDBRANCH  11  12
ENDBRANCH   9  11
ENDBRANCH   8   9
ENDBRANCH   7   8
ENDBRANCH   5   7
ENDBRANCH   2   5
TORSDOF 10
ENDMDL
MODEL      267
REMARK 921   NORMALIZED FREE ENERGY PREDICTED BY IDOCK:   -2.79 KCAL/MOL
REMARK 922        TOTAL FREE ENERGY PREDICTED BY IDOCK:   -4.91 KCAL/MOL
REMARK 923 INTER-LIGAND FREE ENERGY PREDICTED BY IDOCK:   -4.85 KCAL/MOL
REMARK 924 INTRA-LIGAND FREE ENERGY PREDICTED BY IDOCK:   -0.06 KCAL/MOL
REMARK 927      BINDING AFFINITY PREDICTED BY RF-SCORE:    0.00 PKD
ROOT
HETATM    1  N   UNL     1     -14.376   8.870  72.900  1.00  0.00    -1.124 NA 
HETATM    2  C   UNL     1     -13.617   8.354  71.761  1.00  0.00    -0.377 C  
HETATM    3  H1  UNL     1     -15.322   8.487  72.899  1.00  0.00     0.000 HD 
HETATM    4  H2  UNL     1     -14.378   9.890  72.924  1.00  0.00     0.000 HD 
ENDROOT
BRANCH   2   5
HETATM    5  C   UNL     1     -12.197   8.928  71.761  1.00  0.00    -0.359 C  
HETATM    6  O   UNL     1     -11.952  10.067  71.364  1.00  0.00    -0.365 OA 
BRANCH   5   7
HETATM    7  C   UNL     1     -11.134   8.029  72.354  1.00  0.00    -0.416 C  
BRANCH   7   8
HETATM    8  C   UNL     1      -9.750   8.664  72.329  1.00  0.00    -0.357 C  
BRANCH   8   9
HETATM    9  C   UNL     1      -8.966   8.364  71.073  1.00  0.00    -0.165 C  
HETATM   10  O   UNL     1      -7.765   8.141  71.051  1.00  0.00    -0.079 OA 
BRANCH   9  11
HETATM   11  O   UNL     1      -9.740   8.558  69.968  1.00  0.00    -0.167 OA 
BRANCH  11  12
HETATM   12  C   UNL     1      -9.416   9.732  69.222  1.00  0.00    -0.194 C  
BRANCH  12  13
HETATM   13  C   UNL     1     -10.186   9.800  67.913  1.00  0.00    -0.237 C  
BRANCH  13  14
HETATM   14  C   UNL     1     -10.238   8.406  67.293  1.00  0.00    -0.349 C  
BRANCH  14  15
HETATM   15  C   UNL     1      -9.320   8.269  66.082  1.00  0.00    -0.254 C  
BRANCH  15  16
HETATM   16  C   UNL     1      -9.497   9.459  65.138  1.00  0.00    -0.255 C  
HETATM   17  C   UNL     1      -8.234  10.303  65.064  1.00  0.00    -0.154 C  
ENDBRANCH  15  16
ENDBRANCH  14  15
ENDBRANCH  13  14
ENDBRANCH  12  13
ENDBRANCH  11  12
ENDBRANCH   9  11
ENDBRANCH   8   9
ENDBRANCH   7   8
ENDBRANCH   5   7
ENDBRANCH   2   5
TORSDOF 10
ENDMDL
MODEL      268
REMARK 921   NORMALIZED FREE ENERGY PREDICTED BY IDOCK:   -2.79 KCAL/MOL
REMARK 922        TOTAL FREE ENERGY PREDICTED BY IDOCK:   -4.91 KCAL/MOL
REMARK 923 INTER-LIGAND FREE ENERGY PREDICTED BY IDOCK:   -3.96 KCAL/MOL
REMARK 924 INTRA-LIGAND FREE ENERGY PREDICTED BY IDOCK:   -0.94 KCAL/MOL
REMARK 927      BINDING AFFINITY PREDICTED BY RF-SCORE:    0.00 PKD
ROOT
HETATM    1  N   UNL     1      -7.738  10.433  68.790  1.00  0.00    -0.096 NA 
HETATM    2  C   UNL     1      -8.852  10.008  69.638  1.00  0.00    -0.199 C  
HETATM    3  H1  UNL     1      -6.900  10.582  69.353  1.00  0.00     0.000 HD 
HETATM    4  H2  UNL     1      -7.976  11.256  68.236  1.00  0.00     0.000 HD 
ENDROOT
BRANCH   2   5
HETATM    5  C   UNL     1     -10.111   9.784  68.794  1.00  0.00    -0.174 C  
HETATM    6  O   UNL     1     -11.224  10.149  69.171  1.00  0.00    -0.225 OA 
BRANCH   5   7
HETATM    7  C   UNL     1      -9.877   9.157  67.437  1.00  0.00    -0.237 C  
BRANCH   7   8
HETATM    8  C   UNL     1     -10.532   9.944  66.309  1.00  0.00    -0.171 C  
BRANCH   8   9
HETATM    9  C   UNL     1      -9.671  11.062  65.769  1.00  0.00    -0.224 C  
HETATM   10  O   UNL     1      -8.472  11.166  65.974  1.00  0.00    -0.172 OA 
BRANCH   9  11
HETATM   11  O   UNL     1     -10.445  12.021  65.186  1.00  0.00    -0.268 OA 
BRANCH  11  12
HETATM   12  C   UNL     1     -11.469  12.545  66.032  1.00  0.00    -0.377 C  
BRANCH  12  13
HETATM   13  C   UNL     1     -10.909  13.507  67.067  1.00  0.00    -0.287 C  
BRANCH  13  14
HETATM   14  C   UNL     1     -11.928  13.678  68.191  1.00  0.00    -0.390 C  
BRANCH  14  15
HETATM   15  C   UNL     1     -11.331  14.344  69.426  1.00  0.00    -0.319 C  
BRANCH  15  16
HETATM   16  C   UNL     1     -12.246  15.463  69.927  1.00  0.00    -0.363 C  
HETATM   17  C   UNL     1     -12.861  15.117  71.274  1.00  0.00    -0.461 C  
ENDBRANCH  15  16
ENDBRANCH  14  15
ENDBRANCH  13  14
ENDBRANCH  12  13
ENDBRANCH  11  12
ENDBRANCH   9  11
ENDBRANCH   8   9
ENDBRANCH   7   8
ENDBRANCH   5   7
ENDBRANCH   2   5
TORSDOF 10
ENDMDL
MODEL      269
REMARK 921   NORMALIZED FREE ENERGY PREDICTED BY IDOCK:   -2.79 KCAL/MOL
REMARK 922        TOTAL FREE ENERGY PREDICTED BY IDOCK:   -4.91 KCAL/MOL
REMARK 923 INTER-LIGAND FREE ENERGY PREDICTED BY IDOCK:   -4.43 KCAL/MOL
REMARK 924 INTRA-LIGAND FREE ENERGY PREDICTED BY IDOCK:   -0.47 KCAL/MOL
REMARK 927      BINDING AFFINITY PREDICTED BY RF-SCORE:    0.00 PKD
ROOT
HETATM    1  N   UNL     1     -12.908  14.255  64.852  1.00  0.00    -0.673 NA 
HETATM    2  C   UNL     1     -12.295  12.960  65.150  1.00  0.00    -0.493 C  
HETATM    3  H1  UNL     1     -13.919  14.208  64.979  1.00  0.00     0.000 HD 
HETATM    4  H2  UNL     1     -12.657  14.589  63.921  1.00  0.00     0.000 HD 
ENDROOT
BRANCH   2   5
HETATM    5  C   UNL     1     -10.778  13.031  64.959  1.00  0.00    -0.315 C  
HETATM    6  O   UNL     1     -10.257  13.016  63.844  1.00  0.00    -0.378 OA 
BRANCH   5   7
HETATM    7  C   UNL     1      -9.972  13.199  66.228  1.00  0.00    -0.285 C  
BRANCH   7   8
HETATM    8  C   UNL     1      -9.205  14.514  66.264  1.00  0.00    -0.231 C  
BRANCH   8   9
HETATM    9  C   UNL     1      -8.773  14.930  67.651  1.00  0.00    -0.175 C  
HETATM   10  O   UNL     1      -8.796  14.195  68.626  1.00  0.00    -0.184 OA 
BRANCH   9  11
HETATM   11  O   UNL     1      -8.535  16.271  67.695  1.00  0.00    -0.166 OA 
BRANCH  11  12
HETATM   12  C   UNL     1      -8.791  16.955  66.468  1.00  0.00    -0.271 C  
BRANCH  12  13
HETATM   13  C   UNL     1      -8.078  18.296  66.408  1.00  0.00    -0.285 C  
BRANCH  13  14
HETATM   14  C   UNL     1      -6.575  18.057  66.295  1.00  0.00    -0.276 C  
BRANCH  14  15
HETATM   15  C   UNL     1      -5.755  19.153  66.969  1.00  0.00    -0.166 C  
BRANCH  15  16
HETATM   16  C   UNL     1      -5.643  18.890  68.472  1.00  0.00    -0.200 C  
HETATM   17  C   UNL     1      -5.836  20.167  69.275  1.00  0.00    -0.336 C  
ENDBRANCH  15  16
ENDBRANCH  14  15
ENDBRANCH  13  14
ENDBRANCH  12  13
ENDBRANCH  11  12
ENDBRANCH   9  11
ENDBRANCH   8   9
ENDBRANCH   7   8
ENDBRANCH   5   7
ENDBRANCH   2   5
TORSDOF 10
ENDMDL
MODEL      270
REMARK 921   NORMALIZED FREE ENERGY PREDICTED BY IDOCK:   -2.79 KCAL/MOL
REMARK 922        TOTAL FREE ENERGY PREDICTED BY IDOCK:   -4.90 KCAL/MOL
REMARK 923 INTER-LIGAND FREE ENERGY PREDICTED BY IDOCK:   -4.20 KCAL/MOL
REMARK 924 INTRA-LIGAND FREE ENERGY PREDICTED BY IDOCK:   -0.70 KCAL/MOL
REMARK 927      BINDING AFFINITY PREDICTED BY RF-SCORE:    0.00 PKD
ROOT
HETATM    1  N   UNL     1     -11.173   6.282  66.664  1.00  0.00    -0.753 NA 
HETATM    2  C   UNL     1     -10.587   7.527  67.161  1.00  0.00    -0.345 C  
HETATM    3  H1  UNL     1     -12.191   6.349  66.652  1.00  0.00     0.000 HD 
HETATM    4  H2  UNL     1     -10.851   5.473  67.194  1.00  0.00     0.000 HD 
ENDROOT
BRANCH   2   5
HETATM    5  C   UNL     1      -9.059   7.428  67.178  1.00  0.00    -0.130 C  
HETATM    6  O   UNL     1      -8.470   6.500  67.731  1.00  0.00    -0.118 OA 
BRANCH   5   7
HETATM    7  C   UNL     1      -8.331   8.504  66.403  1.00  0.00    -0.115 C  
BRANCH   7   8
HETATM    8  C   UNL     1      -8.637   8.459  64.912  1.00  0.00    -0.108 C  
BRANCH   8   9
HETATM    9  C   UNL     1      -8.973   9.808  64.319  1.00  0.00    -0.237 C  
HETATM   10  O   UNL     1      -8.266  10.401  63.518  1.00  0.00    -0.162 OA 
BRANCH   9  11
HETATM   11  O   UNL     1     -10.065  10.342  64.935  1.00  0.00    -0.334 OA 
BRANCH  11  12
HETATM   12  C   UNL     1      -9.998  11.755  65.131  1.00  0.00    -0.253 C  
BRANCH  12  13
HETATM   13  C   UNL     1      -9.412  12.111  66.487  1.00  0.00    -0.235 C  
BRANCH  13  14
HETATM   14  C   UNL     1     -10.345  13.094  67.190  1.00  0.00    -0.247 C  
BRANCH  14  15
HETATM   15  C   UNL     1     -11.780  12.583  67.274  1.00  0.00    -0.431 C  
BRANCH  15  16
HETATM   16  C   UNL     1     -11.877  11.418  68.260  1.00  0.00    -0.320 C  
HETATM   17  C   UNL     1     -11.696  11.888  69.694  1.00  0.00    -0.413 C  
ENDBRANCH  15  16
ENDBRANCH  14  15
ENDBRANCH  13  14
ENDBRANCH  12  13
ENDBRANCH  11  12
ENDBRANCH   9  11
ENDBRANCH   8   9
ENDBRANCH   7   8
ENDBRANCH   5   7
ENDBRANCH   2   5
TORSDOF 10
ENDMDL
MODEL      271
REMARK 921   NORMALIZED FREE ENERGY PREDICTED BY IDOCK:   -2.78 KCAL/MOL
REMARK 922        TOTAL FREE ENERGY PREDICTED BY IDOCK:   -4.89 KCAL/MOL
REMARK 923 INTER-LIGAND FREE ENERGY PREDICTED BY IDOCK:   -4.46 KCAL/MOL
REMARK 924 INTRA-LIGAND FREE ENERGY PREDICTED BY IDOCK:   -0.43 KCAL/MOL
REMARK 927      BINDING AFFINITY PREDICTED BY RF-SCORE:    0.00 PKD
ROOT
HETATM    1  N   UNL     1      -6.219  20.986  67.746  1.00  0.00    -0.333 NA 
HETATM    2  C   UNL     1      -6.634  19.682  68.263  1.00  0.00    -0.259 C  
HETATM    3  H1  UNL     1      -5.745  21.522  68.473  1.00  0.00     0.000 HD 
HETATM    4  H2  UNL     1      -7.001  21.500  67.341  1.00  0.00     0.000 HD 
ENDROOT
BRANCH   2   5
HETATM    5  C   UNL     1      -7.344  18.875  67.172  1.00  0.00    -0.213 C  
HETATM    6  O   UNL     1      -7.621  19.361  66.076  1.00  0.00    -0.283 OA 
BRANCH   5   7
HETATM    7  C   UNL     1      -7.608  17.424  67.507  1.00  0.00    -0.201 C  
BRANCH   7   8
HETATM    8  C   UNL     1      -8.152  16.639  66.320  1.00  0.00    -0.361 C  
BRANCH   8   9
HETATM    9  C   UNL     1      -9.659  16.518  66.310  1.00  0.00    -0.306 C  
HETATM   10  O   UNL     1     -10.422  17.459  66.153  1.00  0.00    -0.347 OA 
BRANCH   9  11
HETATM   11  O   UNL     1     -10.039  15.263  66.680  1.00  0.00    -0.249 OA 
BRANCH  11  12
HETATM   12  C   UNL     1     -11.410  14.961  66.416  1.00  0.00    -0.308 C  
BRANCH  12  13
HETATM   13  C   UNL     1     -11.754  13.527  66.782  1.00  0.00    -0.430 C  
BRANCH  13  14
HETATM   14  C   UNL     1     -10.692  12.988  67.738  1.00  0.00    -0.242 C  
BRANCH  14  15
HETATM   15  C   UNL     1     -10.395  11.509  67.510  1.00  0.00    -0.220 C  
BRANCH  15  16
HETATM   16  C   UNL     1     -11.445  10.639  68.201  1.00  0.00    -0.303 C  
HETATM   17  C   UNL     1     -11.679  11.084  69.636  1.00  0.00    -0.401 C  
ENDBRANCH  15  16
ENDBRANCH  14  15
ENDBRANCH  13  14
ENDBRANCH  12  13
ENDBRANCH  11  12
ENDBRANCH   9  11
ENDBRANCH   8   9
ENDBRANCH   7   8
ENDBRANCH   5   7
ENDBRANCH   2   5
TORSDOF 10
ENDMDL
MODEL      272
REMARK 921   NORMALIZED FREE ENERGY PREDICTED BY IDOCK:   -2.78 KCAL/MOL
REMARK 922        TOTAL FREE ENERGY PREDICTED BY IDOCK:   -4.89 KCAL/MOL
REMARK 923 INTER-LIGAND FREE ENERGY PREDICTED BY IDOCK:   -4.71 KCAL/MOL
REMARK 924 INTRA-LIGAND FREE ENERGY PREDICTED BY IDOCK:   -0.18 KCAL/MOL
REMARK 927      BINDING AFFINITY PREDICTED BY RF-SCORE:    0.00 PKD
ROOT
HETATM    1  N   UNL     1      -9.455   9.282  71.702  1.00  0.00    -0.283 NA 
HETATM    2  C   UNL     1      -9.067   9.601  70.327  1.00  0.00    -0.225 C  
HETATM    3  H1  UNL     1      -8.703   9.523  72.348  1.00  0.00     0.000 HD 
HETATM    4  H2  UNL     1      -9.742   8.308  71.799  1.00  0.00     0.000 HD 
ENDROOT
BRANCH   2   5
HETATM    5  C   UNL     1     -10.196   9.238  69.357  1.00  0.00    -0.210 C  
HETATM    6  O   UNL     1     -10.076   8.345  68.519  1.00  0.00    -0.186 OA 
BRANCH   5   7
HETATM    7  C   UNL     1     -11.489   9.999  69.554  1.00  0.00    -0.176 C  
BRANCH   7   8
HETATM    8  C   UNL     1     -11.268  11.500  69.689  1.00  0.00    -0.276 C  
BRANCH   8   9
HETATM    9  C   UNL     1     -10.865  12.175  68.398  1.00  0.00    -0.224 C  
HETATM   10  O   UNL     1     -10.035  11.729  67.621  1.00  0.00    -0.189 OA 
BRANCH   9  11
HETATM   11  O   UNL     1     -11.414  13.420  68.318  1.00  0.00    -0.274 OA 
BRANCH  11  12
HETATM   12  C   UNL     1     -11.951  13.745  67.035  1.00  0.00    -0.413 C  
BRANCH  12  13
HETATM   13  C   UNL     1     -11.177  14.869  66.367  1.00  0.00    -0.331 C  
BRANCH  13  14
HETATM   14  C   UNL     1     -10.888  14.481  64.918  1.00  0.00    -0.436 C  
BRANCH  14  15
HETATM   15  C   UNL     1     -10.316  13.073  64.792  1.00  0.00    -0.356 C  
BRANCH  15  16
HETATM   16  C   UNL     1     -10.740  12.439  63.466  1.00  0.00    -0.473 C  
HETATM   17  C   UNL     1     -12.197  12.006  63.499  1.00  0.00    -0.653 C  
ENDBRANCH  15  16
ENDBRANCH  14  15
ENDBRANCH  13  14
ENDBRANCH  12  13
ENDBRANCH  11  12
ENDBRANCH   9  11
ENDBRANCH   8   9
ENDBRANCH   7   8
ENDBRANCH   5   7
ENDBRANCH   2   5
TORSDOF 10
ENDMDL
MODEL      273
REMARK 921   NORMALIZED FREE ENERGY PREDICTED BY IDOCK:   -2.77 KCAL/MOL
REMARK 922        TOTAL FREE ENERGY PREDICTED BY IDOCK:   -4.88 KCAL/MOL
REMARK 923 INTER-LIGAND FREE ENERGY PREDICTED BY IDOCK:   -4.45 KCAL/MOL
REMARK 924 INTRA-LIGAND FREE ENERGY PREDICTED BY IDOCK:   -0.43 KCAL/MOL
REMARK 927      BINDING AFFINITY PREDICTED BY RF-SCORE:    0.00 PKD
ROOT
HETATM    1  N   UNL     1     -10.744  17.001  69.652  1.00  0.00    -0.347 NA 
HETATM    2  C   UNL     1     -10.742  16.556  68.258  1.00  0.00    -0.345 C  
HETATM    3  H1  UNL     1     -10.246  17.887  69.742  1.00  0.00     0.000 HD 
HETATM    4  H2  UNL     1     -10.369  16.289  70.278  1.00  0.00     0.000 HD 
ENDROOT
BRANCH   2   5
HETATM    5  C   UNL     1     -11.489  15.226  68.122  1.00  0.00    -0.346 C  
HETATM    6  O   UNL     1     -12.137  14.742  69.049  1.00  0.00    -0.287 OA 
BRANCH   5   7
HETATM    7  C   UNL     1     -11.439  14.592  66.748  1.00  0.00    -0.371 C  
BRANCH   7   8
HETATM    8  C   UNL     1     -10.681  13.271  66.742  1.00  0.00    -0.279 C  
BRANCH   8   9
HETATM    9  C   UNL     1     -11.516  12.093  66.295  1.00  0.00    -0.374 C  
HETATM   10  O   UNL     1     -12.322  12.132  65.378  1.00  0.00    -0.533 OA 
BRANCH   9  11
HETATM   11  O   UNL     1     -11.379  11.054  67.165  1.00  0.00    -0.399 OA 
BRANCH  11  12
HETATM   12  C   UNL     1     -10.453  10.052  66.744  1.00  0.00    -0.198 C  
BRANCH  12  13
HETATM   13  C   UNL     1      -9.212  10.025  67.621  1.00  0.00    -0.148 C  
BRANCH  13  14
HETATM   14  C   UNL     1      -9.047   8.624  68.207  1.00  0.00    -0.141 C  
BRANCH  14  15
HETATM   15  C   UNL     1     -10.338   7.813  68.158  1.00  0.00    -0.248 C  
BRANCH  15  16
HETATM   16  C   UNL     1     -10.717   7.325  69.556  1.00  0.00    -0.244 C  
HETATM   17  C   UNL     1      -9.809   7.922  70.619  1.00  0.00    -0.187 C  
ENDBRANCH  15  16
ENDBRANCH  14  15
ENDBRANCH  13  14
ENDBRANCH  12  13
ENDBRANCH  11  12
ENDBRANCH   9  11
ENDBRANCH   8   9
ENDBRANCH   7   8
ENDBRANCH   5   7
ENDBRANCH   2   5
TORSDOF 10
ENDMDL
MODEL      274
REMARK 921   NORMALIZED FREE ENERGY PREDICTED BY IDOCK:   -2.75 KCAL/MOL
REMARK 922        TOTAL FREE ENERGY PREDICTED BY IDOCK:   -4.85 KCAL/MOL
REMARK 923 INTER-LIGAND FREE ENERGY PREDICTED BY IDOCK:   -4.34 KCAL/MOL
REMARK 924 INTRA-LIGAND FREE ENERGY PREDICTED BY IDOCK:   -0.51 KCAL/MOL
REMARK 927      BINDING AFFINITY PREDICTED BY RF-SCORE:    0.00 PKD
ROOT
HETATM    1  N   UNL     1     -13.032  13.943  64.935  1.00  0.00    -0.713 NA 
HETATM    2  C   UNL     1     -12.330  12.666  64.805  1.00  0.00    -0.489 C  
HETATM    3  H1  UNL     1     -13.612  14.115  64.113  1.00  0.00     0.000 HD 
HETATM    4  H2  UNL     1     -12.389  14.714  65.114  1.00  0.00     0.000 HD 
ENDROOT
BRANCH   2   5
HETATM    5  C   UNL     1     -11.459  12.408  66.038  1.00  0.00    -0.382 C  
HETATM    6  O   UNL     1     -11.923  11.954  67.083  1.00  0.00    -0.611 OA 
BRANCH   5   7
HETATM    7  C   UNL     1      -9.981  12.675  65.854  1.00  0.00    -0.274 C  
BRANCH   7   8
HETATM    8  C   UNL     1      -9.155  11.396  65.821  1.00  0.00    -0.195 C  
BRANCH   8   9
HETATM    9  C   UNL     1      -7.975  11.409  66.765  1.00  0.00    -0.160 C  
HETATM   10  O   UNL     1      -6.815  11.251  66.416  1.00  0.00    -0.124 OA 
BRANCH   9  11
HETATM   11  O   UNL     1      -8.400  11.435  68.060  1.00  0.00    -0.130 OA 
BRANCH  11  12
HETATM   12  C   UNL     1      -9.026  10.228  68.498  1.00  0.00    -0.134 C  
BRANCH  12  13
HETATM   13  C   UNL     1      -8.527   9.797  69.867  1.00  0.00    -0.217 C  
BRANCH  13  14
HETATM   14  C   UNL     1      -8.684   8.284  70.000  1.00  0.00    -0.133 C  
BRANCH  14  15
HETATM   15  C   UNL     1      -9.486   7.675  68.854  1.00  0.00    -0.149 C  
BRANCH  15  16
HETATM   16  C   UNL     1      -9.742   6.189  69.109  1.00  0.00    -0.164 C  
HETATM   17  C   UNL     1     -11.061   5.969  69.833  1.00  0.00    -0.469 C  
ENDBRANCH  15  16
ENDBRANCH  14  15
ENDBRANCH  13  14
ENDBRANCH  12  13
ENDBRANCH  11  12
ENDBRANCH   9  11
ENDBRANCH   8   9
ENDBRANCH   7   8
ENDBRANCH   5   7
ENDBRANCH   2   5
TORSDOF 10
ENDMDL
MODEL      275
REMARK 921   NORMALIZED FREE ENERGY PREDICTED BY IDOCK:   -2.75 KCAL/MOL
REMARK 922        TOTAL FREE ENERGY PREDICTED BY IDOCK:   -4.84 KCAL/MOL
REMARK 923 INTER-LIGAND FREE ENERGY PREDICTED BY IDOCK:   -4.58 KCAL/MOL
REMARK 924 INTRA-LIGAND FREE ENERGY PREDICTED BY IDOCK:   -0.26 KCAL/MOL
REMARK 927      BINDING AFFINITY PREDICTED BY RF-SCORE:    0.00 PKD
ROOT
HETATM    1  N   UNL     1      -8.304   7.653  65.586  1.00  0.00    -0.135 NA 
HETATM    2  C   UNL     1      -8.655   9.067  65.719  1.00  0.00    -0.160 C  
HETATM    3  H1  UNL     1      -7.498   7.544  64.970  1.00  0.00     0.000 HD 
HETATM    4  H2  UNL     1      -9.098   7.093  65.277  1.00  0.00     0.000 HD 
ENDROOT
BRANCH   2   5
HETATM    5  C   UNL     1      -9.865   9.232  66.644  1.00  0.00    -0.245 C  
HETATM    6  O   UNL     1     -10.449   8.267  67.136  1.00  0.00    -0.293 OA 
BRANCH   5   7
HETATM    7  C   UNL     1     -10.240  10.661  66.971  1.00  0.00    -0.267 C  
BRANCH   7   8
HETATM    8  C   UNL     1      -9.635  11.139  68.284  1.00  0.00    -0.185 C  
BRANCH   8   9
HETATM    9  C   UNL     1      -9.085  12.545  68.225  1.00  0.00    -0.183 C  
HETATM   10  O   UNL     1      -7.896  12.820  68.287  1.00  0.00    -0.129 OA 
BRANCH   9  11
HETATM   11  O   UNL     1     -10.097  13.456  68.278  1.00  0.00    -0.237 OA 
BRANCH  11  12
HETATM   12  C   UNL     1     -11.039  13.228  69.327  1.00  0.00    -0.153 C  
BRANCH  12  13
HETATM   13  C   UNL     1     -11.977  14.409  69.511  1.00  0.00    -0.376 C  
BRANCH  13  14
HETATM   14  C   UNL     1     -12.287  14.572  70.997  1.00  0.00    -0.417 C  
BRANCH  14  15
HETATM   15  C   UNL     1     -13.467  15.505  71.250  1.00  0.00    -0.560 C  
BRANCH  15  16
HETATM   16  C   UNL     1     -13.900  15.437  72.715  1.00  0.00    -0.576 C  
HETATM   17  C   UNL     1     -12.899  16.133  73.623  1.00  0.00    -0.666 C  
ENDBRANCH  15  16
ENDBRANCH  14  15
ENDBRANCH  13  14
ENDBRANCH  12  13
ENDBRANCH  11  12
ENDBRANCH   9  11
ENDBRANCH   8   9
ENDBRANCH   7   8
ENDBRANCH   5   7
ENDBRANCH   2   5
TORSDOF 10
ENDMDL
MODEL      276
REMARK 921   NORMALIZED FREE ENERGY PREDICTED BY IDOCK:   -2.74 KCAL/MOL
REMARK 922        TOTAL FREE ENERGY PREDICTED BY IDOCK:   -4.83 KCAL/MOL
REMARK 923 INTER-LIGAND FREE ENERGY PREDICTED BY IDOCK:   -4.47 KCAL/MOL
REMARK 924 INTRA-LIGAND FREE ENERGY PREDICTED BY IDOCK:   -0.36 KCAL/MOL
REMARK 927      BINDING AFFINITY PREDICTED BY RF-SCORE:    0.00 PKD
ROOT
HETATM    1  N   UNL     1     -12.773  14.415  66.869  1.00  0.00    -0.310 NA 
HETATM    2  C   UNL     1     -12.790  13.395  65.819  1.00  0.00    -0.177 C  
HETATM    3  H1  UNL     1     -13.357  14.126  67.654  1.00  0.00     0.000 HD 
HETATM    4  H2  UNL     1     -13.041  15.332  66.512  1.00  0.00     0.000 HD 
ENDROOT
BRANCH   2   5
HETATM    5  C   UNL     1     -11.912  13.828  64.641  1.00  0.00    -0.416 C  
HETATM    6  O   UNL     1     -12.389  14.304  63.611  1.00  0.00    -0.741 OA 
BRANCH   5   7
HETATM    7  C   UNL     1     -10.421  13.703  64.863  1.00  0.00    -0.426 C  
BRANCH   7   8
HETATM    8  C   UNL     1     -10.079  12.805  66.045  1.00  0.00    -0.277 C  
BRANCH   8   9
HETATM    9  C   UNL     1      -8.742  13.114  66.678  1.00  0.00    -0.004 C  
HETATM   10  O   UNL     1      -7.998  12.272  67.155  1.00  0.00    -0.169 OA 
BRANCH   9  11
HETATM   11  O   UNL     1      -8.574  14.461  66.805  1.00  0.00    -0.201 OA 
BRANCH  11  12
HETATM   12  C   UNL     1      -7.807  14.853  67.944  1.00  0.00    -0.137 C  
BRANCH  12  13
HETATM   13  C   UNL     1      -8.523  15.906  68.773  1.00  0.00    -0.204 C  
BRANCH  13  14
HETATM   14  C   UNL     1      -9.998  15.931  68.380  1.00  0.00    -0.222 C  
BRANCH  14  15
HETATM   15  C   UNL     1     -10.890  16.479  69.489  1.00  0.00    -0.315 C  
BRANCH  15  16
HETATM   16  C   UNL     1     -11.164  15.401  70.539  1.00  0.00    -0.358 C  
HETATM   17  C   UNL     1     -12.251  15.834  71.509  1.00  0.00    -0.513 C  
ENDBRANCH  15  16
ENDBRANCH  14  15
ENDBRANCH  13  14
ENDBRANCH  12  13
ENDBRANCH  11  12
ENDBRANCH   9  11
ENDBRANCH   8   9
ENDBRANCH   7   8
ENDBRANCH   5   7
ENDBRANCH   2   5
TORSDOF 10
ENDMDL
MODEL      277
REMARK 921   NORMALIZED FREE ENERGY PREDICTED BY IDOCK:   -2.74 KCAL/MOL
REMARK 922        TOTAL FREE ENERGY PREDICTED BY IDOCK:   -4.82 KCAL/MOL
REMARK 923 INTER-LIGAND FREE ENERGY PREDICTED BY IDOCK:   -4.26 KCAL/MOL
REMARK 924 INTRA-LIGAND FREE ENERGY PREDICTED BY IDOCK:   -0.56 KCAL/MOL
REMARK 927      BINDING AFFINITY PREDICTED BY RF-SCORE:    0.00 PKD
ROOT
HETATM    1  N   UNL     1     -10.107   8.305  66.294  1.00  0.00    -0.466 NA 
HETATM    2  C   UNL     1      -9.769   9.543  65.592  1.00  0.00    -0.290 C  
HETATM    3  H1  UNL     1      -9.874   7.495  65.719  1.00  0.00     0.000 HD 
HETATM    4  H2  UNL     1     -11.082   8.292  66.594  1.00  0.00     0.000 HD 
ENDROOT
BRANCH   2   5
HETATM    5  C   UNL     1     -10.117  10.759  66.455  1.00  0.00    -0.228 C  
HETATM    6  O   UNL     1     -11.158  10.819  67.110  1.00  0.00    -0.291 OA 
BRANCH   5   7
HETATM    7  C   UNL     1      -9.060  11.840  66.508  1.00  0.00    -0.203 C  
BRANCH   7   8
HETATM    8  C   UNL     1      -9.346  12.885  67.578  1.00  0.00    -0.190 C  
BRANCH   8   9
HETATM    9  C   UNL     1      -9.789  14.219  67.023  1.00  0.00    -0.254 C  
HETATM   10  O   UNL     1      -9.783  14.504  65.835  1.00  0.00    -0.311 OA 
BRANCH   9  11
HETATM   11  O   UNL     1     -10.016  15.105  68.033  1.00  0.00    -0.219 OA 
BRANCH  11  12
HETATM   12  C   UNL     1     -10.961  16.128  67.717  1.00  0.00    -0.293 C  
BRANCH  12  13
HETATM   13  C   UNL     1     -10.572  17.465  68.326  1.00  0.00    -0.366 C  
BRANCH  13  14
HETATM   14  C   UNL     1      -9.056  17.510  68.503  1.00  0.00    -0.277 C  
BRANCH  14  15
HETATM   15  C   UNL     1      -8.438  18.782  67.932  1.00  0.00    -0.316 C  
BRANCH  15  16
HETATM   16  C   UNL     1      -7.219  18.446  67.072  1.00  0.00    -0.218 C  
HETATM   17  C   UNL     1      -7.416  17.145  66.312  1.00  0.00    -0.344 C  
ENDBRANCH  15  16
ENDBRANCH  14  15
ENDBRANCH  13  14
ENDBRANCH  12  13
ENDBRANCH  11  12
ENDBRANCH   9  11
ENDBRANCH   8   9
ENDBRANCH   7   8
ENDBRANCH   5   7
ENDBRANCH   2   5
TORSDOF 10
ENDMDL
MODEL      278
REMARK 921   NORMALIZED FREE ENERGY PREDICTED BY IDOCK:   -2.74 KCAL/MOL
REMARK 922        TOTAL FREE ENERGY PREDICTED BY IDOCK:   -4.82 KCAL/MOL
REMARK 923 INTER-LIGAND FREE ENERGY PREDICTED BY IDOCK:   -4.53 KCAL/MOL
REMARK 924 INTRA-LIGAND FREE ENERGY PREDICTED BY IDOCK:   -0.29 KCAL/MOL
REMARK 927      BINDING AFFINITY PREDICTED BY RF-SCORE:    0.00 PKD
ROOT
HETATM    1  N   UNL     1      -6.657  10.363  64.365  1.00  0.00    -0.313 NA 
HETATM    2  C   UNL     1      -8.063  10.646  64.655  1.00  0.00     0.015 C  
HETATM    3  H1  UNL     1      -6.401  10.738  63.452  1.00  0.00     0.000 HD 
HETATM    4  H2  UNL     1      -6.447   9.368  64.441  1.00  0.00     0.000 HD 
ENDROOT
BRANCH   2   5
HETATM    5  C   UNL     1      -8.450  10.083  66.027  1.00  0.00    -0.131 C  
HETATM    6  O   UNL     1      -7.708  10.178  67.004  1.00  0.00    -0.095 OA 
BRANCH   5   7
HETATM    7  C   UNL     1      -9.833   9.477  66.112  1.00  0.00    -0.343 C  
BRANCH   7   8
HETATM    8  C   UNL     1     -10.678  10.099  67.216  1.00  0.00    -0.316 C  
BRANCH   8   9
HETATM    9  C   UNL     1     -11.391  11.364  66.796  1.00  0.00    -0.179 C  
HETATM   10  O   UNL     1     -11.240  11.910  65.714  1.00  0.00    -0.320 OA 
BRANCH   9  11
HETATM   11  O   UNL     1     -12.071  11.899  67.849  1.00  0.00    -0.558 OA 
BRANCH  11  12
HETATM   12  C   UNL     1     -11.480  11.642  69.123  1.00  0.00    -0.300 C  
BRANCH  12  13
HETATM   13  C   UNL     1     -12.356  10.745  69.982  1.00  0.00    -0.371 C  
BRANCH  13  14
HETATM   14  C   UNL     1     -11.486  10.053  71.029  1.00  0.00    -0.463 C  
BRANCH  14  15
HETATM   15  C   UNL     1     -11.619   8.534  70.990  1.00  0.00    -0.317 C  
BRANCH  15  16
HETATM   16  C   UNL     1     -11.810   7.977  72.401  1.00  0.00    -0.429 C  
HETATM   17  C   UNL     1     -10.479   7.616  73.041  1.00  0.00    -0.414 C  
ENDBRANCH  15  16
ENDBRANCH  14  15
ENDBRANCH  13  14
ENDBRANCH  12  13
ENDBRANCH  11  12
ENDBRANCH   9  11
ENDBRANCH   8   9
ENDBRANCH   7   8
ENDBRANCH   5   7
ENDBRANCH   2   5
TORSDOF 10
ENDMDL
MODEL      279
REMARK 921   NORMALIZED FREE ENERGY PREDICTED BY IDOCK:   -2.73 KCAL/MOL
REMARK 922        TOTAL FREE ENERGY PREDICTED BY IDOCK:   -4.81 KCAL/MOL
REMARK 923 INTER-LIGAND FREE ENERGY PREDICTED BY IDOCK:   -4.30 KCAL/MOL
REMARK 924 INTRA-LIGAND FREE ENERGY PREDICTED BY IDOCK:   -0.51 KCAL/MOL
REMARK 927      BINDING AFFINITY PREDICTED BY RF-SCORE:    0.00 PKD
ROOT
HETATM    1  N   UNL     1     -11.831  15.782  70.603  1.00  0.00    -0.360 NA 
HETATM    2  C   UNL     1     -11.908  14.852  69.476  1.00  0.00    -0.325 C  
HETATM    3  H1  UNL     1     -12.282  15.382  71.426  1.00  0.00     0.000 HD 
HETATM    4  H2  UNL     1     -12.213  16.698  70.367  1.00  0.00     0.000 HD 
ENDROOT
BRANCH   2   5
HETATM    5  C   UNL     1     -11.231  15.453  68.241  1.00  0.00    -0.323 C  
HETATM    6  O   UNL     1     -10.295  16.246  68.329  1.00  0.00    -0.252 OA 
BRANCH   5   7
HETATM    7  C   UNL     1     -11.741  14.942  66.910  1.00  0.00    -0.260 C  
BRANCH   7   8
HETATM    8  C   UNL     1     -12.070  13.455  66.942  1.00  0.00    -0.406 C  
BRANCH   8   9
HETATM    9  C   UNL     1     -12.291  12.851  65.574  1.00  0.00    -0.461 C  
HETATM   10  O   UNL     1     -13.143  13.231  64.786  1.00  0.00    -0.709 OA 
BRANCH   9  11
HETATM   11  O   UNL     1     -11.541  11.724  65.424  1.00  0.00    -0.256 OA 
BRANCH  11  12
HETATM   12  C   UNL     1     -10.130  11.945  65.472  1.00  0.00    -0.245 C  
BRANCH  12  13
HETATM   13  C   UNL     1      -9.433  10.945  66.379  1.00  0.00    -0.214 C  
BRANCH  13  14
HETATM   14  C   UNL     1      -8.908  11.674  67.614  1.00  0.00    -0.159 C  
BRANCH  14  15
HETATM   15  C   UNL     1      -7.555  11.143  68.077  1.00  0.00    -0.100 C  
BRANCH  15  16
HETATM   16  C   UNL     1      -6.809  12.207  68.884  1.00  0.00    -0.100 C  
HETATM   17  C   UNL     1      -6.298  13.326  67.990  1.00  0.00    -0.128 C  
ENDBRANCH  15  16
ENDBRANCH  14  15
ENDBRANCH  13  14
ENDBRANCH  12  13
ENDBRANCH  11  12
ENDBRANCH   9  11
ENDBRANCH   8   9
ENDBRANCH   7   8
ENDBRANCH   5   7
ENDBRANCH   2   5
TORSDOF 10
ENDMDL
MODEL      280
REMARK 921   NORMALIZED FREE ENERGY PREDICTED BY IDOCK:   -2.71 KCAL/MOL
REMARK 922        TOTAL FREE ENERGY PREDICTED BY IDOCK:   -4.78 KCAL/MOL
REMARK 923 INTER-LIGAND FREE ENERGY PREDICTED BY IDOCK:   -3.78 KCAL/MOL
REMARK 924 INTRA-LIGAND FREE ENERGY PREDICTED BY IDOCK:   -1.00 KCAL/MOL
REMARK 927      BINDING AFFINITY PREDICTED BY RF-SCORE:    0.00 PKD
ROOT
HETATM    1  N   UNL     1     -10.549  14.864  66.370  1.00  0.00    -0.299 NA 
HETATM    2  C   UNL     1     -11.441  15.272  67.456  1.00  0.00    -0.265 C  
HETATM    3  H1  UNL     1     -10.287  15.671  65.803  1.00  0.00     0.000 HD 
HETATM    4  H2  UNL     1     -10.954  14.118  65.806  1.00  0.00     0.000 HD 
ENDROOT
BRANCH   2   5
HETATM    5  C   UNL     1     -11.834  14.061  68.308  1.00  0.00    -0.371 C  
HETATM    6  O   UNL     1     -12.407  14.181  69.390  1.00  0.00    -0.326 OA 
BRANCH   5   7
HETATM    7  C   UNL     1     -11.539  12.712  67.690  1.00  0.00    -0.414 C  
BRANCH   7   8
HETATM    8  C   UNL     1     -10.690  11.828  68.593  1.00  0.00    -0.252 C  
BRANCH   8   9
HETATM    9  C   UNL     1      -9.208  12.109  68.502  1.00  0.00    -0.099 C  
HETATM   10  O   UNL     1      -8.729  13.224  68.363  1.00  0.00    -0.175 OA 
BRANCH   9  11
HETATM   11  O   UNL     1      -8.506  10.945  68.411  1.00  0.00    -0.127 OA 
BRANCH  11  12
HETATM   12  C   UNL     1      -9.288   9.769  68.619  1.00  0.00    -0.147 C  
BRANCH  12  13
HETATM   13  C   UNL     1      -8.474   8.503  68.404  1.00  0.00    -0.138 C  
BRANCH  13  14
HETATM   14  C   UNL     1      -8.716   7.991  66.986  1.00  0.00    -0.132 C  
BRANCH  14  15
HETATM   15  C   UNL     1      -9.822   8.756  66.268  1.00  0.00    -0.342 C  
BRANCH  15  16
HETATM   16  C   UNL     1      -9.258   9.506  65.060  1.00  0.00    -0.297 C  
HETATM   17  C   UNL     1     -10.038  10.782  64.784  1.00  0.00    -0.396 C  
ENDBRANCH  15  16
ENDBRANCH  14  15
ENDBRANCH  13  14
ENDBRANCH  12  13
ENDBRANCH  11  12
ENDBRANCH   9  11
ENDBRANCH   8   9
ENDBRANCH   7   8
ENDBRANCH   5   7
ENDBRANCH   2   5
TORSDOF 10
ENDMDL
MODEL      281
REMARK 921   NORMALIZED FREE ENERGY PREDICTED BY IDOCK:   -2.71 KCAL/MOL
REMARK 922        TOTAL FREE ENERGY PREDICTED BY IDOCK:   -4.77 KCAL/MOL
REMARK 923 INTER-LIGAND FREE ENERGY PREDICTED BY IDOCK:   -4.08 KCAL/MOL
REMARK 924 INTRA-LIGAND FREE ENERGY PREDICTED BY IDOCK:   -0.70 KCAL/MOL
REMARK 927      BINDING AFFINITY PREDICTED BY RF-SCORE:    0.00 PKD
ROOT
HETATM    1  N   UNL     1     -10.996   5.589  66.490  1.00  0.00    -0.658 NA 
HETATM    2  C   UNL     1      -9.996   5.155  67.466  1.00  0.00    -0.174 C  
HETATM    3  H1  UNL     1     -10.735   5.281  65.553  1.00  0.00     0.000 HD 
HETATM    4  H2  UNL     1     -11.152   6.596  66.530  1.00  0.00     0.000 HD 
ENDROOT
BRANCH   2   5
HETATM    5  C   UNL     1     -10.387   5.617  68.873  1.00  0.00    -0.225 C  
HETATM    6  O   UNL     1     -11.486   6.113  69.117  1.00  0.00    -0.379 OA 
BRANCH   5   7
HETATM    7  C   UNL     1      -9.359   5.349  69.951  1.00  0.00    -0.184 C  
BRANCH   7   8
HETATM    8  C   UNL     1      -9.951   4.631  71.157  1.00  0.00    -0.265 C  
BRANCH   8   9
HETATM    9  C   UNL     1      -9.965   5.467  72.416  1.00  0.00    -0.171 C  
HETATM   10  O   UNL     1     -10.051   5.006  73.544  1.00  0.00    -0.151 OA 
BRANCH   9  11
HETATM   11  O   UNL     1     -10.055   6.791  72.110  1.00  0.00    -0.181 OA 
BRANCH  11  12
HETATM   12  C   UNL     1     -11.109   7.481  72.782  1.00  0.00    -0.366 C  
BRANCH  12  13
HETATM   13  C   UNL     1     -11.605   8.673  71.981  1.00  0.00    -0.440 C  
BRANCH  13  14
HETATM   14  C   UNL     1     -10.406   9.402  71.378  1.00  0.00    -0.326 C  
BRANCH  14  15
HETATM   15  C   UNL     1     -10.308   9.216  69.867  1.00  0.00    -0.229 C  
BRANCH  15  16
HETATM   16  C   UNL     1      -8.900   9.554  69.376  1.00  0.00    -0.172 C  
HETATM   17  C   UNL     1      -8.876  10.874  68.622  1.00  0.00    -0.158 C  
ENDBRANCH  15  16
ENDBRANCH  14  15
ENDBRANCH  13  14
ENDBRANCH  12  13
ENDBRANCH  11  12
ENDBRANCH   9  11
ENDBRANCH   8   9
ENDBRANCH   7   8
ENDBRANCH   5   7
ENDBRANCH   2   5
TORSDOF 10
ENDMDL
MODEL      282
REMARK 921   NORMALIZED FREE ENERGY PREDICTED BY IDOCK:   -2.70 KCAL/MOL
REMARK 922        TOTAL FREE ENERGY PREDICTED BY IDOCK:   -4.76 KCAL/MOL
REMARK 923 INTER-LIGAND FREE ENERGY PREDICTED BY IDOCK:   -4.37 KCAL/MOL
REMARK 924 INTRA-LIGAND FREE ENERGY PREDICTED BY IDOCK:   -0.39 KCAL/MOL
REMARK 927      BINDING AFFINITY PREDICTED BY RF-SCORE:    0.00 PKD
ROOT
HETATM    1  N   UNL     1      -7.366  21.236  67.173  1.00  0.00    -0.785 NA 
HETATM    2  C   UNL     1      -7.738  19.894  67.621  1.00  0.00    -0.291 C  
HETATM    3  H1  UNL     1      -7.081  21.809  67.967  1.00  0.00     0.000 HD 
HETATM    4  H2  UNL     1      -8.111  21.676  66.634  1.00  0.00     0.000 HD 
ENDROOT
BRANCH   2   5
HETATM    5  C   UNL     1      -8.166  19.033  66.429  1.00  0.00    -0.305 C  
HETATM    6  O   UNL     1      -7.384  18.726  65.529  1.00  0.00    -0.501 OA 
BRANCH   5   7
HETATM    7  C   UNL     1      -9.590  18.522  66.476  1.00  0.00    -0.335 C  
BRANCH   7   8
HETATM    8  C   UNL     1      -9.672  17.006  66.350  1.00  0.00    -0.310 C  
BRANCH   8   9
HETATM    9  C   UNL     1     -10.302  16.330  67.545  1.00  0.00    -0.288 C  
HETATM   10  O   UNL     1     -11.329  16.709  68.086  1.00  0.00    -0.289 OA 
BRANCH   9  11
HETATM   11  O   UNL     1      -9.475  15.366  68.039  1.00  0.00    -0.199 OA 
BRANCH  11  12
HETATM   12  C   UNL     1     -10.146  14.315  68.735  1.00  0.00    -0.217 C  
BRANCH  12  13
HETATM   13  C   UNL     1     -10.052  12.993  67.991  1.00  0.00    -0.235 C  
BRANCH  13  14
HETATM   14  C   UNL     1      -8.589  12.715  67.653  1.00  0.00    -0.180 C  
BRANCH  14  15
HETATM   15  C   UNL     1      -8.424  11.544  66.689  1.00  0.00    -0.172 C  
BRANCH  15  16
HETATM   16  C   UNL     1      -7.021  10.948  66.806  1.00  0.00    -0.126 C  
HETATM   17  C   UNL     1      -5.978  12.025  67.059  1.00  0.00    -0.135 C  
ENDBRANCH  15  16
ENDBRANCH  14  15
ENDBRANCH  13  14
ENDBRANCH  12  13
ENDBRANCH  11  12
ENDBRANCH   9  11
ENDBRANCH   8   9
ENDBRANCH   7   8
ENDBRANCH   5   7
ENDBRANCH   2   5
TORSDOF 10
ENDMDL
MODEL      283
REMARK 921   NORMALIZED FREE ENERGY PREDICTED BY IDOCK:   -2.70 KCAL/MOL
REMARK 922        TOTAL FREE ENERGY PREDICTED BY IDOCK:   -4.76 KCAL/MOL
REMARK 923 INTER-LIGAND FREE ENERGY PREDICTED BY IDOCK:   -3.92 KCAL/MOL
REMARK 924 INTRA-LIGAND FREE ENERGY PREDICTED BY IDOCK:   -0.84 KCAL/MOL
REMARK 927      BINDING AFFINITY PREDICTED BY RF-SCORE:    0.00 PKD
ROOT
HETATM    1  N   UNL     1     -11.965   6.625  69.982  1.00  0.00    -0.636 NA 
HETATM    2  C   UNL     1     -10.641   6.877  69.413  1.00  0.00    -0.229 C  
HETATM    3  H1  UNL     1     -11.920   6.632  71.001  1.00  0.00     0.000 HD 
HETATM    4  H2  UNL     1     -12.373   5.762  69.624  1.00  0.00     0.000 HD 
ENDROOT
BRANCH   2   5
HETATM    5  C   UNL     1     -10.706   6.868  67.883  1.00  0.00    -0.232 C  
HETATM    6  O   UNL     1     -10.863   5.829  67.241  1.00  0.00    -0.272 OA 
BRANCH   5   7
HETATM    7  C   UNL     1     -10.645   8.228  67.223  1.00  0.00    -0.335 C  
BRANCH   7   8
HETATM    8  C   UNL     1     -10.273   9.335  68.200  1.00  0.00    -0.246 C  
BRANCH   8   9
HETATM    9  C   UNL     1     -10.921  10.664  67.890  1.00  0.00    -0.295 C  
HETATM   10  O   UNL     1     -12.113  10.895  68.027  1.00  0.00    -0.563 OA 
BRANCH   9  11
HETATM   11  O   UNL     1     -10.036  11.495  67.271  1.00  0.00    -0.189 OA 
BRANCH  11  12
HETATM   12  C   UNL     1      -8.667  11.120  67.432  1.00  0.00    -0.133 C  
BRANCH  12  13
HETATM   13  C   UNL     1      -7.937  11.058  66.101  1.00  0.00    -0.129 C  
BRANCH  13  14
HETATM   14  C   UNL     1      -8.963  11.048  64.970  1.00  0.00    -0.137 C  
BRANCH  14  15
HETATM   15  C   UNL     1      -9.105   9.675  64.321  1.00  0.00    -0.267 C  
BRANCH  15  16
HETATM   16  C   UNL     1      -7.789   8.901  64.410  1.00  0.00    -0.128 C  
HETATM   17  C   UNL     1      -8.019   7.463  64.846  1.00  0.00    -0.128 C  
ENDBRANCH  15  16
ENDBRANCH  14  15
ENDBRANCH  13  14
ENDBRANCH  12  13
ENDBRANCH  11  12
ENDBRANCH   9  11
ENDBRANCH   8   9
ENDBRANCH   7   8
ENDBRANCH   5   7
ENDBRANCH   2   5
TORSDOF 10
ENDMDL
MODEL      284
REMARK 921   NORMALIZED FREE ENERGY PREDICTED BY IDOCK:   -2.69 KCAL/MOL
REMARK 922        TOTAL FREE ENERGY PREDICTED BY IDOCK:   -4.74 KCAL/MOL
REMARK 923 INTER-LIGAND FREE ENERGY PREDICTED BY IDOCK:   -4.31 KCAL/MOL
REMARK 924 INTRA-LIGAND FREE ENERGY PREDICTED BY IDOCK:   -0.43 KCAL/MOL
REMARK 927      BINDING AFFINITY PREDICTED BY RF-SCORE:    0.00 PKD
ROOT
HETATM    1  N   UNL     1     -12.492  14.040  63.429  1.00  0.00    -1.123 NA 
HETATM    2  C   UNL     1     -12.360  13.603  64.819  1.00  0.00    -0.390 C  
HETATM    3  H1  UNL     1     -13.229  13.514  62.959  1.00  0.00     0.000 HD 
HETATM    4  H2  UNL     1     -11.605  13.985  62.928  1.00  0.00     0.000 HD 
ENDROOT
BRANCH   2   5
HETATM    5  C   UNL     1     -11.255  14.393  65.525  1.00  0.00    -0.330 C  
HETATM    6  O   UNL     1     -10.929  15.524  65.167  1.00  0.00    -0.377 OA 
BRANCH   5   7
HETATM    7  C   UNL     1     -10.649  13.718  66.736  1.00  0.00    -0.273 C  
BRANCH   7   8
HETATM    8  C   UNL     1     -10.941  12.224  66.780  1.00  0.00    -0.321 C  
BRANCH   8   9
HETATM    9  C   UNL     1      -9.737  11.359  66.488  1.00  0.00    -0.200 C  
HETATM   10  O   UNL     1      -9.451  10.932  65.380  1.00  0.00    -0.194 OA 
BRANCH   9  11
HETATM   11  O   UNL     1      -9.131  10.978  67.647  1.00  0.00    -0.143 OA 
BRANCH  11  12
HETATM   12  C   UNL     1      -8.748   9.602  67.686  1.00  0.00    -0.126 C  
BRANCH  12  13
HETATM   13  C   UNL     1      -9.624   8.798  68.632  1.00  0.00    -0.159 C  
BRANCH  13  14
HETATM   14  C   UNL     1      -8.846   7.575  69.113  1.00  0.00    -0.136 C  
BRANCH  14  15
HETATM   15  C   UNL     1      -9.112   7.254  70.581  1.00  0.00    -0.157 C  
BRANCH  15  16
HETATM   16  C   UNL     1      -8.945   8.506  71.443  1.00  0.00    -0.262 C  
HETATM   17  C   UNL     1      -7.580   8.543  72.111  1.00  0.00    -0.122 C  
ENDBRANCH  15  16
ENDBRANCH  14  15
ENDBRANCH  13  14
ENDBRANCH  12  13
ENDBRANCH  11  12
ENDBRANCH   9  11
ENDBRANCH   8   9
ENDBRANCH   7   8
ENDBRANCH   5   7
ENDBRANCH   2   5
TORSDOF 10
ENDMDL
MODEL      285
REMARK 921   NORMALIZED FREE ENERGY PREDICTED BY IDOCK:   -2.68 KCAL/MOL
REMARK 922        TOTAL FREE ENERGY PREDICTED BY IDOCK:   -4.74 KCAL/MOL
REMARK 923 INTER-LIGAND FREE ENERGY PREDICTED BY IDOCK:   -3.88 KCAL/MOL
REMARK 924 INTRA-LIGAND FREE ENERGY PREDICTED BY IDOCK:   -0.85 KCAL/MOL
REMARK 927      BINDING AFFINITY PREDICTED BY RF-SCORE:    0.00 PKD
ROOT
HETATM    1  N   UNL     1     -10.652   5.116  71.557  1.00  0.00    -0.187 NA 
HETATM    2  C   UNL     1     -11.132   5.266  72.931  1.00  0.00    -0.305 C  
HETATM    3  H1  UNL     1     -11.075   4.296  71.120  1.00  0.00     0.000 HD 
HETATM    4  H2  UNL     1      -9.634   5.089  71.511  1.00  0.00     0.000 HD 
ENDROOT
BRANCH   2   5
HETATM    5  C   UNL     1     -10.498   6.497  73.586  1.00  0.00    -0.311 C  
HETATM    6  O   UNL     1     -11.112   7.554  73.722  1.00  0.00    -0.183 OA 
BRANCH   5   7
HETATM    7  C   UNL     1      -9.097   6.296  74.122  1.00  0.00    -0.157 C  
BRANCH   7   8
HETATM    8  C   UNL     1      -8.031   6.880  73.205  1.00  0.00    -0.107 C  
BRANCH   8   9
HETATM    9  C   UNL     1      -7.815   8.364  73.392  1.00  0.00    -0.083 C  
HETATM   10  O   UNL     1      -7.484   8.882  74.447  1.00  0.00    -0.420 OA 
BRANCH   9  11
HETATM   11  O   UNL     1      -8.214   9.048  72.283  1.00  0.00    -0.354 OA 
BRANCH  11  12
HETATM   12  C   UNL     1      -8.318   8.247  71.104  1.00  0.00    -0.129 C  
BRANCH  12  13
HETATM   13  C   UNL     1      -9.512   8.647  70.253  1.00  0.00    -0.182 C  
BRANCH  13  14
HETATM   14  C   UNL     1     -10.316   9.714  70.991  1.00  0.00    -0.292 C  
BRANCH  14  15
HETATM   15  C   UNL     1     -11.819   9.466  70.925  1.00  0.00    -0.365 C  
BRANCH  15  16
HETATM   16  C   UNL     1     -12.547  10.712  70.419  1.00  0.00    -0.395 C  
HETATM   17  C   UNL     1     -11.971  11.194  69.097  1.00  0.00    -0.413 C  
ENDBRANCH  15  16
ENDBRANCH  14  15
ENDBRANCH  13  14
ENDBRANCH  12  13
ENDBRANCH  11  12
ENDBRANCH   9  11
ENDBRANCH   8   9
ENDBRANCH   7   8
ENDBRANCH   5   7
ENDBRANCH   2   5
TORSDOF 10
ENDMDL
MODEL      286
REMARK 921   NORMALIZED FREE ENERGY PREDICTED BY IDOCK:   -2.67 KCAL/MOL
REMARK 922        TOTAL FREE ENERGY PREDICTED BY IDOCK:   -4.71 KCAL/MOL
REMARK 923 INTER-LIGAND FREE ENERGY PREDICTED BY IDOCK:   -3.76 KCAL/MOL
REMARK 924 INTRA-LIGAND FREE ENERGY PREDICTED BY IDOCK:   -0.95 KCAL/MOL
REMARK 927      BINDING AFFINITY PREDICTED BY RF-SCORE:    0.00 PKD
ROOT
HETATM    1  N   UNL     1      -9.332   2.776  70.699  1.00  0.00    -0.138 NA 
HETATM    2  C   UNL     1      -9.909   3.697  71.679  1.00  0.00    -0.160 C  
HETATM    3  H1  UNL     1      -9.775   1.860  70.769  1.00  0.00     0.000 HD 
HETATM    4  H2  UNL     1      -8.318   2.717  70.785  1.00  0.00     0.000 HD 
ENDROOT
BRANCH   2   5
HETATM    5  C   UNL     1      -9.246   5.073  71.574  1.00  0.00    -0.146 C  
HETATM    6  O   UNL     1      -8.432   5.472  72.407  1.00  0.00    -0.118 OA 
BRANCH   5   7
HETATM    7  C   UNL     1      -9.599   5.870  70.338  1.00  0.00    -0.204 C  
BRANCH   7   8
HETATM    8  C   UNL     1     -11.098   6.105  70.203  1.00  0.00    -0.448 C  
BRANCH   8   9
HETATM    9  C   UNL     1     -11.690   6.922  71.329  1.00  0.00    -0.328 C  
HETATM   10  O   UNL     1     -12.716   6.630  71.923  1.00  0.00    -0.345 OA 
BRANCH   9  11
HETATM   11  O   UNL     1     -11.028   8.106  71.458  1.00  0.00    -0.231 OA 
BRANCH  11  12
HETATM   12  C   UNL     1     -11.534   9.156  70.631  1.00  0.00    -0.262 C  
BRANCH  12  13
HETATM   13  C   UNL     1     -10.418   9.903  69.920  1.00  0.00    -0.309 C  
BRANCH  13  14
HETATM   14  C   UNL     1     -10.902  10.319  68.533  1.00  0.00    -0.281 C  
BRANCH  14  15
HETATM   15  C   UNL     1     -10.111   9.651  67.413  1.00  0.00    -0.257 C  
BRANCH  15  16
HETATM   16  C   UNL     1     -10.560   8.200  67.232  1.00  0.00    -0.344 C  
HETATM   17  C   UNL     1      -9.383   7.289  66.920  1.00  0.00    -0.192 C  
ENDBRANCH  15  16
ENDBRANCH  14  15
ENDBRANCH  13  14
ENDBRANCH  12  13
ENDBRANCH  11  12
ENDBRANCH   9  11
ENDBRANCH   8   9
ENDBRANCH   7   8
ENDBRANCH   5   7
ENDBRANCH   2   5
TORSDOF 10
ENDMDL
MODEL      287
REMARK 921   NORMALIZED FREE ENERGY PREDICTED BY IDOCK:   -2.65 KCAL/MOL
REMARK 922        TOTAL FREE ENERGY PREDICTED BY IDOCK:   -4.69 KCAL/MOL
REMARK 923 INTER-LIGAND FREE ENERGY PREDICTED BY IDOCK:   -4.29 KCAL/MOL
REMARK 924 INTRA-LIGAND FREE ENERGY PREDICTED BY IDOCK:   -0.40 KCAL/MOL
REMARK 927      BINDING AFFINITY PREDICTED BY RF-SCORE:    0.00 PKD
ROOT
HETATM    1  N   UNL     1     -11.474   6.241  70.439  1.00  0.00    -0.373 NA 
HETATM    2  C   UNL     1     -11.609   7.658  70.777  1.00  0.00    -0.265 C  
HETATM    3  H1  UNL     1     -10.565   6.062  70.012  1.00  0.00     0.000 HD 
HETATM    4  H2  UNL     1     -12.241   5.917  69.850  1.00  0.00     0.000 HD 
ENDROOT
BRANCH   2   5
HETATM    5  C   UNL     1     -12.974   7.926  71.418  1.00  0.00    -0.271 C  
HETATM    6  O   UNL     1     -13.701   7.016  71.814  1.00  0.00    -0.338 OA 
BRANCH   5   7
HETATM    7  C   UNL     1     -13.327   9.386  71.602  1.00  0.00    -0.477 C  
BRANCH   7   8
HETATM    8  C   UNL     1     -12.114  10.300  71.485  1.00  0.00    -0.407 C  
BRANCH   8   9
HETATM    9  C   UNL     1     -12.374  11.558  70.688  1.00  0.00    -0.364 C  
HETATM   10  O   UNL     1     -12.866  12.575  71.152  1.00  0.00    -0.320 OA 
BRANCH   9  11
HETATM   11  O   UNL     1     -12.158  11.335  69.362  1.00  0.00    -0.329 OA 
BRANCH  11  12
HETATM   12  C   UNL     1     -11.855  12.511  68.609  1.00  0.00    -0.297 C  
BRANCH  12  13
HETATM   13  C   UNL     1     -10.359  12.687  68.413  1.00  0.00    -0.241 C  
BRANCH  13  14
HETATM   14  C   UNL     1      -9.935  11.965  67.136  1.00  0.00    -0.209 C  
BRANCH  14  15
HETATM   15  C   UNL     1      -8.420  11.868  66.994  1.00  0.00    -0.177 C  
BRANCH  15  16
HETATM   16  C   UNL     1      -8.007  10.443  66.622  1.00  0.00    -0.120 C  
HETATM   17  C   UNL     1      -6.517  10.355  66.328  1.00  0.00    -0.102 C  
ENDBRANCH  15  16
ENDBRANCH  14  15
ENDBRANCH  13  14
ENDBRANCH  12  13
ENDBRANCH  11  12
ENDBRANCH   9  11
ENDBRANCH   8   9
ENDBRANCH   7   8
ENDBRANCH   5   7
ENDBRANCH   2   5
TORSDOF 10
ENDMDL
MODEL      288
REMARK 921   NORMALIZED FREE ENERGY PREDICTED BY IDOCK:   -2.65 KCAL/MOL
REMARK 922        TOTAL FREE ENERGY PREDICTED BY IDOCK:   -4.68 KCAL/MOL
REMARK 923 INTER-LIGAND FREE ENERGY PREDICTED BY IDOCK:   -3.75 KCAL/MOL
REMARK 924 INTRA-LIGAND FREE ENERGY PREDICTED BY IDOCK:   -0.93 KCAL/MOL
REMARK 927      BINDING AFFINITY PREDICTED BY RF-SCORE:    0.00 PKD
ROOT
HETATM    1  N   UNL     1      -7.499  10.300  68.944  1.00  0.00    -0.087 NA 
HETATM    2  C   UNL     1      -8.029   8.972  69.256  1.00  0.00    -0.096 C  
HETATM    3  H1  UNL     1      -6.936  10.649  69.720  1.00  0.00     0.000 HD 
HETATM    4  H2  UNL     1      -8.239  10.953  68.687  1.00  0.00     0.000 HD 
ENDROOT
BRANCH   2   5
HETATM    5  C   UNL     1      -8.874   8.447  68.091  1.00  0.00    -0.142 C  
HETATM    6  O   UNL     1      -9.800   7.655  68.260  1.00  0.00    -0.157 OA 
BRANCH   5   7
HETATM    7  C   UNL     1      -8.542   9.031  66.736  1.00  0.00    -0.129 C  
BRANCH   7   8
HETATM    8  C   UNL     1      -9.669   9.891  66.178  1.00  0.00    -0.297 C  
BRANCH   8   9
HETATM    9  C   UNL     1      -9.474  11.372  66.406  1.00  0.00    -0.204 C  
HETATM   10  O   UNL     1      -8.396  11.894  66.646  1.00  0.00    -0.176 OA 
BRANCH   9  11
HETATM   11  O   UNL     1     -10.679  12.004  66.489  1.00  0.00    -0.240 OA 
BRANCH  11  12
HETATM   12  C   UNL     1     -11.497  11.570  67.576  1.00  0.00    -0.282 C  
BRANCH  12  13
HETATM   13  C   UNL     1     -11.320  12.448  68.803  1.00  0.00    -0.339 C  
BRANCH  13  14
HETATM   14  C   UNL     1     -11.871  11.715  70.024  1.00  0.00    -0.435 C  
BRANCH  14  15
HETATM   15  C   UNL     1     -11.604  10.213  69.975  1.00  0.00    -0.323 C  
BRANCH  15  16
HETATM   16  C   UNL     1     -11.356   9.667  71.381  1.00  0.00    -0.444 C  
HETATM   17  C   UNL     1     -12.368   8.594  71.748  1.00  0.00    -0.402 C  
ENDBRANCH  15  16
ENDBRANCH  14  15
ENDBRANCH  13  14
ENDBRANCH  12  13
ENDBRANCH  11  12
ENDBRANCH   9  11
ENDBRANCH   8   9
ENDBRANCH   7   8
ENDBRANCH   5   7
ENDBRANCH   2   5
TORSDOF 10
ENDMDL
MODEL      289
REMARK 921   NORMALIZED FREE ENERGY PREDICTED BY IDOCK:   -2.65 KCAL/MOL
REMARK 922        TOTAL FREE ENERGY PREDICTED BY IDOCK:   -4.68 KCAL/MOL
REMARK 923 INTER-LIGAND FREE ENERGY PREDICTED BY IDOCK:   -4.10 KCAL/MOL
REMARK 924 INTRA-LIGAND FREE ENERGY PREDICTED BY IDOCK:   -0.58 KCAL/MOL
REMARK 927      BINDING AFFINITY PREDICTED BY RF-SCORE:    0.00 PKD
ROOT
HETATM    1  N   UNL     1     -14.406   7.362  71.983  1.00  0.00    -0.618 NA 
HETATM    2  C   UNL     1     -13.040   7.019  71.585  1.00  0.00    -0.330 C  
HETATM    3  H1  UNL     1     -15.069   6.693  71.590  1.00  0.00     0.000 HD 
HETATM    4  H2  UNL     1     -14.644   8.322  71.736  1.00  0.00     0.000 HD 
ENDROOT
BRANCH   2   5
HETATM    5  C   UNL     1     -12.045   8.024  72.174  1.00  0.00    -0.343 C  
HETATM    6  O   UNL     1     -12.113   9.229  71.934  1.00  0.00    -0.359 OA 
BRANCH   5   7
HETATM    7  C   UNL     1     -11.027   7.441  73.130  1.00  0.00    -0.408 C  
BRANCH   7   8
HETATM    8  C   UNL     1      -9.682   8.154  73.056  1.00  0.00    -0.327 C  
BRANCH   8   9
HETATM    9  C   UNL     1      -8.618   7.370  72.323  1.00  0.00    -0.116 C  
HETATM   10  O   UNL     1      -7.641   6.871  72.860  1.00  0.00    -0.085 OA 
BRANCH   9  11
HETATM   11  O   UNL     1      -8.804   7.458  70.976  1.00  0.00    -0.141 OA 
BRANCH  11  12
HETATM   12  C   UNL     1      -8.920   6.197  70.315  1.00  0.00    -0.153 C  
BRANCH  12  13
HETATM   13  C   UNL     1      -9.868   6.266  69.129  1.00  0.00    -0.168 C  
BRANCH  13  14
HETATM   14  C   UNL     1      -9.138   5.778  67.880  1.00  0.00    -0.109 C  
BRANCH  14  15
HETATM   15  C   UNL     1      -9.721   6.362  66.596  1.00  0.00    -0.197 C  
BRANCH  15  16
HETATM   16  C   UNL     1     -10.520   7.631  66.899  1.00  0.00    -0.388 C  
HETATM   17  C   UNL     1      -9.816   8.870  66.370  1.00  0.00    -0.353 C  
ENDBRANCH  15  16
ENDBRANCH  14  15
ENDBRANCH  13  14
ENDBRANCH  12  13
ENDBRANCH  11  12
ENDBRANCH   9  11
ENDBRANCH   8   9
ENDBRANCH   7   8
ENDBRANCH   5   7
ENDBRANCH   2   5
TORSDOF 10
ENDMDL
MODEL      290
REMARK 921   NORMALIZED FREE ENERGY PREDICTED BY IDOCK:   -2.64 KCAL/MOL
REMARK 922        TOTAL FREE ENERGY PREDICTED BY IDOCK:   -4.67 KCAL/MOL
REMARK 923 INTER-LIGAND FREE ENERGY PREDICTED BY IDOCK:   -4.32 KCAL/MOL
REMARK 924 INTRA-LIGAND FREE ENERGY PREDICTED BY IDOCK:   -0.35 KCAL/MOL
REMARK 927      BINDING AFFINITY PREDICTED BY RF-SCORE:    0.00 PKD
ROOT
HETATM    1  N   UNL     1      -7.200  19.808  66.968  1.00  0.00    -0.211 NA 
HETATM    2  C   UNL     1      -7.600  19.042  68.148  1.00  0.00    -0.279 C  
HETATM    3  H1  UNL     1      -6.244  20.148  67.072  1.00  0.00     0.000 HD 
HETATM    4  H2  UNL     1      -7.854  20.565  66.767  1.00  0.00     0.000 HD 
ENDROOT
BRANCH   2   5
HETATM    5  C   UNL     1      -9.035  18.531  67.992  1.00  0.00    -0.301 C  
HETATM    6  O   UNL     1      -9.793  18.962  67.124  1.00  0.00    -0.302 OA 
BRANCH   5   7
HETATM    7  C   UNL     1      -9.428  17.407  68.927  1.00  0.00    -0.201 C  
BRANCH   7   8
HETATM    8  C   UNL     1     -10.805  16.838  68.611  1.00  0.00    -0.336 C  
BRANCH   8   9
HETATM    9  C   UNL     1     -11.291  15.825  69.621  1.00  0.00    -0.334 C  
HETATM   10  O   UNL     1     -11.739  16.113  70.720  1.00  0.00    -0.382 OA 
BRANCH   9  11
HETATM   11  O   UNL     1     -10.990  14.560  69.212  1.00  0.00    -0.250 OA 
BRANCH  11  12
HETATM   12  C   UNL     1     -11.937  13.570  69.618  1.00  0.00    -0.337 C  
BRANCH  12  13
HETATM   13  C   UNL     1     -11.763  12.273  68.846  1.00  0.00    -0.380 C  
BRANCH  13  14
HETATM   14  C   UNL     1     -10.310  12.152  68.395  1.00  0.00    -0.236 C  
BRANCH  14  15
HETATM   15  C   UNL     1     -10.157  12.248  66.880  1.00  0.00    -0.224 C  
BRANCH  15  16
HETATM   16  C   UNL     1     -10.523  10.918  66.219  1.00  0.00    -0.304 C  
HETATM   17  C   UNL     1      -9.743   9.763  66.825  1.00  0.00    -0.248 C  
ENDBRANCH  15  16
ENDBRANCH  14  15
ENDBRANCH  13  14
ENDBRANCH  12  13
ENDBRANCH  11  12
ENDBRANCH   9  11
ENDBRANCH   8   9
ENDBRANCH   7   8
ENDBRANCH   5   7
ENDBRANCH   2   5
TORSDOF 10
ENDMDL
MODEL      291
REMARK 921   NORMALIZED FREE ENERGY PREDICTED BY IDOCK:   -2.64 KCAL/MOL
REMARK 922        TOTAL FREE ENERGY PREDICTED BY IDOCK:   -4.67 KCAL/MOL
REMARK 923 INTER-LIGAND FREE ENERGY PREDICTED BY IDOCK:   -4.33 KCAL/MOL
REMARK 924 INTRA-LIGAND FREE ENERGY PREDICTED BY IDOCK:   -0.34 KCAL/MOL
REMARK 927      BINDING AFFINITY PREDICTED BY RF-SCORE:    0.00 PKD
ROOT
HETATM    1  N   UNL     1     -11.876  15.193  63.904  1.00  0.00    -0.854 NA 
HETATM    2  C   UNL     1     -11.208  16.095  64.843  1.00  0.00    -0.285 C  
HETATM    3  H1  UNL     1     -12.430  15.725  63.233  1.00  0.00     0.000 HD 
HETATM    4  H2  UNL     1     -12.435  14.490  64.387  1.00  0.00     0.000 HD 
ENDROOT
BRANCH   2   5
HETATM    5  C   UNL     1     -10.376  15.297  65.851  1.00  0.00    -0.329 C  
HETATM    6  O   UNL     1      -9.813  15.833  66.804  1.00  0.00    -0.233 OA 
BRANCH   5   7
HETATM    7  C   UNL     1     -10.362  13.799  65.636  1.00  0.00    -0.321 C  
BRANCH   7   8
HETATM    8  C   UNL     1     -10.282  13.022  66.944  1.00  0.00    -0.244 C  
BRANCH   8   9
HETATM    9  C   UNL     1     -11.630  12.623  67.498  1.00  0.00    -0.359 C  
HETATM   10  O   UNL     1     -12.559  13.398  67.667  1.00  0.00     0.077 OA 
BRANCH   9  11
HETATM   11  O   UNL     1     -11.600  11.337  67.948  1.00  0.00    -0.441 OA 
BRANCH  11  12
HETATM   12  C   UNL     1     -11.274  11.205  69.332  1.00  0.00    -0.270 C  
BRANCH  12  13
HETATM   13  C   UNL     1     -11.540   9.799  69.844  1.00  0.00    -0.132 C  
BRANCH  13  14
HETATM   14  C   UNL     1     -10.657   9.538  71.062  1.00  0.00    -0.392 C  
BRANCH  14  15
HETATM   15  C   UNL     1      -9.440   8.680  70.729  1.00  0.00    -0.231 C  
BRANCH  15  16
HETATM   16  C   UNL     1      -8.347   9.530  70.080  1.00  0.00    -0.212 C  
HETATM   17  C   UNL     1      -7.905   8.945  68.748  1.00  0.00    -0.101 C  
ENDBRANCH  15  16
ENDBRANCH  14  15
ENDBRANCH  13  14
ENDBRANCH  12  13
ENDBRANCH  11  12
ENDBRANCH   9  11
ENDBRANCH   8   9
ENDBRANCH   7   8
ENDBRANCH   5   7
ENDBRANCH   2   5
TORSDOF 10
ENDMDL
MODEL      292
REMARK 921   NORMALIZED FREE ENERGY PREDICTED BY IDOCK:   -2.64 KCAL/MOL
REMARK 922        TOTAL FREE ENERGY PREDICTED BY IDOCK:   -4.67 KCAL/MOL
REMARK 923 INTER-LIGAND FREE ENERGY PREDICTED BY IDOCK:   -3.98 KCAL/MOL
REMARK 924 INTRA-LIGAND FREE ENERGY PREDICTED BY IDOCK:   -0.68 KCAL/MOL
REMARK 927      BINDING AFFINITY PREDICTED BY RF-SCORE:    0.00 PKD
ROOT
HETATM    1  N   UNL     1      -9.785   3.407  66.777  1.00  0.00    -0.405 NA 
HETATM    2  C   UNL     1      -9.685   4.609  67.605  1.00  0.00    -0.161 C  
HETATM    3  H1  UNL     1      -9.743   3.652  65.788  1.00  0.00     0.000 HD 
HETATM    4  H2  UNL     1     -10.618   2.862  66.999  1.00  0.00     0.000 HD 
ENDROOT
BRANCH   2   5
HETATM    5  C   UNL     1      -9.748   4.240  69.091  1.00  0.00    -0.156 C  
HETATM    6  O   UNL     1      -9.510   3.102  69.493  1.00  0.00    -0.162 OA 
BRANCH   5   7
HETATM    7  C   UNL     1     -10.044   5.389  70.031  1.00  0.00    -0.324 C  
BRANCH   7   8
HETATM    8  C   UNL     1     -11.255   6.203  69.595  1.00  0.00    -0.488 C  
BRANCH   8   9
HETATM    9  C   UNL     1     -11.864   7.029  70.705  1.00  0.00    -0.330 C  
HETATM   10  O   UNL     1     -13.057   7.051  70.968  1.00  0.00    -0.302 OA 
BRANCH   9  11
HETATM   11  O   UNL     1     -10.935   7.871  71.238  1.00  0.00    -0.233 OA 
BRANCH  11  12
HETATM   12  C   UNL     1     -11.114   8.138  72.630  1.00  0.00    -0.380 C  
BRANCH  12  13
HETATM   13  C   UNL     1     -10.683   6.964  73.492  1.00  0.00    -0.342 C  
BRANCH  13  14
HETATM   14  C   UNL     1      -9.173   6.776  73.359  1.00  0.00    -0.159 C  
BRANCH  14  15
HETATM   15  C   UNL     1      -8.398   8.062  73.626  1.00  0.00    -0.302 C  
BRANCH  15  16
HETATM   16  C   UNL     1      -7.356   8.297  72.531  1.00  0.00    -0.142 C  
HETATM   17  C   UNL     1      -5.972   8.522  73.120  1.00  0.00    -0.097 C  
ENDBRANCH  15  16
ENDBRANCH  14  15
ENDBRANCH  13  14
ENDBRANCH  12  13
ENDBRANCH  11  12
ENDBRANCH   9  11
ENDBRANCH   8   9
ENDBRANCH   7   8
ENDBRANCH   5   7
ENDBRANCH   2   5
TORSDOF 10
ENDMDL
MODEL      293
REMARK 921   NORMALIZED FREE ENERGY PREDICTED BY IDOCK:   -2.61 KCAL/MOL
REMARK 922        TOTAL FREE ENERGY PREDICTED BY IDOCK:   -4.62 KCAL/MOL
REMARK 923 INTER-LIGAND FREE ENERGY PREDICTED BY IDOCK:   -4.18 KCAL/MOL
REMARK 924 INTRA-LIGAND FREE ENERGY PREDICTED BY IDOCK:   -0.45 KCAL/MOL
REMARK 927      BINDING AFFINITY PREDICTED BY RF-SCORE:    0.00 PKD
ROOT
HETATM    1  N   UNL     1      -9.129   6.034  71.245  1.00  0.00    -0.143 NA 
HETATM    2  C   UNL     1     -10.487   5.551  71.496  1.00  0.00    -0.235 C  
HETATM    3  H1  UNL     1      -8.660   5.437  70.562  1.00  0.00     0.000 HD 
HETATM    4  H2  UNL     1      -8.592   6.121  72.107  1.00  0.00     0.000 HD 
ENDROOT
BRANCH   2   5
HETATM    5  C   UNL     1     -11.191   6.447  72.519  1.00  0.00    -0.272 C  
HETATM    6  O   UNL     1     -10.604   6.909  73.497  1.00  0.00    -0.309 OA 
BRANCH   5   7
HETATM    7  C   UNL     1     -12.632   6.785  72.202  1.00  0.00    -0.163 C  
BRANCH   7   8
HETATM    8  C   UNL     1     -12.768   7.650  70.956  1.00  0.00    -0.156 C  
BRANCH   8   9
HETATM    9  C   UNL     1     -12.095   8.998  71.075  1.00  0.00    -0.251 C  
HETATM   10  O   UNL     1     -12.343   9.814  71.949  1.00  0.00    -0.377 OA 
BRANCH   9  11
HETATM   11  O   UNL     1     -11.322   9.243  69.980  1.00  0.00    -0.214 OA 
BRANCH  11  12
HETATM   12  C   UNL     1     -11.521  10.531  69.396  1.00  0.00    -0.262 C  
BRANCH  12  13
HETATM   13  C   UNL     1     -11.270  10.517  67.897  1.00  0.00    -0.358 C  
BRANCH  13  14
HETATM   14  C   UNL     1     -11.706  11.856  67.306  1.00  0.00    -0.319 C  
BRANCH  14  15
HETATM   15  C   UNL     1     -11.513  13.015  68.279  1.00  0.00    -0.347 C  
BRANCH  15  16
HETATM   16  C   UNL     1     -11.850  14.345  67.601  1.00  0.00    -0.412 C  
HETATM   17  C   UNL     1     -11.373  15.527  68.429  1.00  0.00    -0.357 C  
ENDBRANCH  15  16
ENDBRANCH  14  15
ENDBRANCH  13  14
ENDBRANCH  12  13
ENDBRANCH  11  12
ENDBRANCH   9  11
ENDBRANCH   8   9
ENDBRANCH   7   8
ENDBRANCH   5   7
ENDBRANCH   2   5
TORSDOF 10
ENDMDL
MODEL      294
REMARK 921   NORMALIZED FREE ENERGY PREDICTED BY IDOCK:   -2.61 KCAL/MOL
REMARK 922        TOTAL FREE ENERGY PREDICTED BY IDOCK:   -4.62 KCAL/MOL
REMARK 923 INTER-LIGAND FREE ENERGY PREDICTED BY IDOCK:   -3.91 KCAL/MOL
REMARK 924 INTRA-LIGAND FREE ENERGY PREDICTED BY IDOCK:   -0.71 KCAL/MOL
REMARK 927      BINDING AFFINITY PREDICTED BY RF-SCORE:    0.00 PKD
ROOT
HETATM    1  N   UNL     1     -11.938  10.566  68.501  1.00  0.00    -0.786 NA 
HETATM    2  C   UNL     1     -10.998  10.226  67.433  1.00  0.00    -0.252 C  
HETATM    3  H1  UNL     1     -12.668   9.857  68.572  1.00  0.00     0.000 HD 
HETATM    4  H2  UNL     1     -12.327  11.501  68.382  1.00  0.00     0.000 HD 
ENDROOT
BRANCH   2   5
HETATM    5  C   UNL     1      -9.902  11.290  67.327  1.00  0.00    -0.182 C  
HETATM    6  O   UNL     1      -9.140  11.540  68.261  1.00  0.00    -0.173 OA 
BRANCH   5   7
HETATM    7  C   UNL     1      -9.772  11.954  65.974  1.00  0.00    -0.257 C  
BRANCH   7   8
HETATM    8  C   UNL     1     -11.105  12.467  65.444  1.00  0.00    -0.344 C  
BRANCH   8   9
HETATM    9  C   UNL     1     -11.516  13.802  66.021  1.00  0.00    -0.326 C  
HETATM   10  O   UNL     1     -12.658  14.084  66.350  1.00  0.00    -0.428 OA 
BRANCH   9  11
HETATM   11  O   UNL     1     -10.486  14.690  65.949  1.00  0.00    -0.287 OA 
BRANCH  11  12
HETATM   12  C   UNL     1      -9.999  15.131  67.218  1.00  0.00    -0.230 C  
BRANCH  12  13
HETATM   13  C   UNL     1      -8.518  15.467  67.169  1.00  0.00    -0.239 C  
BRANCH  13  14
HETATM   14  C   UNL     1      -7.777  14.603  68.186  1.00  0.00    -0.125 C  
BRANCH  14  15
HETATM   15  C   UNL     1      -6.471  14.040  67.635  1.00  0.00    -0.156 C  
BRANCH  15  16
HETATM   16  C   UNL     1      -5.660  13.376  68.749  1.00  0.00    -0.074 C  
HETATM   17  C   UNL     1      -5.694  11.860  68.632  1.00  0.00    -0.052 C  
ENDBRANCH  15  16
ENDBRANCH  14  15
ENDBRANCH  13  14
ENDBRANCH  12  13
ENDBRANCH  11  12
ENDBRANCH   9  11
ENDBRANCH   8   9
ENDBRANCH   7   8
ENDBRANCH   5   7
ENDBRANCH   2   5
TORSDOF 10
ENDMDL
MODEL      295
REMARK 921   NORMALIZED FREE ENERGY PREDICTED BY IDOCK:   -2.61 KCAL/MOL
REMARK 922        TOTAL FREE ENERGY PREDICTED BY IDOCK:   -4.61 KCAL/MOL
REMARK 923 INTER-LIGAND FREE ENERGY PREDICTED BY IDOCK:   -3.79 KCAL/MOL
REMARK 924 INTRA-LIGAND FREE ENERGY PREDICTED BY IDOCK:   -0.83 KCAL/MOL
REMARK 927      BINDING AFFINITY PREDICTED BY RF-SCORE:    0.00 PKD
ROOT
HETATM    1  N   UNL     1      -6.576  12.585  66.781  1.00  0.00    -0.439 NA 
HETATM    2  C   UNL     1      -6.098  11.257  67.166  1.00  0.00    -0.091 C  
HETATM    3  H1  UNL     1      -5.823  13.123  66.351  1.00  0.00     0.000 HD 
HETATM    4  H2  UNL     1      -6.995  13.080  67.568  1.00  0.00     0.000 HD 
ENDROOT
BRANCH   2   5
HETATM    5  C   UNL     1      -7.228  10.450  67.812  1.00  0.00    -0.086 C  
HETATM    6  O   UNL     1      -7.763  10.799  68.863  1.00  0.00    -0.110 OA 
BRANCH   5   7
HETATM    7  C   UNL     1      -7.691   9.241  67.027  1.00  0.00    -0.095 C  
BRANCH   7   8
HETATM    8  C   UNL     1      -8.924   9.531  66.181  1.00  0.00    -0.191 C  
BRANCH   8   9
HETATM    9  C   UNL     1     -10.216   9.063  66.808  1.00  0.00    -0.271 C  
HETATM   10  O   UNL     1     -10.430   7.915  67.166  1.00  0.00    -0.297 OA 
BRANCH   9  11
HETATM   11  O   UNL     1     -11.159  10.046  66.748  1.00  0.00    -0.037 OA 
BRANCH  11  12
HETATM   12  C   UNL     1     -11.194  10.898  67.894  1.00  0.00    -0.321 C  
BRANCH  12  13
HETATM   13  C   UNL     1     -11.451  12.347  67.513  1.00  0.00    -0.410 C  
BRANCH  13  14
HETATM   14  C   UNL     1     -10.229  12.892  66.777  1.00  0.00    -0.243 C  
BRANCH  14  15
HETATM   15  C   UNL     1     -10.449  12.989  65.271  1.00  0.00    -0.318 C  
BRANCH  15  16
HETATM   16  C   UNL     1     -10.874  14.406  64.881  1.00  0.00    -0.430 C  
HETATM   17  C   UNL     1     -12.242  14.413  64.219  1.00  0.00    -0.450 C  
ENDBRANCH  15  16
ENDBRANCH  14  15
ENDBRANCH  13  14
ENDBRANCH  12  13
ENDBRANCH  11  12
ENDBRANCH   9  11
ENDBRANCH   8   9
ENDBRANCH   7   8
ENDBRANCH   5   7
ENDBRANCH   2   5
TORSDOF 10
ENDMDL
MODEL      296
REMARK 921   NORMALIZED FREE ENERGY PREDICTED BY IDOCK:   -2.60 KCAL/MOL
REMARK 922        TOTAL FREE ENERGY PREDICTED BY IDOCK:   -4.61 KCAL/MOL
REMARK 923 INTER-LIGAND FREE ENERGY PREDICTED BY IDOCK:   -4.08 KCAL/MOL
REMARK 924 INTRA-LIGAND FREE ENERGY PREDICTED BY IDOCK:   -0.53 KCAL/MOL
REMARK 927      BINDING AFFINITY PREDICTED BY RF-SCORE:    0.00 PKD
ROOT
HETATM    1  N   UNL     1     -14.409   8.842  73.197  1.00  0.00    -1.145 NA 
HETATM    2  C   UNL     1     -14.189   9.049  71.765  1.00  0.00    -0.253 C  
HETATM    3  H1  UNL     1     -15.222   8.244  73.349  1.00  0.00     0.000 HD 
HETATM    4  H2  UNL     1     -14.487   9.725  73.701  1.00  0.00     0.000 HD 
ENDROOT
BRANCH   2   5
HETATM    5  C   UNL     1     -12.969   9.946  71.537  1.00  0.00    -0.422 C  
HETATM    6  O   UNL     1     -13.039  11.173  71.598  1.00  0.00    -0.449 OA 
BRANCH   5   7
HETATM    7  C   UNL     1     -11.663   9.218  71.311  1.00  0.00    -0.416 C  
BRANCH   7   8
HETATM    8  C   UNL     1     -10.523  10.160  70.949  1.00  0.00     0.164 C  
BRANCH   8   9
HETATM    9  C   UNL     1      -9.211   9.457  70.688  1.00  0.00    -0.242 C  
HETATM   10  O   UNL     1      -8.677   8.688  71.472  1.00  0.00    -0.170 OA 
BRANCH   9  11
HETATM   11  O   UNL     1      -8.629   9.937  69.553  1.00  0.00    -0.155 OA 
BRANCH  11  12
HETATM   12  C   UNL     1      -9.531  10.594  68.662  1.00  0.00    -0.176 C  
BRANCH  12  13
HETATM   13  C   UNL     1      -8.798  11.300  67.534  1.00  0.00    -0.140 C  
BRANCH  13  14
HETATM   14  C   UNL     1      -8.939  12.810  67.716  1.00  0.00    -0.190 C  
BRANCH  14  15
HETATM   15  C   UNL     1      -9.955  13.177  68.793  1.00  0.00    -0.038 C  
BRANCH  15  16
HETATM   16  C   UNL     1     -10.380  14.639  68.653  1.00  0.00    -0.246 C  
HETATM   17  C   UNL     1      -9.179  15.570  68.663  1.00  0.00    -0.202 C  
ENDBRANCH  15  16
ENDBRANCH  14  15
ENDBRANCH  13  14
ENDBRANCH  12  13
ENDBRANCH  11  12
ENDBRANCH   9  11
ENDBRANCH   8   9
ENDBRANCH   7   8
ENDBRANCH   5   7
ENDBRANCH   2   5
TORSDOF 10
ENDMDL
MODEL      297
REMARK 921   NORMALIZED FREE ENERGY PREDICTED BY IDOCK:   -2.59 KCAL/MOL
REMARK 922        TOTAL FREE ENERGY PREDICTED BY IDOCK:   -4.60 KCAL/MOL
REMARK 923 INTER-LIGAND FREE ENERGY PREDICTED BY IDOCK:   -4.06 KCAL/MOL
REMARK 924 INTRA-LIGAND FREE ENERGY PREDICTED BY IDOCK:   -0.54 KCAL/MOL
REMARK 927      BINDING AFFINITY PREDICTED BY RF-SCORE:    0.00 PKD
ROOT
HETATM    1  N   UNL     1     -14.305   8.786  72.771  1.00  0.00    -1.038 NA 
HETATM    2  C   UNL     1     -13.787   8.182  71.543  1.00  0.00    -0.330 C  
HETATM    3  H1  UNL     1     -15.321   8.864  72.728  1.00  0.00     0.000 HD 
HETATM    4  H2  UNL     1     -13.862   9.684  72.968  1.00  0.00     0.000 HD 
ENDROOT
BRANCH   2   5
HETATM    5  C   UNL     1     -12.262   8.065  71.607  1.00  0.00    -0.307 C  
HETATM    6  O   UNL     1     -11.531   9.054  71.657  1.00  0.00    -0.311 OA 
BRANCH   5   7
HETATM    7  C   UNL     1     -11.724   6.653  71.685  1.00  0.00    -0.362 C  
BRANCH   7   8
HETATM    8  C   UNL     1     -10.450   6.557  72.515  1.00  0.00    -0.229 C  
BRANCH   8   9
HETATM    9  C   UNL     1      -9.263   6.021  71.749  1.00  0.00    -0.145 C  
HETATM   10  O   UNL     1      -8.358   5.374  72.251  1.00  0.00    -0.120 OA 
BRANCH   9  11
HETATM   11  O   UNL     1      -9.253   6.514  70.478  1.00  0.00    -0.154 OA 
BRANCH  11  12
HETATM   12  C   UNL     1      -8.553   5.699  69.537  1.00  0.00    -0.110 C  
BRANCH  12  13
HETATM   13  C   UNL     1      -8.603   6.285  68.135  1.00  0.00    -0.116 C  
BRANCH  13  14
HETATM   14  C   UNL     1     -10.058   6.555  67.760  1.00  0.00    -0.176 C  
BRANCH  14  15
HETATM   15  C   UNL     1     -10.616   5.513  66.795  1.00  0.00    -0.360 C  
BRANCH  15  16
HETATM   16  C   UNL     1      -9.592   5.186  65.708  1.00  0.00    -0.138 C  
HETATM   17  C   UNL     1      -9.201   3.717  65.737  1.00  0.00    -0.159 C  
ENDBRANCH  15  16
ENDBRANCH  14  15
ENDBRANCH  13  14
ENDBRANCH  12  13
ENDBRANCH  11  12
ENDBRANCH   9  11
ENDBRANCH   8   9
ENDBRANCH   7   8
ENDBRANCH   5   7
ENDBRANCH   2   5
TORSDOF 10
ENDMDL
MODEL      298
REMARK 921   NORMALIZED FREE ENERGY PREDICTED BY IDOCK:   -2.59 KCAL/MOL
REMARK 922        TOTAL FREE ENERGY PREDICTED BY IDOCK:   -4.59 KCAL/MOL
REMARK 923 INTER-LIGAND FREE ENERGY PREDICTED BY IDOCK:   -3.73 KCAL/MOL
REMARK 924 INTRA-LIGAND FREE ENERGY PREDICTED BY IDOCK:   -0.86 KCAL/MOL
REMARK 927      BINDING AFFINITY PREDICTED BY RF-SCORE:    0.00 PKD
ROOT
HETATM    1  N   UNL     1     -12.352   5.979  72.645  1.00  0.00    -0.524 NA 
HETATM    2  C   UNL     1     -11.210   5.206  73.133  1.00  0.00    -0.330 C  
HETATM    3  H1  UNL     1     -13.069   6.048  73.368  1.00  0.00     0.000 HD 
HETATM    4  H2  UNL     1     -12.724   5.599  71.775  1.00  0.00     0.000 HD 
ENDROOT
BRANCH   2   5
HETATM    5  C   UNL     1     -10.133   5.103  72.048  1.00  0.00    -0.197 C  
HETATM    6  O   UNL     1     -10.138   4.206  71.206  1.00  0.00    -0.169 OA 
BRANCH   5   7
HETATM    7  C   UNL     1      -9.114   6.221  72.039  1.00  0.00    -0.142 C  
BRANCH   7   8
HETATM    8  C   UNL     1      -9.190   7.071  70.778  1.00  0.00    -0.157 C  
BRANCH   8   9
HETATM    9  C   UNL     1     -10.507   7.793  70.609  1.00  0.00    -0.213 C  
HETATM   10  O   UNL     1     -11.017   8.499  71.465  1.00  0.00    -0.237 OA 
BRANCH   9  11
HETATM   11  O   UNL     1     -11.122   7.400  69.458  1.00  0.00    -0.187 OA 
BRANCH  11  12
HETATM   12  C   UNL     1     -10.238   7.213  68.353  1.00  0.00    -0.174 C  
BRANCH  12  13
HETATM   13  C   UNL     1     -10.979   6.761  67.106  1.00  0.00    -0.458 C  
BRANCH  13  14
HETATM   14  C   UNL     1     -10.537   5.343  66.751  1.00  0.00    -0.339 C  
BRANCH  14  15
HETATM   15  C   UNL     1      -9.633   4.728  67.814  1.00  0.00    -0.194 C  
BRANCH  15  16
HETATM   16  C   UNL     1      -9.229   3.307  67.418  1.00  0.00    -0.233 C  
HETATM   17  C   UNL     1      -8.936   2.452  68.641  1.00  0.00    -0.176 C  
ENDBRANCH  15  16
ENDBRANCH  14  15
ENDBRANCH  13  14
ENDBRANCH  12  13
ENDBRANCH  11  12
ENDBRANCH   9  11
ENDBRANCH   8   9
ENDBRANCH   7   8
ENDBRANCH   5   7
ENDBRANCH   2   5
TORSDOF 10
ENDMDL
MODEL      299
REMARK 921   NORMALIZED FREE ENERGY PREDICTED BY IDOCK:   -2.59 KCAL/MOL
REMARK 922        TOTAL FREE ENERGY PREDICTED BY IDOCK:   -4.59 KCAL/MOL
REMARK 923 INTER-LIGAND FREE ENERGY PREDICTED BY IDOCK:   -4.14 KCAL/MOL
REMARK 924 INTRA-LIGAND FREE ENERGY PREDICTED BY IDOCK:   -0.45 KCAL/MOL
REMARK 927      BINDING AFFINITY PREDICTED BY RF-SCORE:    0.00 PKD
ROOT
HETATM    1  N   UNL     1     -11.893   6.412  72.456  1.00  0.00    -0.496 NA 
HETATM    2  C   UNL     1     -10.926   7.494  72.274  1.00  0.00    -0.262 C  
HETATM    3  H1  UNL     1     -11.778   5.982  73.375  1.00  0.00     0.000 HD 
HETATM    4  H2  UNL     1     -11.840   5.724  71.705  1.00  0.00     0.000 HD 
ENDROOT
BRANCH   2   5
HETATM    5  C   UNL     1     -11.099   8.138  70.896  1.00  0.00    -0.258 C  
HETATM    6  O   UNL     1     -11.716   7.583  69.987  1.00  0.00    -0.045 OA 
BRANCH   5   7
HETATM    7  C   UNL     1     -10.530   9.533  70.757  1.00  0.00    -0.384 C  
BRANCH   7   8
HETATM    8  C   UNL     1     -11.463  10.473  70.005  1.00  0.00    -0.393 C  
BRANCH   8   9
HETATM    9  C   UNL     1     -11.004  10.791  68.600  1.00  0.00    -0.239 C  
HETATM   10  O   UNL     1     -11.285  10.121  67.619  1.00  0.00    -0.284 OA 
BRANCH   9  11
HETATM   11  O   UNL     1     -10.096  11.807  68.613  1.00  0.00    -0.216 OA 
BRANCH  11  12
HETATM   12  C   UNL     1      -9.803  12.351  67.326  1.00  0.00    -0.207 C  
BRANCH  12  13
HETATM   13  C   UNL     1      -9.595  13.855  67.382  1.00  0.00    -0.235 C  
BRANCH  13  14
HETATM   14  C   UNL     1     -10.092  14.378  68.727  1.00  0.00    -0.234 C  
BRANCH  14  15
HETATM   15  C   UNL     1      -9.428  15.692  69.127  1.00  0.00    -0.256 C  
BRANCH  15  16
HETATM   16  C   UNL     1     -10.368  16.869  68.862  1.00  0.00    -0.333 C  
HETATM   17  C   UNL     1      -9.705  17.924  67.991  1.00  0.00    -0.303 C  
ENDBRANCH  15  16
ENDBRANCH  14  15
ENDBRANCH  13  14
ENDBRANCH  12  13
ENDBRANCH  11  12
ENDBRANCH   9  11
ENDBRANCH   8   9
ENDBRANCH   7   8
ENDBRANCH   5   7
ENDBRANCH   2   5
TORSDOF 10
ENDMDL
MODEL      300
REMARK 921   NORMALIZED FREE ENERGY PREDICTED BY IDOCK:   -2.59 KCAL/MOL
REMARK 922        TOTAL FREE ENERGY PREDICTED BY IDOCK:   -4.59 KCAL/MOL
REMARK 923 INTER-LIGAND FREE ENERGY PREDICTED BY IDOCK:   -3.86 KCAL/MOL
REMARK 924 INTRA-LIGAND FREE ENERGY PREDICTED BY IDOCK:   -0.72 KCAL/MOL
REMARK 927      BINDING AFFINITY PREDICTED BY RF-SCORE:    0.00 PKD
ROOT
HETATM    1  N   UNL     1     -10.427   7.022  74.274  1.00  0.00    -0.528 NA 
HETATM    2  C   UNL     1     -10.398   5.597  73.944  1.00  0.00    -0.264 C  
HETATM    3  H1  UNL     1     -11.293   7.256  74.760  1.00  0.00     0.000 HD 
HETATM    4  H2  UNL     1     -10.283   7.605  73.450  1.00  0.00     0.000 HD 
ENDROOT
BRANCH   2   5
HETATM    5  C   UNL     1      -9.098   5.244  73.214  1.00  0.00    -0.128 C  
HETATM    6  O   UNL     1      -8.102   4.840  73.812  1.00  0.00    -0.104 OA 
BRANCH   5   7
HETATM    7  C   UNL     1      -9.153   5.352  71.706  1.00  0.00    -0.152 C  
BRANCH   7   8
HETATM    8  C   UNL     1     -10.575   5.284  71.166  1.00  0.00    -0.243 C  
BRANCH   8   9
HETATM    9  C   UNL     1     -11.046   6.570  70.528  1.00  0.00    -0.319 C  
HETATM   10  O   UNL     1     -11.127   7.638  71.115  1.00  0.00    -0.244 OA 
BRANCH   9  11
HETATM   11  O   UNL     1     -11.534   6.332  69.278  1.00  0.00    -0.411 OA 
BRANCH  11  12
HETATM   12  C   UNL     1     -10.537   6.007  68.309  1.00  0.00    -0.261 C  
BRANCH  12  13
HETATM   13  C   UNL     1      -9.763   7.235  67.859  1.00  0.00    -0.161 C  
BRANCH  13  14
HETATM   14  C   UNL     1     -10.660   8.089  66.966  1.00  0.00    -0.364 C  
BRANCH  14  15
HETATM   15  C   UNL     1      -9.879   9.148  66.193  1.00  0.00    -0.363 C  
BRANCH  15  16
HETATM   16  C   UNL     1      -8.981   9.947  67.139  1.00  0.00    -0.150 C  
HETATM   17  C   UNL     1      -8.507  11.240  66.494  1.00  0.00    -0.171 C  
ENDBRANCH  15  16
ENDBRANCH  14  15
ENDBRANCH  13  14
ENDBRANCH  12  13
ENDBRANCH  11  12
ENDBRANCH   9  11
ENDBRANCH   8   9
ENDBRANCH   7   8
ENDBRANCH   5   7
ENDBRANCH   2   5
TORSDOF 10
ENDMDL
MODEL      301
REMARK 921   NORMALIZED FREE ENERGY PREDICTED BY IDOCK:   -2.58 KCAL/MOL
REMARK 922        TOTAL FREE ENERGY PREDICTED BY IDOCK:   -4.57 KCAL/MOL
REMARK 923 INTER-LIGAND FREE ENERGY PREDICTED BY IDOCK:   -4.18 KCAL/MOL
REMARK 924 INTRA-LIGAND FREE ENERGY PREDICTED BY IDOCK:   -0.39 KCAL/MOL
REMARK 927      BINDING AFFINITY PREDICTED BY RF-SCORE:    0.00 PKD
ROOT
HETATM    1  N   UNL     1     -12.093  12.974  63.017  1.00  0.00    -0.804 NA 
HETATM    2  C   UNL     1     -11.341  13.097  64.265  1.00  0.00    -0.388 C  
HETATM    3  H1  UNL     1     -11.490  12.625  62.271  1.00  0.00     0.000 HD 
HETATM    4  H2  UNL     1     -12.547  13.850  62.760  1.00  0.00     0.000 HD 
ENDROOT
BRANCH   2   5
HETATM    5  C   UNL     1     -12.245  13.621  65.385  1.00  0.00    -0.444 C  
HETATM    6  O   UNL     1     -13.375  14.055  65.163  1.00  0.00    -0.703 OA 
BRANCH   5   7
HETATM    7  C   UNL     1     -11.683  13.494  66.784  1.00  0.00    -0.430 C  
BRANCH   7   8
HETATM    8  C   UNL     1     -10.205  13.128  66.790  1.00  0.00    -0.252 C  
BRANCH   8   9
HETATM    9  C   UNL     1      -9.471  13.580  68.031  1.00  0.00    -0.220 C  
HETATM   10  O   UNL     1      -9.991  14.193  68.951  1.00  0.00    -0.210 OA 
BRANCH   9  11
HETATM   11  O   UNL     1      -8.131  13.373  67.895  1.00  0.00    -0.135 OA 
BRANCH  11  12
HETATM   12  C   UNL     1      -7.672  12.128  68.421  1.00  0.00    -0.134 C  
BRANCH  12  13
HETATM   13  C   UNL     1      -7.054  11.252  67.344  1.00  0.00    -0.109 C  
BRANCH  13  14
HETATM   14  C   UNL     1      -7.563   9.822  67.511  1.00  0.00    -0.091 C  
BRANCH  14  15
HETATM   15  C   UNL     1      -6.993   8.872  66.462  1.00  0.00    -0.080 C  
BRANCH  15  16
HETATM   16  C   UNL     1      -7.919   7.670  66.270  1.00  0.00    -0.105 C  
HETATM   17  C   UNL     1      -7.327   6.410  66.881  1.00  0.00    -0.079 C  
ENDBRANCH  15  16
ENDBRANCH  14  15
ENDBRANCH  13  14
ENDBRANCH  12  13
ENDBRANCH  11  12
ENDBRANCH   9  11
ENDBRANCH   8   9
ENDBRANCH   7   8
ENDBRANCH   5   7
ENDBRANCH   2   5
TORSDOF 10
ENDMDL
MODEL      302
REMARK 921   NORMALIZED FREE ENERGY PREDICTED BY IDOCK:   -2.58 KCAL/MOL
REMARK 922        TOTAL FREE ENERGY PREDICTED BY IDOCK:   -4.57 KCAL/MOL
REMARK 923 INTER-LIGAND FREE ENERGY PREDICTED BY IDOCK:   -4.23 KCAL/MOL
REMARK 924 INTRA-LIGAND FREE ENERGY PREDICTED BY IDOCK:   -0.34 KCAL/MOL
REMARK 927      BINDING AFFINITY PREDICTED BY RF-SCORE:    0.00 PKD
ROOT
HETATM    1  N   UNL     1     -14.315   8.923  72.728  1.00  0.00    -1.055 NA 
HETATM    2  C   UNL     1     -13.982   7.970  71.669  1.00  0.00    -0.400 C  
HETATM    3  H1  UNL     1     -15.309   8.870  72.954  1.00  0.00     0.000 HD 
HETATM    4  H2  UNL     1     -14.029   9.872  72.487  1.00  0.00     0.000 HD 
ENDROOT
BRANCH   2   5
HETATM    5  C   UNL     1     -12.491   8.048  71.329  1.00  0.00    -0.253 C  
HETATM    6  O   UNL     1     -11.805   9.028  71.620  1.00  0.00    -0.312 OA 
BRANCH   5   7
HETATM    7  C   UNL     1     -11.908   6.810  70.684  1.00  0.00    -0.442 C  
BRANCH   7   8
HETATM    8  C   UNL     1     -10.480   7.022  70.198  1.00  0.00    -0.232 C  
BRANCH   8   9
HETATM    9  C   UNL     1     -10.214   6.451  68.824  1.00  0.00    -0.177 C  
HETATM   10  O   UNL     1     -10.157   5.256  68.577  1.00  0.00    -0.169 OA 
BRANCH   9  11
HETATM   11  O   UNL     1      -9.867   7.441  67.955  1.00  0.00    -0.140 OA 
BRANCH  11  12
HETATM   12  C   UNL     1      -8.681   8.151  68.314  1.00  0.00    -0.133 C  
BRANCH  12  13
HETATM   13  C   UNL     1      -7.826   8.474  67.100  1.00  0.00    -0.097 C  
BRANCH  13  14
HETATM   14  C   UNL     1      -8.690   9.173  66.053  1.00  0.00    -0.176 C  
BRANCH  14  15
HETATM   15  C   UNL     1      -8.411   8.676  64.638  1.00  0.00    -0.165 C  
BRANCH  15  16
HETATM   16  C   UNL     1      -8.077   9.849  63.715  1.00  0.00    -0.151 C  
HETATM   17  C   UNL     1      -9.331  10.598  63.292  1.00  0.00    -0.329 C  
ENDBRANCH  15  16
ENDBRANCH  14  15
ENDBRANCH  13  14
ENDBRANCH  12  13
ENDBRANCH  11  12
ENDBRANCH   9  11
ENDBRANCH   8   9
ENDBRANCH   7   8
ENDBRANCH   5   7
ENDBRANCH   2   5
TORSDOF 10
ENDMDL
MODEL      303
REMARK 921   NORMALIZED FREE ENERGY PREDICTED BY IDOCK:   -2.56 KCAL/MOL
REMARK 922        TOTAL FREE ENERGY PREDICTED BY IDOCK:   -4.55 KCAL/MOL
REMARK 923 INTER-LIGAND FREE ENERGY PREDICTED BY IDOCK:   -3.86 KCAL/MOL
REMARK 924 INTRA-LIGAND FREE ENERGY PREDICTED BY IDOCK:   -0.68 KCAL/MOL
REMARK 927      BINDING AFFINITY PREDICTED BY RF-SCORE:    0.00 PKD
ROOT
HETATM    1  N   UNL     1      -9.835  13.544  65.556  1.00  0.00    -0.492 NA 
HETATM    2  C   UNL     1      -9.775  14.208  66.858  1.00  0.00    -0.269 C  
HETATM    3  H1  UNL     1      -8.900  13.460  65.156  1.00  0.00     0.000 HD 
HETATM    4  H2  UNL     1     -10.481  14.012  64.920  1.00  0.00     0.000 HD 
ENDROOT
BRANCH   2   5
HETATM    5  C   UNL     1     -11.178  14.334  67.459  1.00  0.00    -0.307 C  
HETATM    6  O   UNL     1     -11.687  15.426  67.710  1.00  0.00    -0.297 OA 
BRANCH   5   7
HETATM    7  C   UNL     1     -11.920  13.029  67.648  1.00  0.00    -0.353 C  
BRANCH   7   8
HETATM    8  C   UNL     1     -11.265  12.129  68.688  1.00  0.00    -0.318 C  
BRANCH   8   9
HETATM    9  C   UNL     1     -10.527  10.951  68.095  1.00  0.00    -0.182 C  
HETATM   10  O   UNL     1     -10.608  10.609  66.925  1.00  0.00    -0.246 OA 
BRANCH   9  11
HETATM   11  O   UNL     1      -9.915  10.229  69.075  1.00  0.00    -0.191 OA 
BRANCH  11  12
HETATM   12  C   UNL     1     -10.702  10.050  70.253  1.00  0.00    -0.309 C  
BRANCH  12  13
HETATM   13  C   UNL     1     -10.807   8.586  70.647  1.00  0.00    -0.255 C  
BRANCH  13  14
HETATM   14  C   UNL     1      -9.897   7.760  69.740  1.00  0.00    -0.178 C  
BRANCH  14  15
HETATM   15  C   UNL     1      -9.086   6.724  70.512  1.00  0.00    -0.156 C  
BRANCH  15  16
HETATM   16  C   UNL     1      -9.226   6.948  72.018  1.00  0.00    -0.146 C  
HETATM   17  C   UNL     1      -9.655   5.675  72.731  1.00  0.00    -0.164 C  
ENDBRANCH  15  16
ENDBRANCH  14  15
ENDBRANCH  13  14
ENDBRANCH  12  13
ENDBRANCH  11  12
ENDBRANCH   9  11
ENDBRANCH   8   9
ENDBRANCH   7   8
ENDBRANCH   5   7
ENDBRANCH   2   5
TORSDOF 10
ENDMDL
MODEL      304
REMARK 921   NORMALIZED FREE ENERGY PREDICTED BY IDOCK:   -2.56 KCAL/MOL
REMARK 922        TOTAL FREE ENERGY PREDICTED BY IDOCK:   -4.54 KCAL/MOL
REMARK 923 INTER-LIGAND FREE ENERGY PREDICTED BY IDOCK:   -3.81 KCAL/MOL
REMARK 924 INTRA-LIGAND FREE ENERGY PREDICTED BY IDOCK:   -0.74 KCAL/MOL
REMARK 927      BINDING AFFINITY PREDICTED BY RF-SCORE:    0.00 PKD
ROOT
HETATM    1  N   UNL     1      -7.839   9.873  69.496  1.00  0.00    -0.123 NA 
HETATM    2  C   UNL     1      -8.176   8.938  70.570  1.00  0.00    -0.145 C  
HETATM    3  H1  UNL     1      -6.844   9.817  69.276  1.00  0.00     0.000 HD 
HETATM    4  H2  UNL     1      -8.127  10.826  69.718  1.00  0.00     0.000 HD 
ENDROOT
BRANCH   2   5
HETATM    5  C   UNL     1      -9.669   9.021  70.900  1.00  0.00    -0.264 C  
HETATM    6  O   UNL     1     -10.481   9.538  70.134  1.00  0.00    -0.217 OA 
BRANCH   5   7
HETATM    7  C   UNL     1     -10.084   8.354  72.194  1.00  0.00    -0.376 C  
BRANCH   7   8
HETATM    8  C   UNL     1     -11.577   8.059  72.247  1.00  0.00    -0.424 C  
BRANCH   8   9
HETATM    9  C   UNL     1     -11.936   6.656  71.816  1.00  0.00    -0.345 C  
HETATM   10  O   UNL     1     -11.890   5.680  72.549  1.00  0.00    -0.282 OA 
BRANCH   9  11
HETATM   11  O   UNL     1     -12.134   6.606  70.468  1.00  0.00    -0.390 OA 
BRANCH  11  12
HETATM   12  C   UNL     1     -11.148   5.857  69.756  1.00  0.00    -0.352 C  
BRANCH  12  13
HETATM   13  C   UNL     1     -11.056   6.285  68.301  1.00  0.00    -0.364 C  
BRANCH  13  14
HETATM   14  C   UNL     1      -9.606   6.637  67.976  1.00  0.00    -0.123 C  
BRANCH  14  15
HETATM   15  C   UNL     1      -9.345   6.715  66.475  1.00  0.00    -0.191 C  
BRANCH  15  16
HETATM   16  C   UNL     1      -8.012   6.051  66.128  1.00  0.00    -0.107 C  
HETATM   17  C   UNL     1      -7.939   4.633  66.674  1.00  0.00    -0.103 C  
ENDBRANCH  15  16
ENDBRANCH  14  15
ENDBRANCH  13  14
ENDBRANCH  12  13
ENDBRANCH  11  12
ENDBRANCH   9  11
ENDBRANCH   8   9
ENDBRANCH   7   8
ENDBRANCH   5   7
ENDBRANCH   2   5
TORSDOF 10
ENDMDL
MODEL      305
REMARK 921   NORMALIZED FREE ENERGY PREDICTED BY IDOCK:   -2.56 KCAL/MOL
REMARK 922        TOTAL FREE ENERGY PREDICTED BY IDOCK:   -4.54 KCAL/MOL
REMARK 923 INTER-LIGAND FREE ENERGY PREDICTED BY IDOCK:   -3.97 KCAL/MOL
REMARK 924 INTRA-LIGAND FREE ENERGY PREDICTED BY IDOCK:   -0.57 KCAL/MOL
REMARK 927      BINDING AFFINITY PREDICTED BY RF-SCORE:    0.00 PKD
ROOT
HETATM    1  N   UNL     1     -13.497  10.018  70.447  1.00  0.00    -0.466 NA 
HETATM    2  C   UNL     1     -12.207  10.447  70.988  1.00  0.00    -0.393 C  
HETATM    3  H1  UNL     1     -13.902  10.753  69.867  1.00  0.00     0.000 HD 
HETATM    4  H2  UNL     1     -14.136   9.718  71.183  1.00  0.00     0.000 HD 
ENDROOT
BRANCH   2   5
HETATM    5  C   UNL     1     -11.599   9.344  71.859  1.00  0.00    -0.278 C  
HETATM    6  O   UNL     1     -12.213   8.839  72.798  1.00  0.00    -0.275 OA 
BRANCH   5   7
HETATM    7  C   UNL     1     -10.227   8.867  71.435  1.00  0.00    -0.375 C  
BRANCH   7   8
HETATM    8  C   UNL     1      -9.743   9.539  70.157  1.00  0.00    -0.289 C  
BRANCH   8   9
HETATM    9  C   UNL     1      -8.242   9.508  69.983  1.00  0.00    -0.170 C  
HETATM   10  O   UNL     1      -7.464  10.214  70.605  1.00  0.00    -0.277 OA 
BRANCH   9  11
HETATM   11  O   UNL     1      -7.901   8.726  68.920  1.00  0.00    -0.100 OA 
BRANCH  11  12
HETATM   12  C   UNL     1      -8.149   9.323  67.646  1.00  0.00    -0.104 C  
BRANCH  12  13
HETATM   13  C   UNL     1      -9.098   8.486  66.805  1.00  0.00    -0.186 C  
BRANCH  13  14
HETATM   14  C   UNL     1      -9.766   9.384  65.766  1.00  0.00    -0.354 C  
BRANCH  14  15
HETATM   15  C   UNL     1      -9.086  10.744  65.643  1.00  0.00    -0.215 C  
BRANCH  15  16
HETATM   16  C   UNL     1     -10.110  11.871  65.787  1.00  0.00    -0.272 C  
HETATM   17  C   UNL     1     -10.010  12.541  67.148  1.00  0.00    -0.217 C  
ENDBRANCH  15  16
ENDBRANCH  14  15
ENDBRANCH  13  14
ENDBRANCH  12  13
ENDBRANCH  11  12
ENDBRANCH   9  11
ENDBRANCH   8   9
ENDBRANCH   7   8
ENDBRANCH   5   7
ENDBRANCH   2   5
TORSDOF 10
ENDMDL
MODEL      306
REMARK 921   NORMALIZED FREE ENERGY PREDICTED BY IDOCK:   -2.55 KCAL/MOL
REMARK 922        TOTAL FREE ENERGY PREDICTED BY IDOCK:   -4.53 KCAL/MOL
REMARK 923 INTER-LIGAND FREE ENERGY PREDICTED BY IDOCK:   -3.46 KCAL/MOL
REMARK 924 INTRA-LIGAND FREE ENERGY PREDICTED BY IDOCK:   -1.07 KCAL/MOL
REMARK 927      BINDING AFFINITY PREDICTED BY RF-SCORE:    0.00 PKD
ROOT
HETATM    1  N   UNL     1      -7.734  10.944  65.619  1.00  0.00    -0.340 NA 
HETATM    2  C   UNL     1      -7.779   9.663  66.324  1.00  0.00    -0.101 C  
HETATM    3  H1  UNL     1      -7.662  10.794  64.612  1.00  0.00     0.000 HD 
HETATM    4  H2  UNL     1      -6.987  11.544  65.969  1.00  0.00     0.000 HD 
ENDROOT
BRANCH   2   5
HETATM    5  C   UNL     1      -7.887   9.888  67.835  1.00  0.00    -0.090 C  
HETATM    6  O   UNL     1      -6.895  10.058  68.543  1.00  0.00    -0.054 OA 
BRANCH   5   7
HETATM    7  C   UNL     1      -9.297   9.965  68.379  1.00  0.00    -0.135 C  
BRANCH   7   8
HETATM    8  C   UNL     1      -9.867  11.376  68.326  1.00  0.00    -0.202 C  
BRANCH   8   9
HETATM    9  C   UNL     1     -10.976  11.547  67.314  1.00  0.00    -0.271 C  
HETATM   10  O   UNL     1     -10.864  11.295  66.124  1.00  0.00    -0.267 OA 
BRANCH   9  11
HETATM   11  O   UNL     1     -12.040  12.187  67.875  1.00  0.00    -0.502 OA 
BRANCH  11  12
HETATM   12  C   UNL     1     -11.933  13.611  67.882  1.00  0.00    -0.347 C  
BRANCH  12  13
HETATM   13  C   UNL     1     -12.138  14.187  69.274  1.00  0.00    -0.364 C  
BRANCH  13  14
HETATM   14  C   UNL     1     -10.791  14.654  69.823  1.00  0.00    -0.180 C  
BRANCH  14  15
HETATM   15  C   UNL     1      -9.929  15.329  68.761  1.00  0.00    -0.215 C  
BRANCH  15  16
HETATM   16  C   UNL     1      -8.511  14.754  68.777  1.00  0.00    -0.170 C  
HETATM   17  C   UNL     1      -8.017  14.455  67.371  1.00  0.00    -0.220 C  
ENDBRANCH  15  16
ENDBRANCH  14  15
ENDBRANCH  13  14
ENDBRANCH  12  13
ENDBRANCH  11  12
ENDBRANCH   9  11
ENDBRANCH   8   9
ENDBRANCH   7   8
ENDBRANCH   5   7
ENDBRANCH   2   5
TORSDOF 10
ENDMDL
MODEL      307
REMARK 921   NORMALIZED FREE ENERGY PREDICTED BY IDOCK:   -2.55 KCAL/MOL
REMARK 922        TOTAL FREE ENERGY PREDICTED BY IDOCK:   -4.53 KCAL/MOL
REMARK 923 INTER-LIGAND FREE ENERGY PREDICTED BY IDOCK:   -3.71 KCAL/MOL
REMARK 924 INTRA-LIGAND FREE ENERGY PREDICTED BY IDOCK:   -0.82 KCAL/MOL
REMARK 927      BINDING AFFINITY PREDICTED BY RF-SCORE:    0.00 PKD
ROOT
HETATM    1  N   UNL     1     -10.966   6.532  66.658  1.00  0.00    -0.630 NA 
HETATM    2  C   UNL     1     -10.575   5.554  67.673  1.00  0.00    -0.164 C  
HETATM    3  H1  UNL     1     -11.253   6.059  65.800  1.00  0.00     0.000 HD 
HETATM    4  H2  UNL     1     -10.230   7.217  66.487  1.00  0.00     0.000 HD 
ENDROOT
BRANCH   2   5
HETATM    5  C   UNL     1     -10.146   6.263  68.961  1.00  0.00    -0.172 C  
HETATM    6  O   UNL     1      -9.257   7.114  68.973  1.00  0.00    -0.137 OA 
BRANCH   5   7
HETATM    7  C   UNL     1     -10.943   5.903  70.196  1.00  0.00    -0.412 C  
BRANCH   7   8
HETATM    8  C   UNL     1     -12.156   6.802  70.392  1.00  0.00    -0.270 C  
BRANCH   8   9
HETATM    9  C   UNL     1     -12.259   7.392  71.779  1.00  0.00    -0.326 C  
HETATM   10  O   UNL     1     -13.025   8.292  72.087  1.00  0.00    -0.326 OA 
BRANCH   9  11
HETATM   11  O   UNL     1     -11.262   6.915  72.576  1.00  0.00    -0.253 OA 
BRANCH  11  12
HETATM   12  C   UNL     1     -10.349   7.911  73.037  1.00  0.00    -0.334 C  
BRANCH  12  13
HETATM   13  C   UNL     1      -8.918   7.599  72.631  1.00  0.00    -0.205 C  
BRANCH  13  14
HETATM   14  C   UNL     1      -8.481   6.300  73.305  1.00  0.00    -0.119 C  
BRANCH  14  15
HETATM   15  C   UNL     1      -8.237   5.175  72.304  1.00  0.00    -0.121 C  
BRANCH  15  16
HETATM   16  C   UNL     1      -8.545   3.818  72.938  1.00  0.00    -0.095 C  
HETATM   17  C   UNL     1      -9.809   3.872  73.780  1.00  0.00    -0.149 C  
ENDBRANCH  15  16
ENDBRANCH  14  15
ENDBRANCH  13  14
ENDBRANCH  12  13
ENDBRANCH  11  12
ENDBRANCH   9  11
ENDBRANCH   8   9
ENDBRANCH   7   8
ENDBRANCH   5   7
ENDBRANCH   2   5
TORSDOF 10
ENDMDL
MODEL      308
REMARK 921   NORMALIZED FREE ENERGY PREDICTED BY IDOCK:   -2.55 KCAL/MOL
REMARK 922        TOTAL FREE ENERGY PREDICTED BY IDOCK:   -4.52 KCAL/MOL
REMARK 923 INTER-LIGAND FREE ENERGY PREDICTED BY IDOCK:   -3.84 KCAL/MOL
REMARK 924 INTRA-LIGAND FREE ENERGY PREDICTED BY IDOCK:   -0.69 KCAL/MOL
REMARK 927      BINDING AFFINITY PREDICTED BY RF-SCORE:    0.00 PKD
ROOT
HETATM    1  N   UNL     1     -13.259   7.339  71.085  1.00  0.00    -0.574 NA 
HETATM    2  C   UNL     1     -11.913   7.888  70.924  1.00  0.00    -0.196 C  
HETATM    3  H1  UNL     1     -13.785   7.880  71.772  1.00  0.00     0.000 HD 
HETATM    4  H2  UNL     1     -13.239   6.346  71.318  1.00  0.00     0.000 HD 
ENDROOT
BRANCH   2   5
HETATM    5  C   UNL     1     -11.124   7.076  69.893  1.00  0.00    -0.264 C  
HETATM    6  O   UNL     1     -10.989   5.856  69.987  1.00  0.00    -0.337 OA 
BRANCH   5   7
HETATM    7  C   UNL     1     -10.593   7.865  68.716  1.00  0.00    -0.154 C  
BRANCH   7   8
HETATM    8  C   UNL     1     -10.897   7.198  67.381  1.00  0.00    -0.346 C  
BRANCH   8   9
HETATM    9  C   UNL     1      -9.687   6.578  66.721  1.00  0.00    -0.164 C  
HETATM   10  O   UNL     1      -9.653   5.438  66.284  1.00  0.00    -0.151 OA 
BRANCH   9  11
HETATM   11  O   UNL     1      -8.604   7.395  66.847  1.00  0.00    -0.116 OA 
BRANCH  11  12
HETATM   12  C   UNL     1      -8.620   8.532  65.984  1.00  0.00    -0.143 C  
BRANCH  12  13
HETATM   13  C   UNL     1      -7.991   9.749  66.641  1.00  0.00    -0.112 C  
BRANCH  13  14
HETATM   14  C   UNL     1      -8.874  10.968  66.383  1.00  0.00    -0.182 C  
BRANCH  14  15
HETATM   15  C   UNL     1     -10.322  10.589  66.087  1.00  0.00    -0.276 C  
BRANCH  15  16
HETATM   16  C   UNL     1     -11.261  11.744  66.440  1.00  0.00    -0.382 C  
HETATM   17  C   UNL     1     -11.849  12.383  65.192  1.00  0.00    -0.437 C  
ENDBRANCH  15  16
ENDBRANCH  14  15
ENDBRANCH  13  14
ENDBRANCH  12  13
ENDBRANCH  11  12
ENDBRANCH   9  11
ENDBRANCH   8   9
ENDBRANCH   7   8
ENDBRANCH   5   7
ENDBRANCH   2   5
TORSDOF 10
ENDMDL
MODEL      309
REMARK 921   NORMALIZED FREE ENERGY PREDICTED BY IDOCK:   -2.55 KCAL/MOL
REMARK 922        TOTAL FREE ENERGY PREDICTED BY IDOCK:   -4.52 KCAL/MOL
REMARK 923 INTER-LIGAND FREE ENERGY PREDICTED BY IDOCK:   -3.94 KCAL/MOL
REMARK 924 INTRA-LIGAND FREE ENERGY PREDICTED BY IDOCK:   -0.58 KCAL/MOL
REMARK 927      BINDING AFFINITY PREDICTED BY RF-SCORE:    0.00 PKD
ROOT
HETATM    1  N   UNL     1     -11.141   6.139  66.595  1.00  0.00    -0.759 NA 
HETATM    2  C   UNL     1     -10.821   7.483  67.074  1.00  0.00    -0.194 C  
HETATM    3  H1  UNL     1     -12.144   6.048  66.435  1.00  0.00     0.000 HD 
HETATM    4  H2  UNL     1     -10.789   5.418  67.224  1.00  0.00     0.000 HD 
ENDROOT
BRANCH   2   5
HETATM    5  C   UNL     1      -9.314   7.620  67.314  1.00  0.00    -0.144 C  
HETATM    6  O   UNL     1      -8.516   7.776  66.390  1.00  0.00    -0.123 OA 
BRANCH   5   7
HETATM    7  C   UNL     1      -8.888   7.629  68.765  1.00  0.00    -0.131 C  
BRANCH   7   8
HETATM    8  C   UNL     1      -9.096   8.984  69.428  1.00  0.00    -0.146 C  
BRANCH   8   9
HETATM    9  C   UNL     1      -9.776   8.905  70.775  1.00  0.00    -0.227 C  
HETATM   10  O   UNL     1      -9.227   9.157  71.837  1.00  0.00    -0.354 OA 
BRANCH   9  11
HETATM   11  O   UNL     1     -11.012   8.344  70.654  1.00  0.00    -0.235 OA 
BRANCH  11  12
HETATM   12  C   UNL     1     -11.510   7.752  71.854  1.00  0.00    -0.275 C  
BRANCH  12  13
HETATM   13  C   UNL     1     -11.280   6.250  71.882  1.00  0.00    -0.332 C  
BRANCH  13  14
HETATM   14  C   UNL     1     -10.866   5.836  73.292  1.00  0.00    -0.306 C  
BRANCH  14  15
HETATM   15  C   UNL     1     -11.131   4.360  73.570  1.00  0.00    -0.388 C  
BRANCH  15  16
HETATM   16  C   UNL     1     -10.267   3.480  72.665  1.00  0.00    -0.241 C  
HETATM   17  C   UNL     1      -8.835   3.403  73.170  1.00  0.00    -0.086 C  
ENDBRANCH  15  16
ENDBRANCH  14  15
ENDBRANCH  13  14
ENDBRANCH  12  13
ENDBRANCH  11  12
ENDBRANCH   9  11
ENDBRANCH   8   9
ENDBRANCH   7   8
ENDBRANCH   5   7
ENDBRANCH   2   5
TORSDOF 10
ENDMDL
MODEL      310
REMARK 921   NORMALIZED FREE ENERGY PREDICTED BY IDOCK:   -2.53 KCAL/MOL
REMARK 922        TOTAL FREE ENERGY PREDICTED BY IDOCK:   -4.50 KCAL/MOL
REMARK 923 INTER-LIGAND FREE ENERGY PREDICTED BY IDOCK:   -3.61 KCAL/MOL
REMARK 924 INTRA-LIGAND FREE ENERGY PREDICTED BY IDOCK:   -0.89 KCAL/MOL
REMARK 927      BINDING AFFINITY PREDICTED BY RF-SCORE:    0.00 PKD
ROOT
HETATM    1  N   UNL     1      -8.325   4.878  67.064  1.00  0.00    -0.107 NA 
HETATM    2  C   UNL     1      -9.622   4.483  67.613  1.00  0.00    -0.165 C  
HETATM    3  H1  UNL     1      -7.704   4.071  67.004  1.00  0.00     0.000 HD 
HETATM    4  H2  UNL     1      -7.905   5.642  67.594  1.00  0.00     0.000 HD 
ENDROOT
BRANCH   2   5
HETATM    5  C   UNL     1     -10.554   5.694  67.705  1.00  0.00    -0.204 C  
HETATM    6  O   UNL     1     -11.132   6.151  66.719  1.00  0.00    -0.322 OA 
BRANCH   5   7
HETATM    7  C   UNL     1     -10.775   6.238  69.099  1.00  0.00    -0.362 C  
BRANCH   7   8
HETATM    8  C   UNL     1     -10.468   7.727  69.202  1.00  0.00    -0.219 C  
BRANCH   8   9
HETATM    9  C   UNL     1      -9.106   8.105  68.668  1.00  0.00    -0.143 C  
HETATM   10  O   UNL     1      -8.053   7.853  69.234  1.00  0.00    -0.121 OA 
BRANCH   9  11
HETATM   11  O   UNL     1      -9.228   8.915  67.579  1.00  0.00    -0.135 OA 
BRANCH  11  12
HETATM   12  C   UNL     1      -8.533  10.158  67.690  1.00  0.00    -0.118 C  
BRANCH  12  13
HETATM   13  C   UNL     1      -9.205  11.095  68.680  1.00  0.00    -0.173 C  
BRANCH  13  14
HETATM   14  C   UNL     1     -10.424  11.731  68.015  1.00  0.00    -0.221 C  
BRANCH  14  15
HETATM   15  C   UNL     1     -11.739  11.231  68.605  1.00  0.00    -0.391 C  
BRANCH  15  16
HETATM   16  C   UNL     1     -11.918  11.750  70.032  1.00  0.00    -0.421 C  
HETATM   17  C   UNL     1     -12.406  10.653  70.965  1.00  0.00    -0.507 C  
ENDBRANCH  15  16
ENDBRANCH  14  15
ENDBRANCH  13  14
ENDBRANCH  12  13
ENDBRANCH  11  12
ENDBRANCH   9  11
ENDBRANCH   8   9
ENDBRANCH   7   8
ENDBRANCH   5   7
ENDBRANCH   2   5
TORSDOF 10
ENDMDL
MODEL      311
REMARK 921   NORMALIZED FREE ENERGY PREDICTED BY IDOCK:   -2.52 KCAL/MOL
REMARK 922        TOTAL FREE ENERGY PREDICTED BY IDOCK:   -4.48 KCAL/MOL
REMARK 923 INTER-LIGAND FREE ENERGY PREDICTED BY IDOCK:   -3.79 KCAL/MOL
REMARK 924 INTRA-LIGAND FREE ENERGY PREDICTED BY IDOCK:   -0.69 KCAL/MOL
REMARK 927      BINDING AFFINITY PREDICTED BY RF-SCORE:    0.00 PKD
ROOT
HETATM    1  N   UNL     1      -7.415   5.856  67.268  1.00  0.00    -0.080 NA 
HETATM    2  C   UNL     1      -8.332   6.213  68.350  1.00  0.00    -0.114 C  
HETATM    3  H1  UNL     1      -7.333   6.626  66.603  1.00  0.00     0.000 HD 
HETATM    4  H2  UNL     1      -7.688   4.987  66.810  1.00  0.00     0.000 HD 
ENDROOT
BRANCH   2   5
HETATM    5  C   UNL     1      -8.456   5.057  69.348  1.00  0.00    -0.085 C  
HETATM    6  O   UNL     1      -7.723   4.070  69.299  1.00  0.00    -0.054 OA 
BRANCH   5   7
HETATM    7  C   UNL     1      -9.486   5.251  70.439  1.00  0.00    -0.222 C  
BRANCH   7   8
HETATM    8  C   UNL     1      -9.851   6.715  70.645  1.00  0.00    -0.198 C  
BRANCH   8   9
HETATM    9  C   UNL     1     -11.302   6.936  71.005  1.00  0.00    -0.299 C  
HETATM   10  O   UNL     1     -12.243   6.526  70.344  1.00  0.00    -0.306 OA 
BRANCH   9  11
HETATM   11  O   UNL     1     -11.407   7.800  72.054  1.00  0.00    -0.257 OA 
BRANCH  11  12
HETATM   12  C   UNL     1     -10.977   9.131  71.765  1.00  0.00    -0.359 C  
BRANCH  12  13
HETATM   13  C   UNL     1     -12.124  10.004  71.283  1.00  0.00    -0.487 C  
BRANCH  13  14
HETATM   14  C   UNL     1     -11.611  10.946  70.197  1.00  0.00    -0.425 C  
BRANCH  14  15
HETATM   15  C   UNL     1     -10.589  10.281  69.280  1.00  0.00    -0.254 C  
BRANCH  15  16
HETATM   16  C   UNL     1     -11.084  10.286  67.833  1.00  0.00    -0.341 C  
HETATM   17  C   UNL     1     -10.453   9.163  67.026  1.00  0.00    -0.311 C  
ENDBRANCH  15  16
ENDBRANCH  14  15
ENDBRANCH  13  14
ENDBRANCH  12  13
ENDBRANCH  11  12
ENDBRANCH   9  11
ENDBRANCH   8   9
ENDBRANCH   7   8
ENDBRANCH   5   7
ENDBRANCH   2   5
TORSDOF 10
ENDMDL
MODEL      312
REMARK 921   NORMALIZED FREE ENERGY PREDICTED BY IDOCK:   -2.50 KCAL/MOL
REMARK 922        TOTAL FREE ENERGY PREDICTED BY IDOCK:   -4.45 KCAL/MOL
REMARK 923 INTER-LIGAND FREE ENERGY PREDICTED BY IDOCK:   -3.92 KCAL/MOL
REMARK 924 INTRA-LIGAND FREE ENERGY PREDICTED BY IDOCK:   -0.53 KCAL/MOL
REMARK 927      BINDING AFFINITY PREDICTED BY RF-SCORE:    0.00 PKD
ROOT
HETATM    1  N   UNL     1     -11.275   6.597  66.858  1.00  0.00    -0.784 NA 
HETATM    2  C   UNL     1     -10.491   7.768  67.254  1.00  0.00    -0.322 C  
HETATM    3  H1  UNL     1     -12.223   6.874  66.604  1.00  0.00     0.000 HD 
HETATM    4  H2  UNL     1     -11.268   5.875  67.578  1.00  0.00     0.000 HD 
ENDROOT
BRANCH   2   5
HETATM    5  C   UNL     1      -9.067   7.353  67.635  1.00  0.00    -0.125 C  
HETATM    6  O   UNL     1      -8.841   6.408  68.390  1.00  0.00    -0.120 OA 
BRANCH   5   7
HETATM    7  C   UNL     1      -7.962   8.134  66.957  1.00  0.00    -0.104 C  
BRANCH   7   8
HETATM    8  C   UNL     1      -7.854   7.824  65.470  1.00  0.00    -0.111 C  
BRANCH   8   9
HETATM    9  C   UNL     1      -7.958   9.045  64.585  1.00  0.00    -0.128 C  
HETATM   10  O   UNL     1      -6.998   9.665  64.156  1.00  0.00    -0.105 OA 
BRANCH   9  11
HETATM   11  O   UNL     1      -9.254   9.456  64.490  1.00  0.00    -0.216 OA 
BRANCH  11  12
HETATM   12  C   UNL     1      -9.438  10.863  64.654  1.00  0.00    -0.244 C  
BRANCH  12  13
HETATM   13  C   UNL     1      -9.977  11.204  66.034  1.00  0.00    -0.280 C  
BRANCH  13  14
HETATM   14  C   UNL     1     -11.497  11.321  65.960  1.00  0.00     0.127 C  
BRANCH  14  15
HETATM   15  C   UNL     1     -11.961  12.744  65.663  1.00  0.00    -0.503 C  
BRANCH  15  16
HETATM   16  C   UNL     1     -11.884  13.031  64.163  1.00  0.00    -0.478 C  
HETATM   17  C   UNL     1     -12.738  12.058  63.366  1.00  0.00    -0.527 C  
ENDBRANCH  15  16
ENDBRANCH  14  15
ENDBRANCH  13  14
ENDBRANCH  12  13
ENDBRANCH  11  12
ENDBRANCH   9  11
ENDBRANCH   8   9
ENDBRANCH   7   8
ENDBRANCH   5   7
ENDBRANCH   2   5
TORSDOF 10
ENDMDL
MODEL      313
REMARK 921   NORMALIZED FREE ENERGY PREDICTED BY IDOCK:   -2.49 KCAL/MOL
REMARK 922        TOTAL FREE ENERGY PREDICTED BY IDOCK:   -4.42 KCAL/MOL
REMARK 923 INTER-LIGAND FREE ENERGY PREDICTED BY IDOCK:   -3.71 KCAL/MOL
REMARK 924 INTRA-LIGAND FREE ENERGY PREDICTED BY IDOCK:   -0.72 KCAL/MOL
REMARK 927      BINDING AFFINITY PREDICTED BY RF-SCORE:    0.00 PKD
ROOT
HETATM    1  N   UNL     1      -9.271   8.630  64.916  1.00  0.00    -0.390 NA 
HETATM    2  C   UNL     1      -8.994   7.917  66.163  1.00  0.00    -0.175 C  
HETATM    3  H1  UNL     1      -8.420   8.717  64.360  1.00  0.00     0.000 HD 
HETATM    4  H2  UNL     1      -9.709   9.535  65.086  1.00  0.00     0.000 HD 
ENDROOT
BRANCH   2   5
HETATM    5  C   UNL     1     -10.271   7.785  66.998  1.00  0.00    -0.305 C  
HETATM    6  O   UNL     1     -10.705   8.713  67.679  1.00  0.00    -0.224 OA 
BRANCH   5   7
HETATM    7  C   UNL     1     -10.999   6.465  66.865  1.00  0.00    -0.413 C  
BRANCH   7   8
HETATM    8  C   UNL     1     -10.279   5.326  67.576  1.00  0.00    -0.229 C  
BRANCH   8   9
HETATM    9  C   UNL     1     -10.169   5.516  69.071  1.00  0.00    -0.228 C  
HETATM   10  O   UNL     1     -11.105   5.817  69.796  1.00  0.00    -0.369 OA 
BRANCH   9  11
HETATM   11  O   UNL     1      -8.863   5.487  69.461  1.00  0.00    -0.106 OA 
BRANCH  11  12
HETATM   12  C   UNL     1      -8.340   6.755  69.861  1.00  0.00    -0.135 C  
BRANCH  12  13
HETATM   13  C   UNL     1      -7.374   6.625  71.026  1.00  0.00    -0.079 C  
BRANCH  13  14
HETATM   14  C   UNL     1      -7.985   7.291  72.257  1.00  0.00    -0.103 C  
BRANCH  14  15
HETATM   15  C   UNL     1      -9.289   6.630  72.693  1.00  0.00    -0.149 C  
BRANCH  15  16
HETATM   16  C   UNL     1     -10.186   7.638  73.413  1.00  0.00    -0.375 C  
HETATM   17  C   UNL     1     -11.021   8.442  72.428  1.00  0.00    -0.425 C  
ENDBRANCH  15  16
ENDBRANCH  14  15
ENDBRANCH  13  14
ENDBRANCH  12  13
ENDBRANCH  11  12
ENDBRANCH   9  11
ENDBRANCH   8   9
ENDBRANCH   7   8
ENDBRANCH   5   7
ENDBRANCH   2   5
TORSDOF 10
ENDMDL
MODEL      314
REMARK 921   NORMALIZED FREE ENERGY PREDICTED BY IDOCK:   -2.48 KCAL/MOL
REMARK 922        TOTAL FREE ENERGY PREDICTED BY IDOCK:   -4.41 KCAL/MOL
REMARK 923 INTER-LIGAND FREE ENERGY PREDICTED BY IDOCK:   -3.94 KCAL/MOL
REMARK 924 INTRA-LIGAND FREE ENERGY PREDICTED BY IDOCK:   -0.46 KCAL/MOL
REMARK 927      BINDING AFFINITY PREDICTED BY RF-SCORE:    0.00 PKD
ROOT
HETATM    1  N   UNL     1      -8.510   8.396  64.155  1.00  0.00    -0.379 NA 
HETATM    2  C   UNL     1      -7.792   8.006  65.369  1.00  0.00    -0.106 C  
HETATM    3  H1  UNL     1      -8.149   9.281  63.797  1.00  0.00     0.000 HD 
HETATM    4  H2  UNL     1      -9.518   8.428  64.304  1.00  0.00     0.000 HD 
ENDROOT
BRANCH   2   5
HETATM    5  C   UNL     1      -8.333   6.677  65.906  1.00  0.00    -0.137 C  
HETATM    6  O   UNL     1      -8.725   5.781  65.159  1.00  0.00    -0.142 OA 
BRANCH   5   7
HETATM    7  C   UNL     1      -8.277   6.516  67.409  1.00  0.00    -0.121 C  
BRANCH   7   8
HETATM    8  C   UNL     1      -9.541   7.013  68.098  1.00  0.00    -0.131 C  
BRANCH   8   9
HETATM    9  C   UNL     1      -9.301   8.154  69.060  1.00  0.00    -0.147 C  
HETATM   10  O   UNL     1      -8.591   9.117  68.818  1.00  0.00    -0.128 OA 
BRANCH   9  11
HETATM   11  O   UNL     1      -9.832   7.867  70.282  1.00  0.00    -0.183 OA 
BRANCH  11  12
HETATM   12  C   UNL     1     -11.171   7.372  70.241  1.00  0.00    -0.247 C  
BRANCH  12  13
HETATM   13  C   UNL     1     -12.001   7.889  71.404  1.00  0.00    -0.331 C  
BRANCH  13  14
HETATM   14  C   UNL     1     -11.515   9.287  71.780  1.00  0.00    -0.448 C  
BRANCH  14  15
HETATM   15  C   UNL     1     -12.265  10.387  71.036  1.00  0.00    -0.498 C  
BRANCH  15  16
HETATM   16  C   UNL     1     -13.375  10.968  71.914  1.00  0.00    -0.423 C  
HETATM   17  C   UNL     1     -13.225  12.472  72.077  1.00  0.00    -0.524 C  
ENDBRANCH  15  16
ENDBRANCH  14  15
ENDBRANCH  13  14
ENDBRANCH  12  13
ENDBRANCH  11  12
ENDBRANCH   9  11
ENDBRANCH   8   9
ENDBRANCH   7   8
ENDBRANCH   5   7
ENDBRANCH   2   5
TORSDOF 10
ENDMDL
MODEL      315
REMARK 921   NORMALIZED FREE ENERGY PREDICTED BY IDOCK:   -2.47 KCAL/MOL
REMARK 922        TOTAL FREE ENERGY PREDICTED BY IDOCK:   -4.39 KCAL/MOL
REMARK 923 INTER-LIGAND FREE ENERGY PREDICTED BY IDOCK:   -3.74 KCAL/MOL
REMARK 924 INTRA-LIGAND FREE ENERGY PREDICTED BY IDOCK:   -0.65 KCAL/MOL
REMARK 927      BINDING AFFINITY PREDICTED BY RF-SCORE:    0.00 PKD
ROOT
HETATM    1  N   UNL     1     -11.467   6.597  67.270  1.00  0.00    -0.749 NA 
HETATM    2  C   UNL     1     -10.395   5.784  67.844  1.00  0.00    -0.214 C  
HETATM    3  H1  UNL     1     -12.293   6.024  67.096  1.00  0.00     0.000 HD 
HETATM    4  H2  UNL     1     -11.161   7.090  66.431  1.00  0.00     0.000 HD 
ENDROOT
BRANCH   2   5
HETATM    5  C   UNL     1      -9.154   6.644  68.106  1.00  0.00    -0.119 C  
HETATM    6  O   UNL     1      -8.752   7.476  67.294  1.00  0.00    -0.120 OA 
BRANCH   5   7
HETATM    7  C   UNL     1      -8.509   6.454  69.462  1.00  0.00    -0.133 C  
BRANCH   7   8
HETATM    8  C   UNL     1      -8.519   5.000  69.915  1.00  0.00    -0.092 C  
BRANCH   8   9
HETATM    9  C   UNL     1      -8.838   4.822  71.382  1.00  0.00    -0.128 C  
HETATM   10  O   UNL     1      -9.335   3.814  71.858  1.00  0.00    -0.117 OA 
BRANCH   9  11
HETATM   11  O   UNL     1      -8.667   5.996  72.053  1.00  0.00    -0.136 OA 
BRANCH  11  12
HETATM   12  C   UNL     1      -9.520   6.154  73.188  1.00  0.00    -0.138 C  
BRANCH  12  13
HETATM   13  C   UNL     1      -9.904   7.608  73.407  1.00  0.00    -0.362 C  
BRANCH  13  14
HETATM   14  C   UNL     1     -11.346   7.817  72.949  1.00  0.00    -0.406 C  
BRANCH  14  15
HETATM   15  C   UNL     1     -11.454   8.048  71.445  1.00  0.00    -0.293 C  
BRANCH  15  16
HETATM   16  C   UNL     1     -12.733   8.818  71.112  1.00  0.00    -0.171 C  
HETATM   17  C   UNL     1     -12.680  10.240  71.647  1.00  0.00    -0.561 C  
ENDBRANCH  15  16
ENDBRANCH  14  15
ENDBRANCH  13  14
ENDBRANCH  12  13
ENDBRANCH  11  12
ENDBRANCH   9  11
ENDBRANCH   8   9
ENDBRANCH   7   8
ENDBRANCH   5   7
ENDBRANCH   2   5
TORSDOF 10
ENDMDL
MODEL      316
REMARK 921   NORMALIZED FREE ENERGY PREDICTED BY IDOCK:   -2.47 KCAL/MOL
REMARK 922        TOTAL FREE ENERGY PREDICTED BY IDOCK:   -4.39 KCAL/MOL
REMARK 923 INTER-LIGAND FREE ENERGY PREDICTED BY IDOCK:   -3.43 KCAL/MOL
REMARK 924 INTRA-LIGAND FREE ENERGY PREDICTED BY IDOCK:   -0.97 KCAL/MOL
REMARK 927      BINDING AFFINITY PREDICTED BY RF-SCORE:    0.00 PKD
ROOT
HETATM    1  N   UNL     1      -8.792   4.865  68.102  1.00  0.00    -0.102 NA 
HETATM    2  C   UNL     1      -9.818   4.822  69.144  1.00  0.00    -0.184 C  
HETATM    3  H1  UNL     1      -8.073   4.164  68.282  1.00  0.00     0.000 HD 
HETATM    4  H2  UNL     1      -8.395   5.798  67.998  1.00  0.00     0.000 HD 
ENDROOT
BRANCH   2   5
HETATM    5  C   UNL     1     -10.897   5.874  68.874  1.00  0.00    -0.303 C  
HETATM    6  O   UNL     1     -11.688   6.239  69.744  1.00  0.00    -0.403 OA 
BRANCH   5   7
HETATM    7  C   UNL     1     -10.872   6.488  67.491  1.00  0.00    -0.433 C  
BRANCH   7   8
HETATM    8  C   UNL     1     -10.597   7.986  67.521  1.00  0.00    -0.302 C  
BRANCH   8   9
HETATM    9  C   UNL     1      -9.192   8.338  67.953  1.00  0.00    -0.132 C  
HETATM   10  O   UNL     1      -8.183   7.947  67.387  1.00  0.00    -0.120 OA 
BRANCH   9  11
HETATM   11  O   UNL     1      -9.210   8.988  69.150  1.00  0.00    -0.142 OA 
BRANCH  11  12
HETATM   12  C   UNL     1      -7.957   8.991  69.836  1.00  0.00    -0.103 C  
BRANCH  12  13
HETATM   13  C   UNL     1      -7.767   7.736  70.671  1.00  0.00    -0.091 C  
BRANCH  13  14
HETATM   14  C   UNL     1      -8.991   7.539  71.562  1.00  0.00    -0.142 C  
BRANCH  14  15
HETATM   15  C   UNL     1      -8.888   8.307  72.876  1.00  0.00    -0.302 C  
BRANCH  15  16
HETATM   16  C   UNL     1      -9.078   7.364  74.064  1.00  0.00    -0.289 C  
HETATM   17  C   UNL     1     -10.384   6.592  73.958  1.00  0.00    -0.377 C  
ENDBRANCH  15  16
ENDBRANCH  14  15
ENDBRANCH  13  14
ENDBRANCH  12  13
ENDBRANCH  11  12
ENDBRANCH   9  11
ENDBRANCH   8   9
ENDBRANCH   7   8
ENDBRANCH   5   7
ENDBRANCH   2   5
TORSDOF 10
ENDMDL
MODEL      317
REMARK 921   NORMALIZED FREE ENERGY PREDICTED BY IDOCK:   -2.46 KCAL/MOL
REMARK 922        TOTAL FREE ENERGY PREDICTED BY IDOCK:   -4.38 KCAL/MOL
REMARK 923 INTER-LIGAND FREE ENERGY PREDICTED BY IDOCK:   -3.86 KCAL/MOL
REMARK 924 INTRA-LIGAND FREE ENERGY PREDICTED BY IDOCK:   -0.52 KCAL/MOL
REMARK 927      BINDING AFFINITY PREDICTED BY RF-SCORE:    0.00 PKD
ROOT
HETATM    1  N   UNL     1     -10.776   7.219  73.927  1.00  0.00    -0.556 NA 
HETATM    2  C   UNL     1     -11.392   6.378  72.900  1.00  0.00    -0.134 C  
HETATM    3  H1  UNL     1     -11.092   6.936  74.854  1.00  0.00     0.000 HD 
HETATM    4  H2  UNL     1     -10.941   8.211  73.755  1.00  0.00     0.000 HD 
ENDROOT
BRANCH   2   5
HETATM    5  C   UNL     1     -10.918   6.803  71.507  1.00  0.00    -0.240 C  
HETATM    6  O   UNL     1      -9.867   6.389  71.019  1.00  0.00    -0.179 OA 
BRANCH   5   7
HETATM    7  C   UNL     1     -11.869   7.701  70.745  1.00  0.00    -0.227 C  
BRANCH   7   8
HETATM    8  C   UNL     1     -11.673   9.175  71.076  1.00  0.00    -0.363 C  
BRANCH   8   9
HETATM    9  C   UNL     1     -10.616   9.852  70.235  1.00  0.00    -0.301 C  
HETATM   10  O   UNL     1      -9.414   9.736  70.419  1.00  0.00    -0.247 OA 
BRANCH   9  11
HETATM   11  O   UNL     1     -11.187  10.742  69.376  1.00  0.00    -0.233 OA 
BRANCH  11  12
HETATM   12  C   UNL     1     -11.263  10.288  68.024  1.00  0.00    -0.235 C  
BRANCH  12  13
HETATM   13  C   UNL     1      -9.924   9.769  67.526  1.00  0.00    -0.230 C  
BRANCH  13  14
HETATM   14  C   UNL     1     -10.165   8.583  66.595  1.00  0.00    -0.345 C  
BRANCH  14  15
HETATM   15  C   UNL     1     -10.997   7.484  67.250  1.00  0.00    -0.178 C  
BRANCH  15  16
HETATM   16  C   UNL     1     -10.249   6.151  67.212  1.00  0.00    -0.236 C  
HETATM   17  C   UNL     1      -8.996   6.241  66.355  1.00  0.00    -0.159 C  
ENDBRANCH  15  16
ENDBRANCH  14  15
ENDBRANCH  13  14
ENDBRANCH  12  13
ENDBRANCH  11  12
ENDBRANCH   9  11
ENDBRANCH   8   9
ENDBRANCH   7   8
ENDBRANCH   5   7
ENDBRANCH   2   5
TORSDOF 10
ENDMDL
MODEL      318
REMARK 921   NORMALIZED FREE ENERGY PREDICTED BY IDOCK:   -2.45 KCAL/MOL
REMARK 922        TOTAL FREE ENERGY PREDICTED BY IDOCK:   -4.37 KCAL/MOL
REMARK 923 INTER-LIGAND FREE ENERGY PREDICTED BY IDOCK:   -3.49 KCAL/MOL
REMARK 924 INTRA-LIGAND FREE ENERGY PREDICTED BY IDOCK:   -0.88 KCAL/MOL
REMARK 927      BINDING AFFINITY PREDICTED BY RF-SCORE:    0.00 PKD
ROOT
HETATM    1  N   UNL     1     -11.285   5.639  66.166  1.00  0.00    -0.735 NA 
HETATM    2  C   UNL     1     -10.181   5.114  66.970  1.00  0.00    -0.223 C  
HETATM    3  H1  UNL     1     -11.381   5.105  65.302  1.00  0.00     0.000 HD 
HETATM    4  H2  UNL     1     -11.184   6.638  65.988  1.00  0.00     0.000 HD 
ENDROOT
BRANCH   2   5
HETATM    5  C   UNL     1     -10.037   5.915  68.267  1.00  0.00    -0.166 C  
HETATM    6  O   UNL     1     -10.986   6.104  69.027  1.00  0.00    -0.312 OA 
BRANCH   5   7
HETATM    7  C   UNL     1      -8.635   6.386  68.585  1.00  0.00    -0.123 C  
BRANCH   7   8
HETATM    8  C   UNL     1      -8.123   5.844  69.914  1.00  0.00    -0.116 C  
BRANCH   8   9
HETATM    9  C   UNL     1      -7.693   6.919  70.885  1.00  0.00    -0.092 C  
HETATM   10  O   UNL     1      -7.290   6.700  72.017  1.00  0.00    -0.087 OA 
BRANCH   9  11
HETATM   11  O   UNL     1      -7.991   8.154  70.391  1.00  0.00    -0.094 OA 
BRANCH  11  12
HETATM   12  C   UNL     1      -8.664   9.010  71.315  1.00  0.00    -0.171 C  
BRANCH  12  13
HETATM   13  C   UNL     1     -10.092   9.297  70.882  1.00  0.00    -0.373 C  
BRANCH  13  14
HETATM   14  C   UNL     1     -10.067  10.134  69.605  1.00  0.00    -0.265 C  
BRANCH  14  15
HETATM   15  C   UNL     1     -10.783   9.451  68.444  1.00  0.00    -0.213 C  
BRANCH  15  16
HETATM   16  C   UNL     1      -9.906   9.464  67.191  1.00  0.00    -0.242 C  
HETATM   17  C   UNL     1     -10.351  10.538  66.212  1.00  0.00    -0.276 C  
ENDBRANCH  15  16
ENDBRANCH  14  15
ENDBRANCH  13  14
ENDBRANCH  12  13
ENDBRANCH  11  12
ENDBRANCH   9  11
ENDBRANCH   8   9
ENDBRANCH   7   8
ENDBRANCH   5   7
ENDBRANCH   2   5
TORSDOF 10
ENDMDL
MODEL      319
REMARK 921   NORMALIZED FREE ENERGY PREDICTED BY IDOCK:   -2.43 KCAL/MOL
REMARK 922        TOTAL FREE ENERGY PREDICTED BY IDOCK:   -4.34 KCAL/MOL
REMARK 923 INTER-LIGAND FREE ENERGY PREDICTED BY IDOCK:   -3.70 KCAL/MOL
REMARK 924 INTRA-LIGAND FREE ENERGY PREDICTED BY IDOCK:   -0.64 KCAL/MOL
REMARK 927      BINDING AFFINITY PREDICTED BY RF-SCORE:    0.00 PKD
ROOT
HETATM    1  N   UNL     1     -11.047   7.841  70.716  1.00  0.00    -0.254 NA 
HETATM    2  C   UNL     1     -11.416   6.544  70.149  1.00  0.00    -0.415 C  
HETATM    3  H1  UNL     1     -11.591   8.587  70.282  1.00  0.00     0.000 HD 
HETATM    4  H2  UNL     1     -10.044   8.013  70.648  1.00  0.00     0.000 HD 
ENDROOT
BRANCH   2   5
HETATM    5  C   UNL     1     -10.600   5.424  70.800  1.00  0.00    -0.223 C  
HETATM    6  O   UNL     1     -10.709   5.145  71.994  1.00  0.00    -0.218 OA 
BRANCH   5   7
HETATM    7  C   UNL     1      -9.712   4.639  69.860  1.00  0.00    -0.279 C  
BRANCH   7   8
HETATM    8  C   UNL     1      -8.589   5.484  69.273  1.00  0.00    -0.104 C  
BRANCH   8   9
HETATM    9  C   UNL     1      -8.631   5.589  67.766  1.00  0.00    -0.108 C  
HETATM   10  O   UNL     1      -8.937   4.670  67.022  1.00  0.00    -0.110 OA 
BRANCH   9  11
HETATM   11  O   UNL     1      -8.107   6.779  67.356  1.00  0.00    -0.116 OA 
BRANCH  11  12
HETATM   12  C   UNL     1      -8.843   7.924  67.787  1.00  0.00    -0.122 C  
BRANCH  12  13
HETATM   13  C   UNL     1     -10.178   8.041  67.071  1.00  0.00    -0.374 C  
BRANCH  13  14
HETATM   14  C   UNL     1     -10.508   9.518  66.868  1.00  0.00    -0.279 C  
BRANCH  14  15
HETATM   15  C   UNL     1      -9.878  10.089  65.601  1.00  0.00    -0.363 C  
BRANCH  15  16
HETATM   16  C   UNL     1     -10.704  11.264  65.075  1.00  0.00    -0.322 C  
HETATM   17  C   UNL     1     -11.366  12.030  66.210  1.00  0.00    -0.415 C  
ENDBRANCH  15  16
ENDBRANCH  14  15
ENDBRANCH  13  14
ENDBRANCH  12  13
ENDBRANCH  11  12
ENDBRANCH   9  11
ENDBRANCH   8   9
ENDBRANCH   7   8
ENDBRANCH   5   7
ENDBRANCH   2   5
TORSDOF 10
ENDMDL
MODEL      320
REMARK 921   NORMALIZED FREE ENERGY PREDICTED BY IDOCK:   -2.43 KCAL/MOL
REMARK 922        TOTAL FREE ENERGY PREDICTED BY IDOCK:   -4.34 KCAL/MOL
REMARK 923 INTER-LIGAND FREE ENERGY PREDICTED BY IDOCK:   -3.15 KCAL/MOL
REMARK 924 INTRA-LIGAND FREE ENERGY PREDICTED BY IDOCK:   -1.19 KCAL/MOL
REMARK 927      BINDING AFFINITY PREDICTED BY RF-SCORE:    0.00 PKD
ROOT
HETATM    1  N   UNL     1      -7.242  10.031  68.789  1.00  0.00    -0.074 NA 
HETATM    2  C   UNL     1      -7.538   8.644  69.147  1.00  0.00    -0.089 C  
HETATM    3  H1  UNL     1      -6.537  10.418  69.417  1.00  0.00     0.000 HD 
HETATM    4  H2  UNL     1      -8.085  10.605  68.763  1.00  0.00     0.000 HD 
ENDROOT
BRANCH   2   5
HETATM    5  C   UNL     1      -8.595   8.063  68.204  1.00  0.00    -0.126 C  
HETATM    6  O   UNL     1      -8.886   6.867  68.205  1.00  0.00    -0.123 OA 
BRANCH   5   7
HETATM    7  C   UNL     1      -9.309   9.071  67.331  1.00  0.00    -0.167 C  
BRANCH   7   8
HETATM    8  C   UNL     1     -10.724   9.365  67.814  1.00  0.00    -0.290 C  
BRANCH   8   9
HETATM    9  C   UNL     1     -10.799  10.475  68.837  1.00  0.00    -0.235 C  
HETATM   10  O   UNL     1     -10.068  11.453  68.843  1.00  0.00    -0.204 OA 
BRANCH   9  11
HETATM   11  O   UNL     1     -11.660  10.142  69.839  1.00  0.00    -0.253 OA 
BRANCH  11  12
HETATM   12  C   UNL     1     -11.337   8.923  70.511  1.00  0.00    -0.234 C  
BRANCH  12  13
HETATM   13  C   UNL     1     -10.257   9.125  71.560  1.00  0.00    -0.403 C  
BRANCH  13  14
HETATM   14  C   UNL     1      -9.874   7.768  72.148  1.00  0.00    -0.242 C  
BRANCH  14  15
HETATM   15  C   UNL     1     -10.595   6.610  71.465  1.00  0.00    -0.251 C  
BRANCH  15  16
HETATM   16  C   UNL     1      -9.659   5.410  71.316  1.00  0.00    -0.205 C  
HETATM   17  C   UNL     1     -10.117   4.239  72.171  1.00  0.00    -0.255 C  
ENDBRANCH  15  16
ENDBRANCH  14  15
ENDBRANCH  13  14
ENDBRANCH  12  13
ENDBRANCH  11  12
ENDBRANCH   9  11
ENDBRANCH   8   9
ENDBRANCH   7   8
ENDBRANCH   5   7
ENDBRANCH   2   5
TORSDOF 10
ENDMDL
MODEL      321
REMARK 921   NORMALIZED FREE ENERGY PREDICTED BY IDOCK:   -2.42 KCAL/MOL
REMARK 922        TOTAL FREE ENERGY PREDICTED BY IDOCK:   -4.32 KCAL/MOL
REMARK 923 INTER-LIGAND FREE ENERGY PREDICTED BY IDOCK:   -3.73 KCAL/MOL
REMARK 924 INTRA-LIGAND FREE ENERGY PREDICTED BY IDOCK:   -0.59 KCAL/MOL
REMARK 927      BINDING AFFINITY PREDICTED BY RF-SCORE:    0.00 PKD
ROOT
HETATM    1  N   UNL     1      -9.497   2.215  70.445  1.00  0.00    -0.119 NA 
HETATM    2  C   UNL     1      -9.801   2.892  71.706  1.00  0.00    -0.148 C  
HETATM    3  H1  UNL     1      -9.873   1.266  70.452  1.00  0.00     0.000 HD 
HETATM    4  H2  UNL     1      -8.499   2.227  70.239  1.00  0.00     0.000 HD 
ENDROOT
BRANCH   2   5
HETATM    5  C   UNL     1      -9.237   4.316  71.697  1.00  0.00    -0.132 C  
HETATM    6  O   UNL     1      -8.168   4.599  72.236  1.00  0.00    -0.109 OA 
BRANCH   5   7
HETATM    7  C   UNL     1     -10.046   5.327  70.914  1.00  0.00    -0.295 C  
BRANCH   7   8
HETATM    8  C   UNL     1     -11.047   6.075  71.785  1.00  0.00    -0.332 C  
BRANCH   8   9
HETATM    9  C   UNL     1     -10.406   7.006  72.788  1.00  0.00    -0.222 C  
HETATM   10  O   UNL     1     -10.816   7.179  73.925  1.00  0.00    -0.258 OA 
BRANCH   9  11
HETATM   11  O   UNL     1      -9.432   7.751  72.192  1.00  0.00    -0.148 OA 
BRANCH  11  12
HETATM   12  C   UNL     1      -9.883   9.005  71.678  1.00  0.00    -0.296 C  
BRANCH  12  13
HETATM   13  C   UNL     1      -9.682   9.104  70.175  1.00  0.00    -0.234 C  
BRANCH  13  14
HETATM   14  C   UNL     1     -10.870   9.841  69.561  1.00  0.00    -0.264 C  
BRANCH  14  15
HETATM   15  C   UNL     1     -11.645  10.660  70.588  1.00  0.00    -0.432 C  
BRANCH  15  16
HETATM   16  C   UNL     1     -13.048  10.084  70.786  1.00  0.00    -0.316 C  
HETATM   17  C   UNL     1     -13.390   9.948  72.261  1.00  0.00    -0.429 C  
ENDBRANCH  15  16
ENDBRANCH  14  15
ENDBRANCH  13  14
ENDBRANCH  12  13
ENDBRANCH  11  12
ENDBRANCH   9  11
ENDBRANCH   8   9
ENDBRANCH   7   8
ENDBRANCH   5   7
ENDBRANCH   2   5
TORSDOF 10
ENDMDL
MODEL      322
REMARK 921   NORMALIZED FREE ENERGY PREDICTED BY IDOCK:   -2.42 KCAL/MOL
REMARK 922        TOTAL FREE ENERGY PREDICTED BY IDOCK:   -4.31 KCAL/MOL
REMARK 923 INTER-LIGAND FREE ENERGY PREDICTED BY IDOCK:   -3.83 KCAL/MOL
REMARK 924 INTRA-LIGAND FREE ENERGY PREDICTED BY IDOCK:   -0.49 KCAL/MOL
REMARK 927      BINDING AFFINITY PREDICTED BY RF-SCORE:    0.00 PKD
ROOT
HETATM    1  N   UNL     1     -12.542  10.768  69.155  1.00  0.00    -0.654 NA 
HETATM    2  C   UNL     1     -11.638  10.635  70.297  1.00  0.00    -0.336 C  
HETATM    3  H1  UNL     1     -12.021  11.036  68.319  1.00  0.00     0.000 HD 
HETATM    4  H2  UNL     1     -13.307  11.414  69.349  1.00  0.00     0.000 HD 
ENDROOT
BRANCH   2   5
HETATM    5  C   UNL     1     -12.419  10.234  71.552  1.00  0.00    -0.422 C  
HETATM    6  O   UNL     1     -13.175  11.014  72.129  1.00  0.00    -0.481 OA 
BRANCH   5   7
HETATM    7  C   UNL     1     -12.256   8.792  71.983  1.00  0.00    -0.447 C  
BRANCH   7   8
HETATM    8  C   UNL     1     -11.064   8.115  71.319  1.00  0.00    -0.287 C  
BRANCH   8   9
HETATM    9  C   UNL     1     -10.793   6.720  71.834  1.00  0.00    -0.232 C  
HETATM   10  O   UNL     1     -11.142   6.313  72.931  1.00  0.00    -0.254 OA 
BRANCH   9  11
HETATM   11  O   UNL     1      -9.956   6.055  70.989  1.00  0.00    -0.180 OA 
BRANCH  11  12
HETATM   12  C   UNL     1      -9.125   6.903  70.195  1.00  0.00    -0.152 C  
BRANCH  12  13
HETATM   13  C   UNL     1      -9.173   6.524  68.724  1.00  0.00    -0.131 C  
BRANCH  13  14
HETATM   14  C   UNL     1      -8.265   7.467  67.937  1.00  0.00    -0.123 C  
BRANCH  14  15
HETATM   15  C   UNL     1      -6.914   6.841  67.609  1.00  0.00    -0.083 C  
BRANCH  15  16
HETATM   16  C   UNL     1      -5.794   7.553  68.370  1.00  0.00    -0.027 C  
HETATM   17  C   UNL     1      -5.419   6.802  69.637  1.00  0.00    -0.015 C  
ENDBRANCH  15  16
ENDBRANCH  14  15
ENDBRANCH  13  14
ENDBRANCH  12  13
ENDBRANCH  11  12
ENDBRANCH   9  11
ENDBRANCH   8   9
ENDBRANCH   7   8
ENDBRANCH   5   7
ENDBRANCH   2   5
TORSDOF 10
ENDMDL
MODEL      323
REMARK 921   NORMALIZED FREE ENERGY PREDICTED BY IDOCK:   -2.41 KCAL/MOL
REMARK 922        TOTAL FREE ENERGY PREDICTED BY IDOCK:   -4.31 KCAL/MOL
REMARK 923 INTER-LIGAND FREE ENERGY PREDICTED BY IDOCK:   -4.05 KCAL/MOL
REMARK 924 INTRA-LIGAND FREE ENERGY PREDICTED BY IDOCK:   -0.26 KCAL/MOL
REMARK 927      BINDING AFFINITY PREDICTED BY RF-SCORE:    0.00 PKD
ROOT
HETATM    1  N   UNL     1      -7.312   2.374  71.625  1.00  0.00    -0.039 NA 
HETATM    2  C   UNL     1      -8.668   2.801  71.280  1.00  0.00    -0.067 C  
HETATM    3  H1  UNL     1      -7.243   1.356  71.597  1.00  0.00     0.000 HD 
HETATM    4  H2  UNL     1      -7.012   2.751  72.524  1.00  0.00     0.000 HD 
ENDROOT
BRANCH   2   5
HETATM    5  C   UNL     1      -8.773   4.329  71.321  1.00  0.00    -0.102 C  
HETATM    6  O   UNL     1      -7.837   5.058  70.994  1.00  0.00    -0.087 OA 
BRANCH   5   7
HETATM    7  C   UNL     1     -10.128   4.875  71.716  1.00  0.00    -0.267 C  
BRANCH   7   8
HETATM    8  C   UNL     1     -10.813   5.618  70.577  1.00  0.00    -0.315 C  
BRANCH   8   9
HETATM    9  C   UNL     1     -11.604   6.824  71.027  1.00  0.00    -0.339 C  
HETATM   10  O   UNL     1     -12.574   6.771  71.768  1.00  0.00    -0.357 OA 
BRANCH   9  11
HETATM   11  O   UNL     1     -11.203   7.938  70.351  1.00  0.00    -0.269 OA 
BRANCH  11  12
HETATM   12  C   UNL     1     -11.743   9.159  70.857  1.00  0.00    -0.284 C  
BRANCH  12  13
HETATM   13  C   UNL     1     -11.054  10.373  70.257  1.00  0.00    -0.379 C  
BRANCH  13  14
HETATM   14  C   UNL     1     -12.074  11.180  69.457  1.00  0.00    -0.396 C  
BRANCH  14  15
HETATM   15  C   UNL     1     -12.010  12.673  69.765  1.00  0.00    -0.365 C  
BRANCH  15  16
HETATM   16  C   UNL     1     -11.503  13.450  68.549  1.00  0.00    -0.345 C  
HETATM   17  C   UNL     1     -11.785  12.703  67.255  1.00  0.00    -0.435 C  
ENDBRANCH  15  16
ENDBRANCH  14  15
ENDBRANCH  13  14
ENDBRANCH  12  13
ENDBRANCH  11  12
ENDBRANCH   9  11
ENDBRANCH   8   9
ENDBRANCH   7   8
ENDBRANCH   5   7
ENDBRANCH   2   5
TORSDOF 10
ENDMDL
MODEL      324
REMARK 921   NORMALIZED FREE ENERGY PREDICTED BY IDOCK:   -2.39 KCAL/MOL
REMARK 922        TOTAL FREE ENERGY PREDICTED BY IDOCK:   -4.28 KCAL/MOL
REMARK 923 INTER-LIGAND FREE ENERGY PREDICTED BY IDOCK:   -3.61 KCAL/MOL
REMARK 924 INTRA-LIGAND FREE ENERGY PREDICTED BY IDOCK:   -0.66 KCAL/MOL
REMARK 927      BINDING AFFINITY PREDICTED BY RF-SCORE:    0.00 PKD
ROOT
HETATM    1  N   UNL     1     -12.917  10.143  70.727  1.00  0.00    -0.525 NA 
HETATM    2  C   UNL     1     -11.482  10.202  71.007  1.00  0.00    -0.354 C  
HETATM    3  H1  UNL     1     -13.256  11.052  70.411  1.00  0.00     0.000 HD 
HETATM    4  H2  UNL     1     -13.446   9.797  71.528  1.00  0.00     0.000 HD 
ENDROOT
BRANCH   2   5
HETATM    5  C   UNL     1     -10.974   8.837  71.481  1.00  0.00    -0.307 C  
HETATM    6  O   UNL     1     -11.608   8.142  72.274  1.00  0.00    -0.322 OA 
BRANCH   5   7
HETATM    7  C   UNL     1      -9.681   8.372  70.847  1.00  0.00    -0.212 C  
BRANCH   7   8
HETATM    8  C   UNL     1      -9.067   7.184  71.576  1.00  0.00    -0.143 C  
BRANCH   8   9
HETATM    9  C   UNL     1      -8.414   7.547  72.889  1.00  0.00    -0.125 C  
HETATM   10  O   UNL     1      -7.309   8.058  72.987  1.00  0.00    -0.097 OA 
BRANCH   9  11
HETATM   11  O   UNL     1      -9.141   7.062  73.934  1.00  0.00    -0.163 OA 
BRANCH  11  12
HETATM   12  C   UNL     1      -9.191   5.636  74.003  1.00  0.00    -0.126 C  
BRANCH  12  13
HETATM   13  C   UNL     1     -10.621   5.123  74.045  1.00  0.00    -0.335 C  
BRANCH  13  14
HETATM   14  C   UNL     1     -10.702   3.809  73.272  1.00  0.00    -0.287 C  
BRANCH  14  15
HETATM   15  C   UNL     1      -9.385   3.449  72.591  1.00  0.00    -0.150 C  
BRANCH  15  16
HETATM   16  C   UNL     1      -9.639   2.913  71.182  1.00  0.00    -0.226 C  
HETATM   17  C   UNL     1      -9.349   3.967  70.126  1.00  0.00    -0.240 C  
ENDBRANCH  15  16
ENDBRANCH  14  15
ENDBRANCH  13  14
ENDBRANCH  12  13
ENDBRANCH  11  12
ENDBRANCH   9  11
ENDBRANCH   8   9
ENDBRANCH   7   8
ENDBRANCH   5   7
ENDBRANCH   2   5
TORSDOF 10
ENDMDL
MODEL      325
REMARK 921   NORMALIZED FREE ENERGY PREDICTED BY IDOCK:   -2.39 KCAL/MOL
REMARK 922        TOTAL FREE ENERGY PREDICTED BY IDOCK:   -4.27 KCAL/MOL
REMARK 923 INTER-LIGAND FREE ENERGY PREDICTED BY IDOCK:   -3.74 KCAL/MOL
REMARK 924 INTRA-LIGAND FREE ENERGY PREDICTED BY IDOCK:   -0.53 KCAL/MOL
REMARK 927      BINDING AFFINITY PREDICTED BY RF-SCORE:    0.00 PKD
ROOT
HETATM    1  N   UNL     1     -11.140   3.111  64.058  1.00  0.00    -0.586 NA 
HETATM    2  C   UNL     1      -9.856   3.775  64.282  1.00  0.00    -0.186 C  
HETATM    3  H1  UNL     1     -11.105   2.546  63.209  1.00  0.00     0.000 HD 
HETATM    4  H2  UNL     1     -11.914   3.776  64.041  1.00  0.00     0.000 HD 
ENDROOT
BRANCH   2   5
HETATM    5  C   UNL     1      -9.909   4.623  65.556  1.00  0.00    -0.184 C  
HETATM    6  O   UNL     1     -10.972   5.000  66.048  1.00  0.00    -0.243 OA 
BRANCH   5   7
HETATM    7  C   UNL     1      -8.571   4.895  66.209  1.00  0.00    -0.115 C  
BRANCH   7   8
HETATM    8  C   UNL     1      -8.552   6.211  66.976  1.00  0.00    -0.108 C  
BRANCH   8   9
HETATM    9  C   UNL     1      -8.486   7.432  66.089  1.00  0.00    -0.145 C  
HETATM   10  O   UNL     1      -7.509   7.747  65.426  1.00  0.00    -0.074 OA 
BRANCH   9  11
HETATM   11  O   UNL     1      -9.584   8.217  66.274  1.00  0.00    -0.220 OA 
BRANCH  11  12
HETATM   12  C   UNL     1      -9.471   9.528  65.719  1.00  0.00    -0.250 C  
BRANCH  12  13
HETATM   13  C   UNL     1     -10.215  10.560  66.550  1.00  0.00    -0.288 C  
BRANCH  13  14
HETATM   14  C   UNL     1     -10.883   9.861  67.731  1.00  0.00    -0.321 C  
BRANCH  14  15
HETATM   15  C   UNL     1     -11.536  10.843  68.699  1.00  0.00    -0.380 C  
BRANCH  15  16
HETATM   16  C   UNL     1     -11.250  10.438  70.146  1.00  0.00    -0.393 C  
HETATM   17  C   UNL     1     -10.636   9.050  70.224  1.00  0.00    -0.250 C  
ENDBRANCH  15  16
ENDBRANCH  14  15
ENDBRANCH  13  14
ENDBRANCH  12  13
ENDBRANCH  11  12
ENDBRANCH   9  11
ENDBRANCH   8   9
ENDBRANCH   7   8
ENDBRANCH   5   7
ENDBRANCH   2   5
TORSDOF 10
ENDMDL
MODEL      326
REMARK 921   NORMALIZED FREE ENERGY PREDICTED BY IDOCK:   -2.39 KCAL/MOL
REMARK 922        TOTAL FREE ENERGY PREDICTED BY IDOCK:   -4.27 KCAL/MOL
REMARK 923 INTER-LIGAND FREE ENERGY PREDICTED BY IDOCK:   -3.90 KCAL/MOL
REMARK 924 INTRA-LIGAND FREE ENERGY PREDICTED BY IDOCK:   -0.37 KCAL/MOL
REMARK 927      BINDING AFFINITY PREDICTED BY RF-SCORE:    0.00 PKD
ROOT
HETATM    1  N   UNL     1      -9.613   5.214  65.063  1.00  0.00    -0.362 NA 
HETATM    2  C   UNL     1      -8.359   5.565  65.731  1.00  0.00    -0.129 C  
HETATM    3  H1  UNL     1      -9.656   4.208  64.895  1.00  0.00     0.000 HD 
HETATM    4  H2  UNL     1      -9.749   5.749  64.206  1.00  0.00     0.000 HD 
ENDROOT
BRANCH   2   5
HETATM    5  C   UNL     1      -8.293   7.074  65.984  1.00  0.00    -0.134 C  
HETATM    6  O   UNL     1      -7.544   7.812  65.345  1.00  0.00    -0.080 OA 
BRANCH   5   7
HETATM    7  C   UNL     1      -9.268   7.602  67.014  1.00  0.00    -0.168 C  
BRANCH   7   8
HETATM    8  C   UNL     1     -10.084   8.779  66.498  1.00  0.00    -0.349 C  
BRANCH   8   9
HETATM    9  C   UNL     1      -9.815  10.074  67.230  1.00  0.00    -0.181 C  
HETATM   10  O   UNL     1      -8.718  10.413  67.644  1.00  0.00    -0.119 OA 
BRANCH   9  11
HETATM   11  O   UNL     1     -10.985  10.709  67.521  1.00  0.00    -0.279 OA 
BRANCH  11  12
HETATM   12  C   UNL     1     -11.307  11.783  66.636  1.00  0.00    -0.316 C  
BRANCH  12  13
HETATM   13  C   UNL     1     -10.634  13.080  67.054  1.00  0.00    -0.262 C  
BRANCH  13  14
HETATM   14  C   UNL     1     -11.676  14.196  67.079  1.00  0.00    -0.430 C  
BRANCH  14  15
HETATM   15  C   UNL     1     -11.545  15.092  68.306  1.00  0.00    -0.357 C  
BRANCH  15  16
HETATM   16  C   UNL     1     -11.771  14.285  69.586  1.00  0.00    -0.362 C  
HETATM   17  C   UNL     1     -11.925  15.193  70.795  1.00  0.00    -0.376 C  
ENDBRANCH  15  16
ENDBRANCH  14  15
ENDBRANCH  13  14
ENDBRANCH  12  13
ENDBRANCH  11  12
ENDBRANCH   9  11
ENDBRANCH   8   9
ENDBRANCH   7   8
ENDBRANCH   5   7
ENDBRANCH   2   5
TORSDOF 10
ENDMDL
MODEL      327
REMARK 921   NORMALIZED FREE ENERGY PREDICTED BY IDOCK:   -2.38 KCAL/MOL
REMARK 922        TOTAL FREE ENERGY PREDICTED BY IDOCK:   -4.25 KCAL/MOL
REMARK 923 INTER-LIGAND FREE ENERGY PREDICTED BY IDOCK:   -4.01 KCAL/MOL
REMARK 924 INTRA-LIGAND FREE ENERGY PREDICTED BY IDOCK:   -0.24 KCAL/MOL
REMARK 927      BINDING AFFINITY PREDICTED BY RF-SCORE:    0.00 PKD
ROOT
HETATM    1  N   UNL     1      -9.617   2.389  66.982  1.00  0.00    -0.396 NA 
HETATM    2  C   UNL     1      -9.445   3.837  67.102  1.00  0.00    -0.202 C  
HETATM    3  H1  UNL     1      -9.896   2.142  66.032  1.00  0.00     0.000 HD 
HETATM    4  H2  UNL     1     -10.269   2.025  67.676  1.00  0.00     0.000 HD 
ENDROOT
BRANCH   2   5
HETATM    5  C   UNL     1      -9.027   4.208  68.528  1.00  0.00    -0.118 C  
HETATM    6  O   UNL     1      -8.679   3.360  69.349  1.00  0.00    -0.066 OA 
BRANCH   5   7
HETATM    7  C   UNL     1      -8.995   5.690  68.829  1.00  0.00    -0.117 C  
BRANCH   7   8
HETATM    8  C   UNL     1     -10.341   6.364  68.593  1.00  0.00    -0.231 C  
BRANCH   8   9
HETATM    9  C   UNL     1     -10.565   7.590  69.448  1.00  0.00    -0.223 C  
HETATM   10  O   UNL     1     -11.156   7.583  70.517  1.00  0.00    -0.253 OA 
BRANCH   9  11
HETATM   11  O   UNL     1     -10.185   8.714  68.778  1.00  0.00    -0.198 OA 
BRANCH  11  12
HETATM   12  C   UNL     1     -10.420   9.930  69.489  1.00  0.00    -0.241 C  
BRANCH  12  13
HETATM   13  C   UNL     1     -10.255  11.148  68.596  1.00  0.00    -0.216 C  
BRANCH  13  14
HETATM   14  C   UNL     1     -11.384  11.169  67.568  1.00  0.00    -0.351 C  
BRANCH  14  15
HETATM   15  C   UNL     1     -11.849  12.584  67.238  1.00  0.00    -0.381 C  
BRANCH  15  16
HETATM   16  C   UNL     1     -11.804  12.824  65.728  1.00  0.00    -0.484 C  
HETATM   17  C   UNL     1     -12.596  14.062  65.339  1.00  0.00    -0.529 C  
ENDBRANCH  15  16
ENDBRANCH  14  15
ENDBRANCH  13  14
ENDBRANCH  12  13
ENDBRANCH  11  12
ENDBRANCH   9  11
ENDBRANCH   8   9
ENDBRANCH   7   8
ENDBRANCH   5   7
ENDBRANCH   2   5
TORSDOF 10
ENDMDL
MODEL      328
REMARK 921   NORMALIZED FREE ENERGY PREDICTED BY IDOCK:   -2.37 KCAL/MOL
REMARK 922        TOTAL FREE ENERGY PREDICTED BY IDOCK:   -4.25 KCAL/MOL
REMARK 923 INTER-LIGAND FREE ENERGY PREDICTED BY IDOCK:   -3.61 KCAL/MOL
REMARK 924 INTRA-LIGAND FREE ENERGY PREDICTED BY IDOCK:   -0.64 KCAL/MOL
REMARK 927      BINDING AFFINITY PREDICTED BY RF-SCORE:    0.00 PKD
ROOT
HETATM    1  N   UNL     1     -13.472   9.997  70.514  1.00  0.00    -0.499 NA 
HETATM    2  C   UNL     1     -12.263  10.275  71.290  1.00  0.00    -0.395 C  
HETATM    3  H1  UNL     1     -13.695  10.787  69.908  1.00  0.00     0.000 HD 
HETATM    4  H2  UNL     1     -14.257   9.742  71.113  1.00  0.00     0.000 HD 
ENDROOT
BRANCH   2   5
HETATM    5  C   UNL     1     -11.928   9.089  72.199  1.00  0.00    -0.325 C  
HETATM    6  O   UNL     1     -12.766   8.574  72.938  1.00  0.00    -0.259 OA 
BRANCH   5   7
HETATM    7  C   UNL     1     -10.520   8.550  72.067  1.00  0.00    -0.407 C  
BRANCH   7   8
HETATM    8  C   UNL     1      -9.716   9.271  70.993  1.00  0.00    -0.341 C  
BRANCH   8   9
HETATM    9  C   UNL     1      -9.616   8.507  69.693  1.00  0.00    -0.170 C  
HETATM   10  O   UNL     1      -8.912   7.523  69.528  1.00  0.00    -0.143 OA 
BRANCH   9  11
HETATM   11  O   UNL     1     -10.266   9.173  68.697  1.00  0.00    -0.192 OA 
BRANCH  11  12
HETATM   12  C   UNL     1      -9.577  10.326  68.212  1.00  0.00    -0.142 C  
BRANCH  12  13
HETATM   13  C   UNL     1     -10.400  11.591  68.386  1.00  0.00    -0.214 C  
BRANCH  13  14
HETATM   14  C   UNL     1      -9.466  12.799  68.375  1.00  0.00    -0.162 C  
BRANCH  14  15
HETATM   15  C   UNL     1      -8.062  12.448  67.890  1.00  0.00    -0.161 C  
BRANCH  15  16
HETATM   16  C   UNL     1      -7.012  12.948  68.883  1.00  0.00    -0.084 C  
HETATM   17  C   UNL     1      -6.433  11.805  69.701  1.00  0.00    -0.113 C  
ENDBRANCH  15  16
ENDBRANCH  14  15
ENDBRANCH  13  14
ENDBRANCH  12  13
ENDBRANCH  11  12
ENDBRANCH   9  11
ENDBRANCH   8   9
ENDBRANCH   7   8
ENDBRANCH   5   7
ENDBRANCH   2   5
TORSDOF 10
ENDMDL
MODEL      329
REMARK 921   NORMALIZED FREE ENERGY PREDICTED BY IDOCK:   -2.36 KCAL/MOL
REMARK 922        TOTAL FREE ENERGY PREDICTED BY IDOCK:   -4.22 KCAL/MOL
REMARK 923 INTER-LIGAND FREE ENERGY PREDICTED BY IDOCK:   -3.70 KCAL/MOL
REMARK 924 INTRA-LIGAND FREE ENERGY PREDICTED BY IDOCK:   -0.52 KCAL/MOL
REMARK 927      BINDING AFFINITY PREDICTED BY RF-SCORE:    0.00 PKD
ROOT
HETATM    1  N   UNL     1      -9.789   8.888  65.668  1.00  0.00    -0.453 NA 
HETATM    2  C   UNL     1      -9.495   8.512  67.051  1.00  0.00    -0.173 C  
HETATM    3  H1  UNL     1      -9.259   9.720  65.405  1.00  0.00     0.000 HD 
HETATM    4  H2  UNL     1     -10.789   9.011  65.512  1.00  0.00     0.000 HD 
ENDROOT
BRANCH   2   5
HETATM    5  C   UNL     1     -10.291   7.265  67.445  1.00  0.00    -0.260 C  
HETATM    6  O   UNL     1     -11.140   6.769  66.705  1.00  0.00    -0.338 OA 
BRANCH   5   7
HETATM    7  C   UNL     1      -9.904   6.642  68.769  1.00  0.00    -0.140 C  
BRANCH   7   8
HETATM    8  C   UNL     1     -11.107   6.118  69.542  1.00  0.00    -0.490 C  
BRANCH   8   9
HETATM    9  C   UNL     1     -10.743   5.394  70.817  1.00  0.00    -0.182 C  
HETATM   10  O   UNL     1     -10.008   4.420  70.868  1.00  0.00    -0.197 OA 
BRANCH   9  11
HETATM   11  O   UNL     1     -11.486   5.861  71.860  1.00  0.00    -0.279 OA 
BRANCH  11  12
HETATM   12  C   UNL     1     -11.047   7.117  72.379  1.00  0.00    -0.266 C  
BRANCH  12  13
HETATM   13  C   UNL     1     -10.379   6.967  73.735  1.00  0.00    -0.409 C  
BRANCH  13  14
HETATM   14  C   UNL     1     -10.610   5.547  74.250  1.00  0.00    -0.199 C  
BRANCH  14  15
HETATM   15  C   UNL     1      -9.316   4.746  74.358  1.00  0.00    -0.128 C  
BRANCH  15  16
HETATM   16  C   UNL     1      -8.174   5.475  73.649  1.00  0.00    -0.112 C  
HETATM   17  C   UNL     1      -7.159   4.497  73.079  1.00  0.00    -0.077 C  
ENDBRANCH  15  16
ENDBRANCH  14  15
ENDBRANCH  13  14
ENDBRANCH  12  13
ENDBRANCH  11  12
ENDBRANCH   9  11
ENDBRANCH   8   9
ENDBRANCH   7   8
ENDBRANCH   5   7
ENDBRANCH   2   5
TORSDOF 10
ENDMDL
MODEL      330
REMARK 921   NORMALIZED FREE ENERGY PREDICTED BY IDOCK:   -2.35 KCAL/MOL
REMARK 922        TOTAL FREE ENERGY PREDICTED BY IDOCK:   -4.20 KCAL/MOL
REMARK 923 INTER-LIGAND FREE ENERGY PREDICTED BY IDOCK:   -3.73 KCAL/MOL
REMARK 924 INTRA-LIGAND FREE ENERGY PREDICTED BY IDOCK:   -0.47 KCAL/MOL
REMARK 927      BINDING AFFINITY PREDICTED BY RF-SCORE:    0.00 PKD
ROOT
HETATM    1  N   UNL     1      -9.643   2.928  67.100  1.00  0.00    -0.402 NA 
HETATM    2  C   UNL     1      -9.515   4.163  67.873  1.00  0.00    -0.167 C  
HETATM    3  H1  UNL     1      -9.571   3.125  66.101  1.00  0.00     0.000 HD 
HETATM    4  H2  UNL     1     -10.500   2.425  67.328  1.00  0.00     0.000 HD 
ENDROOT
BRANCH   2   5
HETATM    5  C   UNL     1      -9.623   3.868  69.372  1.00  0.00    -0.169 C  
HETATM    6  O   UNL     1      -9.512   2.729  69.824  1.00  0.00    -0.144 OA 
BRANCH   5   7
HETATM    7  C   UNL     1      -9.796   5.081  70.260  1.00  0.00    -0.304 C  
BRANCH   7   8
HETATM    8  C   UNL     1     -10.982   5.943  69.848  1.00  0.00    -0.444 C  
BRANCH   8   9
HETATM    9  C   UNL     1     -10.896   7.370  70.337  1.00  0.00    -0.243 C  
HETATM   10  O   UNL     1     -11.781   7.937  70.960  1.00  0.00    -0.283 OA 
BRANCH   9  11
HETATM   11  O   UNL     1      -9.789   7.982  69.831  1.00  0.00    -0.182 OA 
BRANCH  11  12
HETATM   12  C   UNL     1      -9.346   9.113  70.583  1.00  0.00    -0.258 C  
BRANCH  12  13
HETATM   13  C   UNL     1      -8.328   9.939  69.815  1.00  0.00    -0.196 C  
BRANCH  13  14
HETATM   14  C   UNL     1      -8.496   9.673  68.320  1.00  0.00    -0.118 C  
BRANCH  14  15
HETATM   15  C   UNL     1      -9.276  10.777  67.613  1.00  0.00    -0.152 C  
BRANCH  15  16
HETATM   16  C   UNL     1     -10.394  10.180  66.757  1.00  0.00    -0.285 C  
HETATM   17  C   UNL     1      -9.987  10.092  65.295  1.00  0.00    -0.381 C  
ENDBRANCH  15  16
ENDBRANCH  14  15
ENDBRANCH  13  14
ENDBRANCH  12  13
ENDBRANCH  11  12
ENDBRANCH   9  11
ENDBRANCH   8   9
ENDBRANCH   7   8
ENDBRANCH   5   7
ENDBRANCH   2   5
TORSDOF 10
ENDMDL
MODEL      331
REMARK 921   NORMALIZED FREE ENERGY PREDICTED BY IDOCK:   -2.33 KCAL/MOL
REMARK 922        TOTAL FREE ENERGY PREDICTED BY IDOCK:   -4.18 KCAL/MOL
REMARK 923 INTER-LIGAND FREE ENERGY PREDICTED BY IDOCK:   -3.70 KCAL/MOL
REMARK 924 INTRA-LIGAND FREE ENERGY PREDICTED BY IDOCK:   -0.48 KCAL/MOL
REMARK 927      BINDING AFFINITY PREDICTED BY RF-SCORE:    0.00 PKD
ROOT
HETATM    1  N   UNL     1      -7.059   5.893  70.292  1.00  0.00    -0.071 NA 
HETATM    2  C   UNL     1      -8.462   5.518  70.465  1.00  0.00    -0.123 C  
HETATM    3  H1  UNL     1      -6.818   5.922  69.301  1.00  0.00     0.000 HD 
HETATM    4  H2  UNL     1      -6.435   5.282  70.818  1.00  0.00     0.000 HD 
ENDROOT
BRANCH   2   5
HETATM    5  C   UNL     1      -8.824   5.476  71.953  1.00  0.00    -0.135 C  
HETATM    6  O   UNL     1      -8.002   5.173  72.817  1.00  0.00    -0.097 OA 
BRANCH   5   7
HETATM    7  C   UNL     1     -10.235   5.906  72.289  1.00  0.00    -0.222 C  
BRANCH   7   8
HETATM    8  C   UNL     1     -10.273   7.063  73.279  1.00  0.00    -0.309 C  
BRANCH   8   9
HETATM    9  C   UNL     1      -9.848   8.386  72.686  1.00  0.00    -0.259 C  
HETATM   10  O   UNL     1      -8.748   8.890  72.850  1.00  0.00    -0.313 OA 
BRANCH   9  11
HETATM   11  O   UNL     1     -10.911   9.012  72.106  1.00  0.00    -0.348 OA 
BRANCH  11  12
HETATM   12  C   UNL     1     -10.743   9.292  70.716  1.00  0.00    -0.284 C  
BRANCH  12  13
HETATM   13  C   UNL     1     -11.607  10.457  70.265  1.00  0.00    -0.410 C  
BRANCH  13  14
HETATM   14  C   UNL     1     -11.469  10.625  68.754  1.00  0.00    -0.330 C  
BRANCH  14  15
HETATM   15  C   UNL     1     -11.860  12.022  68.282  1.00  0.00    -0.351 C  
BRANCH  15  16
HETATM   16  C   UNL     1     -10.762  12.616  67.397  1.00  0.00    -0.251 C  
HETATM   17  C   UNL     1      -9.683  11.590  67.088  1.00  0.00    -0.199 C  
ENDBRANCH  15  16
ENDBRANCH  14  15
ENDBRANCH  13  14
ENDBRANCH  12  13
ENDBRANCH  11  12
ENDBRANCH   9  11
ENDBRANCH   8   9
ENDBRANCH   7   8
ENDBRANCH   5   7
ENDBRANCH   2   5
TORSDOF 10
ENDMDL
MODEL      332
REMARK 921   NORMALIZED FREE ENERGY PREDICTED BY IDOCK:   -2.33 KCAL/MOL
REMARK 922        TOTAL FREE ENERGY PREDICTED BY IDOCK:   -4.18 KCAL/MOL
REMARK 923 INTER-LIGAND FREE ENERGY PREDICTED BY IDOCK:   -3.84 KCAL/MOL
REMARK 924 INTRA-LIGAND FREE ENERGY PREDICTED BY IDOCK:   -0.33 KCAL/MOL
REMARK 927      BINDING AFFINITY PREDICTED BY RF-SCORE:    0.00 PKD
ROOT
HETATM    1  N   UNL     1     -12.959   8.252  72.392  1.00  0.00    -0.561 NA 
HETATM    2  C   UNL     1     -12.939   7.117  71.469  1.00  0.00    -0.383 C  
HETATM    3  H1  UNL     1     -13.917   8.461  72.678  1.00  0.00     0.000 HD 
HETATM    4  H2  UNL     1     -12.493   9.069  71.999  1.00  0.00     0.000 HD 
ENDROOT
BRANCH   2   5
HETATM    5  C   UNL     1     -11.503   6.804  71.040  1.00  0.00    -0.324 C  
HETATM    6  O   UNL     1     -10.571   6.776  71.844  1.00  0.00    -0.207 OA 
BRANCH   5   7
HETATM    7  C   UNL     1     -11.325   6.453  69.578  1.00  0.00    -0.460 C  
BRANCH   7   8
HETATM    8  C   UNL     1     -10.598   7.543  68.801  1.00  0.00    -0.179 C  
BRANCH   8   9
HETATM    9  C   UNL     1     -10.645   7.354  67.302  1.00  0.00    -0.323 C  
HETATM   10  O   UNL     1     -10.879   6.290  66.751  1.00  0.00    -0.326 OA 
BRANCH   9  11
HETATM   11  O   UNL     1     -10.212   8.479  66.666  1.00  0.00    -0.288 OA 
BRANCH  11  12
HETATM   12  C   UNL     1      -8.881   8.872  67.006  1.00  0.00    -0.126 C  
BRANCH  12  13
HETATM   13  C   UNL     1      -8.605  10.318  66.627  1.00  0.00    -0.130 C  
BRANCH  13  14
HETATM   14  C   UNL     1      -7.748  10.962  67.714  1.00  0.00    -0.107 C  
BRANCH  14  15
HETATM   15  C   UNL     1      -6.921  12.132  67.190  1.00  0.00    -0.117 C  
BRANCH  15  16
HETATM   16  C   UNL     1      -6.926  13.285  68.195  1.00  0.00    -0.114 C  
HETATM   17  C   UNL     1      -7.759  14.454  67.695  1.00  0.00    -0.198 C  
ENDBRANCH  15  16
ENDBRANCH  14  15
ENDBRANCH  13  14
ENDBRANCH  12  13
ENDBRANCH  11  12
ENDBRANCH   9  11
ENDBRANCH   8   9
ENDBRANCH   7   8
ENDBRANCH   5   7
ENDBRANCH   2   5
TORSDOF 10
ENDMDL
MODEL      333
REMARK 921   NORMALIZED FREE ENERGY PREDICTED BY IDOCK:   -2.31 KCAL/MOL
REMARK 922        TOTAL FREE ENERGY PREDICTED BY IDOCK:   -4.15 KCAL/MOL
REMARK 923 INTER-LIGAND FREE ENERGY PREDICTED BY IDOCK:   -3.52 KCAL/MOL
REMARK 924 INTRA-LIGAND FREE ENERGY PREDICTED BY IDOCK:   -0.63 KCAL/MOL
REMARK 927      BINDING AFFINITY PREDICTED BY RF-SCORE:    0.00 PKD
ROOT
HETATM    1  N   UNL     1     -13.175   7.261  71.025  1.00  0.00    -0.594 NA 
HETATM    2  C   UNL     1     -11.818   7.803  70.939  1.00  0.00    -0.239 C  
HETATM    3  H1  UNL     1     -13.771   7.882  71.572  1.00  0.00     0.000 HD 
HETATM    4  H2  UNL     1     -13.180   6.309  71.389  1.00  0.00     0.000 HD 
ENDROOT
BRANCH   2   5
HETATM    5  C   UNL     1     -10.922   6.872  70.117  1.00  0.00    -0.281 C  
HETATM    6  O   UNL     1     -11.298   5.760  69.748  1.00  0.00    -0.287 OA 
BRANCH   5   7
HETATM    7  C   UNL     1      -9.578   7.446  69.726  1.00  0.00    -0.163 C  
BRANCH   7   8
HETATM    8  C   UNL     1      -8.546   7.330  70.840  1.00  0.00    -0.136 C  
BRANCH   8   9
HETATM    9  C   UNL     1      -8.410   8.581  71.677  1.00  0.00    -0.165 C  
HETATM   10  O   UNL     1      -8.491   8.604  72.895  1.00  0.00    -0.403 OA 
BRANCH   9  11
HETATM   11  O   UNL     1      -8.370   9.686  70.880  1.00  0.00    -0.272 OA 
BRANCH  11  12
HETATM   12  C   UNL     1      -7.162   9.828  70.131  1.00  0.00    -0.145 C  
BRANCH  12  13
HETATM   13  C   UNL     1      -7.160  11.098  69.297  1.00  0.00    -0.123 C  
BRANCH  13  14
HETATM   14  C   UNL     1      -7.053  10.725  67.820  1.00  0.00    -0.086 C  
BRANCH  14  15
HETATM   15  C   UNL     1      -8.173   9.793  67.370  1.00  0.00    -0.114 C  
BRANCH  15  16
HETATM   16  C   UNL     1      -9.417  10.596  66.984  1.00  0.00    -0.187 C  
HETATM   17  C   UNL     1     -10.692   9.857  67.356  1.00  0.00    -0.323 C  
ENDBRANCH  15  16
ENDBRANCH  14  15
ENDBRANCH  13  14
ENDBRANCH  12  13
ENDBRANCH  11  12
ENDBRANCH   9  11
ENDBRANCH   8   9
ENDBRANCH   7   8
ENDBRANCH   5   7
ENDBRANCH   2   5
TORSDOF 10
ENDMDL
MODEL      334
REMARK 921   NORMALIZED FREE ENERGY PREDICTED BY IDOCK:   -2.31 KCAL/MOL
REMARK 922        TOTAL FREE ENERGY PREDICTED BY IDOCK:   -4.15 KCAL/MOL
REMARK 923 INTER-LIGAND FREE ENERGY PREDICTED BY IDOCK:   -3.82 KCAL/MOL
REMARK 924 INTRA-LIGAND FREE ENERGY PREDICTED BY IDOCK:   -0.33 KCAL/MOL
REMARK 927      BINDING AFFINITY PREDICTED BY RF-SCORE:    0.00 PKD
ROOT
HETATM    1  N   UNL     1      -8.711   6.470  67.906  1.00  0.00    -0.117 NA 
HETATM    2  C   UNL     1      -9.589   7.629  68.065  1.00  0.00    -0.145 C  
HETATM    3  H1  UNL     1      -9.119   5.802  67.252  1.00  0.00     0.000 HD 
HETATM    4  H2  UNL     1      -8.488   6.037  68.803  1.00  0.00     0.000 HD 
ENDROOT
BRANCH   2   5
HETATM    5  C   UNL     1      -8.978   8.632  69.048  1.00  0.00    -0.142 C  
HETATM    6  O   UNL     1      -9.106   8.515  70.266  1.00  0.00    -0.146 OA 
BRANCH   5   7
HETATM    7  C   UNL     1      -8.142   9.727  68.420  1.00  0.00    -0.104 C  
BRANCH   7   8
HETATM    8  C   UNL     1      -8.540  11.115  68.903  1.00  0.00    -0.092 C  
BRANCH   8   9
HETATM    9  C   UNL     1      -8.677  12.130  67.792  1.00  0.00    -0.171 C  
HETATM   10  O   UNL     1      -7.743  12.760  67.319  1.00  0.00    -0.163 OA 
BRANCH   9  11
HETATM   11  O   UNL     1      -9.991  12.373  67.526  1.00  0.00    -0.193 OA 
BRANCH  11  12
HETATM   12  C   UNL     1     -10.342  13.757  67.506  1.00  0.00    -0.241 C  
BRANCH  12  13
HETATM   13  C   UNL     1     -11.836  13.959  67.321  1.00  0.00    -0.442 C  
BRANCH  13  14
HETATM   14  C   UNL     1     -12.221  13.560  65.898  1.00  0.00    -0.507 C  
BRANCH  14  15
HETATM   15  C   UNL     1     -11.144  13.920  64.878  1.00  0.00    -0.370 C  
BRANCH  15  16
HETATM   16  C   UNL     1     -10.932  12.768  63.894  1.00  0.00    -0.458 C  
HETATM   17  C   UNL     1     -12.251  12.280  63.317  1.00  0.00    -0.528 C  
ENDBRANCH  15  16
ENDBRANCH  14  15
ENDBRANCH  13  14
ENDBRANCH  12  13
ENDBRANCH  11  12
ENDBRANCH   9  11
ENDBRANCH   8   9
ENDBRANCH   7   8
ENDBRANCH   5   7
ENDBRANCH   2   5
TORSDOF 10
ENDMDL
MODEL      335
REMARK 921   NORMALIZED FREE ENERGY PREDICTED BY IDOCK:   -2.30 KCAL/MOL
REMARK 922        TOTAL FREE ENERGY PREDICTED BY IDOCK:   -4.13 KCAL/MOL
REMARK 923 INTER-LIGAND FREE ENERGY PREDICTED BY IDOCK:   -3.66 KCAL/MOL
REMARK 924 INTRA-LIGAND FREE ENERGY PREDICTED BY IDOCK:   -0.47 KCAL/MOL
REMARK 927      BINDING AFFINITY PREDICTED BY RF-SCORE:    0.00 PKD
ROOT
HETATM    1  N   UNL     1      -9.367   5.198  64.536  1.00  0.00    -0.355 NA 
HETATM    2  C   UNL     1      -8.648   5.743  65.688  1.00  0.00    -0.151 C  
HETATM    3  H1  UNL     1      -8.995   4.281  64.287  1.00  0.00     0.000 HD 
HETATM    4  H2  UNL     1      -9.359   5.841  63.745  1.00  0.00     0.000 HD 
ENDROOT
BRANCH   2   5
HETATM    5  C   UNL     1      -9.207   7.119  66.063  1.00  0.00    -0.022 C  
HETATM    6  O   UNL     1      -8.768   8.159  65.573  1.00  0.00    -0.161 OA 
BRANCH   5   7
HETATM    7  C   UNL     1     -10.383   7.103  67.016  1.00  0.00    -0.368 C  
BRANCH   7   8
HETATM    8  C   UNL     1     -10.302   8.206  68.062  1.00  0.00    -0.267 C  
BRANCH   8   9
HETATM    9  C   UNL     1      -9.851   7.724  69.422  1.00  0.00    -0.176 C  
HETATM   10  O   UNL     1      -8.797   8.043  69.948  1.00  0.00    -0.141 OA 
BRANCH   9  11
HETATM   11  O   UNL     1     -10.689   6.754  69.885  1.00  0.00    -0.222 OA 
BRANCH  11  12
HETATM   12  C   UNL     1     -11.806   7.246  70.626  1.00  0.00    -0.252 C  
BRANCH  12  13
HETATM   13  C   UNL     1     -11.991   6.496  71.935  1.00  0.00    -0.389 C  
BRANCH  13  14
HETATM   14  C   UNL     1     -10.769   5.614  72.181  1.00  0.00    -0.287 C  
BRANCH  14  15
HETATM   15  C   UNL     1      -9.946   6.076  73.380  1.00  0.00    -0.186 C  
BRANCH  15  16
HETATM   16  C   UNL     1      -9.806   7.599  73.380  1.00  0.00    -0.362 C  
HETATM   17  C   UNL     1      -8.440   8.031  73.888  1.00  0.00    -0.321 C  
ENDBRANCH  15  16
ENDBRANCH  14  15
ENDBRANCH  13  14
ENDBRANCH  12  13
ENDBRANCH  11  12
ENDBRANCH   9  11
ENDBRANCH   8   9
ENDBRANCH   7   8
ENDBRANCH   5   7
ENDBRANCH   2   5
TORSDOF 10
ENDMDL
MODEL      336
REMARK 921   NORMALIZED FREE ENERGY PREDICTED BY IDOCK:   -2.30 KCAL/MOL
REMARK 922        TOTAL FREE ENERGY PREDICTED BY IDOCK:   -4.12 KCAL/MOL
REMARK 923 INTER-LIGAND FREE ENERGY PREDICTED BY IDOCK:   -3.62 KCAL/MOL
REMARK 924 INTRA-LIGAND FREE ENERGY PREDICTED BY IDOCK:   -0.50 KCAL/MOL
REMARK 927      BINDING AFFINITY PREDICTED BY RF-SCORE:    0.00 PKD
ROOT
HETATM    1  N   UNL     1     -12.260  10.643  69.050  1.00  0.00    -0.769 NA 
HETATM    2  C   UNL     1     -10.953  10.188  69.526  1.00  0.00    -0.256 C  
HETATM    3  H1  UNL     1     -12.150  11.248  68.235  1.00  0.00     0.000 HD 
HETATM    4  H2  UNL     1     -12.797  11.095  69.790  1.00  0.00     0.000 HD 
ENDROOT
BRANCH   2   5
HETATM    5  C   UNL     1     -11.118   9.279  70.748  1.00  0.00    -0.285 C  
HETATM    6  O   UNL     1     -11.546   9.699  71.822  1.00  0.00    -0.378 OA 
BRANCH   5   7
HETATM    7  C   UNL     1     -10.792   7.820  70.518  1.00  0.00    -0.245 C  
BRANCH   7   8
HETATM    8  C   UNL     1      -9.730   7.620  69.445  1.00  0.00    -0.165 C  
BRANCH   8   9
HETATM    9  C   UNL     1      -9.183   6.212  69.385  1.00  0.00    -0.133 C  
HETATM   10  O   UNL     1      -8.948   5.525  70.366  1.00  0.00    -0.134 OA 
BRANCH   9  11
HETATM   11  O   UNL     1      -8.822   5.895  68.109  1.00  0.00    -0.112 OA 
BRANCH  11  12
HETATM   12  C   UNL     1      -8.173   6.952  67.402  1.00  0.00    -0.119 C  
BRANCH  12  13
HETATM   13  C   UNL     1      -8.844   7.235  66.068  1.00  0.00    -0.161 C  
BRANCH  13  14
HETATM   14  C   UNL     1      -7.993   8.230  65.283  1.00  0.00    -0.128 C  
BRANCH  14  15
HETATM   15  C   UNL     1      -8.835   9.182  64.438  1.00  0.00    -0.156 C  
BRANCH  15  16
HETATM   16  C   UNL     1      -9.827   9.945  65.318  1.00  0.00    -0.373 C  
HETATM   17  C   UNL     1      -9.122  10.979  66.181  1.00  0.00    -0.208 C  
ENDBRANCH  15  16
ENDBRANCH  14  15
ENDBRANCH  13  14
ENDBRANCH  12  13
ENDBRANCH  11  12
ENDBRANCH   9  11
ENDBRANCH   8   9
ENDBRANCH   7   8
ENDBRANCH   5   7
ENDBRANCH   2   5
TORSDOF 10
ENDMDL
MODEL      337
REMARK 921   NORMALIZED FREE ENERGY PREDICTED BY IDOCK:   -2.28 KCAL/MOL
REMARK 922        TOTAL FREE ENERGY PREDICTED BY IDOCK:   -4.09 KCAL/MOL
REMARK 923 INTER-LIGAND FREE ENERGY PREDICTED BY IDOCK:   -3.46 KCAL/MOL
REMARK 924 INTRA-LIGAND FREE ENERGY PREDICTED BY IDOCK:   -0.63 KCAL/MOL
REMARK 927      BINDING AFFINITY PREDICTED BY RF-SCORE:    0.00 PKD
ROOT
HETATM    1  N   UNL     1     -11.207   5.876  73.669  1.00  0.00    -0.382 NA 
HETATM    2  C   UNL     1     -10.540   6.875  72.834  1.00  0.00    -0.261 C  
HETATM    3  H1  UNL     1     -10.606   5.605  74.448  1.00  0.00     0.000 HD 
HETATM    4  H2  UNL     1     -11.512   5.069  73.125  1.00  0.00     0.000 HD 
ENDROOT
BRANCH   2   5
HETATM    5  C   UNL     1     -11.442   7.282  71.665  1.00  0.00    -0.265 C  
HETATM    6  O   UNL     1     -12.644   7.021  71.645  1.00  0.00    -0.352 OA 
BRANCH   5   7
HETATM    7  C   UNL     1     -10.769   8.094  70.580  1.00  0.00    -0.233 C  
BRANCH   7   8
HETATM    8  C   UNL     1      -9.275   7.812  70.480  1.00  0.00    -0.162 C  
BRANCH   8   9
HETATM    9  C   UNL     1      -8.407   9.004  70.808  1.00  0.00    -0.192 C  
HETATM   10  O   UNL     1      -7.977   9.254  71.923  1.00  0.00    -0.276 OA 
BRANCH   9  11
HETATM   11  O   UNL     1      -8.330   9.846  69.739  1.00  0.00    -0.157 OA 
BRANCH  11  12
HETATM   12  C   UNL     1      -7.637   9.305  68.614  1.00  0.00    -0.081 C  
BRANCH  12  13
HETATM   13  C   UNL     1      -8.260   9.747  67.300  1.00  0.00    -0.117 C  
BRANCH  13  14
HETATM   14  C   UNL     1      -9.779   9.788  67.458  1.00  0.00    -0.192 C  
BRANCH  14  15
HETATM   15  C   UNL     1     -10.431   8.435  67.191  1.00  0.00    -0.380 C  
BRANCH  15  16
HETATM   16  C   UNL     1      -9.443   7.489  66.508  1.00  0.00    -0.237 C  
HETATM   17  C   UNL     1      -9.746   6.036  66.839  1.00  0.00    -0.173 C  
ENDBRANCH  15  16
ENDBRANCH  14  15
ENDBRANCH  13  14
ENDBRANCH  12  13
ENDBRANCH  11  12
ENDBRANCH   9  11
ENDBRANCH   8   9
ENDBRANCH   7   8
ENDBRANCH   5   7
ENDBRANCH   2   5
TORSDOF 10
ENDMDL
MODEL      338
REMARK 921   NORMALIZED FREE ENERGY PREDICTED BY IDOCK:   -2.27 KCAL/MOL
REMARK 922        TOTAL FREE ENERGY PREDICTED BY IDOCK:   -4.08 KCAL/MOL
REMARK 923 INTER-LIGAND FREE ENERGY PREDICTED BY IDOCK:   -3.97 KCAL/MOL
REMARK 924 INTRA-LIGAND FREE ENERGY PREDICTED BY IDOCK:   -0.11 KCAL/MOL
REMARK 927      BINDING AFFINITY PREDICTED BY RF-SCORE:    0.00 PKD
ROOT
HETATM    1  N   UNL     1      -7.825   5.509  67.625  1.00  0.00    -0.096 NA 
HETATM    2  C   UNL     1      -8.112   5.462  69.059  1.00  0.00    -0.094 C  
HETATM    3  H1  UNL     1      -6.849   5.270  67.450  1.00  0.00     0.000 HD 
HETATM    4  H2  UNL     1      -8.076   6.409  67.217  1.00  0.00     0.000 HD 
ENDROOT
BRANCH   2   5
HETATM    5  C   UNL     1      -9.578   5.820  69.322  1.00  0.00    -0.139 C  
HETATM    6  O   UNL     1     -10.472   5.542  68.524  1.00  0.00    -0.193 OA 
BRANCH   5   7
HETATM    7  C   UNL     1      -9.857   6.465  70.662  1.00  0.00    -0.206 C  
BRANCH   7   8
HETATM    8  C   UNL     1      -8.863   7.570  70.996  1.00  0.00    -0.146 C  
BRANCH   8   9
HETATM    9  C   UNL     1      -9.272   8.419  72.178  1.00  0.00    -0.243 C  
HETATM   10  O   UNL     1      -8.714   8.397  73.264  1.00  0.00    -0.284 OA 
BRANCH   9  11
HETATM   11  O   UNL     1     -10.446   9.062  71.921  1.00  0.00    -0.343 OA 
BRANCH  11  12
HETATM   12  C   UNL     1     -11.596   8.439  72.493  1.00  0.00    -0.356 C  
BRANCH  12  13
HETATM   13  C   UNL     1     -12.714   8.273  71.476  1.00  0.00    -0.326 C  
BRANCH  13  14
HETATM   14  C   UNL     1     -12.937   9.603  70.760  1.00  0.00    -0.149 C  
BRANCH  14  15
HETATM   15  C   UNL     1     -13.358  10.717  71.713  1.00  0.00    -0.429 C  
BRANCH  15  16
HETATM   16  C   UNL     1     -12.681  12.035  71.331  1.00  0.00    -0.380 C  
HETATM   17  C   UNL     1     -13.315  13.214  72.051  1.00  0.00    -0.587 C  
ENDBRANCH  15  16
ENDBRANCH  14  15
ENDBRANCH  13  14
ENDBRANCH  12  13
ENDBRANCH  11  12
ENDBRANCH   9  11
ENDBRANCH   8   9
ENDBRANCH   7   8
ENDBRANCH   5   7
ENDBRANCH   2   5
TORSDOF 10
ENDMDL
MODEL      339
REMARK 921   NORMALIZED FREE ENERGY PREDICTED BY IDOCK:   -2.27 KCAL/MOL
REMARK 922        TOTAL FREE ENERGY PREDICTED BY IDOCK:   -4.07 KCAL/MOL
REMARK 923 INTER-LIGAND FREE ENERGY PREDICTED BY IDOCK:   -3.25 KCAL/MOL
REMARK 924 INTRA-LIGAND FREE ENERGY PREDICTED BY IDOCK:   -0.83 KCAL/MOL
REMARK 927      BINDING AFFINITY PREDICTED BY RF-SCORE:    0.00 PKD
ROOT
HETATM    1  N   UNL     1     -10.470   4.343  72.213  1.00  0.00    -0.161 NA 
HETATM    2  C   UNL     1     -11.241   5.124  73.180  1.00  0.00    -0.330 C  
HETATM    3  H1  UNL     1     -10.789   3.374  72.202  1.00  0.00     0.000 HD 
HETATM    4  H2  UNL     1      -9.467   4.411  72.384  1.00  0.00     0.000 HD 
ENDROOT
BRANCH   2   5
HETATM    5  C   UNL     1     -10.762   6.578  73.196  1.00  0.00    -0.269 C  
HETATM    6  O   UNL     1     -11.200   7.419  72.412  1.00  0.00    -0.260 OA 
BRANCH   5   7
HETATM    7  C   UNL     1      -9.776   6.924  74.291  1.00  0.00    -0.309 C  
BRANCH   7   8
HETATM    8  C   UNL     1      -8.329   6.747  73.851  1.00  0.00    -0.144 C  
BRANCH   8   9
HETATM    9  C   UNL     1      -7.699   8.010  73.310  1.00  0.00    -0.157 C  
HETATM   10  O   UNL     1      -7.186   8.873  74.006  1.00  0.00    -0.393 OA 
BRANCH   9  11
HETATM   11  O   UNL     1      -7.946   8.134  71.976  1.00  0.00    -0.104 OA 
BRANCH  11  12
HETATM   12  C   UNL     1      -7.244   7.196  71.158  1.00  0.00    -0.074 C  
BRANCH  12  13
HETATM   13  C   UNL     1      -8.177   6.467  70.206  1.00  0.00    -0.126 C  
BRANCH  13  14
HETATM   14  C   UNL     1      -9.083   7.486  69.519  1.00  0.00    -0.143 C  
BRANCH  14  15
HETATM   15  C   UNL     1     -10.403   6.876  69.056  1.00  0.00    -0.203 C  
BRANCH  15  16
HETATM   16  C   UNL     1     -10.571   7.045  67.546  1.00  0.00    -0.351 C  
HETATM   17  C   UNL     1      -9.480   7.928  66.961  1.00  0.00    -0.222 C  
ENDBRANCH  15  16
ENDBRANCH  14  15
ENDBRANCH  13  14
ENDBRANCH  12  13
ENDBRANCH  11  12
ENDBRANCH   9  11
ENDBRANCH   8   9
ENDBRANCH   7   8
ENDBRANCH   5   7
ENDBRANCH   2   5
TORSDOF 10
ENDMDL
MODEL      340
REMARK 921   NORMALIZED FREE ENERGY PREDICTED BY IDOCK:   -2.22 KCAL/MOL
REMARK 922        TOTAL FREE ENERGY PREDICTED BY IDOCK:   -4.01 KCAL/MOL
REMARK 923 INTER-LIGAND FREE ENERGY PREDICTED BY IDOCK:   -3.33 KCAL/MOL
REMARK 924 INTRA-LIGAND FREE ENERGY PREDICTED BY IDOCK:   -0.67 KCAL/MOL
REMARK 927      BINDING AFFINITY PREDICTED BY RF-SCORE:    0.00 PKD
ROOT
HETATM    1  N   UNL     1      -8.090   4.097  67.581  1.00  0.00    -0.094 NA 
HETATM    2  C   UNL     1      -9.163   3.748  68.513  1.00  0.00    -0.156 C  
HETATM    3  H1  UNL     1      -7.427   3.327  67.498  1.00  0.00     0.000 HD 
HETATM    4  H2  UNL     1      -7.630   4.969  67.842  1.00  0.00     0.000 HD 
ENDROOT
BRANCH   2   5
HETATM    5  C   UNL     1     -10.159   4.904  68.639  1.00  0.00    -0.088 C  
HETATM    6  O   UNL     1     -10.576   5.294  69.729  1.00  0.00    -0.307 OA 
BRANCH   5   7
HETATM    7  C   UNL     1     -10.532   5.582  67.338  1.00  0.00    -0.284 C  
BRANCH   7   8
HETATM    8  C   UNL     1     -10.518   7.101  67.445  1.00  0.00    -0.354 C  
BRANCH   8   9
HETATM    9  C   UNL     1      -9.215   7.729  67.007  1.00  0.00    -0.145 C  
HETATM   10  O   UNL     1      -8.117   7.222  67.177  1.00  0.00    -0.111 OA 
BRANCH   9  11
HETATM   11  O   UNL     1      -9.423   9.004  66.571  1.00  0.00    -0.171 OA 
BRANCH  11  12
HETATM   12  C   UNL     1      -9.899   9.899  67.577  1.00  0.00    -0.169 C  
BRANCH  12  13
HETATM   13  C   UNL     1     -11.079  10.723  67.088  1.00  0.00    -0.297 C  
BRANCH  13  14
HETATM   14  C   UNL     1     -10.611  12.150  66.813  1.00  0.00    -0.256 C  
BRANCH  14  15
HETATM   15  C   UNL     1      -9.858  12.756  67.993  1.00  0.00    -0.226 C  
BRANCH  15  16
HETATM   16  C   UNL     1     -10.494  14.083  68.410  1.00  0.00    -0.254 C  
HETATM   17  C   UNL     1     -11.817  14.313  67.697  1.00  0.00    -0.420 C  
ENDBRANCH  15  16
ENDBRANCH  14  15
ENDBRANCH  13  14
ENDBRANCH  12  13
ENDBRANCH  11  12
ENDBRANCH   9  11
ENDBRANCH   8   9
ENDBRANCH   7   8
ENDBRANCH   5   7
ENDBRANCH   2   5
TORSDOF 10
ENDMDL
MODEL      341
REMARK 921   NORMALIZED FREE ENERGY PREDICTED BY IDOCK:   -2.21 KCAL/MOL
REMARK 922        TOTAL FREE ENERGY PREDICTED BY IDOCK:   -3.98 KCAL/MOL
REMARK 923 INTER-LIGAND FREE ENERGY PREDICTED BY IDOCK:   -3.47 KCAL/MOL
REMARK 924 INTRA-LIGAND FREE ENERGY PREDICTED BY IDOCK:   -0.51 KCAL/MOL
REMARK 927      BINDING AFFINITY PREDICTED BY RF-SCORE:    0.00 PKD
ROOT
HETATM    1  N   UNL     1     -12.161  10.795  68.476  1.00  0.00    -0.826 NA 
HETATM    2  C   UNL     1     -11.036  10.039  69.027  1.00  0.00    -0.212 C  
HETATM    3  H1  UNL     1     -11.916  11.182  67.564  1.00  0.00     0.000 HD 
HETATM    4  H2  UNL     1     -12.486  11.516  69.120  1.00  0.00     0.000 HD 
ENDROOT
BRANCH   2   5
HETATM    5  C   UNL     1     -11.402   9.458  70.396  1.00  0.00    -0.248 C  
HETATM    6  O   UNL     1     -11.871  10.153  71.297  1.00  0.00    -0.359 OA 
BRANCH   5   7
HETATM    7  C   UNL     1     -11.222   7.962  70.533  1.00  0.00    -0.259 C  
BRANCH   7   8
HETATM    8  C   UNL     1      -9.760   7.561  70.677  1.00  0.00    -0.175 C  
BRANCH   8   9
HETATM    9  C   UNL     1      -9.552   6.298  71.481  1.00  0.00    -0.155 C  
HETATM   10  O   UNL     1     -10.328   5.890  72.331  1.00  0.00    -0.188 OA 
BRANCH   9  11
HETATM   11  O   UNL     1      -8.308   5.789  71.256  1.00  0.00    -0.123 OA 
BRANCH  11  12
HETATM   12  C   UNL     1      -7.803   6.026  69.941  1.00  0.00    -0.104 C  
BRANCH  12  13
HETATM   13  C   UNL     1      -7.920   4.793  69.060  1.00  0.00    -0.075 C  
BRANCH  13  14
HETATM   14  C   UNL     1      -7.528   5.163  67.631  1.00  0.00    -0.083 C  
BRANCH  14  15
HETATM   15  C   UNL     1      -8.247   4.313  66.588  1.00  0.00    -0.102 C  
BRANCH  15  16
HETATM   16  C   UNL     1      -9.705   4.087  66.993  1.00  0.00    -0.214 C  
HETATM   17  C   UNL     1     -10.597   5.220  66.512  1.00  0.00    -0.348 C  
ENDBRANCH  15  16
ENDBRANCH  14  15
ENDBRANCH  13  14
ENDBRANCH  12  13
ENDBRANCH  11  12
ENDBRANCH   9  11
ENDBRANCH   8   9
ENDBRANCH   7   8
ENDBRANCH   5   7
ENDBRANCH   2   5
TORSDOF 10
ENDMDL
MODEL      342
REMARK 921   NORMALIZED FREE ENERGY PREDICTED BY IDOCK:   -2.21 KCAL/MOL
REMARK 922        TOTAL FREE ENERGY PREDICTED BY IDOCK:   -3.98 KCAL/MOL
REMARK 923 INTER-LIGAND FREE ENERGY PREDICTED BY IDOCK:   -3.33 KCAL/MOL
REMARK 924 INTRA-LIGAND FREE ENERGY PREDICTED BY IDOCK:   -0.65 KCAL/MOL
REMARK 927      BINDING AFFINITY PREDICTED BY RF-SCORE:    0.00 PKD
ROOT
HETATM    1  N   UNL     1     -10.200   7.251  74.398  1.00  0.00    -0.396 NA 
HETATM    2  C   UNL     1     -10.212   5.789  74.440  1.00  0.00    -0.281 C  
HETATM    3  H1  UNL     1     -11.044   7.626  74.832  1.00  0.00     0.000 HD 
HETATM    4  H2  UNL     1     -10.071   7.602  73.450  1.00  0.00     0.000 HD 
ENDROOT
BRANCH   2   5
HETATM    5  C   UNL     1      -8.945   5.225  73.790  1.00  0.00    -0.123 C  
HETATM    6  O   UNL     1      -7.936   4.962  74.443  1.00  0.00    -0.095 OA 
BRANCH   5   7
HETATM    7  C   UNL     1      -9.049   4.943  72.307  1.00  0.00    -0.146 C  
BRANCH   7   8
HETATM    8  C   UNL     1     -10.490   4.918  71.816  1.00  0.00    -0.214 C  
BRANCH   8   9
HETATM    9  C   UNL     1     -10.841   6.066  70.899  1.00  0.00    -0.285 C  
HETATM   10  O   UNL     1     -11.031   7.212  71.276  1.00  0.00    -0.236 OA 
BRANCH   9  11
HETATM   11  O   UNL     1     -11.092   5.611  69.639  1.00  0.00    -0.328 OA 
BRANCH  11  12
HETATM   12  C   UNL     1      -9.921   5.342  68.867  1.00  0.00    -0.180 C  
BRANCH  12  13
HETATM   13  C   UNL     1      -9.616   6.468  67.892  1.00  0.00    -0.119 C  
BRANCH  13  14
HETATM   14  C   UNL     1     -10.580   6.380  66.712  1.00  0.00    -0.328 C  
BRANCH  14  15
HETATM   15  C   UNL     1     -10.649   4.978  66.115  1.00  0.00    -0.321 C  
BRANCH  15  16
HETATM   16  C   UNL     1      -9.349   4.643  65.382  1.00  0.00    -0.160 C  
HETATM   17  C   UNL     1      -8.654   3.442  66.003  1.00  0.00    -0.118 C  
ENDBRANCH  15  16
ENDBRANCH  14  15
ENDBRANCH  13  14
ENDBRANCH  12  13
ENDBRANCH  11  12
ENDBRANCH   9  11
ENDBRANCH   8   9
ENDBRANCH   7   8
ENDBRANCH   5   7
ENDBRANCH   2   5
TORSDOF 10
ENDMDL
MODEL      343
REMARK 921   NORMALIZED FREE ENERGY PREDICTED BY IDOCK:   -2.16 KCAL/MOL
REMARK 922        TOTAL FREE ENERGY PREDICTED BY IDOCK:   -3.90 KCAL/MOL
REMARK 923 INTER-LIGAND FREE ENERGY PREDICTED BY IDOCK:   -3.15 KCAL/MOL
REMARK 924 INTRA-LIGAND FREE ENERGY PREDICTED BY IDOCK:   -0.75 KCAL/MOL
REMARK 927      BINDING AFFINITY PREDICTED BY RF-SCORE:    0.00 PKD
ROOT
HETATM    1  N   UNL     1      -6.914  10.388  68.975  1.00  0.00    -0.066 NA 
HETATM    2  C   UNL     1      -7.684   9.787  70.064  1.00  0.00    -0.171 C  
HETATM    3  H1  UNL     1      -5.914  10.304  69.158  1.00  0.00     0.000 HD 
HETATM    4  H2  UNL     1      -7.190  11.355  68.804  1.00  0.00     0.000 HD 
ENDROOT
BRANCH   2   5
HETATM    5  C   UNL     1      -9.185   9.913  69.789  1.00  0.00    -0.227 C  
HETATM    6  O   UNL     1      -9.624  10.549  68.832  1.00  0.00    -0.176 OA 
BRANCH   5   7
HETATM    7  C   UNL     1     -10.083   9.136  70.728  1.00  0.00    -0.333 C  
BRANCH   7   8
HETATM    8  C   UNL     1     -10.990   8.158  69.994  1.00  0.00    -0.199 C  
BRANCH   8   9
HETATM    9  C   UNL     1     -10.288   6.896  69.546  1.00  0.00    -0.207 C  
HETATM   10  O   UNL     1      -9.283   6.446  70.074  1.00  0.00    -0.154 OA 
BRANCH   9  11
HETATM   11  O   UNL     1     -10.819   6.445  68.375  1.00  0.00    -0.258 OA 
BRANCH  11  12
HETATM   12  C   UNL     1     -10.907   7.434  67.348  1.00  0.00    -0.229 C  
BRANCH  12  13
HETATM   13  C   UNL     1      -9.583   7.617  66.625  1.00  0.00    -0.271 C  
BRANCH  13  14
HETATM   14  C   UNL     1      -9.563   8.992  65.962  1.00  0.00    -0.342 C  
BRANCH  14  15
HETATM   15  C   UNL     1      -8.220   9.309  65.312  1.00  0.00    -0.136 C  
BRANCH  15  16
HETATM   16  C   UNL     1      -8.426   9.978  63.952  1.00  0.00    -0.179 C  
HETATM   17  C   UNL     1      -8.288   8.978  62.815  1.00  0.00    -0.202 C  
ENDBRANCH  15  16
ENDBRANCH  14  15
ENDBRANCH  13  14
ENDBRANCH  12  13
ENDBRANCH  11  12
ENDBRANCH   9  11
ENDBRANCH   8   9
ENDBRANCH   7   8
ENDBRANCH   5   7
ENDBRANCH   2   5
TORSDOF 10
ENDMDL
MODEL      344
REMARK 921   NORMALIZED FREE ENERGY PREDICTED BY IDOCK:   -2.15 KCAL/MOL
REMARK 922        TOTAL FREE ENERGY PREDICTED BY IDOCK:   -3.89 KCAL/MOL
REMARK 923 INTER-LIGAND FREE ENERGY PREDICTED BY IDOCK:   -3.06 KCAL/MOL
REMARK 924 INTRA-LIGAND FREE ENERGY PREDICTED BY IDOCK:   -0.83 KCAL/MOL
REMARK 927      BINDING AFFINITY PREDICTED BY RF-SCORE:    0.00 PKD
ROOT
HETATM    1  N   UNL     1      -7.737   5.645  67.142  1.00  0.00    -0.099 NA 
HETATM    2  C   UNL     1      -8.677   6.516  67.849  1.00  0.00    -0.116 C  
HETATM    3  H1  UNL     1      -7.417   6.092  66.282  1.00  0.00     0.000 HD 
HETATM    4  H2  UNL     1      -8.134   4.722  66.966  1.00  0.00     0.000 HD 
ENDROOT
BRANCH   2   5
HETATM    5  C   UNL     1      -9.158   5.846  69.139  1.00  0.00    -0.122 C  
HETATM    6  O   UNL     1      -9.526   4.672  69.169  1.00  0.00    -0.130 OA 
BRANCH   5   7
HETATM    7  C   UNL     1      -9.074   6.702  70.384  1.00  0.00    -0.152 C  
BRANCH   7   8
HETATM    8  C   UNL     1      -7.965   7.743  70.304  1.00  0.00    -0.100 C  
BRANCH   8   9
HETATM    9  C   UNL     1      -8.279   9.024  71.041  1.00  0.00    -0.176 C  
HETATM   10  O   UNL     1      -9.000   9.091  72.025  1.00  0.00    -0.374 OA 
BRANCH   9  11
HETATM   11  O   UNL     1      -7.803  10.100  70.353  1.00  0.00    -0.202 OA 
BRANCH  11  12
HETATM   12  C   UNL     1      -8.359  10.255  69.046  1.00  0.00    -0.148 C  
BRANCH  12  13
HETATM   13  C   UNL     1      -9.350  11.406  68.986  1.00  0.00     0.036 C  
BRANCH  13  14
HETATM   14  C   UNL     1     -10.707  10.872  68.533  1.00  0.00    -0.239 C  
BRANCH  14  15
HETATM   15  C   UNL     1     -11.392  10.031  69.605  1.00  0.00    -0.253 C  
BRANCH  15  16
HETATM   16  C   UNL     1     -11.817  10.908  70.784  1.00  0.00    -0.424 C  
HETATM   17  C   UNL     1     -12.804  10.184  71.687  1.00  0.00    -0.559 C  
ENDBRANCH  15  16
ENDBRANCH  14  15
ENDBRANCH  13  14
ENDBRANCH  12  13
ENDBRANCH  11  12
ENDBRANCH   9  11
ENDBRANCH   8   9
ENDBRANCH   7   8
ENDBRANCH   5   7
ENDBRANCH   2   5
TORSDOF 10
ENDMDL
MODEL      345
REMARK 921   NORMALIZED FREE ENERGY PREDICTED BY IDOCK:   -2.15 KCAL/MOL
REMARK 922        TOTAL FREE ENERGY PREDICTED BY IDOCK:   -3.89 KCAL/MOL
REMARK 923 INTER-LIGAND FREE ENERGY PREDICTED BY IDOCK:   -3.28 KCAL/MOL
REMARK 924 INTRA-LIGAND FREE ENERGY PREDICTED BY IDOCK:   -0.61 KCAL/MOL
REMARK 927      BINDING AFFINITY PREDICTED BY RF-SCORE:    0.00 PKD
ROOT
HETATM    1  N   UNL     1     -12.507   6.971  70.441  1.00  0.00    -0.601 NA 
HETATM    2  C   UNL     1     -12.261   7.282  71.849  1.00  0.00    -0.313 C  
HETATM    3  H1  UNL     1     -13.361   7.427  70.120  1.00  0.00     0.000 HD 
HETATM    4  H2  UNL     1     -12.526   5.965  70.272  1.00  0.00     0.000 HD 
ENDROOT
BRANCH   2   5
HETATM    5  C   UNL     1     -10.979   6.597  72.331  1.00  0.00    -0.244 C  
HETATM    6  O   UNL     1     -10.752   6.398  73.524  1.00  0.00    -0.268 OA 
BRANCH   5   7
HETATM    7  C   UNL     1     -10.052   6.113  71.237  1.00  0.00    -0.227 C  
BRANCH   7   8
HETATM    8  C   UNL     1      -9.923   4.596  71.209  1.00  0.00    -0.268 C  
BRANCH   8   9
HETATM    9  C   UNL     1      -9.073   4.079  70.071  1.00  0.00    -0.119 C  
HETATM   10  O   UNL     1      -7.893   3.782  70.175  1.00  0.00    -0.048 OA 
BRANCH   9  11
HETATM   11  O   UNL     1      -9.751   4.166  68.891  1.00  0.00    -0.166 OA 
BRANCH  11  12
HETATM   12  C   UNL     1      -9.342   3.217  67.906  1.00  0.00    -0.201 C  
BRANCH  12  13
HETATM   13  C   UNL     1      -8.465   3.851  66.840  1.00  0.00    -0.104 C  
BRANCH  13  14
HETATM   14  C   UNL     1      -9.162   5.096  66.296  1.00  0.00    -0.147 C  
BRANCH  14  15
HETATM   15  C   UNL     1      -8.329   6.361  66.479  1.00  0.00    -0.115 C  
BRANCH  15  16
HETATM   16  C   UNL     1      -9.232   7.595  66.522  1.00  0.00    -0.220 C  
HETATM   17  C   UNL     1     -10.074   7.625  67.787  1.00  0.00    -0.237 C  
ENDBRANCH  15  16
ENDBRANCH  14  15
ENDBRANCH  13  14
ENDBRANCH  12  13
ENDBRANCH  11  12
ENDBRANCH   9  11
ENDBRANCH   8   9
ENDBRANCH   7   8
ENDBRANCH   5   7
ENDBRANCH   2   5
TORSDOF 10
ENDMDL
MODEL      346
REMARK 921   NORMALIZED FREE ENERGY PREDICTED BY IDOCK:   -2.13 KCAL/MOL
REMARK 922        TOTAL FREE ENERGY PREDICTED BY IDOCK:   -3.86 KCAL/MOL
REMARK 923 INTER-LIGAND FREE ENERGY PREDICTED BY IDOCK:   -3.51 KCAL/MOL
REMARK 924 INTRA-LIGAND FREE ENERGY PREDICTED BY IDOCK:   -0.35 KCAL/MOL
REMARK 927      BINDING AFFINITY PREDICTED BY RF-SCORE:    0.00 PKD
ROOT
HETATM    1  N   UNL     1      -9.654   2.364  67.007  1.00  0.00    -0.396 NA 
HETATM    2  C   UNL     1      -9.478   3.806  67.176  1.00  0.00    -0.202 C  
HETATM    3  H1  UNL     1      -9.871   2.144  66.034  1.00  0.00     0.000 HD 
HETATM    4  H2  UNL     1     -10.355   1.990  67.647  1.00  0.00     0.000 HD 
ENDROOT
BRANCH   2   5
HETATM    5  C   UNL     1      -9.152   4.137  68.635  1.00  0.00    -0.133 C  
HETATM    6  O   UNL     1      -8.929   3.261  69.470  1.00  0.00    -0.087 OA 
BRANCH   5   7
HETATM    7  C   UNL     1      -9.046   5.612  68.958  1.00  0.00    -0.124 C  
BRANCH   7   8
HETATM    8  C   UNL     1     -10.310   6.381  68.596  1.00  0.00    -0.231 C  
BRANCH   8   9
HETATM    9  C   UNL     1     -10.474   7.675  69.359  1.00  0.00    -0.220 C  
HETATM   10  O   UNL     1     -11.189   7.807  70.341  1.00  0.00    -0.266 OA 
BRANCH   9  11
HETATM   11  O   UNL     1      -9.867   8.700  68.698  1.00  0.00    -0.161 OA 
BRANCH  11  12
HETATM   12  C   UNL     1     -10.769   9.634  68.104  1.00  0.00    -0.217 C  
BRANCH  12  13
HETATM   13  C   UNL     1     -10.101  10.448  67.009  1.00  0.00    -0.264 C  
BRANCH  13  14
HETATM   14  C   UNL     1      -9.807   9.537  65.820  1.00  0.00    -0.363 C  
BRANCH  14  15
HETATM   15  C   UNL     1      -9.935  10.261  64.483  1.00  0.00    -0.359 C  
BRANCH  15  16
HETATM   16  C   UNL     1      -8.555  10.502  63.869  1.00  0.00    -0.146 C  
HETATM   17  C   UNL     1      -8.656  10.844  62.391  1.00  0.00    -0.344 C  
ENDBRANCH  15  16
ENDBRANCH  14  15
ENDBRANCH  13  14
ENDBRANCH  12  13
ENDBRANCH  11  12
ENDBRANCH   9  11
ENDBRANCH   8   9
ENDBRANCH   7   8
ENDBRANCH   5   7
ENDBRANCH   2   5
TORSDOF 10
ENDMDL
MODEL      347
REMARK 921   NORMALIZED FREE ENERGY PREDICTED BY IDOCK:   -2.13 KCAL/MOL
REMARK 922        TOTAL FREE ENERGY PREDICTED BY IDOCK:   -3.86 KCAL/MOL
REMARK 923 INTER-LIGAND FREE ENERGY PREDICTED BY IDOCK:   -3.14 KCAL/MOL
REMARK 924 INTRA-LIGAND FREE ENERGY PREDICTED BY IDOCK:   -0.72 KCAL/MOL
REMARK 927      BINDING AFFINITY PREDICTED BY RF-SCORE:    0.00 PKD
ROOT
HETATM    1  N   UNL     1      -8.722   5.842  68.363  1.00  0.00    -0.113 NA 
HETATM    2  C   UNL     1      -9.229   7.195  68.130  1.00  0.00    -0.131 C  
HETATM    3  H1  UNL     1      -8.625   5.342  67.479  1.00  0.00     0.000 HD 
HETATM    4  H2  UNL     1      -9.299   5.330  69.030  1.00  0.00     0.000 HD 
ENDROOT
BRANCH   2   5
HETATM    5  C   UNL     1      -9.374   7.947  69.456  1.00  0.00    -0.156 C  
HETATM    6  O   UNL     1      -9.446   7.360  70.536  1.00  0.00    -0.162 OA 
BRANCH   5   7
HETATM    7  C   UNL     1      -9.342   9.456  69.352  1.00  0.00    -0.172 C  
BRANCH   7   8
HETATM    8  C   UNL     1      -8.091   9.967  68.649  1.00  0.00    -0.099 C  
BRANCH   8   9
HETATM    9  C   UNL     1      -8.285  11.293  67.950  1.00  0.00    -0.123 C  
HETATM   10  O   UNL     1      -9.255  12.017  68.110  1.00  0.00    -0.185 OA 
BRANCH   9  11
HETATM   11  O   UNL     1      -7.331  11.472  66.994  1.00  0.00    -0.130 OA 
BRANCH  11  12
HETATM   12  C   UNL     1      -6.995  10.288  66.269  1.00  0.00    -0.115 C  
BRANCH  12  13
HETATM   13  C   UNL     1      -7.602  10.287  64.875  1.00  0.00    -0.119 C  
BRANCH  13  14
HETATM   14  C   UNL     1      -8.914   9.507  64.904  1.00  0.00    -0.264 C  
BRANCH  14  15
HETATM   15  C   UNL     1     -10.137  10.417  64.855  1.00  0.00    -0.382 C  
BRANCH  15  16
HETATM   16  C   UNL     1     -10.140  11.242  63.567  1.00  0.00    -0.443 C  
HETATM   17  C   UNL     1     -11.301  12.223  63.539  1.00  0.00    -0.549 C  
ENDBRANCH  15  16
ENDBRANCH  14  15
ENDBRANCH  13  14
ENDBRANCH  12  13
ENDBRANCH  11  12
ENDBRANCH   9  11
ENDBRANCH   8   9
ENDBRANCH   7   8
ENDBRANCH   5   7
ENDBRANCH   2   5
TORSDOF 10
ENDMDL
MODEL      348
REMARK 921   NORMALIZED FREE ENERGY PREDICTED BY IDOCK:   -2.11 KCAL/MOL
REMARK 922        TOTAL FREE ENERGY PREDICTED BY IDOCK:   -3.82 KCAL/MOL
REMARK 923 INTER-LIGAND FREE ENERGY PREDICTED BY IDOCK:   -3.27 KCAL/MOL
REMARK 924 INTRA-LIGAND FREE ENERGY PREDICTED BY IDOCK:   -0.55 KCAL/MOL
REMARK 927      BINDING AFFINITY PREDICTED BY RF-SCORE:    0.00 PKD
ROOT
HETATM    1  N   UNL     1      -8.348   5.672  67.310  1.00  0.00    -0.101 NA 
HETATM    2  C   UNL     1      -9.489   5.090  68.017  1.00  0.00    -0.131 C  
HETATM    3  H1  UNL     1      -7.554   5.031  67.328  1.00  0.00     0.000 HD 
HETATM    4  H2  UNL     1      -8.103   6.592  67.676  1.00  0.00     0.000 HD 
ENDROOT
BRANCH   2   5
HETATM    5  C   UNL     1     -10.681   6.052  67.990  1.00  0.00    -0.282 C  
HETATM    6  O   UNL     1     -11.115   6.526  66.940  1.00  0.00    -0.399 OA 
BRANCH   5   7
HETATM    7  C   UNL     1     -11.332   6.313  69.330  1.00  0.00    -0.448 C  
BRANCH   7   8
HETATM    8  C   UNL     1     -10.439   5.925  70.501  1.00  0.00    -0.319 C  
BRANCH   8   9
HETATM    9  C   UNL     1     -11.193   5.683  71.788  1.00  0.00    -0.158 C  
HETATM   10  O   UNL     1     -12.197   6.293  72.120  1.00  0.00    -0.328 OA 
BRANCH   9  11
HETATM   11  O   UNL     1     -10.498   4.832  72.595  1.00  0.00    -0.191 OA 
BRANCH  11  12
HETATM   12  C   UNL     1     -10.712   5.040  73.991  1.00  0.00    -0.286 C  
BRANCH  12  13
HETATM   13  C   UNL     1      -9.796   6.116  74.549  1.00  0.00    -0.319 C  
BRANCH  13  14
HETATM   14  C   UNL     1      -8.352   5.782  74.179  1.00  0.00    -0.110 C  
BRANCH  14  15
HETATM   15  C   UNL     1      -7.703   6.864  73.321  1.00  0.00    -0.093 C  
BRANCH  15  16
HETATM   16  C   UNL     1      -6.348   7.267  73.903  1.00  0.00    -0.069 C  
HETATM   17  C   UNL     1      -5.447   7.879  72.842  1.00  0.00    -0.040 C  
ENDBRANCH  15  16
ENDBRANCH  14  15
ENDBRANCH  13  14
ENDBRANCH  12  13
ENDBRANCH  11  12
ENDBRANCH   9  11
ENDBRANCH   8   9
ENDBRANCH   7   8
ENDBRANCH   5   7
ENDBRANCH   2   5
TORSDOF 10
ENDMDL
MODEL      349
REMARK 921   NORMALIZED FREE ENERGY PREDICTED BY IDOCK:   -2.11 KCAL/MOL
REMARK 922        TOTAL FREE ENERGY PREDICTED BY IDOCK:   -3.82 KCAL/MOL
REMARK 923 INTER-LIGAND FREE ENERGY PREDICTED BY IDOCK:   -2.91 KCAL/MOL
REMARK 924 INTRA-LIGAND FREE ENERGY PREDICTED BY IDOCK:   -0.91 KCAL/MOL
REMARK 927      BINDING AFFINITY PREDICTED BY RF-SCORE:    0.00 PKD
ROOT
HETATM    1  N   UNL     1     -13.242   7.388  71.089  1.00  0.00    -0.585 NA 
HETATM    2  C   UNL     1     -11.921   8.005  70.968  1.00  0.00    -0.245 C  
HETATM    3  H1  UNL     1     -13.788   7.856  71.813  1.00  0.00     0.000 HD 
HETATM    4  H2  UNL     1     -13.178   6.383  71.250  1.00  0.00     0.000 HD 
ENDROOT
BRANCH   2   5
HETATM    5  C   UNL     1     -11.101   7.303  69.881  1.00  0.00    -0.212 C  
HETATM    6  O   UNL     1     -11.334   6.147  69.531  1.00  0.00    -0.418 OA 
BRANCH   5   7
HETATM    7  C   UNL     1     -10.041   8.156  69.218  1.00  0.00    -0.202 C  
BRANCH   7   8
HETATM    8  C   UNL     1     -10.142   8.135  67.698  1.00  0.00    -0.267 C  
BRANCH   8   9
HETATM    9  C   UNL     1      -9.062   7.318  67.028  1.00  0.00    -0.135 C  
HETATM   10  O   UNL     1      -9.246   6.604  66.054  1.00  0.00    -0.130 OA 
BRANCH   9  11
HETATM   11  O   UNL     1      -7.915   7.347  67.764  1.00  0.00    -0.115 OA 
BRANCH  11  12
HETATM   12  C   UNL     1      -6.892   8.185  67.226  1.00  0.00    -0.074 C  
BRANCH  12  13
HETATM   13  C   UNL     1      -6.047   8.818  68.319  1.00  0.00    -0.050 C  
BRANCH  13  14
HETATM   14  C   UNL     1      -6.050  10.334  68.136  1.00  0.00    -0.047 C  
BRANCH  14  15
HETATM   15  C   UNL     1      -7.319  10.838  67.456  1.00  0.00    -0.092 C  
BRANCH  15  16
HETATM   16  C   UNL     1      -8.100  11.759  68.394  1.00  0.00    -0.150 C  
HETATM   17  C   UNL     1      -9.597  11.668  68.144  1.00  0.00    -0.190 C  
ENDBRANCH  15  16
ENDBRANCH  14  15
ENDBRANCH  13  14
ENDBRANCH  12  13
ENDBRANCH  11  12
ENDBRANCH   9  11
ENDBRANCH   8   9
ENDBRANCH   7   8
ENDBRANCH   5   7
ENDBRANCH   2   5
TORSDOF 10
ENDMDL
MODEL      350
REMARK 921   NORMALIZED FREE ENERGY PREDICTED BY IDOCK:   -2.09 KCAL/MOL
REMARK 922        TOTAL FREE ENERGY PREDICTED BY IDOCK:   -3.79 KCAL/MOL
REMARK 923 INTER-LIGAND FREE ENERGY PREDICTED BY IDOCK:   -3.11 KCAL/MOL
REMARK 924 INTRA-LIGAND FREE ENERGY PREDICTED BY IDOCK:   -0.69 KCAL/MOL
REMARK 927      BINDING AFFINITY PREDICTED BY RF-SCORE:    0.00 PKD
ROOT
HETATM    1  N   UNL     1     -12.306   9.647  71.279  1.00  0.00    -0.337 NA 
HETATM    2  C   UNL     1     -11.158  10.051  70.466  1.00  0.00    -0.331 C  
HETATM    3  H1  UNL     1     -13.000  10.394  71.310  1.00  0.00     0.000 HD 
HETATM    4  H2  UNL     1     -12.023   9.351  72.213  1.00  0.00     0.000 HD 
ENDROOT
BRANCH   2   5
HETATM    5  C   UNL     1     -10.116   8.930  70.419  1.00  0.00    -0.196 C  
HETATM    6  O   UNL     1     -10.434   7.744  70.347  1.00  0.00    -0.213 OA 
BRANCH   5   7
HETATM    7  C   UNL     1      -8.674   9.387  70.387  1.00  0.00    -0.278 C  
BRANCH   7   8
HETATM    8  C   UNL     1      -7.699   8.234  70.186  1.00  0.00    -0.084 C  
BRANCH   8   9
HETATM    9  C   UNL     1      -6.881   8.343  68.920  1.00  0.00    -0.061 C  
HETATM   10  O   UNL     1      -5.693   8.626  68.893  1.00  0.00    -0.039 OA 
BRANCH   9  11
HETATM   11  O   UNL     1      -7.686   8.265  67.823  1.00  0.00    -0.100 OA 
BRANCH  11  12
HETATM   12  C   UNL     1      -7.578   9.378  66.934  1.00  0.00    -0.091 C  
BRANCH  12  13
HETATM   13  C   UNL     1      -8.932   9.791  66.380  1.00  0.00    -0.176 C  
BRANCH  13  14
HETATM   14  C   UNL     1      -9.426  11.020  67.138  1.00  0.00    -0.181 C  
BRANCH  14  15
HETATM   15  C   UNL     1     -10.890  11.338  66.846  1.00  0.00    -0.333 C  
BRANCH  15  16
HETATM   16  C   UNL     1     -11.195  12.802  67.167  1.00  0.00    -0.336 C  
HETATM   17  C   UNL     1     -11.903  12.942  68.505  1.00  0.00    -0.350 C  
ENDBRANCH  15  16
ENDBRANCH  14  15
ENDBRANCH  13  14
ENDBRANCH  12  13
ENDBRANCH  11  12
ENDBRANCH   9  11
ENDBRANCH   8   9
ENDBRANCH   7   8
ENDBRANCH   5   7
ENDBRANCH   2   5
TORSDOF 10
ENDMDL
MODEL      351
REMARK 921   NORMALIZED FREE ENERGY PREDICTED BY IDOCK:   -2.09 KCAL/MOL
REMARK 922        TOTAL FREE ENERGY PREDICTED BY IDOCK:   -3.79 KCAL/MOL
REMARK 923 INTER-LIGAND FREE ENERGY PREDICTED BY IDOCK:   -3.20 KCAL/MOL
REMARK 924 INTRA-LIGAND FREE ENERGY PREDICTED BY IDOCK:   -0.59 KCAL/MOL
REMARK 927      BINDING AFFINITY PREDICTED BY RF-SCORE:    0.00 PKD
ROOT
HETATM    1  N   UNL     1      -8.543   5.460  67.384  1.00  0.00    -0.109 NA 
HETATM    2  C   UNL     1      -9.739   5.042  68.116  1.00  0.00    -0.148 C  
HETATM    3  H1  UNL     1      -7.822   4.740  67.440  1.00  0.00     0.000 HD 
HETATM    4  H2  UNL     1      -8.201   6.366  67.701  1.00  0.00     0.000 HD 
ENDROOT
BRANCH   2   5
HETATM    5  C   UNL     1     -10.821   6.122  68.032  1.00  0.00    -0.313 C  
HETATM    6  O   UNL     1     -11.138   6.649  66.966  1.00  0.00    -0.403 OA 
BRANCH   5   7
HETATM    7  C   UNL     1     -11.525   6.436  69.334  1.00  0.00    -0.374 C  
BRANCH   7   8
HETATM    8  C   UNL     1     -10.783   5.891  70.546  1.00  0.00    -0.363 C  
BRANCH   8   9
HETATM    9  C   UNL     1     -11.445   6.219  71.864  1.00  0.00    -0.309 C  
HETATM   10  O   UNL     1     -11.996   7.281  72.110  1.00  0.00    -0.291 OA 
BRANCH   9  11
HETATM   11  O   UNL     1     -11.183   5.249  72.785  1.00  0.00    -0.270 OA 
BRANCH  11  12
HETATM   12  C   UNL     1     -10.496   5.712  73.948  1.00  0.00    -0.277 C  
BRANCH  12  13
HETATM   13  C   UNL     1      -8.995   5.507  73.837  1.00  0.00    -0.123 C  
BRANCH  13  14
HETATM   14  C   UNL     1      -8.716   4.050  73.476  1.00  0.00    -0.091 C  
BRANCH  14  15
HETATM   15  C   UNL     1      -7.988   3.907  72.143  1.00  0.00    -0.080 C  
BRANCH  15  16
HETATM   16  C   UNL     1      -6.803   2.950  72.279  1.00  0.00    -0.026 C  
HETATM   17  C   UNL     1      -6.366   2.410  70.927  1.00  0.00    -0.023 C  
ENDBRANCH  15  16
ENDBRANCH  14  15
ENDBRANCH  13  14
ENDBRANCH  12  13
ENDBRANCH  11  12
ENDBRANCH   9  11
ENDBRANCH   8   9
ENDBRANCH   7   8
ENDBRANCH   5   7
ENDBRANCH   2   5
TORSDOF 10
ENDMDL
MODEL      352
REMARK 921   NORMALIZED FREE ENERGY PREDICTED BY IDOCK:   -2.07 KCAL/MOL
REMARK 922        TOTAL FREE ENERGY PREDICTED BY IDOCK:   -3.77 KCAL/MOL
REMARK 923 INTER-LIGAND FREE ENERGY PREDICTED BY IDOCK:   -2.64 KCAL/MOL
REMARK 924 INTRA-LIGAND FREE ENERGY PREDICTED BY IDOCK:   -1.14 KCAL/MOL
REMARK 927      BINDING AFFINITY PREDICTED BY RF-SCORE:    0.00 PKD
ROOT
HETATM    1  N   UNL     1      -9.845   8.841  71.754  1.00  0.00    -0.298 NA 
HETATM    2  C   UNL     1      -8.514   9.047  71.183  1.00  0.00    -0.177 C  
HETATM    3  H1  UNL     1     -10.382   9.708  71.727  1.00  0.00     0.000 HD 
HETATM    4  H2  UNL     1      -9.798   8.451  72.695  1.00  0.00     0.000 HD 
ENDROOT
BRANCH   2   5
HETATM    5  C   UNL     1      -7.709   7.745  71.223  1.00  0.00    -0.085 C  
HETATM    6  O   UNL     1      -7.944   6.855  72.039  1.00  0.00    -0.095 OA 
BRANCH   5   7
HETATM    7  C   UNL     1      -6.660   7.599  70.142  1.00  0.00    -0.038 C  
BRANCH   7   8
HETATM    8  C   UNL     1      -7.177   6.846  68.923  1.00  0.00    -0.091 C  
BRANCH   8   9
HETATM    9  C   UNL     1      -7.970   7.707  67.967  1.00  0.00    -0.122 C  
HETATM   10  O   UNL     1      -7.682   8.859  67.682  1.00  0.00    -0.099 OA 
BRANCH   9  11
HETATM   11  O   UNL     1      -9.132   7.088  67.618  1.00  0.00    -0.124 OA 
BRANCH  11  12
HETATM   12  C   UNL     1     -10.265   7.483  68.392  1.00  0.00    -0.185 C  
BRANCH  12  13
HETATM   13  C   UNL     1     -11.155   6.301  68.736  1.00  0.00    -0.424 C  
BRANCH  13  14
HETATM   14  C   UNL     1     -10.595   5.598  69.971  1.00  0.00    -0.388 C  
BRANCH  14  15
HETATM   15  C   UNL     1      -9.835   4.322  69.623  1.00  0.00    -0.244 C  
BRANCH  15  16
HETATM   16  C   UNL     1      -9.293   3.659  70.890  1.00  0.00    -0.218 C  
HETATM   17  C   UNL     1      -7.774   3.601  70.879  1.00  0.00    -0.047 C  
ENDBRANCH  15  16
ENDBRANCH  14  15
ENDBRANCH  13  14
ENDBRANCH  12  13
ENDBRANCH  11  12
ENDBRANCH   9  11
ENDBRANCH   8   9
ENDBRANCH   7   8
ENDBRANCH   5   7
ENDBRANCH   2   5
TORSDOF 10
ENDMDL
MODEL      353
REMARK 921   NORMALIZED FREE ENERGY PREDICTED BY IDOCK:   -2.07 KCAL/MOL
REMARK 922        TOTAL FREE ENERGY PREDICTED BY IDOCK:   -3.76 KCAL/MOL
REMARK 923 INTER-LIGAND FREE ENERGY PREDICTED BY IDOCK:   -3.10 KCAL/MOL
REMARK 924 INTRA-LIGAND FREE ENERGY PREDICTED BY IDOCK:   -0.66 KCAL/MOL
REMARK 927      BINDING AFFINITY PREDICTED BY RF-SCORE:    0.00 PKD
ROOT
HETATM    1  N   UNL     1     -11.308   5.353  73.460  1.00  0.00    -0.468 NA 
HETATM    2  C   UNL     1     -10.589   6.264  72.569  1.00  0.00    -0.212 C  
HETATM    3  H1  UNL     1     -10.702   5.048  74.221  1.00  0.00     0.000 HD 
HETATM    4  H2  UNL     1     -11.709   4.564  72.953  1.00  0.00     0.000 HD 
ENDROOT
BRANCH   2   5
HETATM    5  C   UNL     1     -11.499   6.722  71.426  1.00  0.00    -0.292 C  
HETATM    6  O   UNL     1     -12.719   6.567  71.459  1.00  0.00    -0.257 OA 
BRANCH   5   7
HETATM    7  C   UNL     1     -10.803   7.446  70.294  1.00  0.00    -0.260 C  
BRANCH   7   8
HETATM    8  C   UNL     1      -9.334   7.063  70.171  1.00  0.00    -0.162 C  
BRANCH   8   9
HETATM    9  C   UNL     1      -8.453   8.182  69.665  1.00  0.00    -0.126 C  
HETATM   10  O   UNL     1      -7.987   9.061  70.374  1.00  0.00    -0.096 OA 
BRANCH   9  11
HETATM   11  O   UNL     1      -8.407   8.176  68.304  1.00  0.00    -0.124 OA 
BRANCH  11  12
HETATM   12  C   UNL     1      -7.704   7.065  67.744  1.00  0.00    -0.112 C  
BRANCH  12  13
HETATM   13  C   UNL     1      -8.389   6.534  66.496  1.00  0.00    -0.116 C  
BRANCH  13  14
HETATM   14  C   UNL     1      -9.895   6.474  66.741  1.00  0.00    -0.213 C  
BRANCH  14  15
HETATM   15  C   UNL     1     -10.340   5.139  67.329  1.00  0.00    -0.225 C  
BRANCH  15  16
HETATM   16  C   UNL     1      -9.249   4.083  67.146  1.00  0.00    -0.185 C  
HETATM   17  C   UNL     1      -9.326   3.012  68.223  1.00  0.00    -0.253 C  
ENDBRANCH  15  16
ENDBRANCH  14  15
ENDBRANCH  13  14
ENDBRANCH  12  13
ENDBRANCH  11  12
ENDBRANCH   9  11
ENDBRANCH   8   9
ENDBRANCH   7   8
ENDBRANCH   5   7
ENDBRANCH   2   5
TORSDOF 10
ENDMDL
MODEL      354
REMARK 921   NORMALIZED FREE ENERGY PREDICTED BY IDOCK:   -2.06 KCAL/MOL
REMARK 922        TOTAL FREE ENERGY PREDICTED BY IDOCK:   -3.75 KCAL/MOL
REMARK 923 INTER-LIGAND FREE ENERGY PREDICTED BY IDOCK:   -3.06 KCAL/MOL
REMARK 924 INTRA-LIGAND FREE ENERGY PREDICTED BY IDOCK:   -0.69 KCAL/MOL
REMARK 927      BINDING AFFINITY PREDICTED BY RF-SCORE:    0.00 PKD
ROOT
HETATM    1  N   UNL     1     -10.674   6.974  74.090  1.00  0.00    -0.522 NA 
HETATM    2  C   UNL     1     -10.590   5.598  73.599  1.00  0.00    -0.280 C  
HETATM    3  H1  UNL     1     -11.559   7.125  74.575  1.00  0.00     0.000 HD 
HETATM    4  H2  UNL     1     -10.529   7.653  73.342  1.00  0.00     0.000 HD 
ENDROOT
BRANCH   2   5
HETATM    5  C   UNL     1      -9.263   5.371  72.870  1.00  0.00    -0.134 C  
HETATM    6  O   UNL     1      -8.319   4.784  73.398  1.00  0.00    -0.103 OA 
BRANCH   5   7
HETATM    7  C   UNL     1      -9.222   5.848  71.435  1.00  0.00    -0.158 C  
BRANCH   7   8
HETATM    8  C   UNL     1     -10.411   5.354  70.621  1.00  0.00    -0.329 C  
BRANCH   8   9
HETATM    9  C   UNL     1     -11.260   6.465  70.047  1.00  0.00    -0.411 C  
HETATM   10  O   UNL     1     -11.792   7.337  70.717  1.00  0.00    -0.309 OA 
BRANCH   9  11
HETATM   11  O   UNL     1     -11.494   6.251  68.722  1.00  0.00    -0.294 OA 
BRANCH  11  12
HETATM   12  C   UNL     1     -10.938   7.244  67.859  1.00  0.00    -0.040 C  
BRANCH  12  13
HETATM   13  C   UNL     1      -9.682   7.866  68.447  1.00  0.00    -0.170 C  
BRANCH  13  14
HETATM   14  C   UNL     1      -8.499   7.561  67.532  1.00  0.00    -0.119 C  
BRANCH  14  15
HETATM   15  C   UNL     1      -7.731   6.315  67.963  1.00  0.00    -0.103 C  
BRANCH  15  16
HETATM   16  C   UNL     1      -6.577   6.692  68.893  1.00  0.00    -0.051 C  
HETATM   17  C   UNL     1      -5.978   8.038  68.517  1.00  0.00    -0.040 C  
ENDBRANCH  15  16
ENDBRANCH  14  15
ENDBRANCH  13  14
ENDBRANCH  12  13
ENDBRANCH  11  12
ENDBRANCH   9  11
ENDBRANCH   8   9
ENDBRANCH   7   8
ENDBRANCH   5   7
ENDBRANCH   2   5
TORSDOF 10
ENDMDL
MODEL      355
REMARK 921   NORMALIZED FREE ENERGY PREDICTED BY IDOCK:   -2.06 KCAL/MOL
REMARK 922        TOTAL FREE ENERGY PREDICTED BY IDOCK:   -3.75 KCAL/MOL
REMARK 923 INTER-LIGAND FREE ENERGY PREDICTED BY IDOCK:   -4.28 KCAL/MOL
REMARK 924 INTRA-LIGAND FREE ENERGY PREDICTED BY IDOCK:    0.54 KCAL/MOL
REMARK 927      BINDING AFFINITY PREDICTED BY RF-SCORE:    0.00 PKD
ROOT
HETATM    1  N   UNL     1     -10.388  13.655  63.938  1.00  0.00    -0.539 NA 
HETATM    2  C   UNL     1     -11.725  13.936  64.463  1.00  0.00    -0.410 C  
HETATM    3  H1  UNL     1      -9.958  14.510  63.585  1.00  0.00     0.000 HD 
HETATM    4  H2  UNL     1     -10.405  12.918  63.234  1.00  0.00     0.000 HD 
ENDROOT
BRANCH   2   5
HETATM    5  C   UNL     1     -12.371  12.653  64.994  1.00  0.00    -0.497 C  
HETATM    6  O   UNL     1     -13.519  12.326  64.694  1.00  0.00    -0.620 OA 
BRANCH   5   7
HETATM    7  C   UNL     1     -11.474  11.780  65.845  1.00  0.00    -0.273 C  
BRANCH   7   8
HETATM    8  C   UNL     1     -10.227  12.513  66.321  1.00  0.00    -0.265 C  
BRANCH   8   9
HETATM    9  C   UNL     1      -9.502  11.812  67.447  1.00  0.00    -0.173 C  
HETATM   10  O   UNL     1      -8.452  12.201  67.934  1.00  0.00    -0.145 OA 
BRANCH   9  11
HETATM   11  O   UNL     1     -10.081  10.607  67.710  1.00  0.00    -0.167 OA 
BRANCH  11  12
HETATM   12  C   UNL     1      -9.539   9.929  68.845  1.00  0.00    -0.172 C  
BRANCH  12  13
HETATM   13  C   UNL     1      -9.363   8.442  68.585  1.00  0.00    -0.143 C  
BRANCH  13  14
HETATM   14  C   UNL     1      -9.510   7.685  69.902  1.00  0.00    -0.160 C  
BRANCH  14  15
HETATM   15  C   UNL     1     -10.120   8.544  71.006  1.00  0.00    -0.257 C  
BRANCH  15  16
HETATM   16  C   UNL     1     -10.324   7.718  72.277  1.00  0.00    -0.294 C  
HETATM   17  C   UNL     1      -9.791   6.303  72.112  1.00  0.00    -0.171 C  
ENDBRANCH  15  16
ENDBRANCH  14  15
ENDBRANCH  13  14
ENDBRANCH  12  13
ENDBRANCH  11  12
ENDBRANCH   9  11
ENDBRANCH   8   9
ENDBRANCH   7   8
ENDBRANCH   5   7
ENDBRANCH   2   5
TORSDOF 10
ENDMDL
MODEL      356
REMARK 921   NORMALIZED FREE ENERGY PREDICTED BY IDOCK:   -2.01 KCAL/MOL
REMARK 922        TOTAL FREE ENERGY PREDICTED BY IDOCK:   -3.67 KCAL/MOL
REMARK 923 INTER-LIGAND FREE ENERGY PREDICTED BY IDOCK:   -3.10 KCAL/MOL
REMARK 924 INTRA-LIGAND FREE ENERGY PREDICTED BY IDOCK:   -0.57 KCAL/MOL
REMARK 927      BINDING AFFINITY PREDICTED BY RF-SCORE:    0.00 PKD
ROOT
HETATM    1  N   UNL     1     -12.513  10.180  71.765  1.00  0.00    -0.393 NA 
HETATM    2  C   UNL     1     -12.669  10.996  70.560  1.00  0.00    -0.247 C  
HETATM    3  H1  UNL     1     -13.368  10.200  72.321  1.00  0.00     0.000 HD 
HETATM    4  H2  UNL     1     -11.698  10.461  72.310  1.00  0.00     0.000 HD 
ENDROOT
BRANCH   2   5
HETATM    5  C   UNL     1     -11.385  10.967  69.725  1.00  0.00    -0.301 C  
HETATM    6  O   UNL     1     -10.367  10.393  70.111  1.00  0.00    -0.218 OA 
BRANCH   5   7
HETATM    7  C   UNL     1     -11.482  11.623  68.365  1.00  0.00    -0.360 C  
BRANCH   7   8
HETATM    8  C   UNL     1     -10.518  12.791  68.210  1.00  0.00    -0.250 C  
BRANCH   8   9
HETATM    9  C   UNL     1     -10.217  13.145  66.772  1.00  0.00    -0.252 C  
HETATM   10  O   UNL     1     -10.790  14.025  66.148  1.00  0.00    -0.288 OA 
BRANCH   9  11
HETATM   11  O   UNL     1      -9.363  12.236  66.225  1.00  0.00    -0.232 OA 
BRANCH  11  12
HETATM   12  C   UNL     1      -8.153  12.049  66.960  1.00  0.00    -0.158 C  
BRANCH  12  13
HETATM   13  C   UNL     1      -7.722  10.592  66.979  1.00  0.00    -0.110 C  
BRANCH  13  14
HETATM   14  C   UNL     1      -7.333  10.206  68.404  1.00  0.00    -0.081 C  
BRANCH  14  15
HETATM   15  C   UNL     1      -6.406   8.995  68.450  1.00  0.00    -0.054 C  
BRANCH  15  16
HETATM   16  C   UNL     1      -7.200   7.724  68.758  1.00  0.00    -0.081 C  
HETATM   17  C   UNL     1      -7.373   7.527  70.256  1.00  0.00    -0.076 C  
ENDBRANCH  15  16
ENDBRANCH  14  15
ENDBRANCH  13  14
ENDBRANCH  12  13
ENDBRANCH  11  12
ENDBRANCH   9  11
ENDBRANCH   8   9
ENDBRANCH   7   8
ENDBRANCH   5   7
ENDBRANCH   2   5
TORSDOF 10
ENDMDL
MODEL      357
REMARK 921   NORMALIZED FREE ENERGY PREDICTED BY IDOCK:   -2.01 KCAL/MOL
REMARK 922        TOTAL FREE ENERGY PREDICTED BY IDOCK:   -3.67 KCAL/MOL
REMARK 923 INTER-LIGAND FREE ENERGY PREDICTED BY IDOCK:   -2.93 KCAL/MOL
REMARK 924 INTRA-LIGAND FREE ENERGY PREDICTED BY IDOCK:   -0.74 KCAL/MOL
REMARK 927      BINDING AFFINITY PREDICTED BY RF-SCORE:    0.00 PKD
ROOT
HETATM    1  N   UNL     1      -7.424   3.093  67.382  1.00  0.00    -0.062 NA 
HETATM    2  C   UNL     1      -8.123   2.391  68.458  1.00  0.00    -0.056 C  
HETATM    3  H1  UNL     1      -6.711   2.491  66.970  1.00  0.00     0.000 HD 
HETATM    4  H2  UNL     1      -7.035   3.981  67.699  1.00  0.00     0.000 HD 
ENDROOT
BRANCH   2   5
HETATM    5  C   UNL     1      -9.194   3.294  69.078  1.00  0.00    -0.158 C  
HETATM    6  O   UNL     1      -9.576   3.153  70.239  1.00  0.00    -0.169 OA 
BRANCH   5   7
HETATM    7  C   UNL     1      -9.687   4.417  68.191  1.00  0.00    -0.181 C  
BRANCH   7   8
HETATM    8  C   UNL     1      -9.473   5.790  68.813  1.00  0.00    -0.147 C  
BRANCH   8   9
HETATM    9  C   UNL     1      -8.190   6.461  68.380  1.00  0.00    -0.113 C  
HETATM   10  O   UNL     1      -7.090   5.932  68.425  1.00  0.00    -0.076 OA 
BRANCH   9  11
HETATM   11  O   UNL     1      -8.407   7.779  68.112  1.00  0.00    -0.123 OA 
BRANCH  11  12
HETATM   12  C   UNL     1      -9.777   8.115  67.885  1.00  0.00    -0.161 C  
BRANCH  12  13
HETATM   13  C   UNL     1      -9.990   8.719  66.507  1.00  0.00    -0.360 C  
BRANCH  13  14
HETATM   14  C   UNL     1     -10.105  10.235  66.640  1.00  0.00    -0.281 C  
BRANCH  14  15
HETATM   15  C   UNL     1     -11.197  10.657  67.618  1.00  0.00    -0.361 C  
BRANCH  15  16
HETATM   16  C   UNL     1     -11.526  12.141  67.447  1.00  0.00    -0.415 C  
HETATM   17  C   UNL     1     -10.555  12.819  66.494  1.00  0.00    -0.270 C  
ENDBRANCH  15  16
ENDBRANCH  14  15
ENDBRANCH  13  14
ENDBRANCH  12  13
ENDBRANCH  11  12
ENDBRANCH   9  11
ENDBRANCH   8   9
ENDBRANCH   7   8
ENDBRANCH   5   7
ENDBRANCH   2   5
TORSDOF 10
ENDMDL
MODEL      358
REMARK 921   NORMALIZED FREE ENERGY PREDICTED BY IDOCK:   -1.99 KCAL/MOL
REMARK 922        TOTAL FREE ENERGY PREDICTED BY IDOCK:   -3.64 KCAL/MOL
REMARK 923 INTER-LIGAND FREE ENERGY PREDICTED BY IDOCK:   -2.86 KCAL/MOL
REMARK 924 INTRA-LIGAND FREE ENERGY PREDICTED BY IDOCK:   -0.78 KCAL/MOL
REMARK 927      BINDING AFFINITY PREDICTED BY RF-SCORE:    0.00 PKD
ROOT
HETATM    1  N   UNL     1     -11.452   4.693  65.046  1.00  0.00    -1.079 NA 
HETATM    2  C   UNL     1     -10.230   4.706  65.850  1.00  0.00    -0.276 C  
HETATM    3  H1  UNL     1     -11.449   3.898  64.407  1.00  0.00     0.000 HD 
HETATM    4  H2  UNL     1     -11.591   5.576  64.554  1.00  0.00     0.000 HD 
ENDROOT
BRANCH   2   5
HETATM    5  C   UNL     1     -10.234   5.900  66.809  1.00  0.00    -0.219 C  
HETATM    6  O   UNL     1     -11.266   6.308  67.341  1.00  0.00    -0.328 OA 
BRANCH   5   7
HETATM    7  C   UNL     1      -8.874   6.488  67.117  1.00  0.00    -0.110 C  
BRANCH   7   8
HETATM    8  C   UNL     1      -8.935   7.984  67.399  1.00  0.00    -0.141 C  
BRANCH   8   9
HETATM    9  C   UNL     1      -7.990   8.802  66.550  1.00  0.00    -0.103 C  
HETATM   10  O   UNL     1      -7.874  10.015  66.626  1.00  0.00    -0.108 OA 
BRANCH   9  11
HETATM   11  O   UNL     1      -7.431   8.028  65.577  1.00  0.00    -0.076 OA 
BRANCH  11  12
HETATM   12  C   UNL     1      -7.740   8.442  64.246  1.00  0.00    -0.136 C  
BRANCH  12  13
HETATM   13  C   UNL     1      -7.898   7.257  63.308  1.00  0.00    -0.113 C  
BRANCH  13  14
HETATM   14  C   UNL     1      -6.724   6.303  63.508  1.00  0.00    -0.040 C  
BRANCH  14  15
HETATM   15  C   UNL     1      -7.174   4.873  63.794  1.00  0.00    -0.050 C  
BRANCH  15  16
HETATM   16  C   UNL     1      -6.672   4.418  65.166  1.00  0.00    -0.049 C  
HETATM   17  C   UNL     1      -6.563   2.904  65.243  1.00  0.00    -0.036 C  
ENDBRANCH  15  16
ENDBRANCH  14  15
ENDBRANCH  13  14
ENDBRANCH  12  13
ENDBRANCH  11  12
ENDBRANCH   9  11
ENDBRANCH   8   9
ENDBRANCH   7   8
ENDBRANCH   5   7
ENDBRANCH   2   5
TORSDOF 10
ENDMDL
MODEL      359
REMARK 921   NORMALIZED FREE ENERGY PREDICTED BY IDOCK:   -1.99 KCAL/MOL
REMARK 922        TOTAL FREE ENERGY PREDICTED BY IDOCK:   -3.64 KCAL/MOL
REMARK 923 INTER-LIGAND FREE ENERGY PREDICTED BY IDOCK:   -4.07 KCAL/MOL
REMARK 924 INTRA-LIGAND FREE ENERGY PREDICTED BY IDOCK:    0.43 KCAL/MOL
REMARK 927      BINDING AFFINITY PREDICTED BY RF-SCORE:    0.00 PKD
ROOT
HETATM    1  N   UNL     1      -8.757  12.772  66.635  1.00  0.00    -0.407 NA 
HETATM    2  C   UNL     1     -10.206  12.926  66.500  1.00  0.00    -0.259 C  
HETATM    3  H1  UNL     1      -8.436  11.957  66.112  1.00  0.00     0.000 HD 
HETATM    4  H2  UNL     1      -8.469  12.736  67.612  1.00  0.00     0.000 HD 
ENDROOT
BRANCH   2   5
HETATM    5  C   UNL     1     -10.689  14.150  67.284  1.00  0.00    -0.279 C  
HETATM    6  O   UNL     1     -10.719  14.168  68.514  1.00  0.00    -0.240 OA 
BRANCH   5   7
HETATM    7  C   UNL     1     -11.048  15.356  66.445  1.00  0.00    -0.230 C  
BRANCH   7   8
HETATM    8  C   UNL     1      -9.845  15.942  65.718  1.00  0.00    -0.380 C  
BRANCH   8   9
HETATM    9  C   UNL     1      -9.746  17.447  65.818  1.00  0.00     0.049 C  
HETATM   10  O   UNL     1     -10.658  18.213  65.547  1.00  0.00    -0.638 OA 
BRANCH   9  11
HETATM   11  O   UNL     1      -8.462  17.825  66.070  1.00  0.00    -0.496 OA 
BRANCH  11  12
HETATM   12  C   UNL     1      -7.597  16.755  66.451  1.00  0.00    -0.290 C  
BRANCH  12  13
HETATM   13  C   UNL     1      -7.130  16.890  67.891  1.00  0.00    -0.162 C  
BRANCH  13  14
HETATM   14  C   UNL     1      -7.673  18.194  68.471  1.00  0.00    -0.307 C  
BRANCH  14  15
HETATM   15  C   UNL     1      -9.064  18.031  69.076  1.00  0.00    -0.037 C  
BRANCH  15  16
HETATM   16  C   UNL     1     -10.023  19.076  68.505  1.00  0.00    -0.486 C  
HETATM   17  C   UNL     1     -10.222  20.233  69.470  1.00  0.00     0.090 C  
ENDBRANCH  15  16
ENDBRANCH  14  15
ENDBRANCH  13  14
ENDBRANCH  12  13
ENDBRANCH  11  12
ENDBRANCH   9  11
ENDBRANCH   8   9
ENDBRANCH   7   8
ENDBRANCH   5   7
ENDBRANCH   2   5
TORSDOF 10
ENDMDL
MODEL      360
REMARK 921   NORMALIZED FREE ENERGY PREDICTED BY IDOCK:   -1.97 KCAL/MOL
REMARK 922        TOTAL FREE ENERGY PREDICTED BY IDOCK:   -3.60 KCAL/MOL
REMARK 923 INTER-LIGAND FREE ENERGY PREDICTED BY IDOCK:   -3.11 KCAL/MOL
REMARK 924 INTRA-LIGAND FREE ENERGY PREDICTED BY IDOCK:   -0.50 KCAL/MOL
REMARK 927      BINDING AFFINITY PREDICTED BY RF-SCORE:    0.00 PKD
ROOT
HETATM    1  N   UNL     1      -7.737   5.719  67.363  1.00  0.00    -0.096 NA 
HETATM    2  C   UNL     1      -8.230   6.098  68.688  1.00  0.00    -0.108 C  
HETATM    3  H1  UNL     1      -7.713   6.532  66.747  1.00  0.00     0.000 HD 
HETATM    4  H2  UNL     1      -8.276   4.953  66.962  1.00  0.00     0.000 HD 
ENDROOT
BRANCH   2   5
HETATM    5  C   UNL     1      -8.264   4.878  69.613  1.00  0.00    -0.080 C  
HETATM    6  O   UNL     1      -8.242   3.727  69.179  1.00  0.00    -0.061 OA 
BRANCH   5   7
HETATM    7  C   UNL     1      -8.248   5.188  71.094  1.00  0.00    -0.116 C  
BRANCH   7   8
HETATM    8  C   UNL     1      -7.894   6.641  71.383  1.00  0.00    -0.099 C  
BRANCH   8   9
HETATM    9  C   UNL     1      -8.792   7.294  72.408  1.00  0.00    -0.123 C  
HETATM   10  O   UNL     1      -9.594   6.688  73.103  1.00  0.00    -0.147 OA 
BRANCH   9  11
HETATM   11  O   UNL     1      -8.715   8.651  72.315  1.00  0.00    -0.306 OA 
BRANCH  11  12
HETATM   12  C   UNL     1      -8.746   9.152  70.978  1.00  0.00    -0.189 C  
BRANCH  12  13
HETATM   13  C   UNL     1     -10.143   9.090  70.384  1.00  0.00    -0.248 C  
BRANCH  13  14
HETATM   14  C   UNL     1     -11.115   9.804  71.320  1.00  0.00    -0.375 C  
BRANCH  14  15
HETATM   15  C   UNL     1     -12.435  10.152  70.639  1.00  0.00    -0.372 C  
BRANCH  15  16
HETATM   16  C   UNL     1     -13.580  10.142  71.653  1.00  0.00    -0.275 C  
HETATM   17  C   UNL     1     -13.905   8.729  72.111  1.00  0.00    -0.513 C  
ENDBRANCH  15  16
ENDBRANCH  14  15
ENDBRANCH  13  14
ENDBRANCH  12  13
ENDBRANCH  11  12
ENDBRANCH   9  11
ENDBRANCH   8   9
ENDBRANCH   7   8
ENDBRANCH   5   7
ENDBRANCH   2   5
TORSDOF 10
ENDMDL
MODEL      361
REMARK 921   NORMALIZED FREE ENERGY PREDICTED BY IDOCK:   -1.95 KCAL/MOL
REMARK 922        TOTAL FREE ENERGY PREDICTED BY IDOCK:   -3.57 KCAL/MOL
REMARK 923 INTER-LIGAND FREE ENERGY PREDICTED BY IDOCK:   -2.51 KCAL/MOL
REMARK 924 INTRA-LIGAND FREE ENERGY PREDICTED BY IDOCK:   -1.06 KCAL/MOL
REMARK 927      BINDING AFFINITY PREDICTED BY RF-SCORE:    0.00 PKD
ROOT
HETATM    1  N   UNL     1      -8.844   3.182  70.952  1.00  0.00    -0.076 NA 
HETATM    2  C   UNL     1      -9.845   3.602  71.934  1.00  0.00    -0.171 C  
HETATM    3  H1  UNL     1      -9.193   2.393  70.406  1.00  0.00     0.000 HD 
HETATM    4  H2  UNL     1      -7.947   2.975  71.390  1.00  0.00     0.000 HD 
ENDROOT
BRANCH   2   5
HETATM    5  C   UNL     1      -9.323   4.786  72.754  1.00  0.00    -0.128 C  
HETATM    6  O   UNL     1      -9.145   4.711  73.969  1.00  0.00    -0.109 OA 
BRANCH   5   7
HETATM    7  C   UNL     1      -8.969   6.021  71.955  1.00  0.00    -0.140 C  
BRANCH   7   8
HETATM    8  C   UNL     1     -10.163   6.594  71.204  1.00  0.00    -0.216 C  
BRANCH   8   9
HETATM    9  C   UNL     1     -10.827   7.754  71.909  1.00  0.00    -0.235 C  
HETATM   10  O   UNL     1     -11.226   7.719  73.063  1.00  0.00    -0.405 OA 
BRANCH   9  11
HETATM   11  O   UNL     1     -11.079   8.766  71.031  1.00  0.00    -0.245 OA 
BRANCH  11  12
HETATM   12  C   UNL     1     -10.988   8.387  69.657  1.00  0.00    -0.087 C  
BRANCH  12  13
HETATM   13  C   UNL     1     -10.314   9.460  68.818  1.00  0.00    -0.230 C  
BRANCH  13  14
HETATM   14  C   UNL     1      -9.255   8.808  67.932  1.00  0.00    -0.149 C  
BRANCH  14  15
HETATM   15  C   UNL     1      -8.029   8.357  68.720  1.00  0.00    -0.120 C  
BRANCH  15  16
HETATM   16  C   UNL     1      -7.399   9.540  69.456  1.00  0.00    -0.077 C  
HETATM   17  C   UNL     1      -7.326   9.288  70.953  1.00  0.00    -0.120 C  
ENDBRANCH  15  16
ENDBRANCH  14  15
ENDBRANCH  13  14
ENDBRANCH  12  13
ENDBRANCH  11  12
ENDBRANCH   9  11
ENDBRANCH   8   9
ENDBRANCH   7   8
ENDBRANCH   5   7
ENDBRANCH   2   5
TORSDOF 10
ENDMDL
MODEL      362
REMARK 921   NORMALIZED FREE ENERGY PREDICTED BY IDOCK:   -1.93 KCAL/MOL
REMARK 922        TOTAL FREE ENERGY PREDICTED BY IDOCK:   -3.55 KCAL/MOL
REMARK 923 INTER-LIGAND FREE ENERGY PREDICTED BY IDOCK:   -2.95 KCAL/MOL
REMARK 924 INTRA-LIGAND FREE ENERGY PREDICTED BY IDOCK:   -0.60 KCAL/MOL
REMARK 927      BINDING AFFINITY PREDICTED BY RF-SCORE:    0.00 PKD
ROOT
HETATM    1  N   UNL     1      -6.900  11.305  66.313  1.00  0.00    -0.338 NA 
HETATM    2  C   UNL     1      -6.122  10.371  67.127  1.00  0.00    -0.055 C  
HETATM    3  H1  UNL     1      -6.297  11.777  65.639  1.00  0.00     0.000 HD 
HETATM    4  H2  UNL     1      -7.421  11.967  66.888  1.00  0.00     0.000 HD 
ENDROOT
BRANCH   2   5
HETATM    5  C   UNL     1      -7.028   9.661  68.138  1.00  0.00    -0.077 C  
HETATM    6  O   UNL     1      -7.826  10.275  68.845  1.00  0.00    -0.090 OA 
BRANCH   5   7
HETATM    7  C   UNL     1      -6.928   8.151  68.148  1.00  0.00    -0.077 C  
BRANCH   7   8
HETATM    8  C   UNL     1      -8.287   7.476  68.274  1.00  0.00    -0.125 C  
BRANCH   8   9
HETATM    9  C   UNL     1      -8.310   6.334  69.264  1.00  0.00    -0.117 C  
HETATM   10  O   UNL     1      -7.513   5.409  69.263  1.00  0.00    -0.070 OA 
BRANCH   9  11
HETATM   11  O   UNL     1      -9.438   6.386  70.027  1.00  0.00    -0.155 OA 
BRANCH  11  12
HETATM   12  C   UNL     1      -9.219   6.818  71.371  1.00  0.00    -0.153 C  
BRANCH  12  13
HETATM   13  C   UNL     1     -10.250   7.845  71.810  1.00  0.00    -0.247 C  
BRANCH  13  14
HETATM   14  C   UNL     1     -10.081   9.110  70.972  1.00  0.00    -0.373 C  
BRANCH  14  15
HETATM   15  C   UNL     1     -11.348   9.479  70.207  1.00  0.00    -0.284 C  
BRANCH  15  16
HETATM   16  C   UNL     1     -12.243  10.382  71.056  1.00  0.00    -0.498 C  
HETATM   17  C   UNL     1     -13.614   9.762  71.271  1.00  0.00    -0.285 C  
ENDBRANCH  15  16
ENDBRANCH  14  15
ENDBRANCH  13  14
ENDBRANCH  12  13
ENDBRANCH  11  12
ENDBRANCH   9  11
ENDBRANCH   8   9
ENDBRANCH   7   8
ENDBRANCH   5   7
ENDBRANCH   2   5
TORSDOF 10
ENDMDL
MODEL      363
REMARK 921   NORMALIZED FREE ENERGY PREDICTED BY IDOCK:   -1.92 KCAL/MOL
REMARK 922        TOTAL FREE ENERGY PREDICTED BY IDOCK:   -3.52 KCAL/MOL
REMARK 923 INTER-LIGAND FREE ENERGY PREDICTED BY IDOCK:   -2.74 KCAL/MOL
REMARK 924 INTRA-LIGAND FREE ENERGY PREDICTED BY IDOCK:   -0.78 KCAL/MOL
REMARK 927      BINDING AFFINITY PREDICTED BY RF-SCORE:    0.00 PKD
ROOT
HETATM    1  N   UNL     1     -12.390   6.927  70.398  1.00  0.00    -0.604 NA 
HETATM    2  C   UNL     1     -11.978   6.505  71.737  1.00  0.00    -0.344 C  
HETATM    3  H1  UNL     1     -13.210   7.531  70.453  1.00  0.00     0.000 HD 
HETATM    4  H2  UNL     1     -12.545   6.130  69.780  1.00  0.00     0.000 HD 
ENDROOT
BRANCH   2   5
HETATM    5  C   UNL     1     -10.746   5.598  71.655  1.00  0.00    -0.251 C  
HETATM    6  O   UNL     1     -10.453   4.811  72.555  1.00  0.00    -0.195 OA 
BRANCH   5   7
HETATM    7  C   UNL     1      -9.965   5.681  70.362  1.00  0.00    -0.267 C  
BRANCH   7   8
HETATM    8  C   UNL     1      -9.753   4.317  69.718  1.00  0.00    -0.290 C  
BRANCH   8   9
HETATM    9  C   UNL     1      -9.022   4.374  68.397  1.00  0.00    -0.115 C  
HETATM   10  O   UNL     1      -8.127   3.608  68.074  1.00  0.00    -0.082 OA 
BRANCH   9  11
HETATM   11  O   UNL     1      -9.370   5.497  67.708  1.00  0.00    -0.111 OA 
BRANCH  11  12
HETATM   12  C   UNL     1      -8.942   5.507  66.345  1.00  0.00    -0.131 C  
BRANCH  12  13
HETATM   13  C   UNL     1      -7.863   6.549  66.100  1.00  0.00    -0.106 C  
BRANCH  13  14
HETATM   14  C   UNL     1      -7.744   7.443  67.331  1.00  0.00    -0.114 C  
BRANCH  14  15
HETATM   15  C   UNL     1      -6.419   7.257  68.064  1.00  0.00    -0.045 C  
BRANCH  15  16
HETATM   16  C   UNL     1      -6.648   7.170  69.573  1.00  0.00    -0.044 C  
HETATM   17  C   UNL     1      -6.747   8.552  70.201  1.00  0.00    -0.039 C  
ENDBRANCH  15  16
ENDBRANCH  14  15
ENDBRANCH  13  14
ENDBRANCH  12  13
ENDBRANCH  11  12
ENDBRANCH   9  11
ENDBRANCH   8   9
ENDBRANCH   7   8
ENDBRANCH   5   7
ENDBRANCH   2   5
TORSDOF 10
ENDMDL
MODEL      364
REMARK 921   NORMALIZED FREE ENERGY PREDICTED BY IDOCK:   -1.91 KCAL/MOL
REMARK 922        TOTAL FREE ENERGY PREDICTED BY IDOCK:   -3.51 KCAL/MOL
REMARK 923 INTER-LIGAND FREE ENERGY PREDICTED BY IDOCK:   -3.66 KCAL/MOL
REMARK 924 INTRA-LIGAND FREE ENERGY PREDICTED BY IDOCK:    0.16 KCAL/MOL
REMARK 927      BINDING AFFINITY PREDICTED BY RF-SCORE:    0.00 PKD
ROOT
HETATM    1  N   UNL     1      -9.981  14.287  64.553  1.00  0.00    -0.631 NA 
HETATM    2  C   UNL     1     -10.076  15.266  65.636  1.00  0.00    -0.371 C  
HETATM    3  H1  UNL     1      -9.477  14.683  63.759  1.00  0.00     0.000 HD 
HETATM    4  H2  UNL     1     -10.898  13.931  64.282  1.00  0.00     0.000 HD 
ENDROOT
BRANCH   2   5
HETATM    5  C   UNL     1     -10.833  14.672  66.828  1.00  0.00    -0.312 C  
HETATM    6  O   UNL     1     -11.717  15.293  67.416  1.00  0.00    -0.268 OA 
BRANCH   5   7
HETATM    7  C   UNL     1     -10.471  13.245  67.178  1.00  0.00    -0.248 C  
BRANCH   7   8
HETATM    8  C   UNL     1      -9.495  13.158  68.343  1.00  0.00    -0.166 C  
BRANCH   8   9
HETATM    9  C   UNL     1      -8.910  14.492  68.748  1.00  0.00    -0.153 C  
HETATM   10  O   UNL     1      -9.488  15.312  69.444  1.00  0.00    -0.235 OA 
BRANCH   9  11
HETATM   11  O   UNL     1      -7.743  14.723  68.082  1.00  0.00    -0.109 OA 
BRANCH  11  12
HETATM   12  C   UNL     1      -6.588  14.774  68.921  1.00  0.00    -0.091 C  
BRANCH  12  13
HETATM   13  C   UNL     1      -5.705  15.967  68.594  1.00  0.00    -0.101 C  
BRANCH  13  14
HETATM   14  C   UNL     1      -6.309  16.726  67.415  1.00  0.00    -0.197 C  
BRANCH  14  15
HETATM   15  C   UNL     1      -6.852  18.094  67.817  1.00  0.00    -0.202 C  
BRANCH  15  16
HETATM   16  C   UNL     1      -6.667  18.325  69.318  1.00  0.00    -0.228 C  
HETATM   17  C   UNL     1      -6.717  19.805  69.663  1.00  0.00    -0.351 C  
ENDBRANCH  15  16
ENDBRANCH  14  15
ENDBRANCH  13  14
ENDBRANCH  12  13
ENDBRANCH  11  12
ENDBRANCH   9  11
ENDBRANCH   8   9
ENDBRANCH   7   8
ENDBRANCH   5   7
ENDBRANCH   2   5
TORSDOF 10
ENDMDL
MODEL      365
REMARK 921   NORMALIZED FREE ENERGY PREDICTED BY IDOCK:   -1.91 KCAL/MOL
REMARK 922        TOTAL FREE ENERGY PREDICTED BY IDOCK:   -3.50 KCAL/MOL
REMARK 923 INTER-LIGAND FREE ENERGY PREDICTED BY IDOCK:   -3.25 KCAL/MOL
REMARK 924 INTRA-LIGAND FREE ENERGY PREDICTED BY IDOCK:   -0.25 KCAL/MOL
REMARK 927      BINDING AFFINITY PREDICTED BY RF-SCORE:    0.00 PKD
ROOT
HETATM    1  N   UNL     1      -6.581  11.339  66.220  1.00  0.00    -0.331 NA 
HETATM    2  C   UNL     1      -6.600  10.815  67.586  1.00  0.00    -0.061 C  
HETATM    3  H1  UNL     1      -5.773  10.977  65.712  1.00  0.00     0.000 HD 
HETATM    4  H2  UNL     1      -6.616  12.358  66.203  1.00  0.00     0.000 HD 
ENDROOT
BRANCH   2   5
HETATM    5  C   UNL     1      -7.812  11.357  68.349  1.00  0.00    -0.135 C  
HETATM    6  O   UNL     1      -7.842  12.501  68.803  1.00  0.00    -0.079 OA 
BRANCH   5   7
HETATM    7  C   UNL     1      -8.996  10.418  68.436  1.00  0.00    -0.137 C  
BRANCH   7   8
HETATM    8  C   UNL     1     -10.030  10.680  67.349  1.00  0.00    -0.213 C  
BRANCH   8   9
HETATM    9  C   UNL     1     -10.895  11.891  67.611  1.00  0.00    -0.227 C  
HETATM   10  O   UNL     1     -11.824  11.912  68.404  1.00  0.00    -0.329 OA 
BRANCH   9  11
HETATM   11  O   UNL     1     -10.613  12.881  66.718  1.00  0.00    -0.254 OA 
BRANCH  11  12
HETATM   12  C   UNL     1     -11.491  12.925  65.592  1.00  0.00    -0.332 C  
BRANCH  12  13
HETATM   13  C   UNL     1     -12.407  14.136  65.636  1.00  0.00    -0.473 C  
BRANCH  13  14
HETATM   14  C   UNL     1     -11.725  15.304  64.926  1.00  0.00    -0.230 C  
BRANCH  14  15
HETATM   15  C   UNL     1     -11.075  16.281  65.900  1.00  0.00     0.094 C  
BRANCH  15  16
HETATM   16  C   UNL     1      -9.680  15.795  66.297  1.00  0.00    -0.328 C  
HETATM   17  C   UNL     1      -9.428  15.984  67.784  1.00  0.00    -0.217 C  
ENDBRANCH  15  16
ENDBRANCH  14  15
ENDBRANCH  13  14
ENDBRANCH  12  13
ENDBRANCH  11  12
ENDBRANCH   9  11
ENDBRANCH   8   9
ENDBRANCH   7   8
ENDBRANCH   5   7
ENDBRANCH   2   5
TORSDOF 10
ENDMDL
MODEL      366
REMARK 921   NORMALIZED FREE ENERGY PREDICTED BY IDOCK:   -1.90 KCAL/MOL
REMARK 922        TOTAL FREE ENERGY PREDICTED BY IDOCK:   -3.49 KCAL/MOL
REMARK 923 INTER-LIGAND FREE ENERGY PREDICTED BY IDOCK:   -3.02 KCAL/MOL
REMARK 924 INTRA-LIGAND FREE ENERGY PREDICTED BY IDOCK:   -0.47 KCAL/MOL
REMARK 927      BINDING AFFINITY PREDICTED BY RF-SCORE:    0.00 PKD
ROOT
HETATM    1  N   UNL     1     -12.527   7.065  70.339  1.00  0.00    -0.601 NA 
HETATM    2  C   UNL     1     -12.531   6.867  71.788  1.00  0.00    -0.356 C  
HETATM    3  H1  UNL     1     -13.304   7.665  70.060  1.00  0.00     0.000 HD 
HETATM    4  H2  UNL     1     -12.531   6.179  69.834  1.00  0.00     0.000 HD 
ENDROOT
BRANCH   2   5
HETATM    5  C   UNL     1     -11.365   5.967  72.207  1.00  0.00    -0.298 C  
HETATM    6  O   UNL     1     -11.423   5.239  73.198  1.00  0.00    -0.310 OA 
BRANCH   5   7
HETATM    7  C   UNL     1     -10.172   5.976  71.275  1.00  0.00    -0.253 C  
BRANCH   7   8
HETATM    8  C   UNL     1     -10.034   4.679  70.489  1.00  0.00    -0.295 C  
BRANCH   8   9
HETATM    9  C   UNL     1      -8.936   4.711  69.452  1.00  0.00    -0.096 C  
HETATM   10  O   UNL     1      -7.896   4.075  69.534  1.00  0.00    -0.053 OA 
BRANCH   9  11
HETATM   11  O   UNL     1      -9.186   5.674  68.521  1.00  0.00    -0.119 OA 
BRANCH  11  12
HETATM   12  C   UNL     1     -10.275   5.378  67.646  1.00  0.00    -0.186 C  
BRANCH  12  13
HETATM   13  C   UNL     1      -9.816   5.216  66.207  1.00  0.00    -0.209 C  
BRANCH  13  14
HETATM   14  C   UNL     1      -8.402   5.776  66.068  1.00  0.00    -0.126 C  
BRANCH  14  15
HETATM   15  C   UNL     1      -7.401   4.727  65.595  1.00  0.00    -0.077 C  
BRANCH  15  16
HETATM   16  C   UNL     1      -6.056   4.912  66.299  1.00  0.00    -0.027 C  
HETATM   17  C   UNL     1      -5.218   5.985  65.623  1.00  0.00    -0.013 C  
ENDBRANCH  15  16
ENDBRANCH  14  15
ENDBRANCH  13  14
ENDBRANCH  12  13
ENDBRANCH  11  12
ENDBRANCH   9  11
ENDBRANCH   8   9
ENDBRANCH   7   8
ENDBRANCH   5   7
ENDBRANCH   2   5
TORSDOF 10
ENDMDL
MODEL      367
REMARK 921   NORMALIZED FREE ENERGY PREDICTED BY IDOCK:   -1.90 KCAL/MOL
REMARK 922        TOTAL FREE ENERGY PREDICTED BY IDOCK:   -3.49 KCAL/MOL
REMARK 923 INTER-LIGAND FREE ENERGY PREDICTED BY IDOCK:   -3.16 KCAL/MOL
REMARK 924 INTRA-LIGAND FREE ENERGY PREDICTED BY IDOCK:   -0.33 KCAL/MOL
REMARK 927      BINDING AFFINITY PREDICTED BY RF-SCORE:    0.00 PKD
ROOT
HETATM    1  N   UNL     1      -8.427   2.552  65.738  1.00  0.00    -0.096 NA 
HETATM    2  C   UNL     1      -7.409   2.852  66.745  1.00  0.00    -0.070 C  
HETATM    3  H1  UNL     1      -8.336   1.587  65.417  1.00  0.00     0.000 HD 
HETATM    4  H2  UNL     1      -8.403   3.215  64.964  1.00  0.00     0.000 HD 
ENDROOT
BRANCH   2   5
HETATM    5  C   UNL     1      -7.545   4.299  67.227  1.00  0.00    -0.077 C  
HETATM    6  O   UNL     1      -6.621   5.107  67.142  1.00  0.00    -0.050 OA 
BRANCH   5   7
HETATM    7  C   UNL     1      -8.916   4.684  67.740  1.00  0.00    -0.126 C  
BRANCH   7   8
HETATM    8  C   UNL     1      -9.065   6.187  67.937  1.00  0.00    -0.117 C  
BRANCH   8   9
HETATM    9  C   UNL     1     -10.501   6.658  67.958  1.00  0.00    -0.216 C  
HETATM   10  O   UNL     1     -11.369   6.183  68.674  1.00  0.00    -0.319 OA 
BRANCH   9  11
HETATM   11  O   UNL     1     -10.726   7.547  66.950  1.00  0.00    -0.352 OA 
BRANCH  11  12
HETATM   12  C   UNL     1      -9.787   8.621  66.891  1.00  0.00    -0.238 C  
BRANCH  12  13
HETATM   13  C   UNL     1     -10.280   9.756  66.010  1.00  0.00    -0.263 C  
BRANCH  13  14
HETATM   14  C   UNL     1      -9.989  11.086  66.701  1.00  0.00    -0.249 C  
BRANCH  14  15
HETATM   15  C   UNL     1      -9.849  12.241  65.714  1.00  0.00    -0.260 C  
BRANCH  15  16
HETATM   16  C   UNL     1     -10.597  13.474  66.222  1.00  0.00    -0.288 C  
HETATM   17  C   UNL     1     -11.943  13.100  66.822  1.00  0.00    -0.434 C  
ENDBRANCH  15  16
ENDBRANCH  14  15
ENDBRANCH  13  14
ENDBRANCH  12  13
ENDBRANCH  11  12
ENDBRANCH   9  11
ENDBRANCH   8   9
ENDBRANCH   7   8
ENDBRANCH   5   7
ENDBRANCH   2   5
TORSDOF 10
ENDMDL
MODEL      368
REMARK 921   NORMALIZED FREE ENERGY PREDICTED BY IDOCK:   -1.88 KCAL/MOL
REMARK 922        TOTAL FREE ENERGY PREDICTED BY IDOCK:   -3.46 KCAL/MOL
REMARK 923 INTER-LIGAND FREE ENERGY PREDICTED BY IDOCK:   -2.98 KCAL/MOL
REMARK 924 INTRA-LIGAND FREE ENERGY PREDICTED BY IDOCK:   -0.48 KCAL/MOL
REMARK 927      BINDING AFFINITY PREDICTED BY RF-SCORE:    0.00 PKD
ROOT
HETATM    1  N   UNL     1      -9.475   4.729  68.357  1.00  0.00    -0.136 NA 
HETATM    2  C   UNL     1     -10.080   5.997  67.947  1.00  0.00    -0.155 C  
HETATM    3  H1  UNL     1      -9.451   4.077  67.573  1.00  0.00     0.000 HD 
HETATM    4  H2  UNL     1      -9.945   4.330  69.170  1.00  0.00     0.000 HD 
ENDROOT
BRANCH   2   5
HETATM    5  C   UNL     1     -10.117   6.976  69.124  1.00  0.00    -0.180 C  
HETATM    6  O   UNL     1     -11.147   7.193  69.762  1.00  0.00    -0.254 OA 
BRANCH   5   7
HETATM    7  C   UNL     1      -8.787   7.595  69.494  1.00  0.00    -0.139 C  
BRANCH   7   8
HETATM    8  C   UNL     1      -8.904   9.075  69.834  1.00  0.00    -0.164 C  
BRANCH   8   9
HETATM    9  C   UNL     1      -7.843   9.934  69.186  1.00  0.00    -0.105 C  
HETATM   10  O   UNL     1      -6.663   9.922  69.502  1.00  0.00    -0.048 OA 
BRANCH   9  11
HETATM   11  O   UNL     1      -8.412  10.841  68.343  1.00  0.00    -0.123 OA 
BRANCH  11  12
HETATM   12  C   UNL     1      -9.654  11.374  68.805  1.00  0.00    -0.129 C  
BRANCH  12  13
HETATM   13  C   UNL     1     -10.360  12.177  67.725  1.00  0.00    -0.217 C  
BRANCH  13  14
HETATM   14  C   UNL     1      -9.675  11.921  66.385  1.00  0.00    -0.238 C  
BRANCH  14  15
HETATM   15  C   UNL     1     -10.521  11.063  65.450  1.00  0.00    -0.306 C  
BRANCH  15  16
HETATM   16  C   UNL     1     -11.668  11.885  64.859  1.00  0.00    -0.262 C  
HETATM   17  C   UNL     1     -11.272  12.521  63.536  1.00  0.00    -0.525 C  
ENDBRANCH  15  16
ENDBRANCH  14  15
ENDBRANCH  13  14
ENDBRANCH  12  13
ENDBRANCH  11  12
ENDBRANCH   9  11
ENDBRANCH   8   9
ENDBRANCH   7   8
ENDBRANCH   5   7
ENDBRANCH   2   5
TORSDOF 10
ENDMDL
MODEL      369
REMARK 921   NORMALIZED FREE ENERGY PREDICTED BY IDOCK:   -1.87 KCAL/MOL
REMARK 922        TOTAL FREE ENERGY PREDICTED BY IDOCK:   -3.45 KCAL/MOL
REMARK 923 INTER-LIGAND FREE ENERGY PREDICTED BY IDOCK:   -3.20 KCAL/MOL
REMARK 924 INTRA-LIGAND FREE ENERGY PREDICTED BY IDOCK:   -0.25 KCAL/MOL
REMARK 927      BINDING AFFINITY PREDICTED BY RF-SCORE:    0.00 PKD
ROOT
HETATM    1  N   UNL     1      -8.131   7.628  65.311  1.00  0.00    -0.128 NA 
HETATM    2  C   UNL     1      -8.605   7.611  66.695  1.00  0.00    -0.133 C  
HETATM    3  H1  UNL     1      -7.295   8.206  65.228  1.00  0.00     0.000 HD 
HETATM    4  H2  UNL     1      -8.862   7.920  64.663  1.00  0.00     0.000 HD 
ENDROOT
BRANCH   2   5
HETATM    5  C   UNL     1      -9.860   6.742  66.819  1.00  0.00    -0.178 C  
HETATM    6  O   UNL     1     -10.920   7.184  67.260  1.00  0.00    -0.310 OA 
BRANCH   5   7
HETATM    7  C   UNL     1      -9.726   5.331  66.290  1.00  0.00    -0.185 C  
BRANCH   7   8
HETATM    8  C   UNL     1      -8.766   4.485  67.117  1.00  0.00    -0.104 C  
BRANCH   8   9
HETATM    9  C   UNL     1      -8.721   4.869  68.578  1.00  0.00    -0.097 C  
HETATM   10  O   UNL     1      -7.730   5.305  69.143  1.00  0.00    -0.079 OA 
BRANCH   9  11
HETATM   11  O   UNL     1      -9.870   4.491  69.206  1.00  0.00    -0.192 OA 
BRANCH  11  12
HETATM   12  C   UNL     1      -9.673   3.935  70.507  1.00  0.00    -0.177 C  
BRANCH  12  13
HETATM   13  C   UNL     1     -10.108   4.894  71.603  1.00  0.00    -0.266 C  
BRANCH  13  14
HETATM   14  C   UNL     1     -11.136   5.868  71.034  1.00  0.00    -0.315 C  
BRANCH  14  15
HETATM   15  C   UNL     1     -11.216   7.166  71.831  1.00  0.00    -0.282 C  
BRANCH  15  16
HETATM   16  C   UNL     1     -12.300   8.081  71.259  1.00  0.00    -0.290 C  
HETATM   17  C   UNL     1     -13.692   7.586  71.621  1.00  0.00    -0.465 C  
ENDBRANCH  15  16
ENDBRANCH  14  15
ENDBRANCH  13  14
ENDBRANCH  12  13
ENDBRANCH  11  12
ENDBRANCH   9  11
ENDBRANCH   8   9
ENDBRANCH   7   8
ENDBRANCH   5   7
ENDBRANCH   2   5
TORSDOF 10
ENDMDL
MODEL      370
REMARK 921   NORMALIZED FREE ENERGY PREDICTED BY IDOCK:   -1.87 KCAL/MOL
REMARK 922        TOTAL FREE ENERGY PREDICTED BY IDOCK:   -3.44 KCAL/MOL
REMARK 923 INTER-LIGAND FREE ENERGY PREDICTED BY IDOCK:   -2.92 KCAL/MOL
REMARK 924 INTRA-LIGAND FREE ENERGY PREDICTED BY IDOCK:   -0.52 KCAL/MOL
REMARK 927      BINDING AFFINITY PREDICTED BY RF-SCORE:    0.00 PKD
ROOT
HETATM    1  N   UNL     1     -11.367   6.484  66.810  1.00  0.00    -0.800 NA 
HETATM    2  C   UNL     1     -10.503   7.653  66.978  1.00  0.00    -0.349 C  
HETATM    3  H1  UNL     1     -12.276   6.764  66.441  1.00  0.00     0.000 HD 
HETATM    4  H2  UNL     1     -11.455   5.949  67.674  1.00  0.00     0.000 HD 
ENDROOT
BRANCH   2   5
HETATM    5  C   UNL     1      -9.138   7.232  67.532  1.00  0.00    -0.124 C  
HETATM    6  O   UNL     1      -9.028   6.523  68.531  1.00  0.00    -0.127 OA 
BRANCH   5   7
HETATM    7  C   UNL     1      -7.944   7.684  66.720  1.00  0.00    -0.111 C  
BRANCH   7   8
HETATM    8  C   UNL     1      -7.950   7.118  65.306  1.00  0.00    -0.127 C  
BRANCH   8   9
HETATM    9  C   UNL     1      -7.938   8.177  64.227  1.00  0.00    -0.144 C  
HETATM   10  O   UNL     1      -7.006   8.364  63.460  1.00  0.00    -0.086 OA 
BRANCH   9  11
HETATM   11  O   UNL     1      -9.018   8.998  64.352  1.00  0.00    -0.137 OA 
BRANCH  11  12
HETATM   12  C   UNL     1      -8.696  10.388  64.420  1.00  0.00    -0.198 C  
BRANCH  12  13
HETATM   13  C   UNL     1      -8.142  10.774  65.781  1.00  0.00    -0.135 C  
BRANCH  13  14
HETATM   14  C   UNL     1      -9.211  11.541  66.556  1.00  0.00    -0.203 C  
BRANCH  14  15
HETATM   15  C   UNL     1      -8.983  11.500  68.064  1.00  0.00    -0.170 C  
BRANCH  15  16
HETATM   16  C   UNL     1      -7.487  11.503  68.381  1.00  0.00    -0.109 C  
HETATM   17  C   UNL     1      -7.014  12.882  68.813  1.00  0.00    -0.103 C  
ENDBRANCH  15  16
ENDBRANCH  14  15
ENDBRANCH  13  14
ENDBRANCH  12  13
ENDBRANCH  11  12
ENDBRANCH   9  11
ENDBRANCH   8   9
ENDBRANCH   7   8
ENDBRANCH   5   7
ENDBRANCH   2   5
TORSDOF 10
ENDMDL
MODEL      371
REMARK 921   NORMALIZED FREE ENERGY PREDICTED BY IDOCK:   -1.80 KCAL/MOL
REMARK 922        TOTAL FREE ENERGY PREDICTED BY IDOCK:   -3.33 KCAL/MOL
REMARK 923 INTER-LIGAND FREE ENERGY PREDICTED BY IDOCK:   -2.83 KCAL/MOL
REMARK 924 INTRA-LIGAND FREE ENERGY PREDICTED BY IDOCK:   -0.50 KCAL/MOL
REMARK 927      BINDING AFFINITY PREDICTED BY RF-SCORE:    0.00 PKD
ROOT
HETATM    1  N   UNL     1     -11.468   9.602  71.171  1.00  0.00    -0.353 NA 
HETATM    2  C   UNL     1     -10.468   9.938  70.156  1.00  0.00    -0.285 C  
HETATM    3  H1  UNL     1     -12.083  10.399  71.340  1.00  0.00     0.000 HD 
HETATM    4  H2  UNL     1     -11.037   9.264  72.031  1.00  0.00     0.000 HD 
ENDROOT
BRANCH   2   5
HETATM    5  C   UNL     1      -9.545   8.743  69.901  1.00  0.00    -0.177 C  
HETATM    6  O   UNL     1      -9.590   7.723  70.588  1.00  0.00    -0.167 OA 
BRANCH   5   7
HETATM    7  C   UNL     1      -8.632   8.874  68.701  1.00  0.00    -0.133 C  
BRANCH   7   8
HETATM    8  C   UNL     1      -7.917   7.572  68.366  1.00  0.00    -0.123 C  
BRANCH   8   9
HETATM    9  C   UNL     1      -8.597   6.764  67.285  1.00  0.00    -0.120 C  
HETATM   10  O   UNL     1      -9.377   7.230  66.469  1.00  0.00    -0.167 OA 
BRANCH   9  11
HETATM   11  O   UNL     1      -8.363   5.434  67.464  1.00  0.00    -0.104 OA 
BRANCH  11  12
HETATM   12  C   UNL     1      -9.542   4.646  67.632  1.00  0.00    -0.161 C  
BRANCH  12  13
HETATM   13  C   UNL     1      -9.369   3.594  68.715  1.00  0.00    -0.231 C  
BRANCH  13  14
HETATM   14  C   UNL     1      -9.881   4.154  70.040  1.00  0.00    -0.245 C  
BRANCH  14  15
HETATM   15  C   UNL     1      -9.419   3.332  71.240  1.00  0.00    -0.222 C  
BRANCH  15  16
HETATM   16  C   UNL     1     -10.095   3.826  72.520  1.00  0.00    -0.235 C  
HETATM   17  C   UNL     1      -9.071   4.236  73.566  1.00  0.00    -0.104 C  
ENDBRANCH  15  16
ENDBRANCH  14  15
ENDBRANCH  13  14
ENDBRANCH  12  13
ENDBRANCH  11  12
ENDBRANCH   9  11
ENDBRANCH   8   9
ENDBRANCH   7   8
ENDBRANCH   5   7
ENDBRANCH   2   5
TORSDOF 10
ENDMDL
MODEL      372
REMARK 921   NORMALIZED FREE ENERGY PREDICTED BY IDOCK:   -1.79 KCAL/MOL
REMARK 922        TOTAL FREE ENERGY PREDICTED BY IDOCK:   -3.32 KCAL/MOL
REMARK 923 INTER-LIGAND FREE ENERGY PREDICTED BY IDOCK:   -2.93 KCAL/MOL
REMARK 924 INTRA-LIGAND FREE ENERGY PREDICTED BY IDOCK:   -0.39 KCAL/MOL
REMARK 927      BINDING AFFINITY PREDICTED BY RF-SCORE:    0.00 PKD
ROOT
HETATM    1  N   UNL     1      -7.456   3.070  66.677  1.00  0.00    -0.074 NA 
HETATM    2  C   UNL     1      -7.970   1.885  67.366  1.00  0.00    -0.065 C  
HETATM    3  H1  UNL     1      -6.730   2.806  66.010  1.00  0.00     0.000 HD 
HETATM    4  H2  UNL     1      -7.131   3.779  67.334  1.00  0.00     0.000 HD 
ENDROOT
BRANCH   2   5
HETATM    5  C   UNL     1      -9.060   2.280  68.367  1.00  0.00    -0.165 C  
HETATM    6  O   UNL     1      -9.539   1.473  69.163  1.00  0.00    -0.109 OA 
BRANCH   5   7
HETATM    7  C   UNL     1      -9.446   3.743  68.360  1.00  0.00    -0.211 C  
BRANCH   7   8
HETATM    8  C   UNL     1      -9.490   4.342  69.760  1.00  0.00    -0.260 C  
BRANCH   8   9
HETATM    9  C   UNL     1      -8.375   5.324  70.037  1.00  0.00    -0.098 C  
HETATM   10  O   UNL     1      -7.233   5.002  70.325  1.00  0.00    -0.052 OA 
BRANCH   9  11
HETATM   11  O   UNL     1      -8.863   6.595  70.100  1.00  0.00    -0.139 OA 
BRANCH  11  12
HETATM   12  C   UNL     1      -7.868   7.597  70.313  1.00  0.00    -0.092 C  
BRANCH  12  13
HETATM   13  C   UNL     1      -8.250   8.542  71.440  1.00  0.00    -0.186 C  
BRANCH  13  14
HETATM   14  C   UNL     1      -9.386   9.446  70.969  1.00  0.00    -0.210 C  
BRANCH  14  15
HETATM   15  C   UNL     1     -10.740   9.029  71.534  1.00  0.00    -0.421 C  
BRANCH  15  16
HETATM   16  C   UNL     1     -11.853   9.907  70.962  1.00  0.00    -0.463 C  
HETATM   17  C   UNL     1     -11.305  10.931  69.981  1.00  0.00    -0.386 C  
ENDBRANCH  15  16
ENDBRANCH  14  15
ENDBRANCH  13  14
ENDBRANCH  12  13
ENDBRANCH  11  12
ENDBRANCH   9  11
ENDBRANCH   8   9
ENDBRANCH   7   8
ENDBRANCH   5   7
ENDBRANCH   2   5
TORSDOF 10
ENDMDL
MODEL      373
REMARK 921   NORMALIZED FREE ENERGY PREDICTED BY IDOCK:   -1.77 KCAL/MOL
REMARK 922        TOTAL FREE ENERGY PREDICTED BY IDOCK:   -3.29 KCAL/MOL
REMARK 923 INTER-LIGAND FREE ENERGY PREDICTED BY IDOCK:   -3.01 KCAL/MOL
REMARK 924 INTRA-LIGAND FREE ENERGY PREDICTED BY IDOCK:   -0.28 KCAL/MOL
REMARK 927      BINDING AFFINITY PREDICTED BY RF-SCORE:    0.00 PKD
ROOT
HETATM    1  N   UNL     1      -6.719   2.730  73.638  1.00  0.00    -0.026 NA 
HETATM    2  C   UNL     1      -8.037   3.186  73.198  1.00  0.00    -0.072 C  
HETATM    3  H1  UNL     1      -6.794   1.833  74.118  1.00  0.00     0.000 HD 
HETATM    4  H2  UNL     1      -6.248   3.430  74.212  1.00  0.00     0.000 HD 
ENDROOT
BRANCH   2   5
HETATM    5  C   UNL     1      -7.924   4.533  72.478  1.00  0.00    -0.091 C  
HETATM    6  O   UNL     1      -7.202   4.690  71.495  1.00  0.00    -0.062 OA 
BRANCH   5   7
HETATM    7  C   UNL     1      -8.821   5.629  73.011  1.00  0.00    -0.123 C  
BRANCH   7   8
HETATM    8  C   UNL     1     -10.296   5.254  72.963  1.00  0.00    -0.228 C  
BRANCH   8   9
HETATM    9  C   UNL     1     -11.078   5.992  71.901  1.00  0.00    -0.277 C  
HETATM   10  O   UNL     1     -11.923   6.841  72.137  1.00  0.00    -0.299 OA 
BRANCH   9  11
HETATM   11  O   UNL     1     -10.841   5.451  70.672  1.00  0.00    -0.228 OA 
BRANCH  11  12
HETATM   12  C   UNL     1     -11.292   6.254  69.580  1.00  0.00    -0.422 C  
BRANCH  12  13
HETATM   13  C   UNL     1     -10.418   7.481  69.382  1.00  0.00    -0.222 C  
BRANCH  13  14
HETATM   14  C   UNL     1      -9.905   7.501  67.944  1.00  0.00    -0.185 C  
BRANCH  14  15
HETATM   15  C   UNL     1     -10.577   8.577  67.098  1.00  0.00    -0.314 C  
BRANCH  15  16
HETATM   16  C   UNL     1      -9.529   9.511  66.489  1.00  0.00    -0.236 C  
HETATM   17  C   UNL     1      -8.875   8.890  65.266  1.00  0.00    -0.227 C  
ENDBRANCH  15  16
ENDBRANCH  14  15
ENDBRANCH  13  14
ENDBRANCH  12  13
ENDBRANCH  11  12
ENDBRANCH   9  11
ENDBRANCH   8   9
ENDBRANCH   7   8
ENDBRANCH   5   7
ENDBRANCH   2   5
TORSDOF 10
ENDMDL
MODEL      374
REMARK 921   NORMALIZED FREE ENERGY PREDICTED BY IDOCK:   -1.28 KCAL/MOL
REMARK 922        TOTAL FREE ENERGY PREDICTED BY IDOCK:   -2.51 KCAL/MOL
REMARK 923 INTER-LIGAND FREE ENERGY PREDICTED BY IDOCK:   -2.06 KCAL/MOL
REMARK 924 INTRA-LIGAND FREE ENERGY PREDICTED BY IDOCK:   -0.45 KCAL/MOL
REMARK 927      BINDING AFFINITY PREDICTED BY RF-SCORE:    0.00 PKD
ROOT
HETATM    1  N   UNL     1      -9.163   7.072  65.878  1.00  0.00    -0.375 NA 
HETATM    2  C   UNL     1      -9.006   7.567  67.246  1.00  0.00    -0.124 C  
HETATM    3  H1  UNL     1      -8.265   7.075  65.393  1.00  0.00     0.000 HD 
HETATM    4  H2  UNL     1      -9.874   7.593  65.365  1.00  0.00     0.000 HD 
ENDROOT
BRANCH   2   5
HETATM    5  C   UNL     1     -10.353   7.562  67.973  1.00  0.00    -0.204 C  
HETATM    6  O   UNL     1     -10.881   8.597  68.379  1.00  0.00    -0.094 OA 
BRANCH   5   7
HETATM    7  C   UNL     1     -11.023   6.209  68.088  1.00  0.00    -0.398 C  
BRANCH   7   8
HETATM    8  C   UNL     1     -10.967   5.647  69.502  1.00  0.00    -0.266 C  
BRANCH   8   9
HETATM    9  C   UNL     1      -9.824   4.685  69.729  1.00  0.00    -0.226 C  
HETATM   10  O   UNL     1      -9.755   3.571  69.232  1.00  0.00    -0.143 OA 
BRANCH   9  11
HETATM   11  O   UNL     1      -8.988   5.156  70.697  1.00  0.00    -0.127 OA 
BRANCH  11  12
HETATM   12  C   UNL     1      -7.947   4.251  71.067  1.00  0.00    -0.071 C  
BRANCH  12  13
HETATM   13  C   UNL     1      -6.651   4.979  71.382  1.00  0.00    -0.039 C  
BRANCH  13  14
HETATM   14  C   UNL     1      -6.959   6.183  72.269  1.00  0.00    -0.075 C  
BRANCH  14  15
HETATM   15  C   UNL     1      -6.106   7.399  71.921  1.00  0.00    -0.036 C  
BRANCH  15  16
HETATM   16  C   UNL     1      -6.325   8.517  72.941  1.00  0.00    -0.094 C  
HETATM   17  C   UNL     1      -7.805   8.738  73.215  1.00  0.00     0.213 C  
ENDBRANCH  15  16
ENDBRANCH  14  15
ENDBRANCH  13  14
ENDBRANCH  12  13
ENDBRANCH  11  12
ENDBRANCH   9  11
ENDBRANCH   8   9
ENDBRANCH   7   8
ENDBRANCH   5   7
ENDBRANCH   2   5
TORSDOF 10
ENDMDL
MODEL      375
REMARK 921   NORMALIZED FREE ENERGY PREDICTED BY IDOCK:   -1.16 KCAL/MOL
REMARK 922        TOTAL FREE ENERGY PREDICTED BY IDOCK:   -2.32 KCAL/MOL
REMARK 923 INTER-LIGAND FREE ENERGY PREDICTED BY IDOCK:   -2.72 KCAL/MOL
REMARK 924 INTRA-LIGAND FREE ENERGY PREDICTED BY IDOCK:    0.40 KCAL/MOL
REMARK 927      BINDING AFFINITY PREDICTED BY RF-SCORE:    0.00 PKD
ROOT
HETATM    1  N   UNL     1     -11.832  14.503  64.435  1.00  0.00    -0.591 NA 
HETATM    2  C   UNL     1     -10.685  14.684  65.325  1.00  0.00    -0.381 C  
HETATM    3  H1  UNL     1     -11.518  14.366  63.474  1.00  0.00     0.000 HD 
HETATM    4  H2  UNL     1     -12.497  15.272  64.512  1.00  0.00     0.000 HD 
ENDROOT
BRANCH   2   5
HETATM    5  C   UNL     1     -11.156  14.889  66.768  1.00  0.00    -0.335 C  
HETATM    6  O   UNL     1     -12.335  15.106  67.046  1.00  0.00     0.221 OA 
BRANCH   5   7
HETATM    7  C   UNL     1     -10.088  14.729  67.827  1.00  0.00    -0.224 C  
BRANCH   7   8
HETATM    8  C   UNL     1      -8.681  14.904  67.270  1.00  0.00    -0.224 C  
BRANCH   8   9
HETATM    9  C   UNL     1      -7.703  15.492  68.260  1.00  0.00    -0.115 C  
HETATM   10  O   UNL     1      -8.024  15.984  69.331  1.00  0.00    -0.236 OA 
BRANCH   9  11
HETATM   11  O   UNL     1      -6.456  15.563  67.715  1.00  0.00    -0.137 OA 
BRANCH  11  12
HETATM   12  C   UNL     1      -6.285  16.623  66.774  1.00  0.00    -0.099 C  
BRANCH  12  13
HETATM   13  C   UNL     1      -7.572  16.929  66.027  1.00  0.00    -0.063 C  
BRANCH  13  14
HETATM   14  C   UNL     1      -7.726  18.443  65.901  1.00  0.00    -0.128 C  
BRANCH  14  15
HETATM   15  C   UNL     1      -7.046  19.198  67.039  1.00  0.00    -0.213 C  
BRANCH  15  16
HETATM   16  C   UNL     1      -8.075  19.631  68.084  1.00  0.00    -0.353 C  
HETATM   17  C   UNL     1      -8.681  20.983  67.741  1.00  0.00     0.159 C  
ENDBRANCH  15  16
ENDBRANCH  14  15
ENDBRANCH  13  14
ENDBRANCH  12  13
ENDBRANCH  11  12
ENDBRANCH   9  11
ENDBRANCH   8   9
ENDBRANCH   7   8
ENDBRANCH   5   7
ENDBRANCH   2   5
TORSDOF 10
ENDMDL
MODEL      376
REMARK 921   NORMALIZED FREE ENERGY PREDICTED BY IDOCK:   -0.88 KCAL/MOL
REMARK 922        TOTAL FREE ENERGY PREDICTED BY IDOCK:   -1.88 KCAL/MOL
REMARK 923 INTER-LIGAND FREE ENERGY PREDICTED BY IDOCK:   -2.01 KCAL/MOL
REMARK 924 INTRA-LIGAND FREE ENERGY PREDICTED BY IDOCK:    0.13 KCAL/MOL
REMARK 927      BINDING AFFINITY PREDICTED BY RF-SCORE:    0.00 PKD
ROOT
HETATM    1  N   UNL     1     -10.979   7.754  69.999  1.00  0.00    -0.318 NA 
HETATM    2  C   UNL     1     -11.385   9.099  70.407  1.00  0.00    -0.224 C  
HETATM    3  H1  UNL     1     -10.470   7.789  69.115  1.00  0.00     0.000 HD 
HETATM    4  H2  UNL     1     -11.772   7.115  69.956  1.00  0.00     0.000 HD 
ENDROOT
BRANCH   2   5
HETATM    5  C   UNL     1     -12.149   9.048  71.733  1.00  0.00    -0.368 C  
HETATM    6  O   UNL     1     -13.364   9.229  71.795  1.00  0.00    -0.361 OA 
BRANCH   5   7
HETATM    7  C   UNL     1     -11.319   8.681  72.944  1.00  0.00     0.302 C  
BRANCH   7   8
HETATM    8  C   UNL     1     -10.277   7.614  72.638  1.00  0.00    -0.321 C  
BRANCH   8   9
HETATM    9  C   UNL     1      -8.859   8.045  72.933  1.00  0.00    -0.224 C  
HETATM   10  O   UNL     1      -8.204   7.646  73.883  1.00  0.00    -0.144 OA 
BRANCH   9  11
HETATM   11  O   UNL     1      -8.489   9.064  72.108  1.00  0.00    -0.365 OA 
BRANCH  11  12
HETATM   12  C   UNL     1      -7.088   9.126  71.841  1.00  0.00     0.219 C  
BRANCH  12  13
HETATM   13  C   UNL     1      -6.763   8.686  70.423  1.00  0.00    -0.038 C  
BRANCH  13  14
HETATM   14  C   UNL     1      -6.317   7.226  70.444  1.00  0.00    -0.035 C  
BRANCH  14  15
HETATM   15  C   UNL     1      -7.392   6.279  69.919  1.00  0.00    -0.079 C  
BRANCH  15  16
HETATM   16  C   UNL     1      -6.836   4.861  69.780  1.00  0.00    -0.052 C  
HETATM   17  C   UNL     1      -5.320   4.846  69.890  1.00  0.00     0.000 C  
ENDBRANCH  15  16
ENDBRANCH  14  15
ENDBRANCH  13  14
ENDBRANCH  12  13
ENDBRANCH  11  12
ENDBRANCH   9  11
ENDBRANCH   8   9
ENDBRANCH   7   8
ENDBRANCH   5   7
ENDBRANCH   2   5
TORSDOF 10
ENDMDL
