MODEL        1
REMARK 921   NORMALIZED FREE ENERGY PREDICTED BY IDOCK:   -7.50 KCAL/MOL
REMARK 922        TOTAL FREE ENERGY PREDICTED BY IDOCK:  -13.22 KCAL/MOL
REMARK 923 INTER-LIGAND FREE ENERGY PREDICTED BY IDOCK:  -11.45 KCAL/MOL
REMARK 924 INTRA-LIGAND FREE ENERGY PREDICTED BY IDOCK:   -1.77 KCAL/MOL
REMARK 927      BINDING AFFINITY PREDICTED BY RF-SCORE:    0.00 PKD
ROOT
HETATM    1  C   UNL     1     -10.402   8.259  68.844  1.00  0.00    -0.215 C  
HETATM    2  N   UNL     1      -9.126   8.768  69.504  1.00  0.00    -0.144 N  
HETATM    3  C   UNL     1      -8.117   7.626  69.588  1.00  0.00    -0.126 C  
ENDROOT
BRANCH   2   4
HETATM    4  C   UNL     1      -8.583   9.932  68.700  1.00  0.00    -0.119 C  
BRANCH   4   5
HETATM    5  C   UNL     1      -9.548  10.578  67.707  1.00  0.00    -0.173 C  
BRANCH   5   6
HETATM    6  C   UNL     1      -8.880  11.812  67.086  1.00  0.00    -0.173 C  
BRANCH   6   7
HETATM    7  C   UNL     1      -8.352  12.827  68.116  1.00  0.00    -0.172 C  
BRANCH   7   8
HETATM    8  C   UNL     1      -7.853  14.143  67.500  1.00  0.00    -0.207 C  
BRANCH   8   9
HETATM    9  C   UNL     1      -8.318  15.301  68.383  1.00  0.00    -0.149 C  
BRANCH   9  10
HETATM   10  N   UNL     1      -8.905  16.494  67.644  1.00  0.00    -0.191 N  
HETATM   11  C   UNL     1      -8.573  17.802  68.354  1.00  0.00    -0.292 C  
HETATM   12  C   UNL     1      -8.353  16.616  66.232  1.00  0.00    -0.325 C  
BRANCH  10  13
HETATM   13  C   UNL     1     -10.494  16.276  67.594  1.00  0.00    -0.295 C  
HETATM   14  C   UNL     1     -11.101  15.759  68.913  1.00  0.00    -0.298 A  
HETATM   15  C   UNL     1     -11.711  14.502  68.707  1.00  0.00    -0.362 A  
HETATM   16  C   UNL     1     -11.648  14.163  67.306  1.00  0.00    -0.399 A  
HETATM   17  C   UNL     1     -12.283  13.795  69.756  1.00  0.00    -0.368 A  
HETATM   18  C   UNL     1     -10.966  15.184  66.606  1.00  0.00    -0.318 A  
HETATM   19  C   UNL     1     -12.252  14.356  71.032  1.00  0.00    -0.422 A  
HETATM   20  C   UNL     1     -11.681  15.618  71.238  1.00  0.00    -0.478 A  
HETATM   21  C   UNL     1     -10.855  15.110  65.221  1.00  0.00    -0.414 A  
HETATM   22  C   UNL     1     -11.380  13.992  64.558  1.00  0.00    -0.365 A  
HETATM   23  C   UNL     1     -11.123  16.337  70.177  1.00  0.00    -0.346 A  
HETATM   24  C   UNL     1     -12.044  12.983  65.263  1.00  0.00    -0.484 A  
HETATM   25  C   UNL     1     -12.191  13.067  66.647  1.00  0.00    -0.285 A  
ENDBRANCH  10  13
ENDBRANCH   9  10
ENDBRANCH   8   9
ENDBRANCH   7   8
ENDBRANCH   6   7
ENDBRANCH   5   6
ENDBRANCH   4   5
ENDBRANCH   2   4
BRANCH   2  26
HETATM   26  C   UNL     1      -9.440   9.316  70.988  1.00  0.00    -0.243 C  
HETATM   27  C   UNL     1     -12.803   8.607  72.403  1.00  0.00    -0.413 A  
HETATM   28  C   UNL     1      -9.141   8.311  72.120  1.00  0.00    -0.279 A  
HETATM   29  C   UNL     1     -13.646   9.456  71.694  1.00  0.00    -0.437 A  
HETATM   30  C   UNL     1     -10.351   7.935  72.751  1.00  0.00    -0.399 A  
HETATM   31  C   UNL     1     -11.441   8.678  72.161  1.00  0.00    -0.443 A  
HETATM   32  C   UNL     1     -10.364   7.043  73.814  1.00  0.00    -0.408 A  
HETATM   33  C   UNL     1     -13.132  10.415  70.808  1.00  0.00    -0.362 A  
HETATM   34  C   UNL     1      -7.932   7.816  72.605  1.00  0.00    -0.145 A  
HETATM   35  C   UNL     1     -10.924   9.586  71.213  1.00  0.00    -0.440 A  
HETATM   36  C   UNL     1      -9.153   6.511  74.258  1.00  0.00    -0.198 A  
HETATM   37  C   UNL     1     -11.751  10.516  70.591  1.00  0.00    -0.453 A  
HETATM   38  C   UNL     1      -7.947   6.893  73.658  1.00  0.00    -0.114 A  
ENDBRANCH   2  26
TORSDOF 9
ENDMDL
MODEL        2
REMARK 921   NORMALIZED FREE ENERGY PREDICTED BY IDOCK:   -7.45 KCAL/MOL
REMARK 922        TOTAL FREE ENERGY PREDICTED BY IDOCK:  -13.14 KCAL/MOL
REMARK 923 INTER-LIGAND FREE ENERGY PREDICTED BY IDOCK:  -11.15 KCAL/MOL
REMARK 924 INTRA-LIGAND FREE ENERGY PREDICTED BY IDOCK:   -1.99 KCAL/MOL
REMARK 927      BINDING AFFINITY PREDICTED BY RF-SCORE:    0.00 PKD
ROOT
HETATM    1  C   UNL     1      -7.739   8.469  68.369  1.00  0.00    -0.101 C  
HETATM    2  N   UNL     1      -8.682   9.075  69.404  1.00  0.00    -0.138 N  
HETATM    3  C   UNL     1      -8.100   8.857  70.798  1.00  0.00    -0.156 C  
ENDROOT
BRANCH   2   4
HETATM    4  C   UNL     1      -8.866  10.548  69.102  1.00  0.00    -0.151 C  
BRANCH   4   5
HETATM    5  C   UNL     1      -9.314  10.899  67.684  1.00  0.00    -0.163 C  
BRANCH   5   6
HETATM    6  C   UNL     1      -8.520  12.116  67.190  1.00  0.00    -0.182 C  
BRANCH   6   7
HETATM    7  C   UNL     1      -8.196  13.144  68.291  1.00  0.00    -0.154 C  
BRANCH   7   8
HETATM    8  C   UNL     1      -7.723  14.504  67.756  1.00  0.00    -0.167 C  
BRANCH   8   9
HETATM    9  C   UNL     1      -8.462  15.608  68.514  1.00  0.00    -0.175 C  
BRANCH   9  10
HETATM   10  N   UNL     1      -9.156  16.646  67.646  1.00  0.00    -0.206 N  
HETATM   11  C   UNL     1      -8.938  18.055  68.188  1.00  0.00    -0.283 C  
HETATM   12  C   UNL     1      -8.625  16.644  66.220  1.00  0.00    -0.324 C  
BRANCH  10  13
HETATM   13  C   UNL     1     -10.720  16.287  67.648  1.00  0.00    -0.311 C  
HETATM   14  C   UNL     1     -11.240  15.743  68.994  1.00  0.00    -0.319 A  
HETATM   15  C   UNL     1     -11.740  14.432  68.828  1.00  0.00    -0.372 A  
HETATM   16  C   UNL     1     -11.687  14.074  67.431  1.00  0.00    -0.421 A  
HETATM   17  C   UNL     1     -12.216  13.698  69.905  1.00  0.00    -0.367 A  
HETATM   18  C   UNL     1     -11.120  15.138  66.693  1.00  0.00    -0.308 A  
HETATM   19  C   UNL     1     -12.198  14.284  71.170  1.00  0.00    -0.431 A  
HETATM   20  C   UNL     1     -11.738  15.596  71.337  1.00  0.00    -0.491 A  
HETATM   21  C   UNL     1     -11.043  15.047  65.307  1.00  0.00    -0.391 A  
HETATM   22  C   UNL     1     -11.484  13.874  64.679  1.00  0.00    -0.386 A  
HETATM   23  C   UNL     1     -11.277  16.341  70.248  1.00  0.00    -0.343 A  
HETATM   24  C   UNL     1     -12.035  12.823  65.421  1.00  0.00    -0.482 A  
HETATM   25  C   UNL     1     -12.148  12.921  66.807  1.00  0.00    -0.335 A  
ENDBRANCH  10  13
ENDBRANCH   9  10
ENDBRANCH   8   9
ENDBRANCH   7   8
ENDBRANCH   6   7
ENDBRANCH   5   6
ENDBRANCH   4   5
ENDBRANCH   2   4
BRANCH   2  26
HETATM   26  C   UNL     1     -10.135   8.383  69.314  1.00  0.00    -0.202 C  
HETATM   27  C   UNL     1     -10.873   5.624  71.693  1.00  0.00    -0.301 A  
HETATM   28  C   UNL     1     -11.198   8.998  70.249  1.00  0.00    -0.232 A  
HETATM   29  C   UNL     1     -10.116   4.561  71.212  1.00  0.00    -0.225 A  
HETATM   30  C   UNL     1     -11.571   8.050  71.231  1.00  0.00    -0.306 A  
HETATM   31  C   UNL     1     -10.878   6.809  70.974  1.00  0.00    -0.280 A  
HETATM   32  C   UNL     1     -12.523   8.345  72.196  1.00  0.00    -0.422 A  
HETATM   33  C   UNL     1      -9.430   4.653  69.991  1.00  0.00    -0.242 A  
HETATM   34  C   UNL     1     -11.833  10.238  70.216  1.00  0.00    -0.372 A  
HETATM   35  C   UNL     1     -10.127   6.933  69.786  1.00  0.00    -0.196 A  
HETATM   36  C   UNL     1     -13.115   9.609  72.189  1.00  0.00    -0.520 A  
HETATM   37  C   UNL     1      -9.466   5.836  69.242  1.00  0.00    -0.159 A  
HETATM   38  C   UNL     1     -12.773  10.548  71.209  1.00  0.00    -0.532 A  
ENDBRANCH   2  26
TORSDOF 9
ENDMDL
MODEL        3
REMARK 921   NORMALIZED FREE ENERGY PREDICTED BY IDOCK:   -7.39 KCAL/MOL
REMARK 922        TOTAL FREE ENERGY PREDICTED BY IDOCK:  -13.04 KCAL/MOL
REMARK 923 INTER-LIGAND FREE ENERGY PREDICTED BY IDOCK:  -10.86 KCAL/MOL
REMARK 924 INTRA-LIGAND FREE ENERGY PREDICTED BY IDOCK:   -2.18 KCAL/MOL
REMARK 927      BINDING AFFINITY PREDICTED BY RF-SCORE:    0.00 PKD
ROOT
HETATM    1  C   UNL     1     -10.904   7.653  67.807  1.00  0.00    -0.063 C  
HETATM    2  N   UNL     1      -9.968   8.782  68.224  1.00  0.00    -0.169 N  
HETATM    3  C   UNL     1      -8.622   8.598  67.528  1.00  0.00    -0.135 C  
ENDROOT
BRANCH   2   4
HETATM    4  C   UNL     1     -10.603  10.109  67.863  1.00  0.00    -0.249 C  
BRANCH   4   5
HETATM    5  C   UNL     1     -10.233  10.689  66.498  1.00  0.00    -0.288 C  
BRANCH   5   6
HETATM    6  C   UNL     1      -9.299  11.890  66.697  1.00  0.00    -0.210 C  
BRANCH   6   7
HETATM    7  C   UNL     1      -9.038  12.247  68.172  1.00  0.00    -0.196 C  
BRANCH   7   8
HETATM    8  C   UNL     1      -8.155  13.488  68.368  1.00  0.00    -0.145 C  
BRANCH   8   9
HETATM    9  C   UNL     1      -8.315  14.398  67.149  1.00  0.00    -0.191 C  
BRANCH   9  10
HETATM   10  N   UNL     1      -8.573  15.864  67.456  1.00  0.00    -0.164 N  
HETATM   11  C   UNL     1      -8.000  16.254  68.815  1.00  0.00    -0.221 C  
HETATM   12  C   UNL     1      -7.923  16.783  66.433  1.00  0.00    -0.321 C  
BRANCH  10  13
HETATM   13  C   UNL     1     -10.165  16.070  67.446  1.00  0.00    -0.273 C  
HETATM   14  C   UNL     1     -10.862  15.658  68.756  1.00  0.00    -0.262 A  
HETATM   15  C   UNL     1     -11.784  14.615  68.509  1.00  0.00    -0.348 A  
HETATM   16  C   UNL     1     -11.835  14.349  67.091  1.00  0.00    -0.437 A  
HETATM   17  C   UNL     1     -12.502  14.025  69.539  1.00  0.00    -0.159 A  
HETATM   18  C   UNL     1     -10.922  15.194  66.421  1.00  0.00    -0.329 A  
HETATM   19  C   UNL     1     -12.303  14.488  70.839  1.00  0.00    -0.415 A  
HETATM   20  C   UNL     1     -11.419  15.546  71.089  1.00  0.00    -0.442 A  
HETATM   21  C   UNL     1     -10.859  15.169  65.031  1.00  0.00    -0.457 A  
HETATM   22  C   UNL     1     -11.669  14.264  64.331  1.00  0.00    -0.405 A  
HETATM   23  C   UNL     1     -10.711  16.152  70.047  1.00  0.00    -0.318 A  
HETATM   24  C   UNL     1     -12.562  13.426  65.007  1.00  0.00    -0.459 A  
HETATM   25  C   UNL     1     -12.657  13.469  66.398  1.00  0.00    -0.244 A  
ENDBRANCH  10  13
ENDBRANCH   9  10
ENDBRANCH   8   9
ENDBRANCH   7   8
ENDBRANCH   6   7
ENDBRANCH   5   6
ENDBRANCH   4   5
ENDBRANCH   2   4
BRANCH   2  26
HETATM   26  C   UNL     1      -9.753   8.773  69.822  1.00  0.00    -0.177 C  
HETATM   27  C   UNL     1     -12.779   8.479  71.961  1.00  0.00    -0.421 A  
HETATM   28  C   UNL     1      -9.611   7.367  70.442  1.00  0.00    -0.165 A  
HETATM   29  C   UNL     1     -13.385   9.726  71.849  1.00  0.00    -0.530 A  
HETATM   30  C   UNL     1     -10.718   7.107  71.285  1.00  0.00    -0.245 A  
HETATM   31  C   UNL     1     -11.563   8.278  71.327  1.00  0.00    -0.318 A  
HETATM   32  C   UNL     1     -10.833   5.910  71.977  1.00  0.00    -0.303 A  
HETATM   33  C   UNL     1     -12.753  10.782  71.175  1.00  0.00    -0.532 A  
HETATM   34  C   UNL     1      -8.589   6.425  70.341  1.00  0.00    -0.142 A  
HETATM   35  C   UNL     1     -10.959   9.314  70.581  1.00  0.00    -0.336 A  
HETATM   36  C   UNL     1      -9.832   4.950  71.828  1.00  0.00    -0.240 A  
HETATM   37  C   UNL     1     -11.505  10.593  70.567  1.00  0.00    -0.407 A  
HETATM   38  C   UNL     1      -8.720   5.204  71.016  1.00  0.00    -0.139 A  
ENDBRANCH   2  26
TORSDOF 9
ENDMDL
MODEL        4
REMARK 921   NORMALIZED FREE ENERGY PREDICTED BY IDOCK:   -7.38 KCAL/MOL
REMARK 922        TOTAL FREE ENERGY PREDICTED BY IDOCK:  -13.04 KCAL/MOL
REMARK 923 INTER-LIGAND FREE ENERGY PREDICTED BY IDOCK:  -10.17 KCAL/MOL
REMARK 924 INTRA-LIGAND FREE ENERGY PREDICTED BY IDOCK:   -2.87 KCAL/MOL
REMARK 927      BINDING AFFINITY PREDICTED BY RF-SCORE:    0.00 PKD
ROOT
HETATM    1  C   UNL     1      -9.868  20.401  67.025  1.00  0.00    -0.453 C  
HETATM    2  N   UNL     1      -9.201  19.097  67.450  1.00  0.00    -0.295 N  
HETATM    3  C   UNL     1      -9.747  18.679  68.813  1.00  0.00    -0.366 C  
ENDROOT
BRANCH   2   4
HETATM    4  C   UNL     1      -9.465  18.040  66.398  1.00  0.00    -0.271 C  
BRANCH   4   5
HETATM    5  C   UNL     1      -9.936  16.678  66.908  1.00  0.00    -0.272 C  
BRANCH   5   6
HETATM    6  C   UNL     1      -9.269  15.571  66.080  1.00  0.00    -0.379 C  
BRANCH   6   7
HETATM    7  C   UNL     1      -8.739  14.392  66.917  1.00  0.00    -0.218 C  
BRANCH   7   8
HETATM    8  C   UNL     1      -9.282  14.351  68.354  1.00  0.00    -0.195 C  
BRANCH   8   9
HETATM    9  C   UNL     1      -9.821  12.948  68.630  1.00  0.00    -0.067 C  
BRANCH   9  10
HETATM   10  N   UNL     1     -11.328  12.849  68.807  1.00  0.00    -0.271 N  
HETATM   11  C   UNL     1     -11.686  12.140  70.109  1.00  0.00    -0.218 C  
HETATM   12  C   UNL     1     -11.986  14.219  68.865  1.00  0.00    -0.320 C  
BRANCH  10  13
HETATM   13  C   UNL     1     -11.892  12.022  67.552  1.00  0.00    -0.205 C  
HETATM   14  C   UNL     1     -11.023  10.813  67.152  1.00  0.00    -0.324 A  
HETATM   15  C   UNL     1     -10.545  10.975  65.832  1.00  0.00    -0.270 A  
HETATM   16  C   UNL     1     -11.110  12.174  65.262  1.00  0.00    -0.367 A  
HETATM   17  C   UNL     1      -9.690  10.047  65.254  1.00  0.00    -0.373 A  
HETATM   18  C   UNL     1     -11.927  12.812  66.222  1.00  0.00    -0.460 A  
HETATM   19  C   UNL     1      -9.310   8.934  66.003  1.00  0.00    -0.306 A  
HETATM   20  C   UNL     1      -9.809   8.748  67.299  1.00  0.00    -0.260 A  
HETATM   21  C   UNL     1     -12.642  13.950  65.866  1.00  0.00    -0.498 A  
HETATM   22  C   UNL     1     -12.492  14.469  64.573  1.00  0.00    -0.346 A  
HETATM   23  C   UNL     1     -10.686   9.674  67.872  1.00  0.00    -0.302 A  
HETATM   24  C   UNL     1     -11.672  13.835  63.634  1.00  0.00    -0.108 A  
HETATM   25  C   UNL     1     -10.979  12.673  63.971  1.00  0.00    -0.448 A  
ENDBRANCH  10  13
ENDBRANCH   9  10
ENDBRANCH   8   9
ENDBRANCH   7   8
ENDBRANCH   6   7
ENDBRANCH   5   6
ENDBRANCH   4   5
ENDBRANCH   2   4
BRANCH   2  26
HETATM   26  C   UNL     1      -7.603  19.288  67.547  1.00  0.00    -0.237 C  
HETATM   27  C   UNL     1      -5.486  16.253  67.194  1.00  0.00    -0.053 A  
HETATM   28  C   UNL     1      -6.899  19.505  66.190  1.00  0.00    -0.247 A  
HETATM   29  C   UNL     1      -5.679  15.574  68.392  1.00  0.00    -0.106 A  
HETATM   30  C   UNL     1      -6.056  18.403  65.913  1.00  0.00    -0.247 A  
HETATM   31  C   UNL     1      -6.093  17.489  67.031  1.00  0.00    -0.184 A  
HETATM   32  C   UNL     1      -5.296  18.350  64.754  1.00  0.00    -0.140 A  
HETATM   33  C   UNL     1      -6.406  16.152  69.444  1.00  0.00    -0.179 A  
HETATM   34  C   UNL     1      -6.933  20.583  65.308  1.00  0.00    -0.190 A  
HETATM   35  C   UNL     1      -6.891  18.040  68.056  1.00  0.00    -0.206 A  
HETATM   36  C   UNL     1      -5.377  19.409  63.849  1.00  0.00    -0.292 A  
HETATM   37  C   UNL     1      -6.987  17.418  69.297  1.00  0.00    -0.175 A  
HETATM   38  C   UNL     1      -6.189  20.516  64.123  1.00  0.00    -0.321 A  
ENDBRANCH   2  26
TORSDOF 9
ENDMDL
MODEL        5
REMARK 921   NORMALIZED FREE ENERGY PREDICTED BY IDOCK:   -7.34 KCAL/MOL
REMARK 922        TOTAL FREE ENERGY PREDICTED BY IDOCK:  -12.97 KCAL/MOL
REMARK 923 INTER-LIGAND FREE ENERGY PREDICTED BY IDOCK:  -10.53 KCAL/MOL
REMARK 924 INTRA-LIGAND FREE ENERGY PREDICTED BY IDOCK:   -2.44 KCAL/MOL
REMARK 927      BINDING AFFINITY PREDICTED BY RF-SCORE:    0.00 PKD
ROOT
HETATM    1  C   UNL     1      -7.047   7.605  69.227  1.00  0.00    -0.076 C  
HETATM    2  N   UNL     1      -7.525   8.928  69.816  1.00  0.00    -0.055 N  
HETATM    3  C   UNL     1      -6.892   9.119  71.192  1.00  0.00    -0.086 C  
ENDROOT
BRANCH   2   4
HETATM    4  C   UNL     1      -7.153  10.053  68.873  1.00  0.00    -0.068 C  
BRANCH   4   5
HETATM    5  C   UNL     1      -8.036  11.299  68.922  1.00  0.00    -0.104 C  
BRANCH   5   6
HETATM    6  C   UNL     1      -7.875  12.083  67.612  1.00  0.00    -0.149 C  
BRANCH   6   7
HETATM    7  C   UNL     1      -7.239  13.475  67.786  1.00  0.00    -0.157 C  
BRANCH   7   8
HETATM    8  C   UNL     1      -8.073  14.622  67.194  1.00  0.00    -0.213 C  
BRANCH   8   9
HETATM    9  C   UNL     1      -9.253  14.897  68.126  1.00  0.00    -0.186 C  
BRANCH   9  10
HETATM   10  N   UNL     1     -10.414  15.657  67.504  1.00  0.00    -0.279 N  
HETATM   11  C   UNL     1     -10.927  16.746  68.441  1.00  0.00    -0.325 C  
HETATM   12  C   UNL     1     -10.014  16.351  66.211  1.00  0.00    -0.323 C  
BRANCH  10  13
HETATM   13  C   UNL     1     -11.573  14.584  67.214  1.00  0.00    -0.385 C  
HETATM   14  C   UNL     1     -11.824  13.600  68.373  1.00  0.00    -0.407 A  
HETATM   15  C   UNL     1     -11.574  12.276  67.949  1.00  0.00    -0.416 A  
HETATM   16  C   UNL     1     -11.259  12.276  66.540  1.00  0.00    -0.373 A  
HETATM   17  C   UNL     1     -11.673  11.204  68.825  1.00  0.00    -0.394 A  
HETATM   18  C   UNL     1     -11.270  13.604  66.057  1.00  0.00    -0.302 A  
HETATM   19  C   UNL     1     -12.035  11.457  70.147  1.00  0.00    -0.460 A  
HETATM   20  C   UNL     1     -12.321  12.763  70.567  1.00  0.00    -0.355 A  
HETATM   21  C   UNL     1     -11.071  13.841  64.701  1.00  0.00    -0.391 A  
HETATM   22  C   UNL     1     -10.812  12.756  63.853  1.00  0.00    -0.447 A  
HETATM   23  C   UNL     1     -12.239  13.838  69.678  1.00  0.00    -0.359 A  
HETATM   24  C   UNL     1     -10.794  11.447  64.345  1.00  0.00    -0.397 A  
HETATM   25  C   UNL     1     -11.027  11.197  65.697  1.00  0.00    -0.149 A  
ENDBRANCH  10  13
ENDBRANCH   9  10
ENDBRANCH   8   9
ENDBRANCH   7   8
ENDBRANCH   6   7
ENDBRANCH   5   6
ENDBRANCH   4   5
ENDBRANCH   2   4
BRANCH   2  26
HETATM   26  C   UNL     1      -9.131   8.933  69.958  1.00  0.00    -0.166 C  
HETATM   27  C   UNL     1     -10.999   6.100  68.440  1.00  0.00    -0.391 A  
HETATM   28  C   UNL     1      -9.670   8.168  71.186  1.00  0.00    -0.200 A  
HETATM   29  C   UNL     1     -10.918   6.346  67.074  1.00  0.00    -0.463 A  
HETATM   30  C   UNL     1     -10.403   7.037  70.754  1.00  0.00    -0.222 A  
HETATM   31  C   UNL     1     -10.452   7.030  69.310  1.00  0.00    -0.223 A  
HETATM   32  C   UNL     1     -11.006   6.178  71.662  1.00  0.00    -0.320 A  
HETATM   33  C   UNL     1     -10.366   7.538  66.582  1.00  0.00    -0.252 A  
HETATM   34  C   UNL     1      -9.590   8.456  72.547  1.00  0.00    -0.358 A  
HETATM   35  C   UNL     1      -9.825   8.195  68.819  1.00  0.00    -0.181 A  
HETATM   36  C   UNL     1     -10.875   6.445  73.026  1.00  0.00    -0.287 A  
HETATM   37  C   UNL     1      -9.849   8.499  67.461  1.00  0.00    -0.231 A  
HETATM   38  C   UNL     1     -10.173   7.573  73.465  1.00  0.00    -0.380 A  
ENDBRANCH   2  26
TORSDOF 9
ENDMDL
MODEL        6
REMARK 921   NORMALIZED FREE ENERGY PREDICTED BY IDOCK:   -7.26 KCAL/MOL
REMARK 922        TOTAL FREE ENERGY PREDICTED BY IDOCK:  -12.84 KCAL/MOL
REMARK 923 INTER-LIGAND FREE ENERGY PREDICTED BY IDOCK:  -10.14 KCAL/MOL
REMARK 924 INTRA-LIGAND FREE ENERGY PREDICTED BY IDOCK:   -2.70 KCAL/MOL
REMARK 927      BINDING AFFINITY PREDICTED BY RF-SCORE:    0.00 PKD
ROOT
HETATM    1  C   UNL     1      -6.881   7.949  69.251  1.00  0.00    -0.048 C  
HETATM    2  N   UNL     1      -8.023   8.668  69.961  1.00  0.00    -0.101 N  
HETATM    3  C   UNL     1      -8.101   8.177  71.404  1.00  0.00    -0.115 C  
ENDROOT
BRANCH   2   4
HETATM    4  C   UNL     1      -7.783  10.163  69.895  1.00  0.00    -0.160 C  
BRANCH   4   5
HETATM    5  C   UNL     1      -6.485  10.613  69.227  1.00  0.00    -0.062 C  
BRANCH   5   6
HETATM    6  C   UNL     1      -6.815  11.576  68.079  1.00  0.00    -0.064 C  
BRANCH   6   7
HETATM    7  C   UNL     1      -8.067  12.439  68.323  1.00  0.00    -0.166 C  
BRANCH   7   8
HETATM    8  C   UNL     1      -7.775  13.940  68.463  1.00  0.00    -0.139 C  
BRANCH   8   9
HETATM    9  C   UNL     1      -8.276  14.653  67.207  1.00  0.00    -0.212 C  
BRANCH   9  10
HETATM   10  N   UNL     1      -8.613  16.125  67.381  1.00  0.00    -0.176 N  
HETATM   11  C   UNL     1      -8.019  16.681  68.671  1.00  0.00    -0.236 C  
HETATM   12  C   UNL     1      -8.058  16.975  66.247  1.00  0.00    -0.297 C  
BRANCH  10  13
HETATM   13  C   UNL     1     -10.215  16.236  67.415  1.00  0.00    -0.275 C  
HETATM   14  C   UNL     1     -10.850  15.769  68.739  1.00  0.00    -0.274 A  
HETATM   15  C   UNL     1     -11.714  14.676  68.504  1.00  0.00    -0.348 A  
HETATM   16  C   UNL     1     -11.789  14.422  67.086  1.00  0.00    -0.437 A  
HETATM   17  C   UNL     1     -12.367  14.034  69.547  1.00  0.00    -0.275 A  
HETATM   18  C   UNL     1     -10.947  15.327  66.401  1.00  0.00    -0.299 A  
HETATM   19  C   UNL     1     -12.161  14.494  70.846  1.00  0.00    -0.404 A  
HETATM   20  C   UNL     1     -11.335  15.601  71.084  1.00  0.00    -0.446 A  
HETATM   21  C   UNL     1     -10.920  15.320  65.010  1.00  0.00    -0.450 A  
HETATM   22  C   UNL     1     -11.694  14.375  64.322  1.00  0.00    -0.328 A  
HETATM   23  C   UNL     1     -10.693  16.258  70.031  1.00  0.00    -0.290 A  
HETATM   24  C   UNL     1     -12.516  13.478  65.011  1.00  0.00    -0.462 A  
HETATM   25  C   UNL     1     -12.576  13.501  66.404  1.00  0.00    -0.244 A  
ENDBRANCH  10  13
ENDBRANCH   9  10
ENDBRANCH   8   9
ENDBRANCH   7   8
ENDBRANCH   6   7
ENDBRANCH   5   6
ENDBRANCH   4   5
ENDBRANCH   2   4
BRANCH   2  26
HETATM   26  C   UNL     1      -9.422   8.374  69.216  1.00  0.00    -0.155 C  
HETATM   27  C   UNL     1     -12.131  10.891  69.594  1.00  0.00    -0.400 A  
HETATM   28  C   UNL     1      -9.537   8.983  67.803  1.00  0.00    -0.178 A  
HETATM   29  C   UNL     1     -12.563  10.718  70.905  1.00  0.00    -0.498 A  
HETATM   30  C   UNL     1     -10.539   9.983  67.798  1.00  0.00    -0.311 A  
HETATM   31  C   UNL     1     -11.156  10.038  69.103  1.00  0.00    -0.232 A  
HETATM   32  C   UNL     1     -10.853  10.685  66.643  1.00  0.00    -0.197 A  
HETATM   33  C   UNL     1     -12.082   9.662  71.694  1.00  0.00    -0.481 A  
HETATM   34  C   UNL     1      -8.885   8.660  66.615  1.00  0.00    -0.155 A  
HETATM   35  C   UNL     1     -10.610   9.023  69.918  1.00  0.00    -0.240 A  
HETATM   36  C   UNL     1     -10.156  10.393  65.470  1.00  0.00    -0.352 A  
HETATM   37  C   UNL     1     -11.124   8.773  71.187  1.00  0.00    -0.340 A  
HETATM   38  C   UNL     1      -9.180   9.390  65.455  1.00  0.00    -0.292 A  
ENDBRANCH   2  26
TORSDOF 9
ENDMDL
MODEL        7
REMARK 921   NORMALIZED FREE ENERGY PREDICTED BY IDOCK:   -7.25 KCAL/MOL
REMARK 922        TOTAL FREE ENERGY PREDICTED BY IDOCK:  -12.83 KCAL/MOL
REMARK 923 INTER-LIGAND FREE ENERGY PREDICTED BY IDOCK:  -11.15 KCAL/MOL
REMARK 924 INTRA-LIGAND FREE ENERGY PREDICTED BY IDOCK:   -1.68 KCAL/MOL
REMARK 927      BINDING AFFINITY PREDICTED BY RF-SCORE:    0.00 PKD
ROOT
HETATM    1  C   UNL     1      -8.782  17.748  68.347  1.00  0.00    -0.292 C  
HETATM    2  N   UNL     1      -9.140  16.427  67.676  1.00  0.00    -0.198 N  
HETATM    3  C   UNL     1      -8.695  16.471  66.216  1.00  0.00    -0.333 C  
ENDROOT
BRANCH   2   4
HETATM    4  C   UNL     1      -8.472  15.293  68.426  1.00  0.00    -0.158 C  
BRANCH   4   5
HETATM    5  C   UNL     1      -7.890  14.165  67.574  1.00  0.00    -0.207 C  
BRANCH   5   6
HETATM    6  C   UNL     1      -8.398  12.818  68.106  1.00  0.00    -0.172 C  
BRANCH   6   7
HETATM    7  C   UNL     1      -8.471  11.709  67.040  1.00  0.00    -0.168 C  
BRANCH   7   8
HETATM    8  C   UNL     1      -9.337  10.507  67.447  1.00  0.00    -0.158 C  
BRANCH   8   9
HETATM    9  C   UNL     1      -9.096  10.214  68.929  1.00  0.00    -0.165 C  
BRANCH   9  10
HETATM   10  N   UNL     1      -9.078   8.742  69.310  1.00  0.00    -0.144 N  
HETATM   11  C   UNL     1     -10.037   7.934  68.442  1.00  0.00    -0.194 C  
HETATM   12  C   UNL     1      -7.700   8.123  69.125  1.00  0.00    -0.098 C  
BRANCH  10  13
HETATM   13  C   UNL     1      -9.516   8.654  70.852  1.00  0.00    -0.194 C  
HETATM   14  C   UNL     1      -9.510   7.224  71.427  1.00  0.00    -0.165 A  
HETATM   15  C   UNL     1     -10.810   6.866  71.851  1.00  0.00    -0.258 A  
HETATM   16  C   UNL     1     -11.693   7.997  71.693  1.00  0.00    -0.325 A  
HETATM   17  C   UNL     1     -11.084   5.603  72.356  1.00  0.00    -0.324 A  
HETATM   18  C   UNL     1     -10.976   9.079  71.133  1.00  0.00    -0.371 A  
HETATM   19  C   UNL     1     -10.041   4.682  72.447  1.00  0.00    -0.239 A  
HETATM   20  C   UNL     1      -8.742   5.041  72.064  1.00  0.00    -0.135 A  
HETATM   21  C   UNL     1     -11.608  10.306  70.965  1.00  0.00    -0.430 A  
HETATM   22  C   UNL     1     -12.962  10.424  71.307  1.00  0.00    -0.517 A  
HETATM   23  C   UNL     1      -8.465   6.320  71.573  1.00  0.00    -0.130 A  
HETATM   24  C   UNL     1     -13.664   9.343  71.850  1.00  0.00    -0.440 A  
HETATM   25  C   UNL     1     -13.029   8.119  72.056  1.00  0.00    -0.329 A  
ENDBRANCH  10  13
ENDBRANCH   9  10
ENDBRANCH   8   9
ENDBRANCH   7   8
ENDBRANCH   6   7
ENDBRANCH   5   6
ENDBRANCH   4   5
ENDBRANCH   2   4
BRANCH   2  26
HETATM   26  C   UNL     1     -10.731  16.174  67.744  1.00  0.00    -0.325 C  
HETATM   27  C   UNL     1     -11.972  12.784  66.859  1.00  0.00    -0.380 A  
HETATM   28  C   UNL     1     -11.236  15.620  69.093  1.00  0.00    -0.315 A  
HETATM   29  C   UNL     1     -11.821  12.727  65.478  1.00  0.00    -0.466 A  
HETATM   30  C   UNL     1     -11.733  14.308  68.910  1.00  0.00    -0.363 A  
HETATM   31  C   UNL     1     -11.661  13.969  67.508  1.00  0.00    -0.421 A  
HETATM   32  C   UNL     1     -12.259  13.581  69.968  1.00  0.00    -0.381 A  
HETATM   33  C   UNL     1     -11.434  13.858  64.743  1.00  0.00    -0.368 A  
HETATM   34  C   UNL     1     -11.318  16.216  70.350  1.00  0.00    -0.377 A  
HETATM   35  C   UNL     1     -11.196  15.087  66.782  1.00  0.00    -0.322 A  
HETATM   36  C   UNL     1     -12.288  14.166  71.235  1.00  0.00    -0.447 A  
HETATM   37  C   UNL     1     -11.157  15.069  65.392  1.00  0.00    -0.377 A  
HETATM   38  C   UNL     1     -11.821  15.471  71.425  1.00  0.00    -0.461 A  
ENDBRANCH   2  26
TORSDOF 9
ENDMDL
MODEL        8
REMARK 921   NORMALIZED FREE ENERGY PREDICTED BY IDOCK:   -7.10 KCAL/MOL
REMARK 922        TOTAL FREE ENERGY PREDICTED BY IDOCK:  -12.60 KCAL/MOL
REMARK 923 INTER-LIGAND FREE ENERGY PREDICTED BY IDOCK:  -10.28 KCAL/MOL
REMARK 924 INTRA-LIGAND FREE ENERGY PREDICTED BY IDOCK:   -2.32 KCAL/MOL
REMARK 927      BINDING AFFINITY PREDICTED BY RF-SCORE:    0.00 PKD
ROOT
HETATM    1  C   UNL     1     -10.888  17.045  68.406  1.00  0.00    -0.333 C  
HETATM    2  N   UNL     1     -10.579  15.857  67.502  1.00  0.00    -0.309 N  
HETATM    3  C   UNL     1     -10.225  16.370  66.109  1.00  0.00    -0.348 C  
ENDROOT
BRANCH   2   4
HETATM    4  C   UNL     1      -9.443  15.058  68.106  1.00  0.00    -0.196 C  
BRANCH   4   5
HETATM    5  C   UNL     1      -8.397  14.521  67.129  1.00  0.00    -0.226 C  
BRANCH   5   6
HETATM    6  C   UNL     1      -8.256  13.006  67.323  1.00  0.00    -0.174 C  
BRANCH   6   7
HETATM    7  C   UNL     1      -7.627  12.600  68.669  1.00  0.00    -0.083 C  
BRANCH   7   8
HETATM    8  C   UNL     1      -6.837  11.283  68.619  1.00  0.00    -0.076 C  
BRANCH   8   9
HETATM    9  C   UNL     1      -6.809  10.679  70.023  1.00  0.00    -0.148 C  
BRANCH   9  10
HETATM   10  N   UNL     1      -7.364   9.269  70.140  1.00  0.00    -0.082 N  
HETATM   11  C   UNL     1      -6.667   8.317  69.173  1.00  0.00    -0.047 C  
HETATM   12  C   UNL     1      -7.166   8.691  71.533  1.00  0.00    -0.098 C  
BRANCH  10  13
HETATM   13  C   UNL     1      -8.931   9.355  69.800  1.00  0.00    -0.188 C  
HETATM   14  C   UNL     1      -9.833   8.596  70.793  1.00  0.00    -0.236 A  
HETATM   15  C   UNL     1     -10.544   7.576  70.122  1.00  0.00    -0.241 A  
HETATM   16  C   UNL     1     -10.261   7.647  68.708  1.00  0.00    -0.210 A  
HETATM   17  C   UNL     1     -11.385   6.710  70.806  1.00  0.00    -0.389 A  
HETATM   18  C   UNL     1      -9.340   8.690  68.465  1.00  0.00    -0.138 A  
HETATM   19  C   UNL     1     -11.525   6.867  72.184  1.00  0.00    -0.316 A  
HETATM   20  C   UNL     1     -10.852   7.899  72.852  1.00  0.00    -0.451 A  
HETATM   21  C   UNL     1      -8.981   8.997  67.156  1.00  0.00    -0.144 A  
HETATM   22  C   UNL     1      -9.506   8.225  66.111  1.00  0.00    -0.241 A  
HETATM   23  C   UNL     1     -10.021   8.783  72.158  1.00  0.00    -0.359 A  
HETATM   24  C   UNL     1     -10.410   7.188  66.365  1.00  0.00     0.061 A  
HETATM   25  C   UNL     1     -10.802   6.897  67.671  1.00  0.00    -0.333 A  
ENDBRANCH  10  13
ENDBRANCH   9  10
ENDBRANCH   8   9
ENDBRANCH   7   8
ENDBRANCH   6   7
ENDBRANCH   5   6
ENDBRANCH   4   5
ENDBRANCH   2   4
BRANCH   2  26
HETATM   26  C   UNL     1     -11.855  14.877  67.405  1.00  0.00    -0.224 C  
HETATM   27  C   UNL     1     -11.378  11.596  65.724  1.00  0.00    -0.244 A  
HETATM   28  C   UNL     1     -11.977  13.866  68.565  1.00  0.00    -0.394 A  
HETATM   29  C   UNL     1     -11.277  11.926  64.377  1.00  0.00    -0.401 A  
HETATM   30  C   UNL     1     -11.801  12.552  68.068  1.00  0.00    -0.382 A  
HETATM   31  C   UNL     1     -11.638  12.609  66.634  1.00  0.00    -0.443 A  
HETATM   32  C   UNL     1     -11.872  11.448  68.905  1.00  0.00    -0.413 A  
HETATM   33  C   UNL     1     -11.506  13.237  63.933  1.00  0.00    -0.409 A  
HETATM   34  C   UNL     1     -12.278  14.055  69.912  1.00  0.00    -0.399 A  
HETATM   35  C   UNL     1     -11.791  13.944  66.201  1.00  0.00    -0.422 A  
HETATM   36  C   UNL     1     -12.120  11.651  70.263  1.00  0.00    -0.443 A  
HETATM   37  C   UNL     1     -11.808  14.256  64.846  1.00  0.00    -0.414 A  
HETATM   38  C   UNL     1     -12.320  12.943  70.763  1.00  0.00    -0.385 A  
ENDBRANCH   2  26
TORSDOF 9
ENDMDL
MODEL        9
REMARK 921   NORMALIZED FREE ENERGY PREDICTED BY IDOCK:   -7.08 KCAL/MOL
REMARK 922        TOTAL FREE ENERGY PREDICTED BY IDOCK:  -12.57 KCAL/MOL
REMARK 923 INTER-LIGAND FREE ENERGY PREDICTED BY IDOCK:   -9.42 KCAL/MOL
REMARK 924 INTRA-LIGAND FREE ENERGY PREDICTED BY IDOCK:   -3.15 KCAL/MOL
REMARK 927      BINDING AFFINITY PREDICTED BY RF-SCORE:    0.00 PKD
ROOT
HETATM    1  C   UNL     1     -10.565  15.450  67.891  1.00  0.00    -0.267 C  
HETATM    2  N   UNL     1     -10.490  14.597  66.629  1.00  0.00    -0.274 N  
HETATM    3  C   UNL     1     -10.837  15.462  65.421  1.00  0.00    -0.391 C  
ENDROOT
BRANCH   2   4
HETATM    4  C   UNL     1      -9.100  14.008  66.511  1.00  0.00    -0.150 C  
BRANCH   4   5
HETATM    5  C   UNL     1      -8.318  13.849  67.815  1.00  0.00    -0.174 C  
BRANCH   5   6
HETATM    6  C   UNL     1      -7.059  13.012  67.549  1.00  0.00    -0.158 C  
BRANCH   6   7
HETATM    7  C   UNL     1      -7.271  11.494  67.692  1.00  0.00    -0.103 C  
BRANCH   7   8
HETATM    8  C   UNL     1      -7.489  11.027  69.140  1.00  0.00    -0.121 C  
BRANCH   8   9
HETATM    9  C   UNL     1      -8.048   9.604  69.113  1.00  0.00    -0.104 C  
BRANCH   9  10
HETATM   10  N   UNL     1      -7.265   8.579  69.918  1.00  0.00    -0.050 N  
HETATM   11  C   UNL     1      -5.959   8.209  69.222  1.00  0.00    -0.037 C  
HETATM   12  C   UNL     1      -6.889   9.102  71.296  1.00  0.00    -0.063 C  
BRANCH  10  13
HETATM   13  C   UNL     1      -8.203   7.284  70.062  1.00  0.00    -0.132 C  
HETATM   14  C   UNL     1      -8.874   6.843  68.746  1.00  0.00    -0.132 A  
HETATM   15  C   UNL     1     -10.280   6.907  68.872  1.00  0.00    -0.184 A  
HETATM   16  C   UNL     1     -10.623   7.272  70.225  1.00  0.00    -0.243 A  
HETATM   17  C   UNL     1     -11.116   6.613  67.804  1.00  0.00    -0.332 A  
HETATM   18  C   UNL     1      -9.439   7.480  70.970  1.00  0.00    -0.162 A  
HETATM   19  C   UNL     1     -10.540   6.243  66.590  1.00  0.00    -0.268 A  
HETATM   20  C   UNL     1      -9.148   6.141  66.467  1.00  0.00    -0.156 A  
HETATM   21  C   UNL     1      -9.526   7.764  72.329  1.00  0.00    -0.225 A  
HETATM   22  C   UNL     1     -10.793   7.889  72.917  1.00  0.00    -0.451 A  
HETATM   23  C   UNL     1      -8.308   6.418  67.550  1.00  0.00    -0.117 A  
HETATM   24  C   UNL     1     -11.956   7.691  72.167  1.00  0.00    -0.344 A  
HETATM   25  C   UNL     1     -11.878   7.371  70.812  1.00  0.00    -0.288 A  
ENDBRANCH  10  13
ENDBRANCH   9  10
ENDBRANCH   8   9
ENDBRANCH   7   8
ENDBRANCH   6   7
ENDBRANCH   5   6
ENDBRANCH   4   5
ENDBRANCH   2   4
BRANCH   2  26
HETATM   26  C   UNL     1     -11.526  13.365  66.722  1.00  0.00    -0.343 C  
HETATM   27  C   UNL     1     -10.153   9.933  66.324  1.00  0.00    -0.311 A  
HETATM   28  C   UNL     1     -11.677  12.758  68.134  1.00  0.00    -0.392 A  
HETATM   29  C   UNL     1      -9.864   9.849  64.966  1.00  0.00    -0.323 A  
HETATM   30  C   UNL     1     -11.175  11.435  68.137  1.00  0.00    -0.343 A  
HETATM   31  C   UNL     1     -10.759  11.086  66.798  1.00  0.00    -0.319 A  
HETATM   32  C   UNL     1     -11.200  10.656  69.285  1.00  0.00    -0.332 A  
HETATM   33  C   UNL     1     -10.240  10.869  64.079  1.00  0.00    -0.422 A  
HETATM   34  C   UNL     1     -12.254  13.276  69.291  1.00  0.00    -0.194 A  
HETATM   35  C   UNL     1     -11.068  12.150  65.923  1.00  0.00    -0.360 A  
HETATM   36  C   UNL     1     -11.731  11.202  70.454  1.00  0.00    -0.415 A  
HETATM   37  C   UNL     1     -10.888  12.019  64.550  1.00  0.00    -0.363 A  
HETATM   38  C   UNL     1     -12.252  12.500  70.459  1.00  0.00    -0.382 A  
ENDBRANCH   2  26
TORSDOF 9
ENDMDL
MODEL       10
REMARK 921   NORMALIZED FREE ENERGY PREDICTED BY IDOCK:   -7.06 KCAL/MOL
REMARK 922        TOTAL FREE ENERGY PREDICTED BY IDOCK:  -12.54 KCAL/MOL
REMARK 923 INTER-LIGAND FREE ENERGY PREDICTED BY IDOCK:  -10.08 KCAL/MOL
REMARK 924 INTRA-LIGAND FREE ENERGY PREDICTED BY IDOCK:   -2.46 KCAL/MOL
REMARK 927      BINDING AFFINITY PREDICTED BY RF-SCORE:    0.00 PKD
ROOT
HETATM    1  C   UNL     1     -11.794  16.083  70.741  1.00  0.00    -0.340 C  
HETATM    2  N   UNL     1     -11.263  15.022  69.782  1.00  0.00    -0.264 N  
HETATM    3  C   UNL     1      -9.741  14.977  69.880  1.00  0.00     0.082 C  
ENDROOT
BRANCH   2   4
HETATM    4  C   UNL     1     -11.883  13.685  70.131  1.00  0.00    -0.281 C  
BRANCH   4   5
HETATM    5  C   UNL     1     -12.907  13.687  71.265  1.00  0.00    -0.424 C  
BRANCH   5   6
HETATM    6  C   UNL     1     -13.089  12.254  71.784  1.00  0.00    -0.449 C  
BRANCH   6   7
HETATM    7  C   UNL     1     -12.590  11.167  70.815  1.00  0.00    -0.445 C  
BRANCH   7   8
HETATM    8  C   UNL     1     -12.102   9.886  71.509  1.00  0.00    -0.496 C  
BRANCH   8   9
HETATM    9  C   UNL     1     -10.667   9.607  71.062  1.00  0.00    -0.323 C  
BRANCH   9  10
HETATM   10  N   UNL     1     -10.477   8.359  70.215  1.00  0.00    -0.213 N  
HETATM   11  C   UNL     1      -9.107   7.732  70.452  1.00  0.00    -0.155 C  
HETATM   12  C   UNL     1     -11.505   7.287  70.540  1.00  0.00    -0.279 C  
BRANCH  10  13
HETATM   13  C   UNL     1     -10.622   8.810  68.680  1.00  0.00    -0.139 C  
HETATM   14  C   UNL     1     -10.339   7.686  67.664  1.00  0.00    -0.303 A  
HETATM   15  C   UNL     1      -9.241   8.037  66.846  1.00  0.00    -0.191 A  
HETATM   16  C   UNL     1      -8.811   9.376  67.170  1.00  0.00    -0.138 A  
HETATM   17  C   UNL     1      -8.749   7.166  65.884  1.00  0.00    -0.146 A  
HETATM   18  C   UNL     1      -9.606   9.882  68.224  1.00  0.00    -0.151 A  
HETATM   19  C   UNL     1      -9.366   5.925  65.732  1.00  0.00    -0.018 A  
HETATM   20  C   UNL     1     -10.477   5.584  66.513  1.00  0.00    -0.331 A  
HETATM   21  C   UNL     1      -9.422  11.193  68.651  1.00  0.00    -0.196 A  
HETATM   22  C   UNL     1      -8.413  11.965  68.059  1.00  0.00    -0.162 A  
HETATM   23  C   UNL     1     -10.984   6.471  67.468  1.00  0.00    -0.444 A  
HETATM   24  C   UNL     1      -7.627  11.449  67.023  1.00  0.00    -0.151 A  
HETATM   25  C   UNL     1      -7.828  10.148  66.565  1.00  0.00    -0.112 A  
ENDBRANCH  10  13
ENDBRANCH   9  10
ENDBRANCH   8   9
ENDBRANCH   7   8
ENDBRANCH   6   7
ENDBRANCH   5   6
ENDBRANCH   4   5
ENDBRANCH   2   4
BRANCH   2  26
HETATM   26  C   UNL     1     -11.693  15.369  68.267  1.00  0.00    -0.297 C  
HETATM   27  C   UNL     1      -9.067  16.699  65.998  1.00  0.00    -0.259 A  
HETATM   28  C   UNL     1     -11.481  14.218  67.260  1.00  0.00    -0.371 A  
HETATM   29  C   UNL     1      -8.866  17.999  66.450  1.00  0.00    -0.251 A  
HETATM   30  C   UNL     1     -10.481  14.584  66.327  1.00  0.00    -0.303 A  
HETATM   31  C   UNL     1     -10.056  15.937  66.599  1.00  0.00    -0.287 A  
HETATM   32  C   UNL     1     -10.103  13.728  65.303  1.00  0.00    -0.312 A  
HETATM   33  C   UNL     1      -9.690  18.558  67.439  1.00  0.00    -0.318 A  
HETATM   34  C   UNL     1     -12.135  12.995  67.122  1.00  0.00    -0.325 A  
HETATM   35  C   UNL     1     -10.836  16.468  67.649  1.00  0.00    -0.269 A  
HETATM   36  C   UNL     1     -10.725  12.483  65.204  1.00  0.00    -0.323 A  
HETATM   37  C   UNL     1     -10.717  17.803  68.021  1.00  0.00    -0.317 A  
HETATM   38  C   UNL     1     -11.731  12.119  66.106  1.00  0.00    -0.384 A  
ENDBRANCH   2  26
TORSDOF 9
ENDMDL
MODEL       11
REMARK 921   NORMALIZED FREE ENERGY PREDICTED BY IDOCK:   -7.03 KCAL/MOL
REMARK 922        TOTAL FREE ENERGY PREDICTED BY IDOCK:  -12.50 KCAL/MOL
REMARK 923 INTER-LIGAND FREE ENERGY PREDICTED BY IDOCK:   -9.54 KCAL/MOL
REMARK 924 INTRA-LIGAND FREE ENERGY PREDICTED BY IDOCK:   -2.96 KCAL/MOL
REMARK 927      BINDING AFFINITY PREDICTED BY RF-SCORE:    0.00 PKD
ROOT
HETATM    1  C   UNL     1     -12.243   6.514  72.278  1.00  0.00    -0.158 C  
HETATM    2  N   UNL     1     -10.727   6.668  72.228  1.00  0.00    -0.215 N  
HETATM    3  C   UNL     1     -10.108   5.898  73.392  1.00  0.00    -0.198 C  
ENDROOT
BRANCH   2   4
HETATM    4  C   UNL     1     -10.222   6.159  70.894  1.00  0.00    -0.201 C  
BRANCH   4   5
HETATM    5  C   UNL     1     -11.266   6.002  69.789  1.00  0.00    -0.440 C  
BRANCH   5   6
HETATM    6  C   UNL     1     -10.568   6.061  68.423  1.00  0.00    -0.322 C  
BRANCH   6   7
HETATM    7  C   UNL     1     -10.701   7.417  67.707  1.00  0.00    -0.249 C  
BRANCH   7   8
HETATM    8  C   UNL     1      -9.506   7.770  66.808  1.00  0.00    -0.251 C  
BRANCH   8   9
HETATM    9  C   UNL     1      -9.659   9.218  66.342  1.00  0.00    -0.238 C  
BRANCH   9  10
HETATM   10  N   UNL     1      -8.573   9.722  65.405  1.00  0.00    -0.141 N  
HETATM   11  C   UNL     1      -7.184   9.468  65.981  1.00  0.00    -0.093 C  
HETATM   12  C   UNL     1      -8.615   9.022  64.054  1.00  0.00    -0.140 C  
BRANCH  10  13
HETATM   13  C   UNL     1      -8.815  11.297  65.214  1.00  0.00    -0.008 C  
HETATM   14  C   UNL     1      -8.600  12.128  66.494  1.00  0.00    -0.070 A  
HETATM   15  C   UNL     1      -9.798  12.783  66.855  1.00  0.00    -0.236 A  
HETATM   16  C   UNL     1     -10.802  12.534  65.848  1.00  0.00    -0.302 A  
HETATM   17  C   UNL     1      -9.883  13.551  68.007  1.00  0.00    -0.238 A  
HETATM   18  C   UNL     1     -10.267  11.688  64.850  1.00  0.00    -0.315 A  
HETATM   19  C   UNL     1      -8.751  13.674  68.811  1.00  0.00     0.070 A  
HETATM   20  C   UNL     1      -7.549  13.057  68.441  1.00  0.00    -0.133 A  
HETATM   21  C   UNL     1     -11.034  11.376  63.732  1.00  0.00    -0.448 A  
HETATM   22  C   UNL     1     -12.343  11.870  63.649  1.00  0.00    -0.591 A  
HETATM   23  C   UNL     1      -7.460  12.300  67.270  1.00  0.00    -0.147 A  
HETATM   24  C   UNL     1     -12.865  12.698  64.648  1.00  0.00    -0.361 A  
HETATM   25  C   UNL     1     -12.091  13.044  65.755  1.00  0.00    -0.510 A  
ENDBRANCH  10  13
ENDBRANCH   9  10
ENDBRANCH   8   9
ENDBRANCH   7   8
ENDBRANCH   6   7
ENDBRANCH   5   6
ENDBRANCH   4   5
ENDBRANCH   2   4
BRANCH   2  26
HETATM   26  C   UNL     1     -10.316   8.223  72.334  1.00  0.00    -0.332 C  
HETATM   27  C   UNL     1      -8.018   9.573  69.742  1.00  0.00    -0.134 A  
HETATM   28  C   UNL     1     -11.218   9.182  71.527  1.00  0.00    -0.430 A  
HETATM   29  C   UNL     1      -6.786   9.019  70.071  1.00  0.00    -0.045 A  
HETATM   30  C   UNL     1     -10.468   9.769  70.480  1.00  0.00    -0.366 A  
HETATM   31  C   UNL     1      -9.098   9.320  70.573  1.00  0.00    -0.307 A  
HETATM   32  C   UNL     1     -11.041  10.682  69.606  1.00  0.00    -0.342 A  
HETATM   33  C   UNL     1      -6.615   8.282  71.253  1.00  0.00    -0.048 A  
HETATM   34  C   UNL     1     -12.545   9.562  71.719  1.00  0.00    -0.490 A  
HETATM   35  C   UNL     1      -8.950   8.514  71.722  1.00  0.00    -0.288 A  
HETATM   36  C   UNL     1     -12.386  11.016  69.772  1.00  0.00    -0.331 A  
HETATM   37  C   UNL     1      -7.696   8.058  72.116  1.00  0.00    -0.131 A  
HETATM   38  C   UNL     1     -13.132  10.461  70.818  1.00  0.00    -0.362 A  
ENDBRANCH   2  26
TORSDOF 9
ENDMDL
MODEL       12
REMARK 921   NORMALIZED FREE ENERGY PREDICTED BY IDOCK:   -7.03 KCAL/MOL
REMARK 922        TOTAL FREE ENERGY PREDICTED BY IDOCK:  -12.49 KCAL/MOL
REMARK 923 INTER-LIGAND FREE ENERGY PREDICTED BY IDOCK:   -9.09 KCAL/MOL
REMARK 924 INTRA-LIGAND FREE ENERGY PREDICTED BY IDOCK:   -3.40 KCAL/MOL
REMARK 927      BINDING AFFINITY PREDICTED BY RF-SCORE:    0.00 PKD
ROOT
HETATM    1  C   UNL     1      -5.762   9.149  68.675  1.00  0.00    -0.041 C  
HETATM    2  N   UNL     1      -6.808   9.157  69.785  1.00  0.00    -0.049 N  
HETATM    3  C   UNL     1      -6.109   9.358  71.127  1.00  0.00    -0.078 C  
ENDROOT
BRANCH   2   4
HETATM    4  C   UNL     1      -7.812  10.258  69.511  1.00  0.00    -0.168 C  
BRANCH   4   5
HETATM    5  C   UNL     1      -7.658  11.001  68.184  1.00  0.00    -0.095 C  
BRANCH   5   6
HETATM    6  C   UNL     1      -7.859  12.504  68.421  1.00  0.00    -0.141 C  
BRANCH   6   7
HETATM    7  C   UNL     1      -7.474  13.387  67.220  1.00  0.00    -0.062 C  
BRANCH   7   8
HETATM    8  C   UNL     1      -8.131  14.775  67.229  1.00  0.00    -0.232 C  
BRANCH   8   9
HETATM    9  C   UNL     1      -9.335  14.739  68.170  1.00  0.00    -0.197 C  
BRANCH   9  10
HETATM   10  N   UNL     1     -10.614  15.351  67.622  1.00  0.00    -0.274 N  
HETATM   11  C   UNL     1     -11.241  16.313  68.626  1.00  0.00    -0.354 C  
HETATM   12  C   UNL     1     -10.364  16.152  66.353  1.00  0.00    -0.315 C  
BRANCH  10  13
HETATM   13  C   UNL     1     -11.618  14.137  67.315  1.00  0.00    -0.373 C  
HETATM   14  C   UNL     1     -11.794  13.153  68.488  1.00  0.00    -0.377 A  
HETATM   15  C   UNL     1     -11.365  11.861  68.107  1.00  0.00    -0.350 A  
HETATM   16  C   UNL     1     -10.994  11.872  66.713  1.00  0.00    -0.337 A  
HETATM   17  C   UNL     1     -11.368  10.805  69.006  1.00  0.00    -0.349 A  
HETATM   18  C   UNL     1     -11.149  13.179  66.195  1.00  0.00    -0.301 A  
HETATM   19  C   UNL     1     -11.813  11.037  70.307  1.00  0.00    -0.456 A  
HETATM   20  C   UNL     1     -12.275  12.306  70.682  1.00  0.00    -0.378 A  
HETATM   21  C   UNL     1     -10.925  13.410  64.842  1.00  0.00    -0.353 A  
HETATM   22  C   UNL     1     -10.498  12.348  64.033  1.00  0.00    -0.443 A  
HETATM   23  C   UNL     1     -12.289  13.365  69.769  1.00  0.00    -0.219 A  
HETATM   24  C   UNL     1     -10.340  11.062  64.559  1.00  0.00    -0.420 A  
HETATM   25  C   UNL     1     -10.596  10.813  65.907  1.00  0.00    -0.216 A  
ENDBRANCH  10  13
ENDBRANCH   9  10
ENDBRANCH   8   9
ENDBRANCH   7   8
ENDBRANCH   6   7
ENDBRANCH   5   6
ENDBRANCH   4   5
ENDBRANCH   2   4
BRANCH   2  26
HETATM   26  C   UNL     1      -7.619   7.764  69.805  1.00  0.00    -0.091 C  
HETATM   27  C   UNL     1     -11.025   7.779  71.292  1.00  0.00    -0.259 A  
HETATM   28  C   UNL     1      -8.537   7.538  68.585  1.00  0.00    -0.129 A  
HETATM   29  C   UNL     1     -10.789   7.891  72.658  1.00  0.00    -0.428 A  
HETATM   30  C   UNL     1      -9.889   7.533  69.004  1.00  0.00    -0.170 A  
HETATM   31  C   UNL     1      -9.936   7.671  70.442  1.00  0.00    -0.188 A  
HETATM   32  C   UNL     1     -10.924   7.339  68.102  1.00  0.00    -0.058 A  
HETATM   33  C   UNL     1      -9.487   7.823  73.177  1.00  0.00    -0.325 A  
HETATM   34  C   UNL     1      -8.233   7.294  67.247  1.00  0.00    -0.115 A  
HETATM   35  C   UNL     1      -8.620   7.681  70.951  1.00  0.00    -0.129 A  
HETATM   36  C   UNL     1     -10.613   7.149  66.755  1.00  0.00    -0.291 A  
HETATM   37  C   UNL     1      -8.386   7.674  72.323  1.00  0.00    -0.135 A  
HETATM   38  C   UNL     1      -9.279   7.128  66.330  1.00  0.00    -0.196 A  
ENDBRANCH   2  26
TORSDOF 9
ENDMDL
MODEL       13
REMARK 921   NORMALIZED FREE ENERGY PREDICTED BY IDOCK:   -7.01 KCAL/MOL
REMARK 922        TOTAL FREE ENERGY PREDICTED BY IDOCK:  -12.46 KCAL/MOL
REMARK 923 INTER-LIGAND FREE ENERGY PREDICTED BY IDOCK:  -10.43 KCAL/MOL
REMARK 924 INTRA-LIGAND FREE ENERGY PREDICTED BY IDOCK:   -2.03 KCAL/MOL
REMARK 927      BINDING AFFINITY PREDICTED BY RF-SCORE:    0.00 PKD
ROOT
HETATM    1  C   UNL     1     -10.708   9.020  67.570  1.00  0.00    -0.169 C  
HETATM    2  N   UNL     1      -9.358   9.328  68.209  1.00  0.00    -0.134 N  
HETATM    3  C   UNL     1      -8.246   8.917  67.249  1.00  0.00    -0.104 C  
ENDROOT
BRANCH   2   4
HETATM    4  C   UNL     1      -9.292  10.806  68.537  1.00  0.00    -0.174 C  
BRANCH   4   5
HETATM    5  C   UNL     1      -8.247  11.623  67.776  1.00  0.00    -0.141 C  
BRANCH   5   6
HETATM    6  C   UNL     1      -8.238  13.058  68.319  1.00  0.00    -0.150 C  
BRANCH   6   7
HETATM    7  C   UNL     1      -7.660  14.097  67.339  1.00  0.00    -0.179 C  
BRANCH   7   8
HETATM    8  C   UNL     1      -7.623  15.528  67.895  1.00  0.00    -0.146 C  
BRANCH   8   9
HETATM    9  C   UNL     1      -8.905  15.775  68.690  1.00  0.00    -0.199 C  
BRANCH   9  10
HETATM   10  N   UNL     1      -9.863  16.790  68.088  1.00  0.00    -0.256 N  
HETATM   11  C   UNL     1     -10.043  17.995  69.007  1.00  0.00    -0.293 C  
HETATM   12  C   UNL     1      -9.359  17.331  66.758  1.00  0.00    -0.259 C  
BRANCH  10  13
HETATM   13  C   UNL     1     -11.267  16.039  67.877  1.00  0.00    -0.276 C  
HETATM   14  C   UNL     1     -11.741  15.236  69.103  1.00  0.00    -0.355 A  
HETATM   15  C   UNL     1     -11.853  13.866  68.773  1.00  0.00    -0.396 A  
HETATM   16  C   UNL     1     -11.578  13.689  67.367  1.00  0.00    -0.389 A  
HETATM   17  C   UNL     1     -12.209  12.920  69.723  1.00  0.00    -0.227 A  
HETATM   18  C   UNL     1     -11.253  14.939  66.791  1.00  0.00    -0.338 A  
HETATM   19  C   UNL     1     -12.466  13.347  71.025  1.00  0.00    -0.437 A  
HETATM   20  C   UNL     1     -12.394  14.707  71.352  1.00  0.00    -0.411 A  
HETATM   21  C   UNL     1     -11.028  15.024  65.421  1.00  0.00    -0.380 A  
HETATM   22  C   UNL     1     -11.077  13.853  64.651  1.00  0.00    -0.389 A  
HETATM   23  C   UNL     1     -12.053  15.662  70.389  1.00  0.00    -0.425 A  
HETATM   24  C   UNL     1     -11.390  12.621  65.235  1.00  0.00    -0.350 A  
HETATM   25  C   UNL     1     -11.652  12.532  66.601  1.00  0.00    -0.442 A  
ENDBRANCH  10  13
ENDBRANCH   9  10
ENDBRANCH   8   9
ENDBRANCH   7   8
ENDBRANCH   6   7
ENDBRANCH   5   6
ENDBRANCH   4   5
ENDBRANCH   2   4
BRANCH   2  26
HETATM   26  C   UNL     1      -9.196   8.522  69.596  1.00  0.00    -0.157 C  
HETATM   27  C   UNL     1     -12.282   7.183  71.177  1.00  0.00    -0.405 A  
HETATM   28  C   UNL     1      -9.040   6.995  69.436  1.00  0.00    -0.145 A  
HETATM   29  C   UNL     1     -12.915   8.316  71.678  1.00  0.00    -0.357 A  
HETATM   30  C   UNL     1     -10.167   6.343  69.990  1.00  0.00    -0.221 A  
HETATM   31  C   UNL     1     -11.041   7.332  70.577  1.00  0.00    -0.290 A  
HETATM   32  C   UNL     1     -10.276   4.960  69.987  1.00  0.00    -0.313 A  
HETATM   33  C   UNL     1     -12.287   9.570  71.648  1.00  0.00    -0.480 A  
HETATM   34  C   UNL     1      -7.992   6.234  68.919  1.00  0.00    -0.109 A  
HETATM   35  C   UNL     1     -10.439   8.605  70.474  1.00  0.00    -0.237 A  
HETATM   36  C   UNL     1      -9.247   4.208  69.418  1.00  0.00    -0.210 A  
HETATM   37  C   UNL     1     -11.015   9.717  71.079  1.00  0.00    -0.402 A  
HETATM   38  C   UNL     1      -8.116   4.839  68.888  1.00  0.00    -0.082 A  
ENDBRANCH   2  26
TORSDOF 9
ENDMDL
MODEL       14
REMARK 921   NORMALIZED FREE ENERGY PREDICTED BY IDOCK:   -6.95 KCAL/MOL
REMARK 922        TOTAL FREE ENERGY PREDICTED BY IDOCK:  -12.37 KCAL/MOL
REMARK 923 INTER-LIGAND FREE ENERGY PREDICTED BY IDOCK:  -10.08 KCAL/MOL
REMARK 924 INTRA-LIGAND FREE ENERGY PREDICTED BY IDOCK:   -2.29 KCAL/MOL
REMARK 927      BINDING AFFINITY PREDICTED BY RF-SCORE:    0.00 PKD
ROOT
HETATM    1  C   UNL     1      -7.672  11.293  67.772  1.00  0.00    -0.113 C  
HETATM    2  N   UNL     1      -8.592  11.117  66.568  1.00  0.00    -0.165 N  
HETATM    3  C   UNL     1      -7.804  10.482  65.426  1.00  0.00    -0.119 C  
ENDROOT
BRANCH   2   4
HETATM    4  C   UNL     1      -9.775  10.261  66.971  1.00  0.00    -0.176 C  
BRANCH   4   5
HETATM    5  C   UNL     1      -9.598   8.750  66.828  1.00  0.00    -0.267 C  
BRANCH   5   6
HETATM    6  C   UNL     1     -10.724   8.036  67.589  1.00  0.00    -0.203 C  
BRANCH   6   7
HETATM    7  C   UNL     1     -10.248   6.852  68.450  1.00  0.00    -0.191 C  
BRANCH   7   8
HETATM    8  C   UNL     1     -11.333   6.271  69.369  1.00  0.00    -0.448 C  
BRANCH   8   9
HETATM    9  C   UNL     1     -10.695   5.920  70.714  1.00  0.00    -0.277 C  
BRANCH   9  10
HETATM   10  N   UNL     1     -11.434   6.427  71.941  1.00  0.00    -0.290 N  
HETATM   11  C   UNL     1     -12.919   6.625  71.651  1.00  0.00    -0.126 C  
HETATM   12  C   UNL     1     -11.347   5.450  73.104  1.00  0.00    -0.263 C  
BRANCH  10  13
HETATM   13  C   UNL     1     -10.758   7.826  72.349  1.00  0.00    -0.290 C  
HETATM   14  C   UNL     1     -11.368   9.050  71.640  1.00  0.00    -0.430 A  
HETATM   15  C   UNL     1     -10.386   9.700  70.859  1.00  0.00    -0.334 A  
HETATM   16  C   UNL     1      -9.111   9.055  71.062  1.00  0.00    -0.322 A  
HETATM   17  C   UNL     1     -10.697  10.801  70.076  1.00  0.00    -0.140 A  
HETATM   18  C   UNL     1      -9.271   7.964  71.947  1.00  0.00    -0.202 A  
HETATM   19  C   UNL     1     -12.010  11.269  70.075  1.00  0.00    -0.447 A  
HETATM   20  C   UNL     1     -12.982  10.654  70.874  1.00  0.00    -0.429 A  
HETATM   21  C   UNL     1      -8.154   7.241  72.353  1.00  0.00    -0.111 A  
HETATM   22  C   UNL     1      -6.899   7.580  71.829  1.00  0.00    -0.057 A  
HETATM   23  C   UNL     1     -12.662   9.556  71.679  1.00  0.00    -0.478 A  
HETATM   24  C   UNL     1      -6.754   8.655  70.946  1.00  0.00    -0.052 A  
HETATM   25  C   UNL     1      -7.864   9.408  70.562  1.00  0.00    -0.185 A  
ENDBRANCH  10  13
ENDBRANCH   9  10
ENDBRANCH   8   9
ENDBRANCH   7   8
ENDBRANCH   6   7
ENDBRANCH   5   6
ENDBRANCH   4   5
ENDBRANCH   2   4
BRANCH   2  26
HETATM   26  C   UNL     1      -9.173  12.544  66.092  1.00  0.00    -0.073 C  
HETATM   27  C   UNL     1     -12.706  12.663  64.943  1.00  0.00    -0.450 A  
HETATM   28  C   UNL     1      -9.877  13.353  67.201  1.00  0.00    -0.237 A  
HETATM   29  C   UNL     1     -12.671  12.037  63.701  1.00  0.00    -0.550 A  
HETATM   30  C   UNL     1     -11.255  13.470  66.900  1.00  0.00    -0.329 A  
HETATM   31  C   UNL     1     -11.512  12.850  65.620  1.00  0.00    -0.368 A  
HETATM   32  C   UNL     1     -12.121  14.162  67.734  1.00  0.00    -0.321 A  
HETATM   33  C   UNL     1     -11.454  11.668  63.109  1.00  0.00    -0.125 A  
HETATM   34  C   UNL     1      -9.366  13.987  68.332  1.00  0.00    -0.210 A  
HETATM   35  C   UNL     1     -10.291  12.410  65.064  1.00  0.00    -0.319 A  
HETATM   36  C   UNL     1     -11.610  14.748  68.894  1.00  0.00    -0.340 A  
HETATM   37  C   UNL     1     -10.241  11.893  63.774  1.00  0.00    -0.442 A  
HETATM   38  C   UNL     1     -10.245  14.660  69.191  1.00  0.00    -0.199 A  
ENDBRANCH   2  26
TORSDOF 9
ENDMDL
MODEL       15
REMARK 921   NORMALIZED FREE ENERGY PREDICTED BY IDOCK:   -6.93 KCAL/MOL
REMARK 922        TOTAL FREE ENERGY PREDICTED BY IDOCK:  -12.34 KCAL/MOL
REMARK 923 INTER-LIGAND FREE ENERGY PREDICTED BY IDOCK:   -9.96 KCAL/MOL
REMARK 924 INTRA-LIGAND FREE ENERGY PREDICTED BY IDOCK:   -2.39 KCAL/MOL
REMARK 927      BINDING AFFINITY PREDICTED BY RF-SCORE:    0.00 PKD
ROOT
HETATM    1  C   UNL     1     -10.221  13.756  65.235  1.00  0.00    -0.335 C  
HETATM    2  N   UNL     1     -11.133  13.120  66.279  1.00  0.00    -0.284 N  
HETATM    3  C   UNL     1     -12.460  13.872  66.307  1.00  0.00    -0.409 C  
ENDROOT
BRANCH   2   4
HETATM    4  C   UNL     1     -11.330  11.657  65.938  1.00  0.00    -0.199 C  
BRANCH   4   5
HETATM    5  C   UNL     1     -10.429  11.089  64.842  1.00  0.00    -0.371 C  
BRANCH   5   6
HETATM    6  C   UNL     1      -9.754   9.810  65.356  1.00  0.00    -0.383 C  
BRANCH   6   7
HETATM    7  C   UNL     1      -9.756   9.671  66.889  1.00  0.00    -0.240 C  
BRANCH   7   8
HETATM    8  C   UNL     1      -8.415  10.022  67.551  1.00  0.00    -0.118 C  
BRANCH   8   9
HETATM    9  C   UNL     1      -8.529   9.757  69.053  1.00  0.00    -0.137 C  
BRANCH   9  10
HETATM   10  N   UNL     1      -7.530   8.761  69.620  1.00  0.00    -0.069 N  
HETATM   11  C   UNL     1      -6.415   8.468  68.621  1.00  0.00    -0.054 C  
HETATM   12  C   UNL     1      -6.856   9.285  70.879  1.00  0.00    -0.103 C  
BRANCH  10  13
HETATM   13  C   UNL     1      -8.345   7.418  69.952  1.00  0.00    -0.134 C  
HETATM   14  C   UNL     1      -8.926   6.712  68.712  1.00  0.00    -0.125 A  
HETATM   15  C   UNL     1     -10.335   6.655  68.801  1.00  0.00    -0.214 A  
HETATM   16  C   UNL     1     -10.756   7.193  70.072  1.00  0.00    -0.268 A  
HETATM   17  C   UNL     1     -11.103   6.116  67.779  1.00  0.00    -0.306 A  
HETATM   18  C   UNL     1      -9.623   7.632  70.795  1.00  0.00    -0.166 A  
HETATM   19  C   UNL     1     -10.454   5.618  66.650  1.00  0.00    -0.340 A  
HETATM   20  C   UNL     1      -9.056   5.637  66.570  1.00  0.00    -0.140 A  
HETATM   21  C   UNL     1      -9.782   8.116  72.090  1.00  0.00    -0.311 A  
HETATM   22  C   UNL     1     -11.074   8.206  72.627  1.00  0.00    -0.450 A  
HETATM   23  C   UNL     1      -8.283   6.162  67.609  1.00  0.00    -0.113 A  
HETATM   24  C   UNL     1     -12.188   7.778  71.898  1.00  0.00    -0.341 A  
HETATM   25  C   UNL     1     -12.034   7.258  70.613  1.00  0.00    -0.259 A  
ENDBRANCH  10  13
ENDBRANCH   9  10
ENDBRANCH   8   9
ENDBRANCH   7   8
ENDBRANCH   6   7
ENDBRANCH   5   6
ENDBRANCH   4   5
ENDBRANCH   2   4
BRANCH   2  26
HETATM   26  C   UNL     1     -10.448  13.184  67.738  1.00  0.00    -0.228 C  
HETATM   27  C   UNL     1     -11.203  16.140  69.860  1.00  0.00    -0.349 A  
HETATM   28  C   UNL     1     -11.307  12.591  68.876  1.00  0.00    -0.346 A  
HETATM   29  C   UNL     1     -10.487  17.170  69.259  1.00  0.00    -0.267 A  
HETATM   30  C   UNL     1     -11.685  13.621  69.769  1.00  0.00    -0.364 A  
HETATM   31  C   UNL     1     -11.077  14.861  69.344  1.00  0.00    -0.296 A  
HETATM   32  C   UNL     1     -12.456  13.356  70.891  1.00  0.00    -0.439 A  
HETATM   33  C   UNL     1      -9.600  16.916  68.202  1.00  0.00    -0.255 A  
HETATM   34  C   UNL     1     -11.672  11.275  69.151  1.00  0.00    -0.410 A  
HETATM   35  C   UNL     1     -10.245  14.612  68.230  1.00  0.00    -0.227 A  
HETATM   36  C   UNL     1     -12.864  12.043  71.130  1.00  0.00    -0.331 A  
HETATM   37  C   UNL     1      -9.440  15.617  67.703  1.00  0.00    -0.211 A  
HETATM   38  C   UNL     1     -12.477  11.012  70.268  1.00  0.00    -0.365 A  
ENDBRANCH   2  26
TORSDOF 9
ENDMDL
MODEL       16
REMARK 921   NORMALIZED FREE ENERGY PREDICTED BY IDOCK:   -6.87 KCAL/MOL
REMARK 922        TOTAL FREE ENERGY PREDICTED BY IDOCK:  -12.25 KCAL/MOL
REMARK 923 INTER-LIGAND FREE ENERGY PREDICTED BY IDOCK:  -10.64 KCAL/MOL
REMARK 924 INTRA-LIGAND FREE ENERGY PREDICTED BY IDOCK:   -1.61 KCAL/MOL
REMARK 927      BINDING AFFINITY PREDICTED BY RF-SCORE:    0.00 PKD
ROOT
HETATM    1  C   UNL     1      -9.316   8.032  70.977  1.00  0.00    -0.149 C  
HETATM    2  N   UNL     1     -10.725   7.861  71.536  1.00  0.00    -0.224 N  
HETATM    3  C   UNL     1     -10.660   7.856  73.061  1.00  0.00    -0.339 C  
ENDROOT
BRANCH   2   4
HETATM    4  C   UNL     1     -11.601   8.984  71.021  1.00  0.00    -0.300 C  
BRANCH   4   5
HETATM    5  C   UNL     1     -10.892  10.104  70.261  1.00  0.00    -0.370 C  
BRANCH   5   6
HETATM    6  C   UNL     1     -11.940  11.062  69.680  1.00  0.00    -0.424 C  
BRANCH   6   7
HETATM    7  C   UNL     1     -12.319  12.224  70.617  1.00  0.00    -0.375 C  
BRANCH   7   8
HETATM    8  C   UNL     1     -12.080  13.617  70.015  1.00  0.00    -0.417 C  
BRANCH   8   9
HETATM    9  C   UNL     1     -11.651  13.450  68.557  1.00  0.00    -0.333 C  
BRANCH   9  10
HETATM   10  N   UNL     1     -10.613  14.445  68.062  1.00  0.00    -0.238 N  
HETATM   11  C   UNL     1     -11.272  15.712  67.527  1.00  0.00    -0.245 C  
HETATM   12  C   UNL     1      -9.669  14.883  69.172  1.00  0.00    -0.183 C  
BRANCH  10  13
HETATM   13  C   UNL     1      -9.786  13.715  66.896  1.00  0.00    -0.262 C  
HETATM   14  C   UNL     1     -10.628  13.356  65.656  1.00  0.00    -0.286 A  
HETATM   15  C   UNL     1     -10.628  11.958  65.456  1.00  0.00    -0.313 A  
HETATM   16  C   UNL     1      -9.758  11.336  66.425  1.00  0.00    -0.238 A  
HETATM   17  C   UNL     1     -11.363  11.373  64.435  1.00  0.00    -0.214 A  
HETATM   18  C   UNL     1      -9.219  12.327  67.278  1.00  0.00    -0.185 A  
HETATM   19  C   UNL     1     -12.106  12.198  63.592  1.00  0.00    -0.648 A  
HETATM   20  C   UNL     1     -12.082  13.589  63.760  1.00  0.00    -0.482 A  
HETATM   21  C   UNL     1      -8.286  11.967  68.244  1.00  0.00    -0.157 A  
HETATM   22  C   UNL     1      -7.940  10.616  68.382  1.00  0.00    -0.120 A  
HETATM   23  C   UNL     1     -11.326  14.178  64.778  1.00  0.00    -0.371 A  
HETATM   24  C   UNL     1      -8.487   9.642  67.540  1.00  0.00    -0.125 A  
HETATM   25  C   UNL     1      -9.397  10.000  66.545  1.00  0.00    -0.201 A  
ENDBRANCH  10  13
ENDBRANCH   9  10
ENDBRANCH   8   9
ENDBRANCH   7   8
ENDBRANCH   6   7
ENDBRANCH   5   6
ENDBRANCH   4   5
ENDBRANCH   2   4
BRANCH   2  26
HETATM   26  C   UNL     1     -11.369   6.475  71.021  1.00  0.00    -0.323 C  
HETATM   27  C   UNL     1      -9.485   4.553  68.457  1.00  0.00    -0.213 A  
HETATM   28  C   UNL     1     -10.900   5.224  71.793  1.00  0.00    -0.198 A  
HETATM   29  C   UNL     1      -9.657   5.297  67.295  1.00  0.00    -0.147 A  
HETATM   30  C   UNL     1     -10.146   4.391  70.932  1.00  0.00    -0.199 A  
HETATM   31  C   UNL     1     -10.137   4.969  69.608  1.00  0.00    -0.321 A  
HETATM   32  C   UNL     1      -9.611   3.190  71.374  1.00  0.00    -0.227 A  
HETATM   33  C   UNL     1     -10.525   6.399  67.260  1.00  0.00    -0.326 A  
HETATM   34  C   UNL     1     -11.155   4.809  73.099  1.00  0.00    -0.388 A  
HETATM   35  C   UNL     1     -10.949   6.124  69.599  1.00  0.00    -0.459 A  
HETATM   36  C   UNL     1      -9.826   2.808  72.699  1.00  0.00    -0.207 A  
HETATM   37  C   UNL     1     -11.215   6.798  68.412  1.00  0.00    -0.146 A  
HETATM   38  C   UNL     1     -10.590   3.610  73.555  1.00  0.00    -0.282 A  
ENDBRANCH   2  26
TORSDOF 9
ENDMDL
MODEL       17
REMARK 921   NORMALIZED FREE ENERGY PREDICTED BY IDOCK:   -6.86 KCAL/MOL
REMARK 922        TOTAL FREE ENERGY PREDICTED BY IDOCK:  -12.24 KCAL/MOL
REMARK 923 INTER-LIGAND FREE ENERGY PREDICTED BY IDOCK:  -11.39 KCAL/MOL
REMARK 924 INTRA-LIGAND FREE ENERGY PREDICTED BY IDOCK:   -0.84 KCAL/MOL
REMARK 927      BINDING AFFINITY PREDICTED BY RF-SCORE:    0.00 PKD
ROOT
HETATM    1  C   UNL     1     -11.155  15.980  64.952  1.00  0.00    -0.370 C  
HETATM    2  N   UNL     1     -11.085  14.592  65.581  1.00  0.00    -0.328 N  
HETATM    3  C   UNL     1     -12.498  14.123  65.913  1.00  0.00    -0.453 C  
ENDROOT
BRANCH   2   4
HETATM    4  C   UNL     1     -10.397  13.647  64.618  1.00  0.00    -0.384 C  
BRANCH   4   5
HETATM    5  C   UNL     1     -11.283  12.593  63.953  1.00  0.00    -0.497 C  
BRANCH   5   6
HETATM    6  C   UNL     1     -10.693  11.201  64.215  1.00  0.00    -0.403 C  
BRANCH   6   7
HETATM    7  C   UNL     1      -9.966  11.070  65.566  1.00  0.00    -0.308 C  
BRANCH   7   8
HETATM    8  C   UNL     1     -10.869  10.614  66.721  1.00  0.00    -0.233 C  
BRANCH   8   9
HETATM    9  C   UNL     1     -10.007  10.433  67.971  1.00  0.00    -0.155 C  
BRANCH   9  10
HETATM   10  N   UNL     1      -9.657   8.996  68.323  1.00  0.00    -0.143 N  
HETATM   11  C   UNL     1     -10.657   8.018  67.714  1.00  0.00    -0.170 C  
HETATM   12  C   UNL     1      -8.287   8.598  67.796  1.00  0.00    -0.118 C  
BRANCH  10  13
HETATM   13  C   UNL     1      -9.681   8.888  69.925  1.00  0.00    -0.177 C  
HETATM   14  C   UNL     1      -9.518   7.453  70.462  1.00  0.00    -0.161 A  
HETATM   15  C   UNL     1     -10.661   7.079  71.203  1.00  0.00    -0.253 A  
HETATM   16  C   UNL     1     -11.562   8.203  71.292  1.00  0.00    -0.305 A  
HETATM   17  C   UNL     1     -10.786   5.809  71.747  1.00  0.00    -0.311 A  
HETATM   18  C   UNL     1     -11.021   9.297  70.579  1.00  0.00    -0.318 A  
HETATM   19  C   UNL     1      -9.750   4.897  71.554  1.00  0.00    -0.233 A  
HETATM   20  C   UNL     1      -8.597   5.271  70.852  1.00  0.00    -0.133 A  
HETATM   21  C   UNL     1     -11.684  10.520  70.595  1.00  0.00    -0.453 A  
HETATM   22  C   UNL     1     -12.904  10.622  71.277  1.00  0.00    -0.535 A  
HETATM   23  C   UNL     1      -8.464   6.558  70.322  1.00  0.00    -0.135 A  
HETATM   24  C   UNL     1     -13.434   9.530  71.970  1.00  0.00    -0.522 A  
HETATM   25  C   UNL     1     -12.759   8.309  71.990  1.00  0.00    -0.376 A  
ENDBRANCH  10  13
ENDBRANCH   9  10
ENDBRANCH   8   9
ENDBRANCH   7   8
ENDBRANCH   6   7
ENDBRANCH   5   6
ENDBRANCH   4   5
ENDBRANCH   2   4
BRANCH   2  26
HETATM   26  C   UNL     1     -10.201  14.629  66.929  1.00  0.00    -0.262 C  
HETATM   27  C   UNL     1      -9.295  17.965  68.298  1.00  0.00    -0.287 A  
HETATM   28  C   UNL     1     -11.022  14.710  68.233  1.00  0.00    -0.261 A  
HETATM   29  C   UNL     1      -8.330  18.434  67.413  1.00  0.00    -0.256 A  
HETATM   30  C   UNL     1     -10.784  15.953  68.867  1.00  0.00    -0.254 A  
HETATM   31  C   UNL     1      -9.798  16.687  68.107  1.00  0.00    -0.250 A  
HETATM   32  C   UNL     1     -11.395  16.280  70.069  1.00  0.00    -0.276 A  
HETATM   33  C   UNL     1      -7.819  17.614  66.396  1.00  0.00    -0.318 A  
HETATM   34  C   UNL     1     -11.848  13.772  68.850  1.00  0.00    -0.396 A  
HETATM   35  C   UNL     1      -9.345  15.887  67.037  1.00  0.00    -0.230 A  
HETATM   36  C   UNL     1     -12.263  15.356  70.653  1.00  0.00    -0.431 A  
HETATM   37  C   UNL     1      -8.297  16.308  66.225  1.00  0.00    -0.343 A  
HETATM   38  C   UNL     1     -12.488  14.114  70.049  1.00  0.00    -0.352 A  
ENDBRANCH   2  26
TORSDOF 9
ENDMDL
MODEL       18
REMARK 921   NORMALIZED FREE ENERGY PREDICTED BY IDOCK:   -6.86 KCAL/MOL
REMARK 922        TOTAL FREE ENERGY PREDICTED BY IDOCK:  -12.23 KCAL/MOL
REMARK 923 INTER-LIGAND FREE ENERGY PREDICTED BY IDOCK:  -10.17 KCAL/MOL
REMARK 924 INTRA-LIGAND FREE ENERGY PREDICTED BY IDOCK:   -2.06 KCAL/MOL
REMARK 927      BINDING AFFINITY PREDICTED BY RF-SCORE:    0.00 PKD
ROOT
HETATM    1  C   UNL     1      -8.689  11.673  67.982  1.00  0.00    -0.157 C  
HETATM    2  N   UNL     1      -9.615  10.494  67.703  1.00  0.00    -0.156 N  
HETATM    3  C   UNL     1      -9.119   9.751  66.466  1.00  0.00    -0.153 C  
ENDROOT
BRANCH   2   4
HETATM    4  C   UNL     1      -9.647   9.591  68.918  1.00  0.00    -0.156 C  
BRANCH   4   5
HETATM    5  C   UNL     1      -8.564   9.831  69.970  1.00  0.00    -0.229 C  
BRANCH   5   6
HETATM    6  C   UNL     1      -7.969   8.483  70.398  1.00  0.00    -0.099 C  
BRANCH   6   7
HETATM    7  C   UNL     1      -7.441   7.630  69.229  1.00  0.00    -0.094 C  
BRANCH   7   8
HETATM    8  C   UNL     1      -6.844   6.281  69.659  1.00  0.00    -0.065 C  
BRANCH   8   9
HETATM    9  C   UNL     1      -7.483   5.866  70.985  1.00  0.00    -0.094 C  
BRANCH   9  10
HETATM   10  N   UNL     1      -7.955   4.422  71.060  1.00  0.00    -0.071 N  
HETATM   11  C   UNL     1      -7.202   3.543  70.067  1.00  0.00    -0.041 C  
HETATM   12  C   UNL     1      -7.723   3.818  72.436  1.00  0.00    -0.068 C  
BRANCH  10  13
HETATM   13  C   UNL     1      -9.524   4.426  70.720  1.00  0.00    -0.173 C  
HETATM   14  C   UNL     1      -9.845   4.646  69.229  1.00  0.00    -0.260 A  
HETATM   15  C   UNL     1     -10.606   5.825  69.065  1.00  0.00    -0.351 A  
HETATM   16  C   UNL     1     -10.913   6.380  70.361  1.00  0.00    -0.367 A  
HETATM   17  C   UNL     1     -10.977   6.277  67.806  1.00  0.00    -0.427 A  
HETATM   18  C   UNL     1     -10.322   5.582  71.366  1.00  0.00    -0.291 A  
HETATM   19  C   UNL     1     -10.587   5.536  66.691  1.00  0.00    -0.365 A  
HETATM   20  C   UNL     1      -9.864   4.347  66.847  1.00  0.00    -0.235 A  
HETATM   21  C   UNL     1     -10.553   5.883  72.705  1.00  0.00    -0.255 A  
HETATM   22  C   UNL     1     -11.327   7.007  73.023  1.00  0.00    -0.173 A  
HETATM   23  C   UNL     1      -9.508   3.883  68.117  1.00  0.00    -0.219 A  
HETATM   24  C   UNL     1     -11.899   7.795  72.019  1.00  0.00    -0.351 A  
HETATM   25  C   UNL     1     -11.702   7.480  70.675  1.00  0.00    -0.240 A  
ENDBRANCH  10  13
ENDBRANCH   9  10
ENDBRANCH   8   9
ENDBRANCH   7   8
ENDBRANCH   6   7
ENDBRANCH   5   6
ENDBRANCH   4   5
ENDBRANCH   2   4
BRANCH   2  26
HETATM   26  C   UNL     1     -11.122  11.011  67.450  1.00  0.00    -0.305 C  
HETATM   27  C   UNL     1     -12.241  14.021  69.322  1.00  0.00    -0.319 A  
HETATM   28  C   UNL     1     -11.256  12.082  66.347  1.00  0.00    -0.389 A  
HETATM   29  C   UNL     1     -12.405  13.559  70.624  1.00  0.00    -0.432 A  
HETATM   30  C   UNL     1     -11.670  13.306  66.924  1.00  0.00    -0.437 A  
HETATM   31  C   UNL     1     -11.892  13.109  68.338  1.00  0.00    -0.386 A  
HETATM   32  C   UNL     1     -11.878  14.437  66.147  1.00  0.00    -0.391 A  
HETATM   33  C   UNL     1     -12.293  12.194  70.928  1.00  0.00    -0.370 A  
HETATM   34  C   UNL     1     -11.100  11.993  64.965  1.00  0.00    -0.368 A  
HETATM   35  C   UNL     1     -11.701  11.747  68.653  1.00  0.00    -0.389 A  
HETATM   36  C   UNL     1     -11.666  14.352  64.771  1.00  0.00    -0.420 A  
HETATM   37  C   UNL     1     -11.979  11.264  69.928  1.00  0.00    -0.440 A  
HETATM   38  C   UNL     1     -11.280  13.142  64.184  1.00  0.00    -0.433 A  
ENDBRANCH   2  26
TORSDOF 9
ENDMDL
MODEL       19
REMARK 921   NORMALIZED FREE ENERGY PREDICTED BY IDOCK:   -6.85 KCAL/MOL
REMARK 922        TOTAL FREE ENERGY PREDICTED BY IDOCK:  -12.22 KCAL/MOL
REMARK 923 INTER-LIGAND FREE ENERGY PREDICTED BY IDOCK:  -10.06 KCAL/MOL
REMARK 924 INTRA-LIGAND FREE ENERGY PREDICTED BY IDOCK:   -2.16 KCAL/MOL
REMARK 927      BINDING AFFINITY PREDICTED BY RF-SCORE:    0.00 PKD
ROOT
HETATM    1  C   UNL     1     -10.380   5.155  69.625  1.00  0.00    -0.246 C  
HETATM    2  N   UNL     1      -9.496   6.300  69.142  1.00  0.00    -0.133 N  
HETATM    3  C   UNL     1      -8.161   5.734  68.665  1.00  0.00    -0.105 C  
ENDROOT
BRANCH   2   4
HETATM    4  C   UNL     1     -10.212   7.043  68.033  1.00  0.00    -0.182 C  
BRANCH   4   5
HETATM    5  C   UNL     1      -9.507   7.083  66.678  1.00  0.00    -0.210 C  
BRANCH   5   6
HETATM    6  C   UNL     1      -9.272   8.545  66.274  1.00  0.00    -0.262 C  
BRANCH   6   7
HETATM    7  C   UNL     1     -10.462   9.477  66.568  1.00  0.00    -0.201 C  
BRANCH   7   8
HETATM    8  C   UNL     1     -10.344  10.866  65.921  1.00  0.00    -0.310 C  
BRANCH   8   9
HETATM    9  C   UNL     1     -11.286  11.824  66.650  1.00  0.00    -0.323 C  
BRANCH   9  10
HETATM   10  N   UNL     1     -11.092  13.299  66.333  1.00  0.00    -0.292 N  
HETATM   11  C   UNL     1     -10.303  13.488  65.042  1.00  0.00    -0.362 C  
HETATM   12  C   UNL     1     -12.419  14.018  66.140  1.00  0.00    -0.430 C  
BRANCH  10  13
HETATM   13  C   UNL     1     -10.295  13.941  67.570  1.00  0.00    -0.245 C  
HETATM   14  C   UNL     1     -11.147  14.124  68.841  1.00  0.00    -0.288 A  
HETATM   15  C   UNL     1     -11.214  15.492  69.188  1.00  0.00    -0.300 A  
HETATM   16  C   UNL     1     -10.382  16.255  68.290  1.00  0.00    -0.272 A  
HETATM   17  C   UNL     1     -11.971  15.927  70.267  1.00  0.00    -0.324 A  
HETATM   18  C   UNL     1      -9.800  15.388  67.337  1.00  0.00    -0.216 A  
HETATM   19  C   UNL     1     -12.667  14.981  71.017  1.00  0.00    -0.432 A  
HETATM   20  C   UNL     1     -12.576  13.619  70.703  1.00  0.00    -0.366 A  
HETATM   21  C   UNL     1      -8.891  15.894  66.414  1.00  0.00    -0.368 A  
HETATM   22  C   UNL     1      -8.614  17.268  66.419  1.00  0.00    -0.294 A  
HETATM   23  C   UNL     1     -11.798  13.180  69.628  1.00  0.00    -0.390 A  
HETATM   24  C   UNL     1      -9.203  18.118  67.361  1.00  0.00    -0.257 A  
HETATM   25  C   UNL     1     -10.088  17.613  68.312  1.00  0.00    -0.362 A  
ENDBRANCH  10  13
ENDBRANCH   9  10
ENDBRANCH   8   9
ENDBRANCH   7   8
ENDBRANCH   6   7
ENDBRANCH   5   6
ENDBRANCH   4   5
ENDBRANCH   2   4
BRANCH   2  26
HETATM   26  C   UNL     1      -9.238   7.353  70.335  1.00  0.00    -0.158 C  
HETATM   27  C   UNL     1      -8.900  10.939  69.419  1.00  0.00     0.111 A  
HETATM   28  C   UNL     1     -10.518   7.988  70.919  1.00  0.00    -0.223 A  
HETATM   29  C   UNL     1      -7.648  11.010  68.817  1.00  0.00    -0.127 A  
HETATM   30  C   UNL     1     -10.532   9.374  70.631  1.00  0.00    -0.354 A  
HETATM   31  C   UNL     1      -9.308   9.726  69.950  1.00  0.00    -0.262 A  
HETATM   32  C   UNL     1     -11.573  10.188  71.053  1.00  0.00    -0.462 A  
HETATM   33  C   UNL     1      -6.784   9.904  68.808  1.00  0.00    -0.050 A  
HETATM   34  C   UNL     1     -11.542   7.435  71.685  1.00  0.00    -0.302 A  
HETATM   35  C   UNL     1      -8.475   8.589  69.874  1.00  0.00    -0.125 A  
HETATM   36  C   UNL     1     -12.623   9.616  71.773  1.00  0.00    -0.497 A  
HETATM   37  C   UNL     1      -7.178   8.687  69.379  1.00  0.00    -0.057 A  
HETATM   38  C   UNL     1     -12.609   8.252  72.085  1.00  0.00    -0.379 A  
ENDBRANCH   2  26
TORSDOF 9
ENDMDL
MODEL       20
REMARK 921   NORMALIZED FREE ENERGY PREDICTED BY IDOCK:   -6.80 KCAL/MOL
REMARK 922        TOTAL FREE ENERGY PREDICTED BY IDOCK:  -12.14 KCAL/MOL
REMARK 923 INTER-LIGAND FREE ENERGY PREDICTED BY IDOCK:  -11.70 KCAL/MOL
REMARK 924 INTRA-LIGAND FREE ENERGY PREDICTED BY IDOCK:   -0.45 KCAL/MOL
REMARK 927      BINDING AFFINITY PREDICTED BY RF-SCORE:    0.00 PKD
ROOT
HETATM    1  C   UNL     1     -10.212   7.619  69.144  1.00  0.00    -0.203 C  
HETATM    2  N   UNL     1      -9.352   8.846  69.427  1.00  0.00    -0.152 N  
HETATM    3  C   UNL     1      -7.882   8.478  69.246  1.00  0.00    -0.099 C  
ENDROOT
BRANCH   2   4
HETATM    4  C   UNL     1      -9.763   9.965  68.493  1.00  0.00    -0.154 C  
BRANCH   4   5
HETATM    5  C   UNL     1     -10.758   9.598  67.392  1.00  0.00    -0.308 C  
BRANCH   5   6
HETATM    6  C   UNL     1     -10.116   9.864  66.023  1.00  0.00    -0.314 C  
BRANCH   6   7
HETATM    7  C   UNL     1      -9.840  11.351  65.736  1.00  0.00    -0.270 C  
BRANCH   7   8
HETATM    8  C   UNL     1     -10.961  12.056  64.958  1.00  0.00    -0.355 C  
BRANCH   8   9
HETATM    9  C   UNL     1     -10.513  13.484  64.644  1.00  0.00    -0.421 C  
BRANCH   9  10
HETATM   10  N   UNL     1     -11.235  14.580  65.411  1.00  0.00    -0.329 N  
HETATM   11  C   UNL     1     -11.395  15.836  64.561  1.00  0.00    -0.316 C  
HETATM   12  C   UNL     1     -12.637  14.157  65.825  1.00  0.00    -0.447 C  
BRANCH  10  13
HETATM   13  C   UNL     1     -10.352  14.899  66.713  1.00  0.00    -0.269 C  
HETATM   14  C   UNL     1     -11.074  14.625  68.047  1.00  0.00    -0.291 A  
HETATM   15  C   UNL     1     -11.185  15.820  68.792  1.00  0.00    -0.342 A  
HETATM   16  C   UNL     1     -10.498  16.883  68.099  1.00  0.00    -0.350 A  
HETATM   17  C   UNL     1     -11.849  15.853  70.011  1.00  0.00    -0.322 A  
HETATM   18  C   UNL     1      -9.970  16.387  66.885  1.00  0.00    -0.273 A  
HETATM   19  C   UNL     1     -12.406  14.672  70.498  1.00  0.00    -0.400 A  
HETATM   20  C   UNL     1     -12.268  13.475  69.782  1.00  0.00    -0.330 A  
HETATM   21  C   UNL     1      -9.194  17.220  66.085  1.00  0.00    -0.193 A  
HETATM   22  C   UNL     1      -8.999  18.550  66.479  1.00  0.00    -0.300 A  
HETATM   23  C   UNL     1     -11.583  13.440  68.564  1.00  0.00    -0.368 A  
HETATM   24  C   UNL     1      -9.535  19.032  67.677  1.00  0.00    -0.355 A  
HETATM   25  C   UNL     1     -10.284  18.195  68.503  1.00  0.00    -0.399 A  
ENDBRANCH  10  13
ENDBRANCH   9  10
ENDBRANCH   8   9
ENDBRANCH   7   8
ENDBRANCH   6   7
ENDBRANCH   5   6
ENDBRANCH   4   5
ENDBRANCH   2   4
BRANCH   2  26
HETATM   26  C   UNL     1      -9.593   9.366  70.934  1.00  0.00    -0.231 C  
HETATM   27  C   UNL     1     -12.752   8.357  72.614  1.00  0.00    -0.197 A  
HETATM   28  C   UNL     1      -9.113   8.395  72.033  1.00  0.00    -0.296 A  
HETATM   29  C   UNL     1     -13.723   9.125  71.980  1.00  0.00    -0.508 A  
HETATM   30  C   UNL     1     -10.229   7.912  72.758  1.00  0.00    -0.380 A  
HETATM   31  C   UNL     1     -11.425   8.551  72.262  1.00  0.00    -0.445 A  
HETATM   32  C   UNL     1     -10.074   7.025  73.814  1.00  0.00    -0.390 A  
HETATM   33  C   UNL     1     -13.371  10.125  71.060  1.00  0.00    -0.333 A  
HETATM   34  C   UNL     1      -7.829   8.013  72.415  1.00  0.00    -0.161 A  
HETATM   35  C   UNL     1     -11.072   9.501  71.280  1.00  0.00    -0.449 A  
HETATM   36  C   UNL     1      -8.788   6.606  74.155  1.00  0.00    -0.178 A  
HETATM   37  C   UNL     1     -12.028  10.350  70.732  1.00  0.00    -0.462 A  
HETATM   38  C   UNL     1      -7.675   7.094  73.462  1.00  0.00    -0.107 A  
ENDBRANCH   2  26
TORSDOF 9
ENDMDL
MODEL       21
REMARK 921   NORMALIZED FREE ENERGY PREDICTED BY IDOCK:   -6.79 KCAL/MOL
REMARK 922        TOTAL FREE ENERGY PREDICTED BY IDOCK:  -12.13 KCAL/MOL
REMARK 923 INTER-LIGAND FREE ENERGY PREDICTED BY IDOCK:   -8.05 KCAL/MOL
REMARK 924 INTRA-LIGAND FREE ENERGY PREDICTED BY IDOCK:   -4.08 KCAL/MOL
REMARK 927      BINDING AFFINITY PREDICTED BY RF-SCORE:    0.00 PKD
ROOT
HETATM    1  C   UNL     1     -11.293  15.562  64.815  1.00  0.00    -0.357 C  
HETATM    2  N   UNL     1     -11.488  14.071  65.068  1.00  0.00    -0.330 N  
HETATM    3  C   UNL     1     -12.881  13.840  65.647  1.00  0.00    -0.408 C  
ENDROOT
BRANCH   2   4
HETATM    4  C   UNL     1     -11.295  13.319  63.767  1.00  0.00    -0.251 C  
BRANCH   4   5
HETATM    5  C   UNL     1     -11.519  11.808  63.817  1.00  0.00    -0.510 C  
BRANCH   5   6
HETATM    6  C   UNL     1     -10.345  11.101  63.126  1.00  0.00    -0.309 C  
BRANCH   6   7
HETATM    7  C   UNL     1      -9.193  10.721  64.075  1.00  0.00    -0.252 C  
BRANCH   7   8
HETATM    8  C   UNL     1      -8.767   9.247  63.983  1.00  0.00    -0.198 C  
BRANCH   8   9
HETATM    9  C   UNL     1      -7.554   9.034  64.889  1.00  0.00    -0.107 C  
BRANCH   9  10
HETATM   10  N   UNL     1      -7.845   8.380  66.230  1.00  0.00    -0.096 N  
HETATM   11  C   UNL     1      -8.611   7.073  66.052  1.00  0.00    -0.148 C  
HETATM   12  C   UNL     1      -6.570   8.036  66.985  1.00  0.00    -0.057 C  
BRANCH  10  13
HETATM   13  C   UNL     1      -8.719   9.425  67.079  1.00  0.00    -0.127 C  
HETATM   14  C   UNL     1      -7.933  10.659  67.561  1.00  0.00    -0.110 A  
HETATM   15  C   UNL     1      -7.931  10.713  68.973  1.00  0.00    -0.140 A  
HETATM   16  C   UNL     1      -8.751   9.645  69.493  1.00  0.00    -0.191 A  
HETATM   17  C   UNL     1      -7.240  11.702  69.658  1.00  0.00     0.211 A  
HETATM   18  C   UNL     1      -9.257   8.876  68.421  1.00  0.00    -0.140 A  
HETATM   19  C   UNL     1      -6.543  12.659  68.922  1.00  0.00    -0.095 A  
HETATM   20  C   UNL     1      -6.570  12.635  67.521  1.00  0.00    -0.156 A  
HETATM   21  C   UNL     1     -10.142   7.835  68.682  1.00  0.00    -0.211 A  
HETATM   22  C   UNL     1     -10.470   7.541  70.013  1.00  0.00    -0.231 A  
HETATM   23  C   UNL     1      -7.283  11.649  66.833  1.00  0.00    -0.125 A  
HETATM   24  C   UNL     1      -9.955   8.304  71.067  1.00  0.00    -0.226 A  
HETATM   25  C   UNL     1      -9.095   9.372  70.811  1.00  0.00    -0.268 A  
ENDBRANCH  10  13
ENDBRANCH   9  10
ENDBRANCH   8   9
ENDBRANCH   7   8
ENDBRANCH   6   7
ENDBRANCH   5   6
ENDBRANCH   4   5
ENDBRANCH   2   4
BRANCH   2  26
HETATM   26  C   UNL     1     -10.378  13.527  66.104  1.00  0.00    -0.296 C  
HETATM   27  C   UNL     1      -9.469  15.728  68.958  1.00  0.00    -0.247 A  
HETATM   28  C   UNL     1     -10.954  12.777  67.325  1.00  0.00    -0.294 A  
HETATM   29  C   UNL     1      -8.715  16.737  68.370  1.00  0.00    -0.236 A  
HETATM   30  C   UNL     1     -10.690  13.517  68.502  1.00  0.00    -0.270 A  
HETATM   31  C   UNL     1      -9.911  14.684  68.160  1.00  0.00    -0.224 A  
HETATM   32  C   UNL     1     -11.093  13.059  69.748  1.00  0.00     0.109 A  
HETATM   33  C   UNL     1      -8.342  16.670  67.019  1.00  0.00    -0.216 A  
HETATM   34  C   UNL     1     -11.588  11.540  67.419  1.00  0.00    -0.307 A  
HETATM   35  C   UNL     1      -9.605  14.652  66.782  1.00  0.00    -0.266 A  
HETATM   36  C   UNL     1     -11.776  11.845  69.827  1.00  0.00    -0.403 A  
HETATM   37  C   UNL     1      -8.753  15.596  66.218  1.00  0.00    -0.325 A  
HETATM   38  C   UNL     1     -12.022  11.092  68.674  1.00  0.00    -0.247 A  
ENDBRANCH   2  26
TORSDOF 9
ENDMDL
MODEL       22
REMARK 921   NORMALIZED FREE ENERGY PREDICTED BY IDOCK:   -6.76 KCAL/MOL
REMARK 922        TOTAL FREE ENERGY PREDICTED BY IDOCK:  -12.09 KCAL/MOL
REMARK 923 INTER-LIGAND FREE ENERGY PREDICTED BY IDOCK:   -9.71 KCAL/MOL
REMARK 924 INTRA-LIGAND FREE ENERGY PREDICTED BY IDOCK:   -2.37 KCAL/MOL
REMARK 927      BINDING AFFINITY PREDICTED BY RF-SCORE:    0.00 PKD
ROOT
HETATM    1  C   UNL     1      -7.051   3.159  70.010  1.00  0.00    -0.041 C  
HETATM    2  N   UNL     1      -7.863   4.369  70.458  1.00  0.00    -0.052 N  
HETATM    3  C   UNL     1      -7.732   4.527  71.970  1.00  0.00    -0.089 C  
ENDROOT
BRANCH   2   4
HETATM    4  C   UNL     1      -7.364   5.598  69.726  1.00  0.00    -0.070 C  
BRANCH   4   5
HETATM    5  C   UNL     1      -7.445   6.921  70.488  1.00  0.00    -0.086 C  
BRANCH   5   6
HETATM    6  C   UNL     1      -7.695   8.062  69.493  1.00  0.00    -0.103 C  
BRANCH   6   7
HETATM    7  C   UNL     1      -7.627   7.634  68.016  1.00  0.00    -0.110 C  
BRANCH   7   8
HETATM    8  C   UNL     1      -7.438   8.802  67.035  1.00  0.00    -0.091 C  
BRANCH   8   9
HETATM    9  C   UNL     1      -8.628   8.828  66.075  1.00  0.00    -0.148 C  
BRANCH   9  10
HETATM   10  N   UNL     1      -9.021  10.202  65.557  1.00  0.00    -0.162 N  
HETATM   11  C   UNL     1      -8.210  11.301  66.235  1.00  0.00    -0.126 C  
HETATM   12  C   UNL     1      -8.773  10.340  64.063  1.00  0.00    -0.202 C  
BRANCH  10  13
HETATM   13  C   UNL     1     -10.584  10.391  65.874  1.00  0.00    -0.044 C  
HETATM   14  C   UNL     1     -11.230  11.596  65.161  1.00  0.00    -0.262 A  
HETATM   15  C   UNL     1     -11.729  12.513  66.114  1.00  0.00    -0.466 A  
HETATM   16  C   UNL     1     -11.554  11.969  67.439  1.00  0.00    -0.388 A  
HETATM   17  C   UNL     1     -12.309  13.712  65.727  1.00  0.00    -0.524 A  
HETATM   18  C   UNL     1     -10.909  10.714  67.351  1.00  0.00    -0.353 A  
HETATM   19  C   UNL     1     -12.399  14.001  64.366  1.00  0.00    -0.401 A  
HETATM   20  C   UNL     1     -11.940  13.081  63.414  1.00  0.00    -0.592 A  
HETATM   21  C   UNL     1     -10.708   9.964  68.505  1.00  0.00    -0.260 A  
HETATM   22  C   UNL     1     -11.104  10.499  69.739  1.00  0.00    -0.354 A  
HETATM   23  C   UNL     1     -11.374  11.864  63.805  1.00  0.00    -0.532 A  
HETATM   24  C   UNL     1     -11.732  11.746  69.814  1.00  0.00    -0.408 A  
HETATM   25  C   UNL     1     -11.970  12.489  68.658  1.00  0.00    -0.268 A  
ENDBRANCH  10  13
ENDBRANCH   9  10
ENDBRANCH   8   9
ENDBRANCH   7   8
ENDBRANCH   6   7
ENDBRANCH   5   6
ENDBRANCH   4   5
ENDBRANCH   2   4
BRANCH   2  26
HETATM   26  C   UNL     1      -9.416   4.178  70.070  1.00  0.00    -0.190 C  
HETATM   27  C   UNL     1     -11.694   7.062  70.632  1.00  0.00    -0.384 A  
HETATM   28  C   UNL     1      -9.780   4.625  68.638  1.00  0.00    -0.217 A  
HETATM   29  C   UNL     1     -11.838   7.105  72.014  1.00  0.00    -0.333 A  
HETATM   30  C   UNL     1     -10.647   5.742  68.696  1.00  0.00    -0.305 A  
HETATM   31  C   UNL     1     -10.947   6.034  70.078  1.00  0.00    -0.450 A  
HETATM   32  C   UNL     1     -11.135   6.338  67.542  1.00  0.00    -0.379 A  
HETATM   33  C   UNL     1     -11.305   6.096  72.831  1.00  0.00    -0.204 A  
HETATM   34  C   UNL     1      -9.447   4.078  67.400  1.00  0.00    -0.231 A  
HETATM   35  C   UNL     1     -10.343   5.059  70.901  1.00  0.00    -0.260 A  
HETATM   36  C   UNL     1     -10.753   5.817  66.305  1.00  0.00    -0.092 A  
HETATM   37  C   UNL     1     -10.584   5.033  72.271  1.00  0.00    -0.269 A  
HETATM   38  C   UNL     1      -9.916   4.698  66.234  1.00  0.00    -0.268 A  
ENDBRANCH   2  26
TORSDOF 9
ENDMDL
MODEL       23
REMARK 921   NORMALIZED FREE ENERGY PREDICTED BY IDOCK:   -6.75 KCAL/MOL
REMARK 922        TOTAL FREE ENERGY PREDICTED BY IDOCK:  -12.06 KCAL/MOL
REMARK 923 INTER-LIGAND FREE ENERGY PREDICTED BY IDOCK:  -10.32 KCAL/MOL
REMARK 924 INTRA-LIGAND FREE ENERGY PREDICTED BY IDOCK:   -1.75 KCAL/MOL
REMARK 927      BINDING AFFINITY PREDICTED BY RF-SCORE:    0.00 PKD
ROOT
HETATM    1  C   UNL     1     -10.982   5.912  69.062  1.00  0.00    -0.289 C  
HETATM    2  N   UNL     1      -9.517   6.333  69.075  1.00  0.00    -0.128 N  
HETATM    3  C   UNL     1      -8.646   5.105  69.327  1.00  0.00    -0.096 C  
ENDROOT
BRANCH   2   4
HETATM    4  C   UNL     1      -9.179   6.991  67.753  1.00  0.00    -0.124 C  
BRANCH   4   5
HETATM    5  C   UNL     1     -10.354   7.566  66.962  1.00  0.00    -0.395 C  
BRANCH   5   6
HETATM    6  C   UNL     1      -9.971   8.952  66.426  1.00  0.00    -0.354 C  
BRANCH   6   7
HETATM    7  C   UNL     1     -10.988  10.059  66.761  1.00  0.00    -0.017 C  
BRANCH   7   8
HETATM    8  C   UNL     1     -10.722  11.391  66.044  1.00  0.00    -0.318 C  
BRANCH   8   9
HETATM    9  C   UNL     1     -10.974  12.533  67.029  1.00  0.00    -0.267 C  
BRANCH   9  10
HETATM   10  N   UNL     1     -10.423  13.888  66.615  1.00  0.00    -0.270 N  
HETATM   11  C   UNL     1      -9.003  14.089  67.133  1.00  0.00    -0.232 C  
HETATM   12  C   UNL     1     -10.358  14.039  65.103  1.00  0.00    -0.400 C  
BRANCH  10  13
HETATM   13  C   UNL     1     -11.403  14.999  67.235  1.00  0.00    -0.332 C  
HETATM   14  C   UNL     1     -10.846  16.435  67.173  1.00  0.00    -0.169 A  
HETATM   15  C   UNL     1     -10.706  16.958  68.478  1.00  0.00    -0.359 A  
HETATM   16  C   UNL     1     -11.224  16.008  69.433  1.00  0.00    -0.349 A  
HETATM   17  C   UNL     1     -10.169  18.219  68.698  1.00  0.00    -0.377 A  
HETATM   18  C   UNL     1     -11.668  14.852  68.752  1.00  0.00    -0.353 A  
HETATM   19  C   UNL     1      -9.770  18.974  67.596  1.00  0.00    -0.373 A  
HETATM   20  C   UNL     1      -9.939  18.477  66.297  1.00  0.00    -0.384 A  
HETATM   21  C   UNL     1     -12.283  13.829  69.466  1.00  0.00    -0.344 A  
HETATM   22  C   UNL     1     -12.399  13.949  70.858  1.00  0.00    -0.451 A  
HETATM   23  C   UNL     1     -10.498  17.215  66.077  1.00  0.00    -0.271 A  
HETATM   24  C   UNL     1     -11.947  15.094  71.522  1.00  0.00    -0.421 A  
HETATM   25  C   UNL     1     -11.361  16.139  70.809  1.00  0.00    -0.397 A  
ENDBRANCH  10  13
ENDBRANCH   9  10
ENDBRANCH   8   9
ENDBRANCH   7   8
ENDBRANCH   6   7
ENDBRANCH   5   6
ENDBRANCH   4   5
ENDBRANCH   2   4
BRANCH   2  26
HETATM   26  C   UNL     1      -9.256   7.424  70.234  1.00  0.00    -0.154 C  
HETATM   27  C   UNL     1      -8.365  10.874  69.176  1.00  0.00    -0.077 A  
HETATM   28  C   UNL     1     -10.500   8.247  70.632  1.00  0.00    -0.224 A  
HETATM   29  C   UNL     1      -7.058  10.752  68.719  1.00  0.00    -0.079 A  
HETATM   30  C   UNL     1     -10.306   9.602  70.272  1.00  0.00    -0.336 A  
HETATM   31  C   UNL     1      -8.980   9.757  69.719  1.00  0.00    -0.239 A  
HETATM   32  C   UNL     1     -11.274  10.562  70.528  1.00  0.00    -0.348 A  
HETATM   33  C   UNL     1      -6.346   9.552  68.868  1.00  0.00    -0.043 A  
HETATM   34  C   UNL     1     -11.663   7.874  71.303  1.00  0.00    -0.313 A  
HETATM   35  C   UNL     1      -8.296   8.525  69.800  1.00  0.00    -0.124 A  
HETATM   36  C   UNL     1     -12.459  10.170  71.152  1.00  0.00    -0.490 A  
HETATM   37  C   UNL     1      -6.952   8.433  69.453  1.00  0.00    -0.050 A  
HETATM   38  C   UNL     1     -12.653   8.838  71.534  1.00  0.00    -0.372 A  
ENDBRANCH   2  26
TORSDOF 9
ENDMDL
MODEL       24
REMARK 921   NORMALIZED FREE ENERGY PREDICTED BY IDOCK:   -6.70 KCAL/MOL
REMARK 922        TOTAL FREE ENERGY PREDICTED BY IDOCK:  -11.99 KCAL/MOL
REMARK 923 INTER-LIGAND FREE ENERGY PREDICTED BY IDOCK:  -10.22 KCAL/MOL
REMARK 924 INTRA-LIGAND FREE ENERGY PREDICTED BY IDOCK:   -1.77 KCAL/MOL
REMARK 927      BINDING AFFINITY PREDICTED BY RF-SCORE:    0.00 PKD
ROOT
HETATM    1  C   UNL     1     -12.449  12.319  63.862  1.00  0.00    -0.485 C  
HETATM    2  N   UNL     1     -11.781  13.165  64.941  1.00  0.00    -0.326 N  
HETATM    3  C   UNL     1     -12.150  14.630  64.727  1.00  0.00    -0.421 C  
ENDROOT
BRANCH   2   4
HETATM    4  C   UNL     1     -12.227  12.672  66.302  1.00  0.00    -0.155 C  
BRANCH   4   5
HETATM    5  C   UNL     1     -12.263  13.712  67.422  1.00  0.00    -0.283 C  
BRANCH   5   6
HETATM    6  C   UNL     1     -11.899  13.036  68.750  1.00  0.00    -0.355 C  
BRANCH   6   7
HETATM    7  C   UNL     1     -11.908  11.497  68.696  1.00  0.00    -0.382 C  
BRANCH   7   8
HETATM    8  C   UNL     1     -10.792  10.836  69.519  1.00  0.00    -0.288 C  
BRANCH   8   9
HETATM    9  C   UNL     1     -10.911   9.319  69.370  1.00  0.00    -0.169 C  
BRANCH   9  10
HETATM   10  N   UNL     1     -10.849   8.527  70.666  1.00  0.00    -0.220 N  
HETATM   11  C   UNL     1      -9.420   8.436  71.191  1.00  0.00    -0.179 C  
HETATM   12  C   UNL     1     -11.675   9.174  71.768  1.00  0.00    -0.386 C  
BRANCH  10  13
HETATM   13  C   UNL     1     -11.417   7.060  70.345  1.00  0.00    -0.310 C  
HETATM   14  C   UNL     1     -11.028   5.992  71.385  1.00  0.00    -0.336 A  
HETATM   15  C   UNL     1     -10.261   4.975  70.773  1.00  0.00    -0.299 A  
HETATM   16  C   UNL     1     -10.180   5.225  69.354  1.00  0.00    -0.321 A  
HETATM   17  C   UNL     1      -9.738   3.922  71.510  1.00  0.00    -0.247 A  
HETATM   18  C   UNL     1     -10.863   6.424  69.048  1.00  0.00    -0.385 A  
HETATM   19  C   UNL     1      -9.989   3.879  72.881  1.00  0.00    -0.203 A  
HETATM   20  C   UNL     1     -10.778   4.863  73.489  1.00  0.00    -0.341 A  
HETATM   21  C   UNL     1     -10.985   6.824  67.722  1.00  0.00    -0.321 A  
HETATM   22  C   UNL     1     -10.378   6.052  66.722  1.00  0.00    -0.296 A  
HETATM   23  C   UNL     1     -11.321   5.913  72.741  1.00  0.00    -0.305 A  
HETATM   24  C   UNL     1      -9.696   4.872  67.038  1.00  0.00    -0.193 A  
HETATM   25  C   UNL     1      -9.600   4.445  68.362  1.00  0.00    -0.203 A  
ENDBRANCH  10  13
ENDBRANCH   9  10
ENDBRANCH   8   9
ENDBRANCH   7   8
ENDBRANCH   6   7
ENDBRANCH   5   6
ENDBRANCH   4   5
ENDBRANCH   2   4
BRANCH   2  26
HETATM   26  C   UNL     1     -10.179  12.999  64.874  1.00  0.00    -0.284 C  
HETATM   27  C   UNL     1      -8.259  13.579  68.004  1.00  0.00    -0.163 A  
HETATM   28  C   UNL     1      -9.663  11.591  65.237  1.00  0.00    -0.268 A  
HETATM   29  C   UNL     1      -8.310  14.959  68.172  1.00  0.00    -0.144 A  
HETATM   30  C   UNL     1      -8.913  11.656  66.436  1.00  0.00    -0.198 A  
HETATM   31  C   UNL     1      -8.831  13.032  66.866  1.00  0.00    -0.184 A  
HETATM   32  C   UNL     1      -8.325  10.524  66.982  1.00  0.00    -0.128 A  
HETATM   33  C   UNL     1      -8.859  15.790  67.184  1.00  0.00    -0.224 A  
HETATM   34  C   UNL     1      -9.774  10.377  64.562  1.00  0.00    -0.393 A  
HETATM   35  C   UNL     1      -9.455  13.857  65.905  1.00  0.00    -0.085 A  
HETATM   36  C   UNL     1      -8.487   9.302  66.328  1.00  0.00    -0.133 A  
HETATM   37  C   UNL     1      -9.402  15.243  66.014  1.00  0.00    -0.346 A  
HETATM   38  C   UNL     1      -9.207   9.228  65.129  1.00  0.00    -0.264 A  
ENDBRANCH   2  26
TORSDOF 9
ENDMDL
MODEL       25
REMARK 921   NORMALIZED FREE ENERGY PREDICTED BY IDOCK:   -6.70 KCAL/MOL
REMARK 922        TOTAL FREE ENERGY PREDICTED BY IDOCK:  -11.99 KCAL/MOL
REMARK 923 INTER-LIGAND FREE ENERGY PREDICTED BY IDOCK:   -9.59 KCAL/MOL
REMARK 924 INTRA-LIGAND FREE ENERGY PREDICTED BY IDOCK:   -2.40 KCAL/MOL
REMARK 927      BINDING AFFINITY PREDICTED BY RF-SCORE:    0.00 PKD
ROOT
HETATM    1  C   UNL     1     -12.323  15.707  70.422  1.00  0.00    -0.391 C  
HETATM    2  N   UNL     1     -11.540  14.928  69.370  1.00  0.00    -0.291 N  
HETATM    3  C   UNL     1     -10.077  14.845  69.797  1.00  0.00    -0.003 C  
ENDROOT
BRANCH   2   4
HETATM    4  C   UNL     1     -12.152  13.552  69.216  1.00  0.00    -0.288 C  
BRANCH   4   5
HETATM    5  C   UNL     1     -11.225  12.364  69.469  1.00  0.00    -0.171 C  
BRANCH   5   6
HETATM    6  C   UNL     1     -11.890  11.083  68.947  1.00  0.00    -0.378 C  
BRANCH   6   7
HETATM    7  C   UNL     1     -11.352  10.605  67.586  1.00  0.00    -0.284 C  
BRANCH   7   8
HETATM    8  C   UNL     1      -9.930  11.094  67.268  1.00  0.00    -0.211 C  
BRANCH   8   9
HETATM    9  C   UNL     1      -9.046   9.876  66.999  1.00  0.00    -0.138 C  
BRANCH   9  10
HETATM   10  N   UNL     1      -7.936   9.636  68.010  1.00  0.00    -0.097 N  
HETATM   11  C   UNL     1      -6.574   9.563  67.329  1.00  0.00    -0.071 C  
HETATM   12  C   UNL     1      -7.849  10.756  69.036  1.00  0.00    -0.138 C  
BRANCH  10  13
HETATM   13  C   UNL     1      -8.266   8.246  68.743  1.00  0.00    -0.117 C  
HETATM   14  C   UNL     1      -8.779   7.142  67.799  1.00  0.00    -0.125 A  
HETATM   15  C   UNL     1     -10.082   6.747  68.176  1.00  0.00    -0.182 A  
HETATM   16  C   UNL     1     -10.462   7.442  69.382  1.00  0.00    -0.220 A  
HETATM   17  C   UNL     1     -10.791   5.803  67.447  1.00  0.00    -0.279 A  
HETATM   18  C   UNL     1      -9.420   8.315  69.770  1.00  0.00    -0.163 A  
HETATM   19  C   UNL     1     -10.188   5.238  66.325  1.00  0.00    -0.263 A  
HETATM   20  C   UNL     1      -8.882   5.597  65.965  1.00  0.00    -0.147 A  
HETATM   21  C   UNL     1      -9.533   9.033  70.956  1.00  0.00    -0.342 A  
HETATM   22  C   UNL     1     -10.706   8.911  71.714  1.00  0.00    -0.432 A  
HETATM   23  C   UNL     1      -8.162   6.533  66.712  1.00  0.00    -0.110 A  
HETATM   24  C   UNL     1     -11.735   8.052  71.315  1.00  0.00    -0.311 A  
HETATM   25  C   UNL     1     -11.615   7.301  70.145  1.00  0.00    -0.149 A  
ENDBRANCH  10  13
ENDBRANCH   9  10
ENDBRANCH   8   9
ENDBRANCH   7   8
ENDBRANCH   6   7
ENDBRANCH   5   6
ENDBRANCH   4   5
ENDBRANCH   2   4
BRANCH   2  26
HETATM   26  C   UNL     1     -11.640  15.661  67.938  1.00  0.00    -0.190 C  
HETATM   27  C   UNL     1      -8.459  16.448  66.184  1.00  0.00    -0.329 A  
HETATM   28  C   UNL     1     -11.659  14.704  66.727  1.00  0.00    -0.370 A  
HETATM   29  C   UNL     1      -7.933  17.509  66.914  1.00  0.00    -0.254 A  
HETATM   30  C   UNL     1     -10.482  14.885  65.962  1.00  0.00    -0.326 A  
HETATM   31  C   UNL     1      -9.704  15.955  66.542  1.00  0.00    -0.286 A  
HETATM   32  C   UNL     1     -10.251  14.151  64.808  1.00  0.00    -0.311 A  
HETATM   33  C   UNL     1      -8.669  18.119  67.941  1.00  0.00    -0.266 A  
HETATM   34  C   UNL     1     -12.630  13.806  66.289  1.00  0.00    -0.372 A  
HETATM   35  C   UNL     1     -10.415  16.513  67.626  1.00  0.00    -0.305 A  
HETATM   36  C   UNL     1     -11.205  13.215  64.406  1.00  0.00    -0.403 A  
HETATM   37  C   UNL     1      -9.945  17.648  68.279  1.00  0.00    -0.339 A  
HETATM   38  C   UNL     1     -12.384  13.043  65.140  1.00  0.00    -0.536 A  
ENDBRANCH   2  26
TORSDOF 9
ENDMDL
MODEL       26
REMARK 921   NORMALIZED FREE ENERGY PREDICTED BY IDOCK:   -6.70 KCAL/MOL
REMARK 922        TOTAL FREE ENERGY PREDICTED BY IDOCK:  -11.98 KCAL/MOL
REMARK 923 INTER-LIGAND FREE ENERGY PREDICTED BY IDOCK:  -10.54 KCAL/MOL
REMARK 924 INTRA-LIGAND FREE ENERGY PREDICTED BY IDOCK:   -1.44 KCAL/MOL
REMARK 927      BINDING AFFINITY PREDICTED BY RF-SCORE:    0.00 PKD
ROOT
HETATM    1  C   UNL     1     -11.410  15.540  67.619  1.00  0.00    -0.260 C  
HETATM    2  N   UNL     1     -10.593  14.310  67.999  1.00  0.00    -0.235 N  
HETATM    3  C   UNL     1      -9.558  14.702  69.050  1.00  0.00    -0.145 C  
ENDROOT
BRANCH   2   4
HETATM    4  C   UNL     1     -11.528  13.235  68.515  1.00  0.00    -0.312 C  
BRANCH   4   5
HETATM    5  C   UNL     1     -12.036  13.408  69.946  1.00  0.00    -0.408 C  
BRANCH   5   6
HETATM    6  C   UNL     1     -12.231  12.025  70.582  1.00  0.00    -0.409 C  
BRANCH   6   7
HETATM    7  C   UNL     1     -11.704  10.859  69.726  1.00  0.00    -0.413 C  
BRANCH   7   8
HETATM    8  C   UNL     1     -10.712   9.943  70.459  1.00  0.00    -0.382 C  
BRANCH   8   9
HETATM    9  C   UNL     1     -11.502   8.855  71.189  1.00  0.00    -0.301 C  
BRANCH   9  10
HETATM   10  N   UNL     1     -10.672   7.721  71.767  1.00  0.00    -0.218 N  
HETATM   11  C   UNL     1      -9.194   7.888  71.429  1.00  0.00    -0.136 C  
HETATM   12  C   UNL     1     -10.765   7.662  73.284  1.00  0.00    -0.350 C  
BRANCH  10  13
HETATM   13  C   UNL     1     -11.235   6.359  71.130  1.00  0.00    -0.302 C  
HETATM   14  C   UNL     1     -10.746   5.082  71.840  1.00  0.00    -0.181 A  
HETATM   15  C   UNL     1     -10.011   4.277  70.941  1.00  0.00    -0.225 A  
HETATM   16  C   UNL     1     -10.045   4.874  69.627  1.00  0.00    -0.300 A  
HETATM   17  C   UNL     1      -9.412   3.095  71.352  1.00  0.00    -0.219 A  
HETATM   18  C   UNL     1     -10.773   6.085  69.680  1.00  0.00    -0.405 A  
HETATM   19  C   UNL     1      -9.553   2.704  72.682  1.00  0.00    -0.171 A  
HETATM   20  C   UNL     1     -10.311   3.477  73.572  1.00  0.00    -0.236 A  
HETATM   21  C   UNL     1     -11.006   6.796  68.508  1.00  0.00    -0.258 A  
HETATM   22  C   UNL     1     -10.465   6.319  67.306  1.00  0.00    -0.316 A  
HETATM   23  C   UNL     1     -10.930   4.657  73.151  1.00  0.00    -0.364 A  
HETATM   24  C   UNL     1      -9.738   5.125  67.268  1.00  0.00    -0.172 A  
HETATM   25  C   UNL     1      -9.530   4.387  68.433  1.00  0.00    -0.213 A  
ENDBRANCH  10  13
ENDBRANCH   9  10
ENDBRANCH   8   9
ENDBRANCH   7   8
ENDBRANCH   6   7
ENDBRANCH   5   6
ENDBRANCH   4   5
ENDBRANCH   2   4
BRANCH   2  26
HETATM   26  C   UNL     1      -9.843  13.710  66.704  1.00  0.00    -0.284 C  
HETATM   27  C   UNL     1      -9.569  10.013  66.435  1.00  0.00    -0.248 A  
HETATM   28  C   UNL     1     -10.775  13.373  65.521  1.00  0.00    -0.301 A  
HETATM   29  C   UNL     1      -8.613   9.682  67.389  1.00  0.00    -0.125 A  
HETATM   30  C   UNL     1     -10.781  11.974  65.307  1.00  0.00    -0.331 A  
HETATM   31  C   UNL     1      -9.856  11.353  66.227  1.00  0.00    -0.250 A  
HETATM   32  C   UNL     1     -11.534  11.402  64.292  1.00  0.00    -0.172 A  
HETATM   33  C   UNL     1      -7.900  10.676  68.077  1.00  0.00    -0.105 A  
HETATM   34  C   UNL     1     -11.500  14.201  64.666  1.00  0.00    -0.392 A  
HETATM   35  C   UNL     1      -9.198  12.355  66.972  1.00  0.00    -0.208 A  
HETATM   36  C   UNL     1     -12.300  12.235  63.474  1.00  0.00    -0.670 A  
HETATM   37  C   UNL     1      -8.160  12.032  67.840  1.00  0.00    -0.150 A  
HETATM   38  C   UNL     1     -12.284  13.622  63.660  1.00  0.00    -0.376 A  
ENDBRANCH   2  26
TORSDOF 9
ENDMDL
MODEL       27
REMARK 921   NORMALIZED FREE ENERGY PREDICTED BY IDOCK:   -6.68 KCAL/MOL
REMARK 922        TOTAL FREE ENERGY PREDICTED BY IDOCK:  -11.96 KCAL/MOL
REMARK 923 INTER-LIGAND FREE ENERGY PREDICTED BY IDOCK:  -11.32 KCAL/MOL
REMARK 924 INTRA-LIGAND FREE ENERGY PREDICTED BY IDOCK:   -0.65 KCAL/MOL
REMARK 927      BINDING AFFINITY PREDICTED BY RF-SCORE:    0.00 PKD
ROOT
HETATM    1  C   UNL     1     -11.116   6.392  68.453  1.00  0.00    -0.285 C  
HETATM    2  N   UNL     1      -9.682   6.781  68.798  1.00  0.00    -0.132 N  
HETATM    3  C   UNL     1      -8.754   5.618  68.462  1.00  0.00    -0.110 C  
ENDROOT
BRANCH   2   4
HETATM    4  C   UNL     1      -9.309   8.030  68.027  1.00  0.00    -0.138 C  
BRANCH   4   5
HETATM    5  C   UNL     1      -9.336   7.920  66.503  1.00  0.00    -0.255 C  
BRANCH   5   6
HETATM    6  C   UNL     1      -9.748   9.273  65.906  1.00  0.00    -0.355 C  
BRANCH   6   7
HETATM    7  C   UNL     1     -10.419  10.226  66.912  1.00  0.00    -0.291 C  
BRANCH   7   8
HETATM    8  C   UNL     1     -11.195  11.380  66.259  1.00  0.00    -0.228 C  
BRANCH   8   9
HETATM    9  C   UNL     1     -11.421  12.469  67.307  1.00  0.00    -0.353 C  
BRANCH   9  10
HETATM   10  N   UNL     1     -10.615  13.743  67.111  1.00  0.00    -0.275 N  
HETATM   11  C   UNL     1      -9.280  13.672  67.845  1.00  0.00    -0.203 C  
HETATM   12  C   UNL     1     -10.290  13.992  65.645  1.00  0.00    -0.329 C  
BRANCH  10  13
HETATM   13  C   UNL     1     -11.502  14.951  67.688  1.00  0.00    -0.352 C  
HETATM   14  C   UNL     1     -10.829  16.333  67.582  1.00  0.00    -0.293 A  
HETATM   15  C   UNL     1     -10.652  16.886  68.871  1.00  0.00    -0.353 A  
HETATM   16  C   UNL     1     -11.249  16.013  69.853  1.00  0.00    -0.361 A  
HETATM   17  C   UNL     1     -10.015  18.105  69.052  1.00  0.00    -0.294 A  
HETATM   18  C   UNL     1     -11.784  14.875  69.207  1.00  0.00    -0.344 A  
HETATM   19  C   UNL     1      -9.551  18.789  67.929  1.00  0.00    -0.345 A  
HETATM   20  C   UNL     1      -9.755  18.265  66.646  1.00  0.00    -0.339 A  
HETATM   21  C   UNL     1     -12.483  13.930  69.950  1.00  0.00    -0.285 A  
HETATM   22  C   UNL     1     -12.594  14.105  71.337  1.00  0.00    -0.445 A  
HETATM   23  C   UNL     1     -10.415  17.046  66.464  1.00  0.00    -0.250 A  
HETATM   24  C   UNL     1     -12.052  15.231  71.966  1.00  0.00    -0.459 A  
HETATM   25  C   UNL     1     -11.381  16.201  71.223  1.00  0.00    -0.347 A  
ENDBRANCH  10  13
ENDBRANCH   9  10
ENDBRANCH   8   9
ENDBRANCH   7   8
ENDBRANCH   6   7
ENDBRANCH   5   6
ENDBRANCH   4   5
ENDBRANCH   2   4
BRANCH   2  26
HETATM   26  C   UNL     1      -9.558   7.132  70.367  1.00  0.00    -0.169 C  
HETATM   27  C   UNL     1     -12.538   8.589  72.043  1.00  0.00    -0.414 A  
HETATM   28  C   UNL     1     -10.016   6.003  71.315  1.00  0.00    -0.223 A  
HETATM   29  C   UNL     1     -12.591   9.889  71.552  1.00  0.00    -0.513 A  
HETATM   30  C   UNL     1     -11.170   6.418  72.022  1.00  0.00    -0.324 A  
HETATM   31  C   UNL     1     -11.478   7.783  71.662  1.00  0.00    -0.299 A  
HETATM   32  C   UNL     1     -11.784   5.591  72.952  1.00  0.00    -0.216 A  
HETATM   33  C   UNL     1     -11.561  10.404  70.750  1.00  0.00    -0.450 A  
HETATM   34  C   UNL     1      -9.453   4.759  71.591  1.00  0.00    -0.206 A  
HETATM   35  C   UNL     1     -10.479   8.270  70.791  1.00  0.00    -0.223 A  
HETATM   36  C   UNL     1     -11.244   4.325  73.182  1.00  0.00    -0.275 A  
HETATM   37  C   UNL     1     -10.467   9.604  70.395  1.00  0.00    -0.352 A  
HETATM   38  C   UNL     1     -10.090   3.912  72.508  1.00  0.00    -0.232 A  
ENDBRANCH   2  26
TORSDOF 9
ENDMDL
MODEL       28
REMARK 921   NORMALIZED FREE ENERGY PREDICTED BY IDOCK:   -6.68 KCAL/MOL
REMARK 922        TOTAL FREE ENERGY PREDICTED BY IDOCK:  -11.96 KCAL/MOL
REMARK 923 INTER-LIGAND FREE ENERGY PREDICTED BY IDOCK:  -10.58 KCAL/MOL
REMARK 924 INTRA-LIGAND FREE ENERGY PREDICTED BY IDOCK:   -1.37 KCAL/MOL
REMARK 927      BINDING AFFINITY PREDICTED BY RF-SCORE:    0.00 PKD
ROOT
HETATM    1  C   UNL     1     -11.269  15.596  64.697  1.00  0.00    -0.369 C  
HETATM    2  N   UNL     1     -11.251  14.157  65.201  1.00  0.00    -0.322 N  
HETATM    3  C   UNL     1     -12.679  13.724  65.524  1.00  0.00    -0.488 C  
ENDROOT
BRANCH   2   4
HETATM    4  C   UNL     1     -10.628  13.270  64.144  1.00  0.00    -0.309 C  
BRANCH   4   5
HETATM    5  C   UNL     1     -11.290  11.910  63.923  1.00  0.00    -0.509 C  
BRANCH   5   6
HETATM    6  C   UNL     1     -10.211  10.819  63.915  1.00  0.00    -0.377 C  
BRANCH   6   7
HETATM    7  C   UNL     1      -9.669  10.461  65.311  1.00  0.00    -0.339 C  
BRANCH   7   8
HETATM    8  C   UNL     1      -9.301   8.978  65.478  1.00  0.00    -0.255 C  
BRANCH   8   9
HETATM    9  C   UNL     1     -10.080   8.415  66.667  1.00  0.00    -0.288 C  
BRANCH   9  10
HETATM   10  N   UNL     1      -9.728   6.989  67.063  1.00  0.00    -0.157 N  
HETATM   11  C   UNL     1     -10.967   6.100  67.082  1.00  0.00    -0.331 C  
HETATM   12  C   UNL     1      -8.752   6.351  66.087  1.00  0.00    -0.146 C  
BRANCH  10  13
HETATM   13  C   UNL     1      -9.072   7.060  68.527  1.00  0.00    -0.131 C  
HETATM   14  C   UNL     1     -10.081   7.351  69.655  1.00  0.00    -0.186 A  
HETATM   15  C   UNL     1      -9.747   8.561  70.304  1.00  0.00    -0.182 A  
HETATM   16  C   UNL     1      -8.514   9.073  69.757  1.00  0.00    -0.132 A  
HETATM   17  C   UNL     1     -10.535   9.076  71.323  1.00  0.00    -0.381 A  
HETATM   18  C   UNL     1      -8.064   8.215  68.727  1.00  0.00    -0.120 A  
HETATM   19  C   UNL     1     -11.674   8.370  71.706  1.00  0.00    -0.371 A  
HETATM   20  C   UNL     1     -11.992   7.151  71.093  1.00  0.00    -0.381 A  
HETATM   21  C   UNL     1      -6.845   8.468  68.107  1.00  0.00    -0.069 A  
HETATM   22  C   UNL     1      -6.115   9.604  68.484  1.00  0.00    -0.043 A  
HETATM   23  C   UNL     1     -11.186   6.623  70.080  1.00  0.00    -0.416 A  
HETATM   24  C   UNL     1      -6.575  10.452  69.497  1.00  0.00    -0.073 A  
HETATM   25  C   UNL     1      -7.779  10.185  70.149  1.00  0.00    -0.086 A  
ENDBRANCH  10  13
ENDBRANCH   9  10
ENDBRANCH   8   9
ENDBRANCH   7   8
ENDBRANCH   6   7
ENDBRANCH   5   6
ENDBRANCH   4   5
ENDBRANCH   2   4
BRANCH   2  26
HETATM   26  C   UNL     1     -10.341  14.037  66.526  1.00  0.00    -0.285 C  
HETATM   27  C   UNL     1     -10.776  16.632  69.151  1.00  0.00    -0.342 A  
HETATM   28  C   UNL     1     -10.996  13.258  67.687  1.00  0.00    -0.281 A  
HETATM   29  C   UNL     1     -10.180  17.762  68.601  1.00  0.00    -0.377 A  
HETATM   30  C   UNL     1     -11.236  14.137  68.770  1.00  0.00    -0.294 A  
HETATM   31  C   UNL     1     -10.720  15.444  68.439  1.00  0.00    -0.256 A  
HETATM   32  C   UNL     1     -11.812  13.687  69.950  1.00  0.00    -0.389 A  
HETATM   33  C   UNL     1      -9.473  17.693  67.392  1.00  0.00    -0.256 A  
HETATM   34  C   UNL     1     -11.296  11.904  67.821  1.00  0.00    -0.361 A  
HETATM   35  C   UNL     1     -10.077  15.387  67.184  1.00  0.00    -0.245 A  
HETATM   36  C   UNL     1     -12.160  12.340  70.055  1.00  0.00    -0.346 A  
HETATM   37  C   UNL     1      -9.380  16.484  66.689  1.00  0.00    -0.279 A  
HETATM   38  C   UNL     1     -11.906  11.456  69.001  1.00  0.00    -0.415 A  
ENDBRANCH   2  26
TORSDOF 9
ENDMDL
MODEL       29
REMARK 921   NORMALIZED FREE ENERGY PREDICTED BY IDOCK:   -6.65 KCAL/MOL
REMARK 922        TOTAL FREE ENERGY PREDICTED BY IDOCK:  -11.92 KCAL/MOL
REMARK 923 INTER-LIGAND FREE ENERGY PREDICTED BY IDOCK:   -8.95 KCAL/MOL
REMARK 924 INTRA-LIGAND FREE ENERGY PREDICTED BY IDOCK:   -2.97 KCAL/MOL
REMARK 927      BINDING AFFINITY PREDICTED BY RF-SCORE:    0.00 PKD
ROOT
HETATM    1  C   UNL     1      -7.223   8.694  66.663  1.00  0.00    -0.081 C  
HETATM    2  N   UNL     1      -8.456   9.257  65.964  1.00  0.00    -0.132 N  
HETATM    3  C   UNL     1      -8.639   8.545  64.626  1.00  0.00    -0.055 C  
ENDROOT
BRANCH   2   4
HETATM    4  C   UNL     1      -9.662   9.073  66.861  1.00  0.00    -0.200 C  
BRANCH   4   5
HETATM    5  C   UNL     1     -10.364   7.717  66.785  1.00  0.00    -0.348 C  
BRANCH   5   6
HETATM    6  C   UNL     1     -10.834   7.313  68.189  1.00  0.00    -0.130 C  
BRANCH   6   7
HETATM    7  C   UNL     1     -10.080   6.109  68.782  1.00  0.00    -0.205 C  
BRANCH   7   8
HETATM    8  C   UNL     1     -10.769   5.478  70.002  1.00  0.00    -0.356 C  
BRANCH   8   9
HETATM    9  C   UNL     1      -9.980   5.853  71.256  1.00  0.00    -0.187 C  
BRANCH   9  10
HETATM   10  N   UNL     1     -10.791   6.486  72.375  1.00  0.00    -0.224 N  
HETATM   11  C   UNL     1     -12.286   6.425  72.077  1.00  0.00    -0.269 C  
HETATM   12  C   UNL     1     -10.585   5.772  73.703  1.00  0.00    -0.276 C  
BRANCH  10  13
HETATM   13  C   UNL     1     -10.311   8.013  72.494  1.00  0.00    -0.306 C  
HETATM   14  C   UNL     1     -11.192   9.013  71.719  1.00  0.00    -0.448 A  
HETATM   15  C   UNL     1     -10.426   9.670  70.730  1.00  0.00    -0.375 A  
HETATM   16  C   UNL     1      -9.047   9.256  70.839  1.00  0.00    -0.288 A  
HETATM   17  C   UNL     1     -11.002  10.581  69.856  1.00  0.00    -0.359 A  
HETATM   18  C   UNL     1      -8.923   8.304  71.876  1.00  0.00    -0.249 A  
HETATM   19  C   UNL     1     -12.365  10.846  69.975  1.00  0.00    -0.385 A  
HETATM   20  C   UNL     1     -13.124  10.227  70.976  1.00  0.00    -0.458 A  
HETATM   21  C   UNL     1      -7.663   7.821  72.216  1.00  0.00    -0.115 A  
HETATM   22  C   UNL     1      -6.550   8.255  71.483  1.00  0.00    -0.058 A  
HETATM   23  C   UNL     1     -12.538   9.324  71.868  1.00  0.00    -0.468 A  
HETATM   24  C   UNL     1      -6.687   9.191  70.453  1.00  0.00    -0.058 A  
HETATM   25  C   UNL     1      -7.942   9.707  70.129  1.00  0.00    -0.189 A  
ENDBRANCH  10  13
ENDBRANCH   9  10
ENDBRANCH   8   9
ENDBRANCH   7   8
ENDBRANCH   6   7
ENDBRANCH   5   6
ENDBRANCH   4   5
ENDBRANCH   2   4
BRANCH   2  26
HETATM   26  C   UNL     1      -8.284  10.840  65.710  1.00  0.00    -0.146 C  
HETATM   27  C   UNL     1     -10.845  13.101  67.175  1.00  0.00    -0.271 A  
HETATM   28  C   UNL     1      -7.505  11.586  66.814  1.00  0.00    -0.118 A  
HETATM   29  C   UNL     1     -11.965  12.892  66.379  1.00  0.00    -0.462 A  
HETATM   30  C   UNL     1      -8.372  12.488  67.478  1.00  0.00    -0.175 A  
HETATM   31  C   UNL     1      -9.669  12.448  66.844  1.00  0.00    -0.217 A  
HETATM   32  C   UNL     1      -7.919  13.295  68.512  1.00  0.00    -0.097 A  
HETATM   33  C   UNL     1     -11.896  12.099  65.223  1.00  0.00    -0.356 A  
HETATM   34  C   UNL     1      -6.159  11.540  67.171  1.00  0.00    -0.115 A  
HETATM   35  C   UNL     1      -9.614  11.586  65.727  1.00  0.00    -0.259 A  
HETATM   36  C   UNL     1      -6.582  13.202  68.899  1.00  0.00    -0.104 A  
HETATM   37  C   UNL     1     -10.698  11.469  64.863  1.00  0.00    -0.357 A  
HETATM   38  C   UNL     1      -5.709  12.332  68.235  1.00  0.00    -0.057 A  
ENDBRANCH   2  26
TORSDOF 9
ENDMDL
MODEL       30
REMARK 921   NORMALIZED FREE ENERGY PREDICTED BY IDOCK:   -6.64 KCAL/MOL
REMARK 922        TOTAL FREE ENERGY PREDICTED BY IDOCK:  -11.90 KCAL/MOL
REMARK 923 INTER-LIGAND FREE ENERGY PREDICTED BY IDOCK:  -10.65 KCAL/MOL
REMARK 924 INTRA-LIGAND FREE ENERGY PREDICTED BY IDOCK:   -1.26 KCAL/MOL
REMARK 927      BINDING AFFINITY PREDICTED BY RF-SCORE:    0.00 PKD
ROOT
HETATM    1  C   UNL     1     -11.789  16.023  64.483  1.00  0.00    -0.027 C  
HETATM    2  N   UNL     1     -10.955  15.151  65.415  1.00  0.00    -0.354 N  
HETATM    3  C   UNL     1     -11.775  14.827  66.661  1.00  0.00    -0.283 C  
ENDROOT
BRANCH   2   4
HETATM    4  C   UNL     1     -10.542  13.894  64.679  1.00  0.00    -0.412 C  
BRANCH   4   5
HETATM    5  C   UNL     1     -11.013  12.570  65.281  1.00  0.00    -0.329 C  
BRANCH   5   6
HETATM    6  C   UNL     1     -10.114  11.436  64.770  1.00  0.00    -0.326 C  
BRANCH   6   7
HETATM    7  C   UNL     1     -10.026  10.227  65.720  1.00  0.00    -0.337 C  
BRANCH   7   8
HETATM    8  C   UNL     1      -8.625   9.990  66.303  1.00  0.00    -0.137 C  
BRANCH   8   9
HETATM    9  C   UNL     1      -8.633  10.403  67.775  1.00  0.00    -0.122 C  
BRANCH   9  10
HETATM   10  N   UNL     1      -8.841   9.273  68.770  1.00  0.00    -0.131 N  
HETATM   11  C   UNL     1      -8.211   7.976  68.274  1.00  0.00    -0.123 C  
HETATM   12  C   UNL     1      -8.203   9.576  70.118  1.00  0.00    -0.177 C  
BRANCH  10  13
HETATM   13  C   UNL     1     -10.427   9.089  68.943  1.00  0.00    -0.210 C  
HETATM   14  C   UNL     1     -11.155  10.348  69.453  1.00  0.00    -0.304 A  
HETATM   15  C   UNL     1     -11.780  10.080  70.691  1.00  0.00    -0.421 A  
HETATM   16  C   UNL     1     -11.609   8.685  71.021  1.00  0.00    -0.325 A  
HETATM   17  C   UNL     1     -12.456  11.070  71.389  1.00  0.00    -0.436 A  
HETATM   18  C   UNL     1     -10.843   8.054  70.014  1.00  0.00    -0.235 A  
HETATM   19  C   UNL     1     -12.516  12.350  70.840  1.00  0.00    -0.367 A  
HETATM   20  C   UNL     1     -11.931  12.615  69.595  1.00  0.00    -0.352 A  
HETATM   21  C   UNL     1     -10.620   6.683  70.082  1.00  0.00    -0.264 A  
HETATM   22  C   UNL     1     -11.117   5.968  71.179  1.00  0.00    -0.336 A  
HETATM   23  C   UNL     1     -11.267  11.611  68.884  1.00  0.00    -0.306 A  
HETATM   24  C   UNL     1     -11.865   6.605  72.175  1.00  0.00    -0.337 A  
HETATM   25  C   UNL     1     -12.125   7.973  72.097  1.00  0.00    -0.391 A  
ENDBRANCH  10  13
ENDBRANCH   9  10
ENDBRANCH   8   9
ENDBRANCH   7   8
ENDBRANCH   6   7
ENDBRANCH   5   6
ENDBRANCH   4   5
ENDBRANCH   2   4
BRANCH   2  26
HETATM   26  C   UNL     1      -9.605  15.920  65.846  1.00  0.00    -0.343 C  
HETATM   27  C   UNL     1      -9.865  18.470  68.539  1.00  0.00    -0.414 A  
HETATM   28  C   UNL     1      -8.844  15.271  67.022  1.00  0.00    -0.261 A  
HETATM   29  C   UNL     1     -10.514  19.535  67.924  1.00  0.00    -0.552 A  
HETATM   30  C   UNL     1      -8.872  16.137  68.140  1.00  0.00    -0.184 A  
HETATM   31  C   UNL     1      -9.544  17.362  67.771  1.00  0.00    -0.264 A  
HETATM   32  C   UNL     1      -8.249  15.797  69.333  1.00  0.00    -0.211 A  
HETATM   33  C   UNL     1     -10.773  19.528  66.545  1.00  0.00    -0.535 A  
HETATM   34  C   UNL     1      -8.137  14.073  67.099  1.00  0.00    -0.121 A  
HETATM   35  C   UNL     1      -9.873  17.315  66.399  1.00  0.00    -0.310 A  
HETATM   36  C   UNL     1      -7.589  14.571  69.418  1.00  0.00    -0.033 A  
HETATM   37  C   UNL     1     -10.414  18.425  65.758  1.00  0.00    -0.250 A  
HETATM   38  C   UNL     1      -7.534  13.715  68.312  1.00  0.00    -0.124 A  
ENDBRANCH   2  26
TORSDOF 9
ENDMDL
MODEL       31
REMARK 921   NORMALIZED FREE ENERGY PREDICTED BY IDOCK:   -6.64 KCAL/MOL
REMARK 922        TOTAL FREE ENERGY PREDICTED BY IDOCK:  -11.90 KCAL/MOL
REMARK 923 INTER-LIGAND FREE ENERGY PREDICTED BY IDOCK:  -10.22 KCAL/MOL
REMARK 924 INTRA-LIGAND FREE ENERGY PREDICTED BY IDOCK:   -1.68 KCAL/MOL
REMARK 927      BINDING AFFINITY PREDICTED BY RF-SCORE:    0.00 PKD
ROOT
HETATM    1  C   UNL     1      -9.413  13.518  67.731  1.00  0.00    -0.216 C  
HETATM    2  N   UNL     1     -10.691  13.598  66.903  1.00  0.00    -0.274 N  
HETATM    3  C   UNL     1     -10.322  13.734  65.428  1.00  0.00    -0.333 C  
ENDROOT
BRANCH   2   4
HETATM    4  C   UNL     1     -11.523  12.358  67.155  1.00  0.00    -0.357 C  
BRANCH   4   5
HETATM    5  C   UNL     1     -10.844  11.233  67.935  1.00  0.00    -0.278 C  
BRANCH   5   6
HETATM    6  C   UNL     1     -11.858  10.605  68.901  1.00  0.00    -0.216 C  
BRANCH   6   7
HETATM    7  C   UNL     1     -11.447  10.682  70.382  1.00  0.00    -0.422 C  
BRANCH   7   8
HETATM    8  C   UNL     1     -12.074   9.592  71.264  1.00  0.00    -0.443 C  
BRANCH   8   9
HETATM    9  C   UNL     1     -10.953   8.845  71.987  1.00  0.00    -0.342 C  
BRANCH   9  10
HETATM   10  N   UNL     1     -11.021   7.328  71.910  1.00  0.00    -0.227 N  
HETATM   11  C   UNL     1     -10.896   6.699  73.294  1.00  0.00    -0.261 C  
HETATM   12  C   UNL     1     -12.343   6.846  71.333  1.00  0.00    -0.376 C  
BRANCH  10  13
HETATM   13  C   UNL     1      -9.807   6.853  70.973  1.00  0.00    -0.178 C  
HETATM   14  C   UNL     1      -8.532   7.707  71.112  1.00  0.00    -0.116 A  
HETATM   15  C   UNL     1      -8.217   8.314  69.875  1.00  0.00    -0.123 A  
HETATM   16  C   UNL     1      -9.141   7.852  68.867  1.00  0.00    -0.141 A  
HETATM   17  C   UNL     1      -7.142   9.181  69.748  1.00  0.00    -0.061 A  
HETATM   18  C   UNL     1     -10.079   6.973  69.455  1.00  0.00    -0.179 A  
HETATM   19  C   UNL     1      -6.363   9.445  70.874  1.00  0.00    -0.078 A  
HETATM   20  C   UNL     1      -6.646   8.820  72.095  1.00  0.00    -0.042 A  
HETATM   21  C   UNL     1     -11.022   6.340  68.653  1.00  0.00    -0.423 A  
HETATM   22  C   UNL     1     -11.052   6.632  67.282  1.00  0.00    -0.418 A  
HETATM   23  C   UNL     1      -7.718   7.930  72.216  1.00  0.00    -0.125 A  
HETATM   24  C   UNL     1     -10.125   7.511  66.713  1.00  0.00    -0.313 A  
HETATM   25  C   UNL     1      -9.153   8.123  67.504  1.00  0.00    -0.147 A  
ENDBRANCH  10  13
ENDBRANCH   9  10
ENDBRANCH   8   9
ENDBRANCH   7   8
ENDBRANCH   6   7
ENDBRANCH   5   6
ENDBRANCH   4   5
ENDBRANCH   2   4
BRANCH   2  26
HETATM   26  C   UNL     1     -11.575  14.869  67.355  1.00  0.00    -0.332 C  
HETATM   27  C   UNL     1     -11.191  16.073  70.850  1.00  0.00    -0.365 A  
HETATM   28  C   UNL     1     -10.873  16.233  67.183  1.00  0.00    -0.190 A  
HETATM   29  C   UNL     1     -11.836  15.101  71.607  1.00  0.00    -0.449 A  
HETATM   30  C   UNL     1     -10.647  16.812  68.454  1.00  0.00    -0.354 A  
HETATM   31  C   UNL     1     -11.216  15.957  69.469  1.00  0.00    -0.325 A  
HETATM   32  C   UNL     1     -10.036  18.051  68.584  1.00  0.00    -0.396 A  
HETATM   33  C   UNL     1     -12.560  14.067  70.995  1.00  0.00    -0.437 A  
HETATM   34  C   UNL     1     -10.522  16.939  66.034  1.00  0.00    -0.297 A  
HETATM   35  C   UNL     1     -11.876  14.875  68.849  1.00  0.00    -0.334 A  
HETATM   36  C   UNL     1      -9.638  18.727  67.430  1.00  0.00    -0.337 A  
HETATM   37  C   UNL     1     -12.621  13.970  69.599  1.00  0.00    -0.066 A  
HETATM   38  C   UNL     1      -9.877  18.176  66.166  1.00  0.00    -0.255 A  
ENDBRANCH   2  26
TORSDOF 9
ENDMDL
MODEL       32
REMARK 921   NORMALIZED FREE ENERGY PREDICTED BY IDOCK:   -6.64 KCAL/MOL
REMARK 922        TOTAL FREE ENERGY PREDICTED BY IDOCK:  -11.90 KCAL/MOL
REMARK 923 INTER-LIGAND FREE ENERGY PREDICTED BY IDOCK:  -11.66 KCAL/MOL
REMARK 924 INTRA-LIGAND FREE ENERGY PREDICTED BY IDOCK:   -0.24 KCAL/MOL
REMARK 927      BINDING AFFINITY PREDICTED BY RF-SCORE:    0.00 PKD
ROOT
HETATM    1  C   UNL     1     -10.329   8.198  72.320  1.00  0.00    -0.292 C  
HETATM    2  N   UNL     1     -11.214   8.201  71.078  1.00  0.00    -0.254 N  
HETATM    3  C   UNL     1     -12.441   9.070  71.341  1.00  0.00    -0.317 C  
ENDROOT
BRANCH   2   4
HETATM    4  C   UNL     1     -10.413   8.713  69.900  1.00  0.00    -0.218 C  
BRANCH   4   5
HETATM    5  C   UNL     1     -10.461  10.221  69.651  1.00  0.00    -0.286 C  
BRANCH   5   6
HETATM    6  C   UNL     1     -11.328  10.500  68.416  1.00  0.00    -0.328 C  
BRANCH   6   7
HETATM    7  C   UNL     1     -10.660  10.124  67.080  1.00  0.00    -0.308 C  
BRANCH   7   8
HETATM    8  C   UNL     1     -10.582  11.281  66.072  1.00  0.00    -0.314 C  
BRANCH   8   9
HETATM    9  C   UNL     1     -11.300  12.494  66.666  1.00  0.00    -0.334 C  
BRANCH   9  10
HETATM   10  N   UNL     1     -10.497  13.785  66.687  1.00  0.00    -0.270 N  
HETATM   11  C   UNL     1      -9.223  13.630  67.512  1.00  0.00    -0.218 C  
HETATM   12  C   UNL     1     -10.061  14.207  65.292  1.00  0.00    -0.335 C  
BRANCH  10  13
HETATM   13  C   UNL     1     -11.442  14.912  67.330  1.00  0.00    -0.343 C  
HETATM   14  C   UNL     1     -10.862  16.338  67.255  1.00  0.00    -0.216 A  
HETATM   15  C   UNL     1     -10.682  16.858  68.556  1.00  0.00    -0.359 A  
HETATM   16  C   UNL     1     -11.193  15.916  69.523  1.00  0.00    -0.325 A  
HETATM   17  C   UNL     1     -10.119  18.109  68.763  1.00  0.00    -0.392 A  
HETATM   18  C   UNL     1     -11.673  14.768  68.852  1.00  0.00    -0.340 A  
HETATM   19  C   UNL     1      -9.733  18.858  67.653  1.00  0.00    -0.362 A  
HETATM   20  C   UNL     1      -9.941  18.365  66.358  1.00  0.00    -0.399 A  
HETATM   21  C   UNL     1     -12.288  13.756  69.582  1.00  0.00    -0.284 A  
HETATM   22  C   UNL     1     -12.370  13.877  70.976  1.00  0.00    -0.453 A  
HETATM   23  C   UNL     1     -10.527  17.113  66.151  1.00  0.00    -0.277 A  
HETATM   24  C   UNL     1     -11.882  15.013  71.629  1.00  0.00    -0.441 A  
HETATM   25  C   UNL     1     -11.296  16.049  70.902  1.00  0.00    -0.421 A  
ENDBRANCH  10  13
ENDBRANCH   9  10
ENDBRANCH   8   9
ENDBRANCH   7   8
ENDBRANCH   6   7
ENDBRANCH   5   6
ENDBRANCH   4   5
ENDBRANCH   2   4
BRANCH   2  26
HETATM   26  C   UNL     1     -11.686   6.701  70.720  1.00  0.00    -0.388 C  
HETATM   27  C   UNL     1      -9.468   4.680  68.527  1.00  0.00    -0.206 A  
HETATM   28  C   UNL     1     -11.144   5.614  71.673  1.00  0.00    -0.249 A  
HETATM   29  C   UNL     1      -9.640   5.248  67.269  1.00  0.00    -0.147 A  
HETATM   30  C   UNL     1     -10.260   4.764  70.966  1.00  0.00    -0.239 A  
HETATM   31  C   UNL     1     -10.226   5.167  69.579  1.00  0.00    -0.318 A  
HETATM   32  C   UNL     1      -9.638   3.691  71.589  1.00  0.00    -0.226 A  
HETATM   33  C   UNL     1     -10.608   6.239  67.047  1.00  0.00    -0.386 A  
HETATM   34  C   UNL     1     -11.437   5.342  73.008  1.00  0.00    -0.324 A  
HETATM   35  C   UNL     1     -11.146   6.219  69.379  1.00  0.00    -0.477 A  
HETATM   36  C   UNL     1      -9.895   3.459  72.941  1.00  0.00    -0.201 A  
HETATM   37  C   UNL     1     -11.404   6.706  68.101  1.00  0.00    -0.079 A  
HETATM   38  C   UNL     1     -10.785   4.278  73.645  1.00  0.00    -0.336 A  
ENDBRANCH   2  26
TORSDOF 9
ENDMDL
MODEL       33
REMARK 921   NORMALIZED FREE ENERGY PREDICTED BY IDOCK:   -6.63 KCAL/MOL
REMARK 922        TOTAL FREE ENERGY PREDICTED BY IDOCK:  -11.89 KCAL/MOL
REMARK 923 INTER-LIGAND FREE ENERGY PREDICTED BY IDOCK:   -9.30 KCAL/MOL
REMARK 924 INTRA-LIGAND FREE ENERGY PREDICTED BY IDOCK:   -2.59 KCAL/MOL
REMARK 927      BINDING AFFINITY PREDICTED BY RF-SCORE:    0.00 PKD
ROOT
HETATM    1  C   UNL     1     -11.955  15.604  64.224  1.00  0.00    -0.115 C  
HETATM    2  N   UNL     1     -11.621  14.366  65.049  1.00  0.00    -0.357 N  
HETATM    3  C   UNL     1     -12.864  13.487  65.156  1.00  0.00    -0.322 C  
ENDROOT
BRANCH   2   4
HETATM    4  C   UNL     1     -10.473  13.628  64.391  1.00  0.00    -0.300 C  
BRANCH   4   5
HETATM    5  C   UNL     1     -10.737  12.173  64.002  1.00  0.00    -0.432 C  
BRANCH   5   6
HETATM    6  C   UNL     1      -9.754  11.264  64.753  1.00  0.00    -0.298 C  
BRANCH   6   7
HETATM    7  C   UNL     1     -10.393   9.986  65.326  1.00  0.00    -0.058 C  
BRANCH   7   8
HETATM    8  C   UNL     1      -9.418   9.101  66.119  1.00  0.00    -0.309 C  
BRANCH   8   9
HETATM    9  C   UNL     1     -10.230   8.126  66.971  1.00  0.00    -0.308 C  
BRANCH   9  10
HETATM   10  N   UNL     1      -9.617   6.746  67.151  1.00  0.00    -0.138 N  
HETATM   11  C   UNL     1     -10.637   5.647  66.875  1.00  0.00    -0.296 C  
HETATM   12  C   UNL     1      -8.457   6.510  66.195  1.00  0.00    -0.137 C  
BRANCH  10  13
HETATM   13  C   UNL     1      -9.103   6.658  68.669  1.00  0.00    -0.126 C  
HETATM   14  C   UNL     1     -10.166   7.041  69.717  1.00  0.00    -0.213 A  
HETATM   15  C   UNL     1      -9.732   8.161  70.461  1.00  0.00    -0.181 A  
HETATM   16  C   UNL     1      -8.392   8.515  70.057  1.00  0.00    -0.123 A  
HETATM   17  C   UNL     1     -10.536   8.739  71.433  1.00  0.00    -0.349 A  
HETATM   18  C   UNL     1      -7.968   7.646  69.025  1.00  0.00    -0.121 A  
HETATM   19  C   UNL     1     -11.794   8.187  71.671  1.00  0.00    -0.334 A  
HETATM   20  C   UNL     1     -12.217   7.054  70.964  1.00  0.00    -0.419 A  
HETATM   21  C   UNL     1      -6.671   7.749  68.532  1.00  0.00    -0.058 A  
HETATM   22  C   UNL     1      -5.831   8.751  69.038  1.00  0.00    -0.040 A  
HETATM   23  C   UNL     1     -11.397   6.462  69.999  1.00  0.00    -0.496 A  
HETATM   24  C   UNL     1      -6.266   9.611  70.052  1.00  0.00    -0.055 A  
HETATM   25  C   UNL     1      -7.552   9.492  70.577  1.00  0.00    -0.165 A  
ENDBRANCH  10  13
ENDBRANCH   9  10
ENDBRANCH   8   9
ENDBRANCH   7   8
ENDBRANCH   6   7
ENDBRANCH   5   6
ENDBRANCH   4   5
ENDBRANCH   2   4
BRANCH   2  26
HETATM   26  C   UNL     1     -11.134  14.790  66.526  1.00  0.00    -0.334 C  
HETATM   27  C   UNL     1      -9.070  12.347  68.421  1.00  0.00    -0.141 A  
HETATM   28  C   UNL     1      -9.746  15.464  66.576  1.00  0.00    -0.292 A  
HETATM   29  C   UNL     1      -9.979  11.360  68.786  1.00  0.00    -0.188 A  
HETATM   30  C   UNL     1      -8.838  14.628  67.268  1.00  0.00    -0.220 A  
HETATM   31  C   UNL     1      -9.544  13.463  67.750  1.00  0.00    -0.213 A  
HETATM   32  C   UNL     1      -7.517  15.004  67.464  1.00  0.00    -0.226 A  
HETATM   33  C   UNL     1     -11.353  11.516  68.551  1.00  0.00    -0.337 A  
HETATM   34  C   UNL     1      -9.322  16.712  66.124  1.00  0.00    -0.318 A  
HETATM   35  C   UNL     1     -10.915  13.590  67.441  1.00  0.00    -0.286 A  
HETATM   36  C   UNL     1      -7.087  16.232  66.960  1.00  0.00    -0.259 A  
HETATM   37  C   UNL     1     -11.840  12.662  67.909  1.00  0.00    -0.388 A  
HETATM   38  C   UNL     1      -7.980  17.078  66.295  1.00  0.00    -0.343 A  
ENDBRANCH   2  26
TORSDOF 9
ENDMDL
MODEL       34
REMARK 921   NORMALIZED FREE ENERGY PREDICTED BY IDOCK:   -6.63 KCAL/MOL
REMARK 922        TOTAL FREE ENERGY PREDICTED BY IDOCK:  -11.89 KCAL/MOL
REMARK 923 INTER-LIGAND FREE ENERGY PREDICTED BY IDOCK:  -10.10 KCAL/MOL
REMARK 924 INTRA-LIGAND FREE ENERGY PREDICTED BY IDOCK:   -1.79 KCAL/MOL
REMARK 927      BINDING AFFINITY PREDICTED BY RF-SCORE:    0.00 PKD
ROOT
HETATM    1  C   UNL     1      -7.263   3.983  70.250  1.00  0.00    -0.042 C  
HETATM    2  N   UNL     1      -8.112   4.779  71.236  1.00  0.00    -0.098 N  
HETATM    3  C   UNL     1      -7.930   4.196  72.635  1.00  0.00    -0.084 C  
ENDROOT
BRANCH   2   4
HETATM    4  C   UNL     1      -7.698   6.235  71.183  1.00  0.00    -0.102 C  
BRANCH   4   5
HETATM    5  C   UNL     1      -6.848   6.655  69.984  1.00  0.00    -0.054 C  
BRANCH   5   6
HETATM    6  C   UNL     1      -7.543   7.813  69.255  1.00  0.00    -0.098 C  
BRANCH   6   7
HETATM    7  C   UNL     1      -8.016   8.947  70.183  1.00  0.00    -0.111 C  
BRANCH   7   8
HETATM    8  C   UNL     1      -8.607  10.157  69.442  1.00  0.00    -0.183 C  
BRANCH   8   9
HETATM    9  C   UNL     1      -9.550   9.647  68.352  1.00  0.00    -0.144 C  
BRANCH   9  10
HETATM   10  N   UNL     1      -9.658  10.526  67.116  1.00  0.00    -0.166 N  
HETATM   11  C   UNL     1      -8.657  11.676  67.166  1.00  0.00    -0.164 C  
HETATM   12  C   UNL     1      -9.366   9.753  65.839  1.00  0.00    -0.205 C  
BRANCH  10  13
HETATM   13  C   UNL     1     -11.158  11.098  67.080  1.00  0.00    -0.287 C  
HETATM   14  C   UNL     1     -11.452  12.018  65.880  1.00  0.00    -0.392 A  
HETATM   15  C   UNL     1     -11.808  13.308  66.334  1.00  0.00    -0.446 A  
HETATM   16  C   UNL     1     -11.871  13.308  67.775  1.00  0.00    -0.394 A  
HETATM   17  C   UNL     1     -12.067  14.341  65.444  1.00  0.00    -0.396 A  
HETATM   18  C   UNL     1     -11.523  12.027  68.261  1.00  0.00    -0.361 A  
HETATM   19  C   UNL     1     -11.976  14.082  64.078  1.00  0.00    -0.388 A  
HETATM   20  C   UNL     1     -11.661  12.796  63.619  1.00  0.00    -0.572 A  
HETATM   21  C   UNL     1     -11.593  11.770  69.626  1.00  0.00    -0.393 A  
HETATM   22  C   UNL     1     -11.959  12.807  70.495  1.00  0.00    -0.277 A  
HETATM   23  C   UNL     1     -11.419  11.752  64.517  1.00  0.00    -0.322 A  
HETATM   24  C   UNL     1     -12.292  14.074  70.003  1.00  0.00    -0.397 A  
HETATM   25  C   UNL     1     -12.259  14.331  68.633  1.00  0.00    -0.205 A  
ENDBRANCH  10  13
ENDBRANCH   9  10
ENDBRANCH   8   9
ENDBRANCH   7   8
ENDBRANCH   6   7
ENDBRANCH   5   6
ENDBRANCH   4   5
ENDBRANCH   2   4
BRANCH   2  26
HETATM   26  C   UNL     1      -9.669   4.709  70.823  1.00  0.00    -0.199 C  
HETATM   27  C   UNL     1     -11.545   7.913  70.641  1.00  0.00    -0.215 A  
HETATM   28  C   UNL     1      -9.940   4.873  69.312  1.00  0.00    -0.270 A  
HETATM   29  C   UNL     1     -11.709   8.275  71.974  1.00  0.00    -0.407 A  
HETATM   30  C   UNL     1     -10.648   6.078  69.087  1.00  0.00    -0.362 A  
HETATM   31  C   UNL     1     -10.934   6.701  70.358  1.00  0.00    -0.341 A  
HETATM   32  C   UNL     1     -11.028   6.464  67.809  1.00  0.00    -0.425 A  
HETATM   33  C   UNL     1     -11.335   7.410  73.013  1.00  0.00    -0.283 A  
HETATM   34  C   UNL     1      -9.660   4.031  68.238  1.00  0.00    -0.188 A  
HETATM   35  C   UNL     1     -10.484   5.861  71.399  1.00  0.00    -0.291 A  
HETATM   36  C   UNL     1     -10.696   5.640  66.733  1.00  0.00    -0.358 A  
HETATM   37  C   UNL     1     -10.753   6.167  72.730  1.00  0.00    -0.268 A  
HETATM   38  C   UNL     1     -10.017   4.435  66.945  1.00  0.00    -0.210 A  
ENDBRANCH   2  26
TORSDOF 9
ENDMDL
MODEL       35
REMARK 921   NORMALIZED FREE ENERGY PREDICTED BY IDOCK:   -6.62 KCAL/MOL
REMARK 922        TOTAL FREE ENERGY PREDICTED BY IDOCK:  -11.86 KCAL/MOL
REMARK 923 INTER-LIGAND FREE ENERGY PREDICTED BY IDOCK:  -11.24 KCAL/MOL
REMARK 924 INTRA-LIGAND FREE ENERGY PREDICTED BY IDOCK:   -0.62 KCAL/MOL
REMARK 927      BINDING AFFINITY PREDICTED BY RF-SCORE:    0.00 PKD
ROOT
HETATM    1  C   UNL     1     -10.504  13.733  65.066  1.00  0.00    -0.402 C  
HETATM    2  N   UNL     1     -11.291  13.478  66.347  1.00  0.00    -0.308 N  
HETATM    3  C   UNL     1     -12.627  14.212  66.268  1.00  0.00    -0.260 C  
ENDROOT
BRANCH   2   4
HETATM    4  C   UNL     1     -11.486  11.986  66.520  1.00  0.00    -0.349 C  
BRANCH   4   5
HETATM    5  C   UNL     1     -10.302  11.099  66.138  1.00  0.00    -0.302 C  
BRANCH   5   6
HETATM    6  C   UNL     1     -10.070  10.063  67.247  1.00  0.00    -0.259 C  
BRANCH   6   7
HETATM    7  C   UNL     1     -11.154  10.059  68.340  1.00  0.00    -0.236 C  
BRANCH   7   8
HETATM    8  C   UNL     1     -10.607   9.875  69.763  1.00  0.00    -0.296 C  
BRANCH   8   9
HETATM    9  C   UNL     1     -11.482   8.855  70.493  1.00  0.00    -0.200 C  
BRANCH   9  10
HETATM   10  N   UNL     1     -10.732   7.823  71.321  1.00  0.00    -0.227 N  
HETATM   11  C   UNL     1      -9.231   7.888  71.058  1.00  0.00    -0.151 C  
HETATM   12  C   UNL     1     -10.920   8.044  72.814  1.00  0.00    -0.382 C  
BRANCH  10  13
HETATM   13  C   UNL     1     -11.307   6.383  70.903  1.00  0.00    -0.338 C  
HETATM   14  C   UNL     1     -10.905   5.243  71.859  1.00  0.00    -0.218 A  
HETATM   15  C   UNL     1     -10.149   4.272  71.165  1.00  0.00    -0.173 A  
HETATM   16  C   UNL     1     -10.087   4.623  69.767  1.00  0.00    -0.243 A  
HETATM   17  C   UNL     1      -9.618   3.168  71.817  1.00  0.00    -0.227 A  
HETATM   18  C   UNL     1     -10.773   5.841  69.557  1.00  0.00    -0.408 A  
HETATM   19  C   UNL     1      -9.849   3.027  73.185  1.00  0.00    -0.173 A  
HETATM   20  C   UNL     1     -10.628   3.966  73.873  1.00  0.00    -0.291 A  
HETATM   21  C   UNL     1     -10.912   6.335  68.264  1.00  0.00    -0.408 A  
HETATM   22  C   UNL     1     -10.321   5.635  67.203  1.00  0.00    -0.301 A  
HETATM   23  C   UNL     1     -11.179   5.067  73.210  1.00  0.00    -0.411 A  
HETATM   24  C   UNL     1      -9.637   4.436  67.424  1.00  0.00    -0.218 A  
HETATM   25  C   UNL     1      -9.522   3.915  68.713  1.00  0.00    -0.224 A  
ENDBRANCH  10  13
ENDBRANCH   9  10
ENDBRANCH   8   9
ENDBRANCH   7   8
ENDBRANCH   6   7
ENDBRANCH   5   6
ENDBRANCH   4   5
ENDBRANCH   2   4
BRANCH   2  26
HETATM   26  C   UNL     1     -10.465  14.004  67.628  1.00  0.00    -0.245 C  
HETATM   27  C   UNL     1     -10.404  17.669  68.246  1.00  0.00    -0.384 A  
HETATM   28  C   UNL     1     -11.305  14.159  68.914  1.00  0.00    -0.308 A  
HETATM   29  C   UNL     1      -9.563  18.158  67.252  1.00  0.00    -0.281 A  
HETATM   30  C   UNL     1     -11.380  15.528  69.268  1.00  0.00    -0.330 A  
HETATM   31  C   UNL     1     -10.585  16.299  68.341  1.00  0.00    -0.301 A  
HETATM   32  C   UNL     1     -12.072  15.944  70.396  1.00  0.00    -0.313 A  
HETATM   33  C   UNL     1      -8.854  17.289  66.410  1.00  0.00    -0.278 A  
HETATM   34  C   UNL     1     -11.894  13.203  69.739  1.00  0.00    -0.386 A  
HETATM   35  C   UNL     1      -9.935  15.422  67.445  1.00  0.00    -0.229 A  
HETATM   36  C   UNL     1     -12.705  14.984  71.187  1.00  0.00    -0.431 A  
HETATM   37  C   UNL     1      -9.004  15.901  66.529  1.00  0.00    -0.331 A  
HETATM   38  C   UNL     1     -12.618  13.626  70.862  1.00  0.00    -0.421 A  
ENDBRANCH   2  26
TORSDOF 9
ENDMDL
MODEL       36
REMARK 921   NORMALIZED FREE ENERGY PREDICTED BY IDOCK:   -6.62 KCAL/MOL
REMARK 922        TOTAL FREE ENERGY PREDICTED BY IDOCK:  -11.86 KCAL/MOL
REMARK 923 INTER-LIGAND FREE ENERGY PREDICTED BY IDOCK:   -9.65 KCAL/MOL
REMARK 924 INTRA-LIGAND FREE ENERGY PREDICTED BY IDOCK:   -2.21 KCAL/MOL
REMARK 927      BINDING AFFINITY PREDICTED BY RF-SCORE:    0.00 PKD
ROOT
HETATM    1  C   UNL     1      -7.108   3.999  70.490  1.00  0.00    -0.038 C  
HETATM    2  N   UNL     1      -7.948   4.969  71.314  1.00  0.00    -0.106 N  
HETATM    3  C   UNL     1      -7.741   4.674  72.797  1.00  0.00    -0.088 C  
ENDROOT
BRANCH   2   4
HETATM    4  C   UNL     1      -7.548   6.388  70.968  1.00  0.00    -0.090 C  
BRANCH   4   5
HETATM    5  C   UNL     1      -6.808   6.581  69.644  1.00  0.00    -0.065 C  
BRANCH   5   6
HETATM    6  C   UNL     1      -7.327   7.851  68.957  1.00  0.00    -0.088 C  
BRANCH   6   7
HETATM    7  C   UNL     1      -7.967   8.870  69.918  1.00  0.00    -0.108 C  
BRANCH   7   8
HETATM    8  C   UNL     1      -8.150  10.270  69.314  1.00  0.00    -0.156 C  
BRANCH   8   9
HETATM    9  C   UNL     1      -9.638  10.495  69.047  1.00  0.00    -0.202 C  
BRANCH   9  10
HETATM   10  N   UNL     1      -9.969  11.644  68.107  1.00  0.00    -0.189 N  
HETATM   11  C   UNL     1     -10.793  12.716  68.813  1.00  0.00    -0.231 C  
HETATM   12  C   UNL     1      -8.716  12.333  67.587  1.00  0.00    -0.175 C  
BRANCH  10  13
HETATM   13  C   UNL     1     -10.800  11.021  66.883  1.00  0.00    -0.269 C  
HETATM   14  C   UNL     1      -9.966  10.124  65.947  1.00  0.00    -0.334 A  
HETATM   15  C   UNL     1      -9.955  10.663  64.641  1.00  0.00    -0.401 A  
HETATM   16  C   UNL     1     -10.810  11.825  64.595  1.00  0.00    -0.363 A  
HETATM   17  C   UNL     1      -9.225  10.071  63.621  1.00  0.00    -0.314 A  
HETATM   18  C   UNL     1     -11.350  12.062  65.880  1.00  0.00    -0.391 A  
HETATM   19  C   UNL     1      -8.497   8.916  63.906  1.00  0.00    -0.147 A  
HETATM   20  C   UNL     1      -8.533   8.355  65.189  1.00  0.00    -0.179 A  
HETATM   21  C   UNL     1     -12.271  13.089  66.058  1.00  0.00    -0.463 A  
HETATM   22  C   UNL     1     -12.602  13.900  64.963  1.00  0.00    -0.422 A  
HETATM   23  C   UNL     1      -9.285   8.942  66.210  1.00  0.00    -0.261 A  
HETATM   24  C   UNL     1     -12.054  13.662  63.699  1.00  0.00    -0.397 A  
HETATM   25  C   UNL     1     -11.157  12.612  63.504  1.00  0.00    -0.449 A  
ENDBRANCH  10  13
ENDBRANCH   9  10
ENDBRANCH   8   9
ENDBRANCH   7   8
ENDBRANCH   6   7
ENDBRANCH   5   6
ENDBRANCH   4   5
ENDBRANCH   2   4
BRANCH   2  26
HETATM   26  C   UNL     1      -9.511   4.810  70.948  1.00  0.00    -0.165 C  
HETATM   27  C   UNL     1     -11.541   7.913  70.697  1.00  0.00    -0.215 A  
HETATM   28  C   UNL     1      -9.830   4.901  69.441  1.00  0.00    -0.281 A  
HETATM   29  C   UNL     1     -11.686   8.321  72.019  1.00  0.00    -0.407 A  
HETATM   30  C   UNL     1     -10.600   6.062  69.190  1.00  0.00    -0.362 A  
HETATM   31  C   UNL     1     -10.881   6.721  70.444  1.00  0.00    -0.306 A  
HETATM   32  C   UNL     1     -11.032   6.378  67.910  1.00  0.00    -0.416 A  
HETATM   33  C   UNL     1     -11.244   7.516  73.079  1.00  0.00    -0.373 A  
HETATM   34  C   UNL     1      -9.538   4.030  68.393  1.00  0.00    -0.186 A  
HETATM   35  C   UNL     1     -10.364   5.945  71.503  1.00  0.00    -0.273 A  
HETATM   36  C   UNL     1     -10.690   5.528  66.857  1.00  0.00    -0.310 A  
HETATM   37  C   UNL     1     -10.611   6.291  72.828  1.00  0.00    -0.252 A  
HETATM   38  C   UNL     1      -9.949   4.366  67.095  1.00  0.00    -0.182 A  
ENDBRANCH   2  26
TORSDOF 9
ENDMDL
MODEL       37
REMARK 921   NORMALIZED FREE ENERGY PREDICTED BY IDOCK:   -6.61 KCAL/MOL
REMARK 922        TOTAL FREE ENERGY PREDICTED BY IDOCK:  -11.86 KCAL/MOL
REMARK 923 INTER-LIGAND FREE ENERGY PREDICTED BY IDOCK:   -8.82 KCAL/MOL
REMARK 924 INTRA-LIGAND FREE ENERGY PREDICTED BY IDOCK:   -3.04 KCAL/MOL
REMARK 927      BINDING AFFINITY PREDICTED BY RF-SCORE:    0.00 PKD
ROOT
HETATM    1  C   UNL     1     -12.651  14.067  65.473  1.00  0.00    -0.516 C  
HETATM    2  N   UNL     1     -11.618  13.932  66.586  1.00  0.00    -0.355 N  
HETATM    3  C   UNL     1     -11.618  15.207  67.425  1.00  0.00    -0.240 C  
ENDROOT
BRANCH   2   4
HETATM    4  C   UNL     1     -11.950  12.716  67.425  1.00  0.00    -0.242 C  
BRANCH   4   5
HETATM    5  C   UNL     1     -11.814  12.878  68.939  1.00  0.00    -0.352 C  
BRANCH   5   6
HETATM    6  C   UNL     1     -11.421  11.530  69.558  1.00  0.00    -0.378 C  
BRANCH   6   7
HETATM    7  C   UNL     1     -12.136  11.215  70.885  1.00  0.00    -0.427 C  
BRANCH   7   8
HETATM    8  C   UNL     1     -12.508   9.735  71.059  1.00  0.00    -0.414 C  
BRANCH   8   9
HETATM    9  C   UNL     1     -11.289   8.986  71.599  1.00  0.00    -0.360 C  
BRANCH   9  10
HETATM   10  N   UNL     1     -10.843   7.786  70.780  1.00  0.00    -0.235 N  
HETATM   11  C   UNL     1      -9.853   6.923  71.557  1.00  0.00    -0.169 C  
HETATM   12  C   UNL     1     -12.009   6.881  70.412  1.00  0.00    -0.258 C  
BRANCH  10  13
HETATM   13  C   UNL     1     -10.153   8.360  69.449  1.00  0.00    -0.198 C  
HETATM   14  C   UNL     1     -10.004   7.322  68.319  1.00  0.00    -0.177 A  
HETATM   15  C   UNL     1      -8.639   7.138  68.005  1.00  0.00    -0.128 A  
HETATM   16  C   UNL     1      -7.841   8.056  68.782  1.00  0.00    -0.114 A  
HETATM   17  C   UNL     1      -8.234   6.210  67.056  1.00  0.00    -0.106 A  
HETATM   18  C   UNL     1      -8.685   8.813  69.627  1.00  0.00    -0.136 A  
HETATM   19  C   UNL     1      -9.208   5.457  66.403  1.00  0.00    -0.150 A  
HETATM   20  C   UNL     1     -10.566   5.660  66.681  1.00  0.00    -0.361 A  
HETATM   21  C   UNL     1      -8.140   9.823  70.413  1.00  0.00    -0.134 A  
HETATM   22  C   UNL     1      -6.754  10.030  70.386  1.00  0.00    -0.138 A  
HETATM   23  C   UNL     1     -10.973   6.608  67.624  1.00  0.00    -0.392 A  
HETATM   24  C   UNL     1      -5.928   9.267  69.554  1.00  0.00    -0.033 A  
HETATM   25  C   UNL     1      -6.470   8.277  68.736  1.00  0.00    -0.053 A  
ENDBRANCH  10  13
ENDBRANCH   9  10
ENDBRANCH   8   9
ENDBRANCH   7   8
ENDBRANCH   6   7
ENDBRANCH   5   6
ENDBRANCH   4   5
ENDBRANCH   2   4
BRANCH   2  26
HETATM   26  C   UNL     1     -10.148  13.699  65.964  1.00  0.00    -0.312 C  
HETATM   27  C   UNL     1      -7.416  12.781  68.311  1.00  0.00    -0.124 A  
HETATM   28  C   UNL     1      -9.836  12.235  65.587  1.00  0.00    -0.247 A  
HETATM   29  C   UNL     1      -7.157  13.963  68.996  1.00  0.00    -0.098 A  
HETATM   30  C   UNL     1      -8.806  11.740  66.422  1.00  0.00    -0.170 A  
HETATM   31  C   UNL     1      -8.354  12.801  67.291  1.00  0.00    -0.187 A  
HETATM   32  C   UNL     1      -8.326  10.445  66.286  1.00  0.00    -0.146 A  
HETATM   33  C   UNL     1      -7.771  15.168  68.621  1.00  0.00    -0.126 A  
HETATM   34  C   UNL     1     -10.348  11.425  64.575  1.00  0.00    -0.369 A  
HETATM   35  C   UNL     1      -9.034  13.994  66.962  1.00  0.00    -0.248 A  
HETATM   36  C   UNL     1      -8.881   9.624  65.305  1.00  0.00    -0.204 A  
HETATM   37  C   UNL     1      -8.691  15.200  67.564  1.00  0.00    -0.188 A  
HETATM   38  C   UNL     1      -9.884  10.108  64.457  1.00  0.00    -0.334 A  
ENDBRANCH   2  26
TORSDOF 9
ENDMDL
MODEL       38
REMARK 921   NORMALIZED FREE ENERGY PREDICTED BY IDOCK:   -6.61 KCAL/MOL
REMARK 922        TOTAL FREE ENERGY PREDICTED BY IDOCK:  -11.85 KCAL/MOL
REMARK 923 INTER-LIGAND FREE ENERGY PREDICTED BY IDOCK:  -11.07 KCAL/MOL
REMARK 924 INTRA-LIGAND FREE ENERGY PREDICTED BY IDOCK:   -0.78 KCAL/MOL
REMARK 927      BINDING AFFINITY PREDICTED BY RF-SCORE:    0.00 PKD
ROOT
HETATM    1  C   UNL     1     -11.349  15.887  64.727  1.00  0.00    -0.309 C  
HETATM    2  N   UNL     1     -11.214  14.591  65.520  1.00  0.00    -0.325 N  
HETATM    3  C   UNL     1     -12.602  14.114  65.938  1.00  0.00    -0.417 C  
ENDROOT
BRANCH   2   4
HETATM    4  C   UNL     1     -10.506  13.560  64.666  1.00  0.00    -0.421 C  
BRANCH   4   5
HETATM    5  C   UNL     1     -11.169  12.186  64.572  1.00  0.00    -0.385 C  
BRANCH   5   6
HETATM    6  C   UNL     1     -10.209  11.124  65.123  1.00  0.00    -0.347 C  
BRANCH   6   7
HETATM    7  C   UNL     1     -10.405  10.813  66.618  1.00  0.00    -0.294 C  
BRANCH   7   8
HETATM    8  C   UNL     1      -9.098  10.773  67.425  1.00  0.00    -0.148 C  
BRANCH   8   9
HETATM    9  C   UNL     1      -9.433  10.437  68.878  1.00  0.00    -0.186 C  
BRANCH   9  10
HETATM   10  N   UNL     1      -9.033   9.044  69.337  1.00  0.00    -0.142 N  
HETATM   11  C   UNL     1      -8.099   8.377  68.333  1.00  0.00    -0.123 C  
HETATM   12  C   UNL     1      -8.292   9.072  70.665  1.00  0.00    -0.186 C  
BRANCH  10  13
HETATM   13  C   UNL     1     -10.388   8.194  69.484  1.00  0.00    -0.222 C  
HETATM   14  C   UNL     1     -11.446   8.848  70.394  1.00  0.00    -0.182 A  
HETATM   15  C   UNL     1     -11.725   8.008  71.495  1.00  0.00    -0.321 A  
HETATM   16  C   UNL     1     -10.997   6.770  71.350  1.00  0.00    -0.279 A  
HETATM   17  C   UNL     1     -12.607   8.395  72.495  1.00  0.00    -0.311 A  
HETATM   18  C   UNL     1     -10.216   6.820  70.173  1.00  0.00    -0.215 A  
HETATM   19  C   UNL     1     -13.225   9.640  72.392  1.00  0.00    -0.413 A  
HETATM   20  C   UNL     1     -12.982  10.463  71.285  1.00  0.00    -0.517 A  
HETATM   21  C   UNL     1      -9.488   5.700  69.785  1.00  0.00    -0.189 A  
HETATM   22  C   UNL     1      -9.506   4.563  70.605  1.00  0.00    -0.240 A  
HETATM   23  C   UNL     1     -12.109  10.063  70.269  1.00  0.00    -0.226 A  
HETATM   24  C   UNL     1     -10.274   4.529  71.773  1.00  0.00    -0.226 A  
HETATM   25  C   UNL     1     -11.035   5.635  72.150  1.00  0.00    -0.307 A  
ENDBRANCH  10  13
ENDBRANCH   9  10
ENDBRANCH   8   9
ENDBRANCH   7   8
ENDBRANCH   6   7
ENDBRANCH   5   6
ENDBRANCH   4   5
ENDBRANCH   2   4
BRANCH   2  26
HETATM   26  C   UNL     1     -10.309  14.828  66.834  1.00  0.00    -0.267 C  
HETATM   27  C   UNL     1     -10.204  18.263  68.250  1.00  0.00    -0.405 A  
HETATM   28  C   UNL     1     -11.067  14.681  68.170  1.00  0.00    -0.285 A  
HETATM   29  C   UNL     1      -9.425  18.972  67.342  1.00  0.00    -0.347 A  
HETATM   30  C   UNL     1     -11.119  15.935  68.825  1.00  0.00    -0.328 A  
HETATM   31  C   UNL     1     -10.381  16.903  68.047  1.00  0.00    -0.334 A  
HETATM   32  C   UNL     1     -11.739  16.081  70.058  1.00  0.00    -0.284 A  
HETATM   33  C   UNL     1      -8.771  18.321  66.285  1.00  0.00    -0.199 A  
HETATM   34  C   UNL     1     -11.606  13.558  68.795  1.00  0.00    -0.362 A  
HETATM   35  C   UNL     1      -9.790  16.257  66.940  1.00  0.00    -0.253 A  
HETATM   36  C   UNL     1     -12.323  14.961  70.651  1.00  0.00    -0.406 A  
HETATM   37  C   UNL     1      -8.916  16.940  66.100  1.00  0.00    -0.271 A  
HETATM   38  C   UNL     1     -12.259  13.711  70.025  1.00  0.00    -0.395 A  
ENDBRANCH   2  26
TORSDOF 9
ENDMDL
MODEL       39
REMARK 921   NORMALIZED FREE ENERGY PREDICTED BY IDOCK:   -6.59 KCAL/MOL
REMARK 922        TOTAL FREE ENERGY PREDICTED BY IDOCK:  -11.82 KCAL/MOL
REMARK 923 INTER-LIGAND FREE ENERGY PREDICTED BY IDOCK:  -11.14 KCAL/MOL
REMARK 924 INTRA-LIGAND FREE ENERGY PREDICTED BY IDOCK:   -0.68 KCAL/MOL
REMARK 927      BINDING AFFINITY PREDICTED BY RF-SCORE:    0.00 PKD
ROOT
HETATM    1  C   UNL     1     -10.245   7.470  68.714  1.00  0.00    -0.197 C  
HETATM    2  N   UNL     1      -9.643   8.852  68.485  1.00  0.00    -0.155 N  
HETATM    3  C   UNL     1      -8.239   8.695  67.906  1.00  0.00    -0.115 C  
ENDROOT
BRANCH   2   4
HETATM    4  C   UNL     1     -10.543   9.635  67.552  1.00  0.00    -0.277 C  
BRANCH   4   5
HETATM    5  C   UNL     1     -10.149   9.642  66.076  1.00  0.00    -0.318 C  
BRANCH   5   6
HETATM    6  C   UNL     1     -10.392  11.042  65.495  1.00  0.00    -0.321 C  
BRANCH   6   7
HETATM    7  C   UNL     1     -11.487  11.844  66.224  1.00  0.00    -0.367 C  
BRANCH   7   8
HETATM    8  C   UNL     1     -11.531  13.331  65.844  1.00  0.00    -0.359 C  
BRANCH   8   9
HETATM    9  C   UNL     1     -10.096  13.837  65.690  1.00  0.00    -0.298 C  
BRANCH   9  10
HETATM   10  N   UNL     1      -9.542  14.606  66.879  1.00  0.00    -0.235 N  
HETATM   11  C   UNL     1      -9.023  13.661  67.957  1.00  0.00    -0.188 C  
HETATM   12  C   UNL     1      -8.375  15.499  66.486  1.00  0.00    -0.199 C  
BRANCH  10  13
HETATM   13  C   UNL     1     -10.745  15.500  67.457  1.00  0.00    -0.300 C  
HETATM   14  C   UNL     1     -10.424  17.004  67.550  1.00  0.00    -0.334 A  
HETATM   15  C   UNL     1     -10.500  17.435  68.893  1.00  0.00    -0.312 A  
HETATM   16  C   UNL     1     -10.949  16.342  69.722  1.00  0.00    -0.341 A  
HETATM   17  C   UNL     1     -10.198  18.741  69.251  1.00  0.00     0.043 A  
HETATM   18  C   UNL     1     -11.131  15.191  68.922  1.00  0.00    -0.276 A  
HETATM   19  C   UNL     1      -9.819  19.636  68.251  1.00  0.00    -0.521 A  
HETATM   20  C   UNL     1      -9.777  19.226  66.912  1.00  0.00    -0.406 A  
HETATM   21  C   UNL     1     -11.640  14.031  69.498  1.00  0.00    -0.350 A  
HETATM   22  C   UNL     1     -11.912  14.018  70.873  1.00  0.00    -0.343 A  
HETATM   23  C   UNL     1     -10.100  17.915  66.551  1.00  0.00    -0.370 A  
HETATM   24  C   UNL     1     -11.718  15.161  71.655  1.00  0.00    -0.458 A  
HETATM   25  C   UNL     1     -11.242  16.339  71.080  1.00  0.00    -0.227 A  
ENDBRANCH  10  13
ENDBRANCH   9  10
ENDBRANCH   8   9
ENDBRANCH   7   8
ENDBRANCH   6   7
ENDBRANCH   5   6
ENDBRANCH   4   5
ENDBRANCH   2   4
BRANCH   2  26
HETATM   26  C   UNL     1      -9.563   9.668  69.873  1.00  0.00    -0.230 C  
HETATM   27  C   UNL     1     -12.140   8.930  72.449  1.00  0.00    -0.344 A  
HETATM   28  C   UNL     1      -8.758   8.965  70.986  1.00  0.00    -0.276 A  
HETATM   29  C   UNL     1     -13.293   9.516  71.939  1.00  0.00    -0.518 A  
HETATM   30  C   UNL     1      -9.626   8.608  72.045  1.00  0.00    -0.385 A  
HETATM   31  C   UNL     1     -10.955   9.090  71.748  1.00  0.00    -0.443 A  
HETATM   32  C   UNL     1      -9.153   7.968  73.182  1.00  0.00    -0.341 A  
HETATM   33  C   UNL     1     -13.254  10.312  70.784  1.00  0.00    -0.283 A  
HETATM   34  C   UNL     1      -7.392   8.714  71.104  1.00  0.00    -0.092 A  
HETATM   35  C   UNL     1     -10.924   9.824  70.542  1.00  0.00    -0.384 A  
HETATM   36  C   UNL     1      -7.792   7.672  73.267  1.00  0.00    -0.149 A  
HETATM   37  C   UNL     1     -12.050  10.507  70.095  1.00  0.00    -0.380 A  
HETATM   38  C   UNL     1      -6.919   8.040  72.237  1.00  0.00    -0.089 A  
ENDBRANCH   2  26
TORSDOF 9
ENDMDL
MODEL       40
REMARK 921   NORMALIZED FREE ENERGY PREDICTED BY IDOCK:   -6.56 KCAL/MOL
REMARK 922        TOTAL FREE ENERGY PREDICTED BY IDOCK:  -11.77 KCAL/MOL
REMARK 923 INTER-LIGAND FREE ENERGY PREDICTED BY IDOCK:  -10.14 KCAL/MOL
REMARK 924 INTRA-LIGAND FREE ENERGY PREDICTED BY IDOCK:   -1.63 KCAL/MOL
REMARK 927      BINDING AFFINITY PREDICTED BY RF-SCORE:    0.00 PKD
ROOT
HETATM    1  C   UNL     1     -12.152  15.578  70.544  1.00  0.00    -0.386 C  
HETATM    2  N   UNL     1     -11.448  14.836  69.413  1.00  0.00    -0.283 N  
HETATM    3  C   UNL     1      -9.943  14.847  69.669  1.00  0.00    -0.022 C  
ENDROOT
BRANCH   2   4
HETATM    4  C   UNL     1     -11.988  13.423  69.336  1.00  0.00    -0.315 C  
BRANCH   4   5
HETATM    5  C   UNL     1     -12.494  12.818  70.645  1.00  0.00    -0.328 C  
BRANCH   5   6
HETATM    6  C   UNL     1     -12.108  11.334  70.698  1.00  0.00    -0.480 C  
BRANCH   6   7
HETATM    7  C   UNL     1     -13.010  10.482  71.610  1.00  0.00    -0.581 C  
BRANCH   7   8
HETATM    8  C   UNL     1     -12.442   9.090  71.926  1.00  0.00    -0.454 C  
BRANCH   8   9
HETATM    9  C   UNL     1     -11.024   9.003  71.361  1.00  0.00    -0.324 C  
BRANCH   9  10
HETATM   10  N   UNL     1     -10.608   7.635  70.844  1.00  0.00    -0.212 N  
HETATM   11  C   UNL     1     -10.086   6.752  71.973  1.00  0.00    -0.182 C  
HETATM   12  C   UNL     1     -11.773   6.886  70.213  1.00  0.00    -0.291 C  
BRANCH  10  13
HETATM   13  C   UNL     1      -9.457   7.878  69.752  1.00  0.00    -0.163 C  
HETATM   14  C   UNL     1      -8.106   8.319  70.348  1.00  0.00    -0.108 A  
HETATM   15  C   UNL     1      -7.753   9.596  69.858  1.00  0.00    -0.146 A  
HETATM   16  C   UNL     1      -8.729  10.022  68.885  1.00  0.00    -0.146 A  
HETATM   17  C   UNL     1      -6.603  10.243  70.289  1.00  0.00    -0.142 A  
HETATM   18  C   UNL     1      -9.737   9.038  68.768  1.00  0.00    -0.165 A  
HETATM   19  C   UNL     1      -5.788   9.602  71.220  1.00  0.00    -0.068 A  
HETATM   20  C   UNL     1      -6.112   8.320  71.684  1.00  0.00    -0.042 A  
HETATM   21  C   UNL     1     -10.746   9.199  67.824  1.00  0.00    -0.243 A  
HETATM   22  C   UNL     1     -10.767  10.365  67.045  1.00  0.00    -0.298 A  
HETATM   23  C   UNL     1      -7.260   7.662  71.234  1.00  0.00    -0.062 A  
HETATM   24  C   UNL     1      -9.769  11.336  67.177  1.00  0.00    -0.201 A  
HETATM   25  C   UNL     1      -8.734  11.166  68.096  1.00  0.00    -0.144 A  
ENDBRANCH  10  13
ENDBRANCH   9  10
ENDBRANCH   8   9
ENDBRANCH   7   8
ENDBRANCH   6   7
ENDBRANCH   5   6
ENDBRANCH   4   5
ENDBRANCH   2   4
BRANCH   2  26
HETATM   26  C   UNL     1     -11.756  15.545  67.998  1.00  0.00    -0.186 C  
HETATM   27  C   UNL     1      -8.853  16.712  65.992  1.00  0.00    -0.242 A  
HETATM   28  C   UNL     1     -11.756  14.587  66.787  1.00  0.00    -0.393 A  
HETATM   29  C   UNL     1      -8.403  17.832  66.682  1.00  0.00    -0.285 A  
HETATM   30  C   UNL     1     -10.678  14.909  65.928  1.00  0.00    -0.329 A  
HETATM   31  C   UNL     1      -9.993  16.070  66.448  1.00  0.00    -0.312 A  
HETATM   32  C   UNL     1     -10.455  14.204  64.755  1.00  0.00    -0.432 A  
HETATM   33  C   UNL     1      -9.122  18.351  67.770  1.00  0.00    -0.288 A  
HETATM   34  C   UNL     1     -12.643  13.574  66.425  1.00  0.00    -0.244 A  
HETATM   35  C   UNL     1     -10.676  16.541  67.590  1.00  0.00    -0.311 A  
HETATM   36  C   UNL     1     -11.316  13.156  64.428  1.00  0.00    -0.400 A  
HETATM   37  C   UNL     1     -10.297  17.727  68.210  1.00  0.00    -0.387 A  
HETATM   38  C   UNL     1     -12.399  12.842  65.256  1.00  0.00    -0.544 A  
ENDBRANCH   2  26
TORSDOF 9
ENDMDL
MODEL       41
REMARK 921   NORMALIZED FREE ENERGY PREDICTED BY IDOCK:   -6.56 KCAL/MOL
REMARK 922        TOTAL FREE ENERGY PREDICTED BY IDOCK:  -11.77 KCAL/MOL
REMARK 923 INTER-LIGAND FREE ENERGY PREDICTED BY IDOCK:  -10.25 KCAL/MOL
REMARK 924 INTRA-LIGAND FREE ENERGY PREDICTED BY IDOCK:   -1.52 KCAL/MOL
REMARK 927      BINDING AFFINITY PREDICTED BY RF-SCORE:    0.00 PKD
ROOT
HETATM    1  C   UNL     1      -8.654  17.014  68.756  1.00  0.00    -0.238 C  
HETATM    2  N   UNL     1      -9.143  16.298  67.502  1.00  0.00    -0.192 N  
HETATM    3  C   UNL     1      -8.826  17.156  66.281  1.00  0.00    -0.231 C  
ENDROOT
BRANCH   2   4
HETATM    4  C   UNL     1      -8.476  14.941  67.416  1.00  0.00    -0.195 C  
BRANCH   4   5
HETATM    5  C   UNL     1      -7.830  14.419  68.699  1.00  0.00    -0.140 C  
BRANCH   5   6
HETATM    6  C   UNL     1      -7.339  12.984  68.470  1.00  0.00    -0.115 C  
BRANCH   6   7
HETATM    7  C   UNL     1      -8.421  12.026  67.940  1.00  0.00    -0.160 C  
BRANCH   7   8
HETATM    8  C   UNL     1      -7.889  10.948  66.983  1.00  0.00    -0.132 C  
BRANCH   8   9
HETATM    9  C   UNL     1      -8.378   9.583  67.467  1.00  0.00    -0.125 C  
BRANCH   9  10
HETATM   10  N   UNL     1      -9.249   8.814  66.486  1.00  0.00    -0.166 N  
HETATM   11  C   UNL     1      -9.898   9.750  65.472  1.00  0.00    -0.308 C  
HETATM   12  C   UNL     1      -8.447   7.799  65.687  1.00  0.00    -0.141 C  
BRANCH  10  13
HETATM   13  C   UNL     1     -10.376   8.065  67.350  1.00  0.00    -0.284 C  
HETATM   14  C   UNL     1     -10.603   8.670  68.749  1.00  0.00    -0.169 A  
HETATM   15  C   UNL     1     -10.314   7.711  69.746  1.00  0.00    -0.223 A  
HETATM   16  C   UNL     1      -9.995   6.451  69.120  1.00  0.00    -0.173 A  
HETATM   17  C   UNL     1     -10.387   8.027  71.095  1.00  0.00    -0.229 A  
HETATM   18  C   UNL     1     -10.041   6.599  67.715  1.00  0.00    -0.180 A  
HETATM   19  C   UNL     1     -10.761   9.320  71.457  1.00  0.00    -0.425 A  
HETATM   20  C   UNL     1     -11.085  10.266  70.476  1.00  0.00    -0.381 A  
HETATM   21  C   UNL     1      -9.845   5.488  66.901  1.00  0.00    -0.181 A  
HETATM   22  C   UNL     1      -9.552   4.254  67.498  1.00  0.00    -0.217 A  
HETATM   23  C   UNL     1     -11.030   9.940  69.118  1.00  0.00    -0.233 A  
HETATM   24  C   UNL     1      -9.499   4.122  68.889  1.00  0.00    -0.238 A  
HETATM   25  C   UNL     1      -9.730   5.223  69.713  1.00  0.00    -0.257 A  
ENDBRANCH  10  13
ENDBRANCH   9  10
ENDBRANCH   8   9
ENDBRANCH   7   8
ENDBRANCH   6   7
ENDBRANCH   5   6
ENDBRANCH   4   5
ENDBRANCH   2   4
BRANCH   2  26
HETATM   26  C   UNL     1     -10.734  16.046  67.582  1.00  0.00    -0.320 C  
HETATM   27  C   UNL     1     -11.979  12.649  66.730  1.00  0.00    -0.362 A  
HETATM   28  C   UNL     1     -11.229  15.501  68.939  1.00  0.00    -0.306 A  
HETATM   29  C   UNL     1     -11.836  12.581  65.349  1.00  0.00    -0.479 A  
HETATM   30  C   UNL     1     -11.728  14.188  68.769  1.00  0.00    -0.380 A  
HETATM   31  C   UNL     1     -11.665  13.838  67.368  1.00  0.00    -0.417 A  
HETATM   32  C   UNL     1     -12.247  13.468  69.835  1.00  0.00    -0.356 A  
HETATM   33  C   UNL     1     -11.455  13.707  64.603  1.00  0.00    -0.383 A  
HETATM   34  C   UNL     1     -11.304  16.106  70.192  1.00  0.00    -0.347 A  
HETATM   35  C   UNL     1     -11.205  14.951  66.632  1.00  0.00    -0.340 A  
HETATM   36  C   UNL     1     -12.268  14.062  71.098  1.00  0.00    -0.417 A  
HETATM   37  C   UNL     1     -11.174  14.922  65.241  1.00  0.00    -0.369 A  
HETATM   38  C   UNL     1     -11.800  15.369  71.276  1.00  0.00    -0.437 A  
ENDBRANCH   2  26
TORSDOF 9
ENDMDL
MODEL       42
REMARK 921   NORMALIZED FREE ENERGY PREDICTED BY IDOCK:   -6.55 KCAL/MOL
REMARK 922        TOTAL FREE ENERGY PREDICTED BY IDOCK:  -11.76 KCAL/MOL
REMARK 923 INTER-LIGAND FREE ENERGY PREDICTED BY IDOCK:   -8.94 KCAL/MOL
REMARK 924 INTRA-LIGAND FREE ENERGY PREDICTED BY IDOCK:   -2.82 KCAL/MOL
REMARK 927      BINDING AFFINITY PREDICTED BY RF-SCORE:    0.00 PKD
ROOT
HETATM    1  C   UNL     1     -10.466   7.178  73.628  1.00  0.00    -0.370 C  
HETATM    2  N   UNL     1     -10.854   7.361  72.165  1.00  0.00    -0.226 N  
HETATM    3  C   UNL     1     -12.076   6.500  71.861  1.00  0.00    -0.339 C  
ENDROOT
BRANCH   2   4
HETATM    4  C   UNL     1     -11.130   8.828  71.906  1.00  0.00    -0.364 C  
BRANCH   4   5
HETATM    5  C   UNL     1     -12.540   9.180  71.434  1.00  0.00    -0.390 C  
BRANCH   5   6
HETATM    6  C   UNL     1     -12.548  10.616  70.892  1.00  0.00    -0.503 C  
BRANCH   6   7
HETATM    7  C   UNL     1     -11.442  10.904  69.860  1.00  0.00    -0.402 C  
BRANCH   7   8
HETATM    8  C   UNL     1     -11.691  12.158  69.010  1.00  0.00    -0.377 C  
BRANCH   8   9
HETATM    9  C   UNL     1     -11.463  11.803  67.540  1.00  0.00    -0.303 C  
BRANCH   9  10
HETATM   10  N   UNL     1     -11.474  12.977  66.574  1.00  0.00    -0.323 N  
HETATM   11  C   UNL     1     -12.411  12.717  65.399  1.00  0.00    -0.416 C  
HETATM   12  C   UNL     1     -11.958  14.258  67.238  1.00  0.00    -0.405 C  
BRANCH  10  13
HETATM   13  C   UNL     1      -9.968  13.166  66.051  1.00  0.00    -0.280 C  
HETATM   14  C   UNL     1      -9.322  11.874  65.512  1.00  0.00    -0.089 A  
HETATM   15  C   UNL     1      -8.182  11.544  66.279  1.00  0.00    -0.044 A  
HETATM   16  C   UNL     1      -7.945  12.581  67.254  1.00  0.00    -0.173 A  
HETATM   17  C   UNL     1      -7.453  10.390  66.030  1.00  0.00    -0.134 A  
HETATM   18  C   UNL     1      -8.951  13.568  67.145  1.00  0.00    -0.230 A  
HETATM   19  C   UNL     1      -7.864   9.553  64.994  1.00  0.00    -0.117 A  
HETATM   20  C   UNL     1      -8.971   9.892  64.205  1.00  0.00    -0.278 A  
HETATM   21  C   UNL     1      -8.880  14.710  67.936  1.00  0.00    -0.170 A  
HETATM   22  C   UNL     1      -7.836  14.828  68.864  1.00  0.00    -0.152 A  
HETATM   23  C   UNL     1      -9.693  11.065  64.445  1.00  0.00    -0.330 A  
HETATM   24  C   UNL     1      -6.852  13.840  68.970  1.00  0.00    -0.111 A  
HETATM   25  C   UNL     1      -6.896  12.709  68.155  1.00  0.00    -0.090 A  
ENDBRANCH  10  13
ENDBRANCH   9  10
ENDBRANCH   8   9
ENDBRANCH   7   8
ENDBRANCH   6   7
ENDBRANCH   5   6
ENDBRANCH   4   5
ENDBRANCH   2   4
BRANCH   2  26
HETATM   26  C   UNL     1      -9.636   6.926  71.202  1.00  0.00    -0.166 C  
HETATM   27  C   UNL     1      -9.588   8.320  67.756  1.00  0.00    -0.178 A  
HETATM   28  C   UNL     1      -8.425   7.882  71.225  1.00  0.00    -0.127 A  
HETATM   29  C   UNL     1     -10.610   7.634  67.108  1.00  0.00    -0.410 A  
HETATM   30  C   UNL     1      -8.289   8.505  69.962  1.00  0.00    -0.123 A  
HETATM   31  C   UNL     1      -9.291   7.976  69.065  1.00  0.00    -0.147 A  
HETATM   32  C   UNL     1      -7.268   9.410  69.709  1.00  0.00    -0.076 A  
HETATM   33  C   UNL     1     -11.279   6.570  67.732  1.00  0.00    -0.261 A  
HETATM   34  C   UNL     1      -7.487   8.142  72.223  1.00  0.00    -0.139 A  
HETATM   35  C   UNL     1     -10.014   6.958  69.725  1.00  0.00    -0.187 A  
HETATM   36  C   UNL     1      -6.365   9.705  70.731  1.00  0.00    -0.097 A  
HETATM   37  C   UNL     1     -10.954   6.194  69.041  1.00  0.00    -0.436 A  
HETATM   38  C   UNL     1      -6.474   9.078  71.977  1.00  0.00     0.019 A  
ENDBRANCH   2  26
TORSDOF 9
ENDMDL
MODEL       43
REMARK 921   NORMALIZED FREE ENERGY PREDICTED BY IDOCK:   -6.54 KCAL/MOL
REMARK 922        TOTAL FREE ENERGY PREDICTED BY IDOCK:  -11.75 KCAL/MOL
REMARK 923 INTER-LIGAND FREE ENERGY PREDICTED BY IDOCK:  -10.45 KCAL/MOL
REMARK 924 INTRA-LIGAND FREE ENERGY PREDICTED BY IDOCK:   -1.30 KCAL/MOL
REMARK 927      BINDING AFFINITY PREDICTED BY RF-SCORE:    0.00 PKD
ROOT
HETATM    1  C   UNL     1     -10.141   6.802  74.000  1.00  0.00    -0.359 C  
HETATM    2  N   UNL     1     -10.531   7.039  72.545  1.00  0.00    -0.207 N  
HETATM    3  C   UNL     1     -11.582   8.144  72.484  1.00  0.00    -0.404 C  
ENDROOT
BRANCH   2   4
HETATM    4  C   UNL     1      -9.293   7.406  71.754  1.00  0.00    -0.145 C  
BRANCH   4   5
HETATM    5  C   UNL     1      -9.145   8.877  71.369  1.00  0.00    -0.318 C  
BRANCH   5   6
HETATM    6  C   UNL     1      -8.902   8.981  69.857  1.00  0.00    -0.164 C  
BRANCH   6   7
HETATM    7  C   UNL     1      -8.363  10.349  69.399  1.00  0.00    -0.152 C  
BRANCH   7   8
HETATM    8  C   UNL     1      -7.953  10.397  67.920  1.00  0.00    -0.102 C  
BRANCH   8   9
HETATM    9  C   UNL     1      -8.799  11.457  67.214  1.00  0.00    -0.153 C  
BRANCH   9  10
HETATM   10  N   UNL     1      -9.888  10.921  66.298  1.00  0.00    -0.209 N  
HETATM   11  C   UNL     1      -9.491  11.051  64.831  1.00  0.00    -0.233 C  
HETATM   12  C   UNL     1     -10.164   9.445  66.543  1.00  0.00    -0.238 C  
BRANCH  10  13
HETATM   13  C   UNL     1     -11.211  11.782  66.593  1.00  0.00    -0.323 C  
HETATM   14  C   UNL     1     -11.077  13.279  66.256  1.00  0.00    -0.306 A  
HETATM   15  C   UNL     1     -11.258  14.058  67.421  1.00  0.00    -0.328 A  
HETATM   16  C   UNL     1     -11.606  13.194  68.524  1.00  0.00    -0.361 A  
HETATM   17  C   UNL     1     -11.129  15.439  67.395  1.00  0.00    -0.311 A  
HETATM   18  C   UNL     1     -11.616  11.851  68.084  1.00  0.00    -0.400 A  
HETATM   19  C   UNL     1     -10.821  16.056  66.184  1.00  0.00    -0.179 A  
HETATM   20  C   UNL     1     -10.676  15.295  65.017  1.00  0.00    -0.461 A  
HETATM   21  C   UNL     1     -12.005  10.845  68.963  1.00  0.00    -0.322 A  
HETATM   22  C   UNL     1     -12.328  11.186  70.284  1.00  0.00    -0.397 A  
HETATM   23  C   UNL     1     -10.825  13.906  65.041  1.00  0.00    -0.389 A  
HETATM   24  C   UNL     1     -12.305  12.518  70.710  1.00  0.00    -0.376 A  
HETATM   25  C   UNL     1     -11.950  13.536  69.826  1.00  0.00    -0.405 A  
ENDBRANCH  10  13
ENDBRANCH   9  10
ENDBRANCH   8   9
ENDBRANCH   7   8
ENDBRANCH   6   7
ENDBRANCH   5   6
ENDBRANCH   4   5
ENDBRANCH   2   4
BRANCH   2  26
HETATM   26  C   UNL     1     -11.132   5.690  71.898  1.00  0.00    -0.214 C  
HETATM   27  C   UNL     1      -9.474   4.364  68.846  1.00  0.00    -0.232 A  
HETATM   28  C   UNL     1     -10.467   4.388  72.395  1.00  0.00    -0.219 A  
HETATM   29  C   UNL     1      -9.859   5.252  67.848  1.00  0.00    -0.189 A  
HETATM   30  C   UNL     1      -9.776   3.771  71.325  1.00  0.00    -0.245 A  
HETATM   31  C   UNL     1      -9.992   4.538  70.120  1.00  0.00    -0.278 A  
HETATM   32  C   UNL     1      -9.096   2.575  71.500  1.00  0.00    -0.161 A  
HETATM   33  C   UNL     1     -10.804   6.258  68.098  1.00  0.00    -0.401 A  
HETATM   34  C   UNL     1     -10.510   3.761  73.638  1.00  0.00    -0.260 A  
HETATM   35  C   UNL     1     -10.883   5.597  70.396  1.00  0.00    -0.326 A  
HETATM   36  C   UNL     1      -9.098   1.980  72.763  1.00  0.00    -0.097 A  
HETATM   37  C   UNL     1     -11.360   6.413  69.375  1.00  0.00    -0.443 A  
HETATM   38  C   UNL     1      -9.797   2.568  73.823  1.00  0.00    -0.142 A  
ENDBRANCH   2  26
TORSDOF 9
ENDMDL
MODEL       44
REMARK 921   NORMALIZED FREE ENERGY PREDICTED BY IDOCK:   -6.54 KCAL/MOL
REMARK 922        TOTAL FREE ENERGY PREDICTED BY IDOCK:  -11.75 KCAL/MOL
REMARK 923 INTER-LIGAND FREE ENERGY PREDICTED BY IDOCK:   -9.33 KCAL/MOL
REMARK 924 INTRA-LIGAND FREE ENERGY PREDICTED BY IDOCK:   -2.42 KCAL/MOL
REMARK 927      BINDING AFFINITY PREDICTED BY RF-SCORE:    0.00 PKD
ROOT
HETATM    1  C   UNL     1     -12.775  13.748  65.907  1.00  0.00    -0.401 C  
HETATM    2  N   UNL     1     -11.620  13.609  66.893  1.00  0.00    -0.348 N  
HETATM    3  C   UNL     1     -11.647  14.788  67.862  1.00  0.00    -0.351 C  
ENDROOT
BRANCH   2   4
HETATM    4  C   UNL     1     -11.748  12.287  67.621  1.00  0.00    -0.334 C  
BRANCH   4   5
HETATM    5  C   UNL     1     -11.588  12.332  69.141  1.00  0.00    -0.373 C  
BRANCH   5   6
HETATM    6  C   UNL     1     -11.500  10.899  69.682  1.00  0.00    -0.377 C  
BRANCH   6   7
HETATM    7  C   UNL     1     -12.187  10.697  71.045  1.00  0.00    -0.498 C  
BRANCH   7   8
HETATM    8  C   UNL     1     -12.334   9.225  71.459  1.00  0.00    -0.439 C  
BRANCH   8   9
HETATM    9  C   UNL     1     -10.998   8.743  72.025  1.00  0.00    -0.368 C  
BRANCH   9  10
HETATM   10  N   UNL     1     -10.850   7.236  72.158  1.00  0.00    -0.222 N  
HETATM   11  C   UNL     1     -10.551   6.834  73.599  1.00  0.00    -0.320 C  
HETATM   12  C   UNL     1     -12.120   6.500  71.758  1.00  0.00    -0.342 C  
BRANCH  10  13
HETATM   13  C   UNL     1      -9.639   6.800  71.198  1.00  0.00    -0.173 C  
HETATM   14  C   UNL     1      -8.355   7.631  71.387  1.00  0.00    -0.111 A  
HETATM   15  C   UNL     1      -8.030   8.301  70.186  1.00  0.00    -0.106 A  
HETATM   16  C   UNL     1      -8.956   7.907  69.152  1.00  0.00    -0.145 A  
HETATM   17  C   UNL     1      -6.945   9.163  70.111  1.00  0.00    -0.056 A  
HETATM   18  C   UNL     1      -9.905   7.007  69.689  1.00  0.00    -0.166 A  
HETATM   19  C   UNL     1      -6.166   9.355  71.251  1.00  0.00    -0.066 A  
HETATM   20  C   UNL     1      -6.460   8.665  72.434  1.00  0.00    -0.070 A  
HETATM   21  C   UNL     1     -10.853   6.430  68.850  1.00  0.00    -0.382 A  
HETATM   22  C   UNL     1     -10.876   6.798  67.498  1.00  0.00    -0.388 A  
HETATM   23  C   UNL     1      -7.541   7.783  72.503  1.00  0.00    -0.115 A  
HETATM   24  C   UNL     1      -9.937   7.697  66.980  1.00  0.00    -0.310 A  
HETATM   25  C   UNL     1      -8.961   8.253  67.806  1.00  0.00    -0.139 A  
ENDBRANCH  10  13
ENDBRANCH   9  10
ENDBRANCH   8   9
ENDBRANCH   7   8
ENDBRANCH   6   7
ENDBRANCH   5   6
ENDBRANCH   4   5
ENDBRANCH   2   4
BRANCH   2  26
HETATM   26  C   UNL     1     -10.211  13.590  66.109  1.00  0.00    -0.302 C  
HETATM   27  C   UNL     1      -7.433  11.635  67.618  1.00  0.00    -0.116 A  
HETATM   28  C   UNL     1     -10.037  12.410  65.129  1.00  0.00    -0.276 A  
HETATM   29  C   UNL     1      -7.043  12.403  68.710  1.00  0.00    -0.098 A  
HETATM   30  C   UNL     1      -9.004  11.560  65.590  1.00  0.00    -0.081 A  
HETATM   31  C   UNL     1      -8.422  12.130  66.783  1.00  0.00    -0.138 A  
HETATM   32  C   UNL     1      -8.636  10.423  64.885  1.00  0.00    -0.190 A  
HETATM   33  C   UNL     1      -7.580  13.681  68.927  1.00  0.00    -0.016 A  
HETATM   34  C   UNL     1     -10.667  12.131  63.918  1.00  0.00    -0.456 A  
HETATM   35  C   UNL     1      -9.022  13.381  67.041  1.00  0.00    -0.228 A  
HETATM   36  C   UNL     1      -9.309  10.122  63.701  1.00  0.00    -0.336 A  
HETATM   37  C   UNL     1      -8.552  14.201  68.062  1.00  0.00    -0.172 A  
HETATM   38  C   UNL     1     -10.316  10.967  63.221  1.00  0.00    -0.317 A  
ENDBRANCH   2  26
TORSDOF 9
ENDMDL
MODEL       45
REMARK 921   NORMALIZED FREE ENERGY PREDICTED BY IDOCK:   -6.54 KCAL/MOL
REMARK 922        TOTAL FREE ENERGY PREDICTED BY IDOCK:  -11.74 KCAL/MOL
REMARK 923 INTER-LIGAND FREE ENERGY PREDICTED BY IDOCK:   -9.35 KCAL/MOL
REMARK 924 INTRA-LIGAND FREE ENERGY PREDICTED BY IDOCK:   -2.39 KCAL/MOL
REMARK 927      BINDING AFFINITY PREDICTED BY RF-SCORE:    0.00 PKD
ROOT
HETATM    1  C   UNL     1      -9.708   6.156  71.703  1.00  0.00    -0.158 C  
HETATM    2  N   UNL     1     -10.267   7.569  71.833  1.00  0.00    -0.186 N  
HETATM    3  C   UNL     1     -10.935   7.718  73.198  1.00  0.00    -0.310 C  
ENDROOT
BRANCH   2   4
HETATM    4  C   UNL     1      -9.140   8.565  71.655  1.00  0.00    -0.229 C  
BRANCH   4   5
HETATM    5  C   UNL     1      -7.784   7.989  71.248  1.00  0.00    -0.090 C  
BRANCH   5   6
HETATM    6  C   UNL     1      -7.288   8.710  69.987  1.00  0.00    -0.052 C  
BRANCH   6   7
HETATM    7  C   UNL     1      -7.655  10.204  69.931  1.00  0.00    -0.174 C  
BRANCH   7   8
HETATM    8  C   UNL     1      -7.413  10.857  68.561  1.00  0.00    -0.103 C  
BRANCH   8   9
HETATM    9  C   UNL     1      -8.179  12.180  68.511  1.00  0.00    -0.104 C  
BRANCH   9  10
HETATM   10  N   UNL     1      -7.340  13.410  68.203  1.00  0.00    -0.103 N  
HETATM   11  C   UNL     1      -7.065  14.221  69.464  1.00  0.00    -0.045 C  
HETATM   12  C   UNL     1      -5.984  13.043  67.619  1.00  0.00    -0.144 C  
BRANCH  10  13
HETATM   13  C   UNL     1      -8.171  14.289  67.147  1.00  0.00    -0.160 C  
HETATM   14  C   UNL     1      -8.649  15.647  67.697  1.00  0.00    -0.177 A  
HETATM   15  C   UNL     1     -10.060  15.711  67.674  1.00  0.00    -0.248 A  
HETATM   16  C   UNL     1     -10.583  14.518  67.051  1.00  0.00    -0.278 A  
HETATM   17  C   UNL     1     -10.743  16.812  68.171  1.00  0.00    -0.361 A  
HETATM   18  C   UNL     1      -9.513  13.663  66.701  1.00  0.00    -0.285 A  
HETATM   19  C   UNL     1     -10.004  17.872  68.695  1.00  0.00    -0.387 A  
HETATM   20  C   UNL     1      -8.604  17.833  68.688  1.00  0.00    -0.264 A  
HETATM   21  C   UNL     1      -9.776  12.484  66.012  1.00  0.00    -0.247 A  
HETATM   22  C   UNL     1     -11.106  12.147  65.726  1.00  0.00    -0.362 A  
HETATM   23  C   UNL     1      -7.918  16.731  68.169  1.00  0.00    -0.181 A  
HETATM   24  C   UNL     1     -12.157  12.997  66.086  1.00  0.00    -0.473 A  
HETATM   25  C   UNL     1     -11.900  14.198  66.746  1.00  0.00    -0.449 A  
ENDBRANCH  10  13
ENDBRANCH   9  10
ENDBRANCH   8   9
ENDBRANCH   7   8
ENDBRANCH   6   7
ENDBRANCH   5   6
ENDBRANCH   4   5
ENDBRANCH   2   4
BRANCH   2  26
HETATM   26  C   UNL     1     -11.348   7.855  70.672  1.00  0.00    -0.259 C  
HETATM   27  C   UNL     1     -11.654  11.346  69.433  1.00  0.00    -0.391 A  
HETATM   28  C   UNL     1     -10.786   7.770  69.237  1.00  0.00    -0.156 A  
HETATM   29  C   UNL     1     -12.298  12.010  70.472  1.00  0.00    -0.369 A  
HETATM   30  C   UNL     1     -10.828   9.051  68.636  1.00  0.00    -0.061 A  
HETATM   31  C   UNL     1     -11.449   9.980  69.550  1.00  0.00    -0.176 A  
HETATM   32  C   UNL     1     -10.388   9.253  67.335  1.00  0.00    -0.327 A  
HETATM   33  C   UNL     1     -12.796  11.311  71.581  1.00  0.00    -0.510 A  
HETATM   34  C   UNL     1     -10.340   6.678  68.495  1.00  0.00    -0.216 A  
HETATM   35  C   UNL     1     -11.878   9.284  70.701  1.00  0.00    -0.246 A  
HETATM   36  C   UNL     1      -9.892   8.163  66.618  1.00  0.00    -0.331 A  
HETATM   37  C   UNL     1     -12.625   9.924  71.685  1.00  0.00    -0.519 A  
HETATM   38  C   UNL     1      -9.867   6.888  67.193  1.00  0.00    -0.214 A  
ENDBRANCH   2  26
TORSDOF 9
ENDMDL
MODEL       46
REMARK 921   NORMALIZED FREE ENERGY PREDICTED BY IDOCK:   -6.51 KCAL/MOL
REMARK 922        TOTAL FREE ENERGY PREDICTED BY IDOCK:  -11.70 KCAL/MOL
REMARK 923 INTER-LIGAND FREE ENERGY PREDICTED BY IDOCK:  -10.00 KCAL/MOL
REMARK 924 INTRA-LIGAND FREE ENERGY PREDICTED BY IDOCK:   -1.70 KCAL/MOL
REMARK 927      BINDING AFFINITY PREDICTED BY RF-SCORE:    0.00 PKD
ROOT
HETATM    1  C   UNL     1      -9.489   8.062  69.208  1.00  0.00    -0.155 C  
HETATM    2  N   UNL     1      -9.470   9.158  70.268  1.00  0.00    -0.201 N  
HETATM    3  C   UNL     1      -8.042   9.671  70.431  1.00  0.00    -0.168 C  
ENDROOT
BRANCH   2   4
HETATM    4  C   UNL     1     -10.414  10.266  69.850  1.00  0.00    -0.256 C  
BRANCH   4   5
HETATM    5  C   UNL     1     -11.077  10.113  68.482  1.00  0.00    -0.266 C  
BRANCH   5   6
HETATM    6  C   UNL     1     -12.020  11.300  68.242  1.00  0.00    -0.215 C  
BRANCH   6   7
HETATM    7  C   UNL     1     -12.021  12.341  69.376  1.00  0.00    -0.318 C  
BRANCH   7   8
HETATM    8  C   UNL     1     -11.819  13.787  68.899  1.00  0.00    -0.396 C  
BRANCH   8   9
HETATM    9  C   UNL     1     -10.324  14.105  68.929  1.00  0.00    -0.199 C  
BRANCH   9  10
HETATM   10  N   UNL     1      -9.887  15.277  68.064  1.00  0.00    -0.215 N  
HETATM   11  C   UNL     1     -11.055  16.210  67.766  1.00  0.00    -0.254 C  
HETATM   12  C   UNL     1      -8.821  16.122  68.746  1.00  0.00    -0.233 C  
BRANCH  10  13
HETATM   13  C   UNL     1      -9.307  14.659  66.701  1.00  0.00    -0.271 C  
HETATM   14  C   UNL     1     -10.389  14.288  65.667  1.00  0.00    -0.352 A  
HETATM   15  C   UNL     1     -10.344  12.903  65.394  1.00  0.00    -0.310 A  
HETATM   16  C   UNL     1      -9.235  12.310  66.102  1.00  0.00    -0.132 A  
HETATM   17  C   UNL     1     -11.257  12.306  64.536  1.00  0.00    -0.378 A  
HETATM   18  C   UNL     1      -8.579  13.304  66.864  1.00  0.00    -0.116 A  
HETATM   19  C   UNL     1     -12.227  13.105  63.934  1.00  0.00    -0.503 A  
HETATM   20  C   UNL     1     -12.254  14.486  64.170  1.00  0.00    -0.372 A  
HETATM   21  C   UNL     1      -7.426  12.977  67.569  1.00  0.00    -0.158 A  
HETATM   22  C   UNL     1      -6.971  11.652  67.549  1.00  0.00    -0.104 A  
HETATM   23  C   UNL     1     -11.322  15.089  65.020  1.00  0.00    -0.395 A  
HETATM   24  C   UNL     1      -7.634  10.675  66.799  1.00  0.00    -0.120 A  
HETATM   25  C   UNL     1      -8.771  11.001  66.061  1.00  0.00    -0.192 A  
ENDBRANCH  10  13
ENDBRANCH   9  10
ENDBRANCH   8   9
ENDBRANCH   7   8
ENDBRANCH   6   7
ENDBRANCH   5   6
ENDBRANCH   4   5
ENDBRANCH   2   4
BRANCH   2  26
HETATM   26  C   UNL     1      -9.999   8.585  71.679  1.00  0.00    -0.259 C  
HETATM   27  C   UNL     1     -13.339   6.954  71.727  1.00  0.00    -0.260 A  
HETATM   28  C   UNL     1      -9.663   7.100  71.935  1.00  0.00    -0.169 A  
HETATM   29  C   UNL     1     -14.227   8.017  71.599  1.00  0.00    -0.549 A  
HETATM   30  C   UNL     1     -10.858   6.343  71.966  1.00  0.00    -0.277 A  
HETATM   31  C   UNL     1     -11.985   7.235  71.818  1.00  0.00    -0.342 A  
HETATM   32  C   UNL     1     -10.840   4.974  72.191  1.00  0.00    -0.179 A  
HETATM   33  C   UNL     1     -13.778   9.346  71.633  1.00  0.00    -0.393 A  
HETATM   34  C   UNL     1      -8.445   6.470  72.183  1.00  0.00    -0.113 A  
HETATM   35  C   UNL     1     -11.520   8.567  71.774  1.00  0.00    -0.378 A  
HETATM   36  C   UNL     1      -9.611   4.342  72.385  1.00  0.00    -0.198 A  
HETATM   37  C   UNL     1     -12.413   9.634  71.765  1.00  0.00    -0.487 A  
HETATM   38  C   UNL     1      -8.423   5.083  72.380  1.00  0.00    -0.121 A  
ENDBRANCH   2  26
TORSDOF 9
ENDMDL
MODEL       47
REMARK 921   NORMALIZED FREE ENERGY PREDICTED BY IDOCK:   -6.50 KCAL/MOL
REMARK 922        TOTAL FREE ENERGY PREDICTED BY IDOCK:  -11.68 KCAL/MOL
REMARK 923 INTER-LIGAND FREE ENERGY PREDICTED BY IDOCK:  -10.38 KCAL/MOL
REMARK 924 INTRA-LIGAND FREE ENERGY PREDICTED BY IDOCK:   -1.31 KCAL/MOL
REMARK 927      BINDING AFFINITY PREDICTED BY RF-SCORE:    0.00 PKD
ROOT
HETATM    1  C   UNL     1     -12.024  14.058  67.739  1.00  0.00    -0.357 C  
HETATM    2  N   UNL     1     -10.571  13.654  67.963  1.00  0.00    -0.244 N  
HETATM    3  C   UNL     1      -9.878  14.726  68.800  1.00  0.00    -0.227 C  
ENDROOT
BRANCH   2   4
HETATM    4  C   UNL     1     -10.533  12.303  68.648  1.00  0.00    -0.208 C  
BRANCH   4   5
HETATM    5  C   UNL     1     -11.881  11.718  69.069  1.00  0.00    -0.379 C  
BRANCH   5   6
HETATM    6  C   UNL     1     -11.752  11.115  70.474  1.00  0.00    -0.392 C  
BRANCH   6   7
HETATM    7  C   UNL     1     -13.034  10.432  70.985  1.00  0.00    -0.490 C  
BRANCH   7   8
HETATM    8  C   UNL     1     -12.779   9.216  71.888  1.00  0.00    -0.464 C  
BRANCH   8   9
HETATM    9  C   UNL     1     -11.298   8.846  71.798  1.00  0.00    -0.361 C  
BRANCH   9  10
HETATM   10  N   UNL     1     -10.966   7.397  72.115  1.00  0.00    -0.235 N  
HETATM   11  C   UNL     1     -10.524   7.235  73.566  1.00  0.00    -0.374 C  
HETATM   12  C   UNL     1     -12.165   6.481  71.923  1.00  0.00    -0.324 C  
BRANCH  10  13
HETATM   13  C   UNL     1      -9.780   6.962  71.123  1.00  0.00    -0.173 C  
HETATM   14  C   UNL     1     -10.097   7.178  69.631  1.00  0.00    -0.196 A  
HETATM   15  C   UNL     1     -10.066   5.943  68.944  1.00  0.00    -0.231 A  
HETATM   16  C   UNL     1      -9.652   4.901  69.852  1.00  0.00    -0.252 A  
HETATM   17  C   UNL     1     -10.374   5.859  67.594  1.00  0.00    -0.265 A  
HETATM   18  C   UNL     1      -9.448   5.451  71.138  1.00  0.00    -0.200 A  
HETATM   19  C   UNL     1     -10.713   7.028  66.914  1.00  0.00    -0.376 A  
HETATM   20  C   UNL     1     -10.710   8.261  67.578  1.00  0.00    -0.217 A  
HETATM   21  C   UNL     1      -8.965   4.642  72.161  1.00  0.00    -0.143 A  
HETATM   22  C   UNL     1      -8.743   3.282  71.904  1.00  0.00    -0.113 A  
HETATM   23  C   UNL     1     -10.380   8.347  68.934  1.00  0.00    -0.231 A  
HETATM   24  C   UNL     1      -8.959   2.747  70.630  1.00  0.00    -0.167 A  
HETATM   25  C   UNL     1      -9.409   3.558  69.589  1.00  0.00    -0.244 A  
ENDBRANCH  10  13
ENDBRANCH   9  10
ENDBRANCH   8   9
ENDBRANCH   7   8
ENDBRANCH   6   7
ENDBRANCH   5   6
ENDBRANCH   4   5
ENDBRANCH   2   4
BRANCH   2  26
HETATM   26  C   UNL     1      -9.807  13.497  66.552  1.00  0.00    -0.291 C  
HETATM   27  C   UNL     1      -8.631  10.101  65.604  1.00  0.00    -0.166 A  
HETATM   28  C   UNL     1     -10.721  13.126  65.365  1.00  0.00    -0.308 A  
HETATM   29  C   UNL     1      -7.545   9.881  66.444  1.00  0.00    -0.101 A  
HETATM   30  C   UNL     1     -10.392  11.830  64.900  1.00  0.00    -0.334 A  
HETATM   31  C   UNL     1      -9.265  11.332  65.654  1.00  0.00    -0.231 A  
HETATM   32  C   UNL     1     -11.059  11.256  63.828  1.00  0.00    -0.313 A  
HETATM   33  C   UNL     1      -7.050  10.900  67.272  1.00  0.00    -0.097 A  
HETATM   34  C   UNL     1     -11.702  13.863  64.704  1.00  0.00    -0.413 A  
HETATM   35  C   UNL     1      -8.820  12.335  66.543  1.00  0.00    -0.128 A  
HETATM   36  C   UNL     1     -12.078  11.980  63.207  1.00  0.00    -0.509 A  
HETATM   37  C   UNL     1      -7.664  12.159  67.297  1.00  0.00    -0.168 A  
HETATM   38  C   UNL     1     -12.397  13.271  63.641  1.00  0.00    -0.456 A  
ENDBRANCH   2  26
TORSDOF 9
ENDMDL
MODEL       48
REMARK 921   NORMALIZED FREE ENERGY PREDICTED BY IDOCK:   -6.49 KCAL/MOL
REMARK 922        TOTAL FREE ENERGY PREDICTED BY IDOCK:  -11.68 KCAL/MOL
REMARK 923 INTER-LIGAND FREE ENERGY PREDICTED BY IDOCK:  -10.25 KCAL/MOL
REMARK 924 INTRA-LIGAND FREE ENERGY PREDICTED BY IDOCK:   -1.43 KCAL/MOL
REMARK 927      BINDING AFFINITY PREDICTED BY RF-SCORE:    0.00 PKD
ROOT
HETATM    1  C   UNL     1      -8.523  16.088  65.977  1.00  0.00    -0.062 C  
HETATM    2  N   UNL     1      -9.779  15.263  66.238  1.00  0.00    -0.277 N  
HETATM    3  C   UNL     1     -10.312  14.732  64.910  1.00  0.00    -0.332 C  
ENDROOT
BRANCH   2   4
HETATM    4  C   UNL     1      -9.442  14.136  67.192  1.00  0.00    -0.236 C  
BRANCH   4   5
HETATM    5  C   UNL     1      -7.958  13.806  67.354  1.00  0.00    -0.175 C  
BRANCH   5   6
HETATM    6  C   UNL     1      -7.805  12.311  67.669  1.00  0.00    -0.156 C  
BRANCH   6   7
HETATM    7  C   UNL     1      -7.396  12.014  69.123  1.00  0.00     0.048 C  
BRANCH   7   8
HETATM    8  C   UNL     1      -7.087  10.534  69.396  1.00  0.00    -0.110 C  
BRANCH   8   9
HETATM    9  C   UNL     1      -7.524   9.714  68.182  1.00  0.00    -0.082 C  
BRANCH   9  10
HETATM   10  N   UNL     1      -8.114   8.348  68.494  1.00  0.00    -0.121 N  
HETATM   11  C   UNL     1      -7.495   7.265  67.617  1.00  0.00    -0.101 C  
HETATM   12  C   UNL     1      -7.864   7.934  69.936  1.00  0.00    -0.103 C  
BRANCH  10  13
HETATM   13  C   UNL     1      -9.693   8.448  68.219  1.00  0.00    -0.155 C  
HETATM   14  C   UNL     1     -10.073   9.394  67.063  1.00  0.00    -0.304 A  
HETATM   15  C   UNL     1     -10.884  10.447  67.544  1.00  0.00    -0.358 A  
HETATM   16  C   UNL     1     -11.168  10.231  68.942  1.00  0.00    -0.259 A  
HETATM   17  C   UNL     1     -11.314  11.467  66.708  1.00  0.00    -0.309 A  
HETATM   18  C   UNL     1     -10.513   9.058  69.380  1.00  0.00    -0.229 A  
HETATM   19  C   UNL     1     -10.934  11.435  65.367  1.00  0.00    -0.249 A  
HETATM   20  C   UNL     1     -10.161  10.376  64.875  1.00  0.00    -0.382 A  
HETATM   21  C   UNL     1     -10.710   8.607  70.681  1.00  0.00    -0.259 A  
HETATM   22  C   UNL     1     -11.516   9.362  71.545  1.00  0.00    -0.467 A  
HETATM   23  C   UNL     1      -9.745   9.338  65.714  1.00  0.00    -0.339 A  
HETATM   24  C   UNL     1     -12.151  10.527  71.103  1.00  0.00    -0.473 A  
HETATM   25  C   UNL     1     -11.988  10.966  69.790  1.00  0.00    -0.423 A  
ENDBRANCH  10  13
ENDBRANCH   9  10
ENDBRANCH   8   9
ENDBRANCH   7   8
ENDBRANCH   6   7
ENDBRANCH   5   6
ENDBRANCH   4   5
ENDBRANCH   2   4
BRANCH   2  26
HETATM   26  C   UNL     1     -10.909  16.168  66.947  1.00  0.00    -0.175 C  
HETATM   27  C   UNL     1     -10.788  16.481  70.649  1.00  0.00     0.115 A  
HETATM   28  C   UNL     1     -10.508  17.643  67.163  1.00  0.00    -0.319 A  
HETATM   29  C   UNL     1     -11.217  15.237  71.100  1.00  0.00    -0.378 A  
HETATM   30  C   UNL     1     -10.409  17.908  68.550  1.00  0.00    -0.365 A  
HETATM   31  C   UNL     1     -10.787  16.723  69.284  1.00  0.00    -0.275 A  
HETATM   32  C   UNL     1     -10.070  19.168  69.022  1.00  0.00    -0.365 A  
HETATM   33  C   UNL     1     -11.709  14.272  70.208  1.00  0.00    -0.343 A  
HETATM   34  C   UNL     1     -10.311  18.678  66.251  1.00  0.00    -0.483 A  
HETATM   35  C   UNL     1     -11.206  15.727  68.376  1.00  0.00    -0.362 A  
HETATM   36  C   UNL     1      -9.821  20.185  68.099  1.00  0.00    -0.460 A  
HETATM   37  C   UNL     1     -11.746  14.529  68.831  1.00  0.00    -0.354 A  
HETATM   38  C   UNL     1      -9.939  19.943  66.726  1.00  0.00    -0.569 A  
ENDBRANCH   2  26
TORSDOF 9
ENDMDL
MODEL       49
REMARK 921   NORMALIZED FREE ENERGY PREDICTED BY IDOCK:   -6.49 KCAL/MOL
REMARK 922        TOTAL FREE ENERGY PREDICTED BY IDOCK:  -11.67 KCAL/MOL
REMARK 923 INTER-LIGAND FREE ENERGY PREDICTED BY IDOCK:  -10.55 KCAL/MOL
REMARK 924 INTRA-LIGAND FREE ENERGY PREDICTED BY IDOCK:   -1.12 KCAL/MOL
REMARK 927      BINDING AFFINITY PREDICTED BY RF-SCORE:    0.00 PKD
ROOT
HETATM    1  C   UNL     1     -10.821   7.295  73.412  1.00  0.00    -0.324 C  
HETATM    2  N   UNL     1     -11.142   7.513  71.937  1.00  0.00    -0.234 N  
HETATM    3  C   UNL     1     -12.382   6.703  71.571  1.00  0.00    -0.313 C  
ENDROOT
BRANCH   2   4
HETATM    4  C   UNL     1     -11.351   8.992  71.690  1.00  0.00    -0.360 C  
BRANCH   4   5
HETATM    5  C   UNL     1     -12.758   9.530  71.946  1.00  0.00    -0.496 C  
BRANCH   5   6
HETATM    6  C   UNL     1     -12.840  10.983  71.456  1.00  0.00    -0.555 C  
BRANCH   6   7
HETATM    7  C   UNL     1     -12.216  11.214  70.068  1.00  0.00    -0.402 C  
BRANCH   7   8
HETATM    8  C   UNL     1     -11.673  12.636  69.856  1.00  0.00    -0.320 C  
BRANCH   8   9
HETATM    9  C   UNL     1     -11.560  12.894  68.353  1.00  0.00    -0.333 C  
BRANCH   9  10
HETATM   10  N   UNL     1     -10.746  14.116  67.958  1.00  0.00    -0.239 N  
HETATM   11  C   UNL     1     -11.649  15.303  67.641  1.00  0.00    -0.239 C  
HETATM   12  C   UNL     1      -9.816  14.566  69.074  1.00  0.00    -0.138 C  
BRANCH  10  13
HETATM   13  C   UNL     1      -9.890  13.708  66.663  1.00  0.00    -0.284 C  
HETATM   14  C   UNL     1     -10.744  13.276  65.454  1.00  0.00    -0.308 A  
HETATM   15  C   UNL     1     -10.447  11.940  65.103  1.00  0.00    -0.330 A  
HETATM   16  C   UNL     1      -9.371  11.454  65.934  1.00  0.00    -0.247 A  
HETATM   17  C   UNL     1     -11.125  11.294  64.078  1.00  0.00    -0.316 A  
HETATM   18  C   UNL     1      -8.992  12.462  66.849  1.00  0.00    -0.212 A  
HETATM   19  C   UNL     1     -12.111  11.995  63.387  1.00  0.00    -0.597 A  
HETATM   20  C   UNL     1     -12.386  13.332  63.704  1.00  0.00    -0.456 A  
HETATM   21  C   UNL     1      -7.914  12.245  67.700  1.00  0.00    -0.161 A  
HETATM   22  C   UNL     1      -7.261  11.005  67.665  1.00  0.00    -0.093 A  
HETATM   23  C   UNL     1     -11.688  13.987  64.724  1.00  0.00    -0.403 A  
HETATM   24  C   UNL     1      -7.652  10.011  66.762  1.00  0.00    -0.103 A  
HETATM   25  C   UNL     1      -8.709  10.234  65.880  1.00  0.00    -0.169 A  
ENDBRANCH  10  13
ENDBRANCH   9  10
ENDBRANCH   8   9
ENDBRANCH   7   8
ENDBRANCH   6   7
ENDBRANCH   5   6
ENDBRANCH   4   5
ENDBRANCH   2   4
BRANCH   2  26
HETATM   26  C   UNL     1      -9.903   7.044  71.017  1.00  0.00    -0.180 C  
HETATM   27  C   UNL     1      -9.565   3.409  70.315  1.00  0.00    -0.215 A  
HETATM   28  C   UNL     1     -10.225   6.944  69.510  1.00  0.00    -0.198 A  
HETATM   29  C   UNL     1      -9.128   2.879  71.524  1.00  0.00    -0.170 A  
HETATM   30  C   UNL     1     -10.146   5.593  69.098  1.00  0.00    -0.274 A  
HETATM   31  C   UNL     1      -9.723   4.783  70.217  1.00  0.00    -0.296 A  
HETATM   32  C   UNL     1     -10.382   5.225  67.781  1.00  0.00    -0.196 A  
HETATM   33  C   UNL     1      -8.781   3.711  72.598  1.00  0.00    -0.102 A  
HETATM   34  C   UNL     1     -10.495   7.935  68.569  1.00  0.00    -0.202 A  
HETATM   35  C   UNL     1      -9.451   5.620  71.320  1.00  0.00    -0.179 A  
HETATM   36  C   UNL     1     -10.705   6.218  66.855  1.00  0.00    -0.411 A  
HETATM   37  C   UNL     1      -8.902   5.103  72.489  1.00  0.00    -0.129 A  
HETATM   38  C   UNL     1     -10.763   7.561  67.245  1.00  0.00    -0.365 A  
ENDBRANCH   2  26
TORSDOF 9
ENDMDL
MODEL       50
REMARK 921   NORMALIZED FREE ENERGY PREDICTED BY IDOCK:   -6.47 KCAL/MOL
REMARK 922        TOTAL FREE ENERGY PREDICTED BY IDOCK:  -11.64 KCAL/MOL
REMARK 923 INTER-LIGAND FREE ENERGY PREDICTED BY IDOCK:   -9.51 KCAL/MOL
REMARK 924 INTRA-LIGAND FREE ENERGY PREDICTED BY IDOCK:   -2.13 KCAL/MOL
REMARK 927      BINDING AFFINITY PREDICTED BY RF-SCORE:    0.00 PKD
ROOT
HETATM    1  C   UNL     1     -10.369   5.051  72.422  1.00  0.00    -0.206 C  
HETATM    2  N   UNL     1     -10.382   6.536  72.075  1.00  0.00    -0.198 N  
HETATM    3  C   UNL     1     -10.716   7.339  73.329  1.00  0.00    -0.383 C  
ENDROOT
BRANCH   2   4
HETATM    4  C   UNL     1      -9.031   6.924  71.511  1.00  0.00    -0.140 C  
BRANCH   4   5
HETATM    5  C   UNL     1      -8.432   8.234  72.024  1.00  0.00    -0.227 C  
BRANCH   5   6
HETATM    6  C   UNL     1      -8.278   9.212  70.851  1.00  0.00    -0.220 C  
BRANCH   6   7
HETATM    7  C   UNL     1      -7.403   8.681  69.701  1.00  0.00    -0.056 C  
BRANCH   7   8
HETATM    8  C   UNL     1      -7.184   9.691  68.564  1.00  0.00    -0.070 C  
BRANCH   8   9
HETATM    9  C   UNL     1      -8.261  10.772  68.659  1.00  0.00    -0.139 C  
BRANCH   9  10
HETATM   10  N   UNL     1      -8.519  11.554  67.381  1.00  0.00    -0.142 N  
HETATM   11  C   UNL     1      -7.761  12.877  67.381  1.00  0.00    -0.159 C  
HETATM   12  C   UNL     1      -8.062  10.793  66.146  1.00  0.00    -0.160 C  
BRANCH  10  13
HETATM   13  C   UNL     1     -10.101  11.819  67.307  1.00  0.00    -0.192 C  
HETATM   14  C   UNL     1     -10.649  11.960  65.874  1.00  0.00    -0.306 A  
HETATM   15  C   UNL     1     -11.219  13.240  65.695  1.00  0.00    -0.304 A  
HETATM   16  C   UNL     1     -11.184  13.958  66.947  1.00  0.00    -0.324 A  
HETATM   17  C   UNL     1     -11.734  13.638  64.469  1.00  0.00    -0.429 A  
HETATM   18  C   UNL     1     -10.560  13.158  67.930  1.00  0.00    -0.243 A  
HETATM   19  C   UNL     1     -11.686  12.740  63.404  1.00  0.00    -0.556 A  
HETATM   20  C   UNL     1     -11.157  11.455  63.582  1.00  0.00    -0.411 A  
HETATM   21  C   UNL     1     -10.487  13.616  69.242  1.00  0.00     0.072 A  
HETATM   22  C   UNL     1     -10.989  14.890  69.544  1.00  0.00    -0.289 A  
HETATM   23  C   UNL     1     -10.656  11.050  64.823  1.00  0.00    -0.350 A  
HETATM   24  C   UNL     1     -11.595  15.677  68.560  1.00  0.00    -0.378 A  
HETATM   25  C   UNL     1     -11.705  15.210  67.250  1.00  0.00    -0.169 A  
ENDBRANCH  10  13
ENDBRANCH   9  10
ENDBRANCH   8   9
ENDBRANCH   7   8
ENDBRANCH   6   7
ENDBRANCH   5   6
ENDBRANCH   4   5
ENDBRANCH   2   4
BRANCH   2  26
HETATM   26  C   UNL     1     -11.481   6.838  70.935  1.00  0.00    -0.334 C  
HETATM   27  C   UNL     1     -11.836  10.352  69.777  1.00  0.00    -0.278 A  
HETATM   28  C   UNL     1     -10.938   6.789  69.490  1.00  0.00    -0.325 A  
HETATM   29  C   UNL     1     -12.471  10.987  70.839  1.00  0.00    -0.509 A  
HETATM   30  C   UNL     1     -11.000   8.082  68.918  1.00  0.00     0.114 A  
HETATM   31  C   UNL     1     -11.617   8.986  69.862  1.00  0.00     0.165 A  
HETATM   32  C   UNL     1     -10.580   8.317  67.617  1.00  0.00    -0.264 A  
HETATM   33  C   UNL     1     -12.947  10.259  71.939  1.00  0.00    -0.554 A  
HETATM   34  C   UNL     1     -10.493   5.718  68.719  1.00  0.00    -0.312 A  
HETATM   35  C   UNL     1     -12.024   8.261  71.002  1.00  0.00    -0.260 A  
HETATM   36  C   UNL     1     -10.085   7.248  66.869  1.00  0.00    -0.317 A  
HETATM   37  C   UNL     1     -12.763   8.872  72.010  1.00  0.00    -0.456 A  
HETATM   38  C   UNL     1     -10.041   5.960  67.415  1.00  0.00    -0.201 A  
ENDBRANCH   2  26
TORSDOF 9
ENDMDL
MODEL       51
REMARK 921   NORMALIZED FREE ENERGY PREDICTED BY IDOCK:   -6.46 KCAL/MOL
REMARK 922        TOTAL FREE ENERGY PREDICTED BY IDOCK:  -11.63 KCAL/MOL
REMARK 923 INTER-LIGAND FREE ENERGY PREDICTED BY IDOCK:  -10.02 KCAL/MOL
REMARK 924 INTRA-LIGAND FREE ENERGY PREDICTED BY IDOCK:   -1.62 KCAL/MOL
REMARK 927      BINDING AFFINITY PREDICTED BY RF-SCORE:    0.00 PKD
ROOT
HETATM    1  C   UNL     1      -9.264   9.288  70.280  1.00  0.00    -0.237 C  
HETATM    2  N   UNL     1     -10.233  10.046  69.379  1.00  0.00    -0.207 N  
HETATM    3  C   UNL     1     -11.383  10.586  70.224  1.00  0.00    -0.327 C  
ENDROOT
BRANCH   2   4
HETATM    4  C   UNL     1      -9.487  11.162  68.677  1.00  0.00    -0.193 C  
BRANCH   4   5
HETATM    5  C   UNL     1      -7.987  11.256  68.958  1.00  0.00    -0.062 C  
BRANCH   5   6
HETATM    6  C   UNL     1      -7.511  12.688  68.677  1.00  0.00    -0.094 C  
BRANCH   6   7
HETATM    7  C   UNL     1      -8.008  13.265  67.339  1.00  0.00    -0.175 C  
BRANCH   7   8
HETATM    8  C   UNL     1      -7.602  14.728  67.100  1.00  0.00    -0.114 C  
BRANCH   8   9
HETATM    9  C   UNL     1      -8.233  15.593  68.190  1.00  0.00    -0.144 C  
BRANCH   9  10
HETATM   10  N   UNL     1      -8.895  16.874  67.708  1.00  0.00    -0.215 N  
HETATM   11  C   UNL     1      -8.608  18.035  68.655  1.00  0.00    -0.264 C  
HETATM   12  C   UNL     1      -8.386  17.297  66.338  1.00  0.00    -0.280 C  
BRANCH  10  13
HETATM   13  C   UNL     1     -10.473  16.589  67.643  1.00  0.00    -0.305 C  
HETATM   14  C   UNL     1     -11.059  15.992  68.937  1.00  0.00    -0.331 A  
HETATM   15  C   UNL     1     -11.613  14.718  68.676  1.00  0.00    -0.345 A  
HETATM   16  C   UNL     1     -11.531  14.441  67.262  1.00  0.00    -0.377 A  
HETATM   17  C   UNL     1     -12.155  13.944  69.692  1.00  0.00    -0.404 A  
HETATM   18  C   UNL     1     -10.893  15.519  66.608  1.00  0.00    -0.285 A  
HETATM   19  C   UNL     1     -12.152  14.451  70.990  1.00  0.00    -0.417 A  
HETATM   20  C   UNL     1     -11.639  15.729  71.251  1.00  0.00    -0.499 A  
HETATM   21  C   UNL     1     -10.776  15.507  65.222  1.00  0.00    -0.440 A  
HETATM   22  C   UNL     1     -11.249  14.396  64.511  1.00  0.00    -0.314 A  
HETATM   23  C   UNL     1     -11.110  16.515  70.223  1.00  0.00    -0.171 A  
HETATM   24  C   UNL     1     -11.870  13.330  65.170  1.00  0.00    -0.377 A  
HETATM   25  C   UNL     1     -12.024  13.350  66.556  1.00  0.00    -0.452 A  
ENDBRANCH  10  13
ENDBRANCH   9  10
ENDBRANCH   8   9
ENDBRANCH   7   8
ENDBRANCH   6   7
ENDBRANCH   5   6
ENDBRANCH   4   5
ENDBRANCH   2   4
BRANCH   2  26
HETATM   26  C   UNL     1     -10.818   9.069  68.237  1.00  0.00    -0.017 C  
HETATM   27  C   UNL     1      -8.604   8.268  65.361  1.00  0.00    -0.176 A  
HETATM   28  C   UNL     1     -10.497   7.574  68.445  1.00  0.00    -0.212 A  
HETATM   29  C   UNL     1      -8.582   9.446  64.623  1.00  0.00    -0.209 A  
HETATM   30  C   UNL     1      -9.637   7.126  67.414  1.00  0.00    -0.168 A  
HETATM   31  C   UNL     1      -9.415   8.209  66.484  1.00  0.00    -0.286 A  
HETATM   32  C   UNL     1      -9.200   5.810  67.358  1.00  0.00    -0.109 A  
HETATM   33  C   UNL     1      -9.412  10.527  64.956  1.00  0.00    -0.296 A  
HETATM   34  C   UNL     1     -10.956   6.666  69.398  1.00  0.00    -0.361 A  
HETATM   35  C   UNL     1     -10.193   9.321  66.870  1.00  0.00    -0.327 A  
HETATM   36  C   UNL     1      -9.622   4.922  68.348  1.00  0.00    -0.201 A  
HETATM   37  C   UNL     1     -10.262  10.456  66.068  1.00  0.00    -0.295 A  
HETATM   38  C   UNL     1     -10.491   5.345  69.359  1.00  0.00    -0.331 A  
ENDBRANCH   2  26
TORSDOF 9
ENDMDL
MODEL       52
REMARK 921   NORMALIZED FREE ENERGY PREDICTED BY IDOCK:   -6.46 KCAL/MOL
REMARK 922        TOTAL FREE ENERGY PREDICTED BY IDOCK:  -11.62 KCAL/MOL
REMARK 923 INTER-LIGAND FREE ENERGY PREDICTED BY IDOCK:  -10.60 KCAL/MOL
REMARK 924 INTRA-LIGAND FREE ENERGY PREDICTED BY IDOCK:   -1.02 KCAL/MOL
REMARK 927      BINDING AFFINITY PREDICTED BY RF-SCORE:    0.00 PKD
ROOT
HETATM    1  C   UNL     1      -8.515   8.566  68.111  1.00  0.00    -0.134 C  
HETATM    2  N   UNL     1      -9.028   9.685  69.011  1.00  0.00    -0.141 N  
HETATM    3  C   UNL     1      -8.571   9.422  70.443  1.00  0.00    -0.230 C  
ENDROOT
BRANCH   2   4
HETATM    4  C   UNL     1      -8.510  11.011  68.497  1.00  0.00    -0.153 C  
BRANCH   4   5
HETATM    5  C   UNL     1      -7.391  10.946  67.458  1.00  0.00    -0.096 C  
BRANCH   5   6
HETATM    6  C   UNL     1      -6.415  12.106  67.693  1.00  0.00    -0.110 C  
BRANCH   6   7
HETATM    7  C   UNL     1      -6.495  12.719  69.103  1.00  0.00    -0.109 C  
BRANCH   7   8
HETATM    8  C   UNL     1      -6.178  14.222  69.151  1.00  0.00    -0.099 C  
BRANCH   8   9
HETATM    9  C   UNL     1      -6.631  14.857  67.836  1.00  0.00    -0.158 C  
BRANCH   9  10
HETATM   10  N   UNL     1      -6.987  16.333  67.910  1.00  0.00    -0.131 N  
HETATM   11  C   UNL     1      -6.356  16.993  69.132  1.00  0.00    -0.211 C  
HETATM   12  C   UNL     1      -6.487  17.102  66.696  1.00  0.00    -0.232 C  
BRANCH  10  13
HETATM   13  C   UNL     1      -8.588  16.423  67.995  1.00  0.00    -0.185 C  
HETATM   14  C   UNL     1      -9.323  15.552  66.958  1.00  0.00    -0.239 A  
HETATM   15  C   UNL     1     -10.106  16.365  66.108  1.00  0.00    -0.364 A  
HETATM   16  C   UNL     1     -10.032  17.735  66.556  1.00  0.00    -0.346 A  
HETATM   17  C   UNL     1     -10.824  15.825  65.051  1.00  0.00    -0.461 A  
HETATM   18  C   UNL     1      -9.173  17.818  67.676  1.00  0.00    -0.249 A  
HETATM   19  C   UNL     1     -10.766  14.448  64.841  1.00  0.00    -0.444 A  
HETATM   20  C   UNL     1     -10.022  13.630  65.701  1.00  0.00    -0.261 A  
HETATM   21  C   UNL     1      -9.013  19.036  68.328  1.00  0.00    -0.372 A  
HETATM   22  C   UNL     1      -9.670  20.167  67.823  1.00  0.00    -0.529 A  
HETATM   23  C   UNL     1      -9.315  14.174  66.777  1.00  0.00    -0.295 A  
HETATM   24  C   UNL     1     -10.510  20.075  66.708  1.00  0.00    -0.520 A  
HETATM   25  C   UNL     1     -10.704  18.850  66.070  1.00  0.00    -0.373 A  
ENDBRANCH  10  13
ENDBRANCH   9  10
ENDBRANCH   8   9
ENDBRANCH   7   8
ENDBRANCH   6   7
ENDBRANCH   5   6
ENDBRANCH   4   5
ENDBRANCH   2   4
BRANCH   2  26
HETATM   26  C   UNL     1     -10.639   9.749  68.964  1.00  0.00    -0.219 C  
HETATM   27  C   UNL     1     -12.482   8.904  72.080  1.00  0.00    -0.461 A  
HETATM   28  C   UNL     1     -11.240  11.104  69.397  1.00  0.00    -0.334 A  
HETATM   29  C   UNL     1     -12.341   7.525  72.183  1.00  0.00    -0.251 A  
HETATM   30  C   UNL     1     -11.971  10.936  70.597  1.00  0.00    -0.467 A  
HETATM   31  C   UNL     1     -11.960   9.538  70.964  1.00  0.00    -0.407 A  
HETATM   32  C   UNL     1     -12.624  12.001  71.200  1.00  0.00    -0.372 A  
HETATM   33  C   UNL     1     -11.751   6.776  71.153  1.00  0.00    -0.394 A  
HETATM   34  C   UNL     1     -11.213  12.352  68.778  1.00  0.00    -0.318 A  
HETATM   35  C   UNL     1     -11.295   8.800  69.961  1.00  0.00    -0.040 A  
HETATM   36  C   UNL     1     -12.547  13.260  70.602  1.00  0.00    -0.305 A  
HETATM   37  C   UNL     1     -11.257   7.410  70.005  1.00  0.00    -0.200 A  
HETATM   38  C   UNL     1     -11.847  13.435  69.403  1.00  0.00    -0.390 A  
ENDBRANCH   2  26
TORSDOF 9
ENDMDL
MODEL       53
REMARK 921   NORMALIZED FREE ENERGY PREDICTED BY IDOCK:   -6.46 KCAL/MOL
REMARK 922        TOTAL FREE ENERGY PREDICTED BY IDOCK:  -11.62 KCAL/MOL
REMARK 923 INTER-LIGAND FREE ENERGY PREDICTED BY IDOCK:   -8.37 KCAL/MOL
REMARK 924 INTRA-LIGAND FREE ENERGY PREDICTED BY IDOCK:   -3.25 KCAL/MOL
REMARK 927      BINDING AFFINITY PREDICTED BY RF-SCORE:    0.00 PKD
ROOT
HETATM    1  C   UNL     1     -11.331   5.209  72.954  1.00  0.00    -0.282 C  
HETATM    2  N   UNL     1     -10.697   6.415  72.270  1.00  0.00    -0.214 N  
HETATM    3  C   UNL     1     -10.657   7.583  73.252  1.00  0.00    -0.384 C  
ENDROOT
BRANCH   2   4
HETATM    4  C   UNL     1      -9.308   6.041  71.795  1.00  0.00    -0.148 C  
BRANCH   4   5
HETATM    5  C   UNL     1      -8.175   6.981  72.205  1.00  0.00    -0.102 C  
BRANCH   5   6
HETATM    6  C   UNL     1      -7.452   7.480  70.946  1.00  0.00    -0.073 C  
BRANCH   6   7
HETATM    7  C   UNL     1      -7.434   9.013  70.798  1.00  0.00    -0.121 C  
BRANCH   7   8
HETATM    8  C   UNL     1      -7.078   9.500  69.385  1.00  0.00    -0.055 C  
BRANCH   8   9
HETATM    9  C   UNL     1      -7.704  10.878  69.173  1.00  0.00    -0.127 C  
BRANCH   9  10
HETATM   10  N   UNL     1      -6.815  11.903  68.486  1.00  0.00    -0.070 N  
HETATM   11  C   UNL     1      -6.577  13.116  69.380  1.00  0.00    -0.065 C  
HETATM   12  C   UNL     1      -5.443  11.335  68.154  1.00  0.00    -0.042 C  
BRANCH  10  13
HETATM   13  C   UNL     1      -7.566  12.345  67.138  1.00  0.00    -0.104 C  
HETATM   14  C   UNL     1      -9.008  12.844  67.356  1.00  0.00    -0.199 A  
HETATM   15  C   UNL     1      -9.919  12.016  66.662  1.00  0.00    -0.219 A  
HETATM   16  C   UNL     1      -9.187  11.033  65.900  1.00  0.00    -0.220 A  
HETATM   17  C   UNL     1     -11.289  12.221  66.744  1.00  0.00    -0.395 A  
HETATM   18  C   UNL     1      -7.801  11.200  66.125  1.00  0.00    -0.072 A  
HETATM   19  C   UNL     1     -11.759  13.274  67.526  1.00  0.00    -0.410 A  
HETATM   20  C   UNL     1     -10.862  14.123  68.187  1.00  0.00    -0.258 A  
HETATM   21  C   UNL     1      -6.894  10.410  65.428  1.00  0.00    -0.120 A  
HETATM   22  C   UNL     1      -7.380   9.428  64.554  1.00  0.00    -0.105 A  
HETATM   23  C   UNL     1      -9.481  13.927  68.088  1.00  0.00    -0.207 A  
HETATM   24  C   UNL     1      -8.754   9.266  64.346  1.00  0.00    -0.211 A  
HETATM   25  C   UNL     1      -9.670  10.078  65.014  1.00  0.00    -0.386 A  
ENDBRANCH  10  13
ENDBRANCH   9  10
ENDBRANCH   8   9
ENDBRANCH   7   8
ENDBRANCH   6   7
ENDBRANCH   5   6
ENDBRANCH   4   5
ENDBRANCH   2   4
BRANCH   2  26
HETATM   26  C   UNL     1     -11.551   6.838  70.969  1.00  0.00    -0.339 C  
HETATM   27  C   UNL     1     -11.268  10.353  69.795  1.00  0.00    -0.353 A  
HETATM   28  C   UNL     1     -10.792   6.703  69.631  1.00  0.00    -0.336 A  
HETATM   29  C   UNL     1     -11.980  11.077  70.745  1.00  0.00    -0.436 A  
HETATM   30  C   UNL     1     -10.597   7.986  69.066  1.00  0.00    -0.169 A  
HETATM   31  C   UNL     1     -11.239   8.972  69.904  1.00  0.00    -0.092 A  
HETATM   32  C   UNL     1      -9.946   8.148  67.852  1.00  0.00    -0.225 A  
HETATM   33  C   UNL     1     -12.717  10.429  71.748  1.00  0.00    -0.525 A  
HETATM   34  C   UNL     1     -10.366   5.574  68.934  1.00  0.00    -0.289 A  
HETATM   35  C   UNL     1     -11.913   8.318  70.958  1.00  0.00    -0.260 A  
HETATM   36  C   UNL     1      -9.475   7.016  67.187  1.00  0.00    -0.176 A  
HETATM   37  C   UNL     1     -12.722   9.031  71.837  1.00  0.00    -0.450 A  
HETATM   38  C   UNL     1      -9.682   5.740  67.723  1.00  0.00    -0.130 A  
ENDBRANCH   2  26
TORSDOF 9
ENDMDL
MODEL       54
REMARK 921   NORMALIZED FREE ENERGY PREDICTED BY IDOCK:   -6.41 KCAL/MOL
REMARK 922        TOTAL FREE ENERGY PREDICTED BY IDOCK:  -11.55 KCAL/MOL
REMARK 923 INTER-LIGAND FREE ENERGY PREDICTED BY IDOCK:  -10.83 KCAL/MOL
REMARK 924 INTRA-LIGAND FREE ENERGY PREDICTED BY IDOCK:   -0.72 KCAL/MOL
REMARK 927      BINDING AFFINITY PREDICTED BY RF-SCORE:    0.00 PKD
ROOT
HETATM    1  C   UNL     1     -10.115   7.815  69.065  1.00  0.00    -0.196 C  
HETATM    2  N   UNL     1      -9.004   8.713  69.599  1.00  0.00    -0.143 N  
HETATM    3  C   UNL     1      -7.712   7.905  69.693  1.00  0.00    -0.103 C  
ENDROOT
BRANCH   2   4
HETATM    4  C   UNL     1      -8.848   9.906  68.681  1.00  0.00    -0.128 C  
BRANCH   4   5
HETATM    5  C   UNL     1      -8.576   9.598  67.208  1.00  0.00    -0.132 C  
BRANCH   5   6
HETATM    6  C   UNL     1      -9.432  10.524  66.333  1.00  0.00    -0.208 C  
BRANCH   6   7
HETATM    7  C   UNL     1     -10.784  10.908  66.960  1.00  0.00    -0.323 C  
BRANCH   7   8
HETATM    8  C   UNL     1     -11.475  12.099  66.276  1.00  0.00    -0.433 C  
BRANCH   8   9
HETATM    9  C   UNL     1     -10.415  13.149  65.941  1.00  0.00    -0.280 C  
BRANCH   9  10
HETATM   10  N   UNL     1     -10.876  14.595  66.031  1.00  0.00    -0.310 N  
HETATM   11  C   UNL     1     -11.687  14.994  64.802  1.00  0.00    -0.370 C  
HETATM   12  C   UNL     1     -11.771  14.834  67.237  1.00  0.00    -0.347 C  
BRANCH  10  13
HETATM   13  C   UNL     1      -9.554  15.500  66.141  1.00  0.00    -0.330 C  
HETATM   14  C   UNL     1      -8.569  15.044  67.235  1.00  0.00    -0.226 A  
HETATM   15  C   UNL     1      -8.401  16.067  68.195  1.00  0.00    -0.160 A  
HETATM   16  C   UNL     1      -9.135  17.238  67.779  1.00  0.00    -0.235 A  
HETATM   17  C   UNL     1      -7.604  15.884  69.316  1.00  0.00    -0.221 A  
HETATM   18  C   UNL     1      -9.809  16.965  66.566  1.00  0.00    -0.307 A  
HETATM   19  C   UNL     1      -6.958  14.660  69.480  1.00  0.00    -0.165 A  
HETATM   20  C   UNL     1      -7.089  13.653  68.515  1.00  0.00    -0.107 A  
HETATM   21  C   UNL     1     -10.519  17.979  65.933  1.00  0.00    -0.268 A  
HETATM   22  C   UNL     1     -10.592  19.239  66.543  1.00  0.00    -0.538 A  
HETATM   23  C   UNL     1      -7.877  13.847  67.376  1.00  0.00    -0.177 A  
HETATM   24  C   UNL     1      -9.930  19.495  67.748  1.00  0.00    -0.494 A  
HETATM   25  C   UNL     1      -9.186  18.494  68.372  1.00  0.00    -0.347 A  
ENDBRANCH  10  13
ENDBRANCH   9  10
ENDBRANCH   8   9
ENDBRANCH   7   8
ENDBRANCH   6   7
ENDBRANCH   5   6
ENDBRANCH   4   5
ENDBRANCH   2   4
BRANCH   2  26
HETATM   26  C   UNL     1      -9.391   9.279  71.059  1.00  0.00    -0.227 C  
HETATM   27  C   UNL     1     -12.867   8.718  72.252  1.00  0.00    -0.465 A  
HETATM   28  C   UNL     1      -9.210   8.265  72.209  1.00  0.00    -0.297 A  
HETATM   29  C   UNL     1     -13.624   9.600  71.489  1.00  0.00    -0.376 A  
HETATM   30  C   UNL     1     -10.473   7.943  72.760  1.00  0.00    -0.412 A  
HETATM   31  C   UNL     1     -11.489   8.730  72.100  1.00  0.00    -0.421 A  
HETATM   32  C   UNL     1     -10.594   7.057  73.820  1.00  0.00    -0.325 A  
HETATM   33  C   UNL     1     -13.013  10.533  70.638  1.00  0.00    -0.362 A  
HETATM   34  C   UNL     1      -8.057   7.722  72.772  1.00  0.00    -0.163 A  
HETATM   35  C   UNL     1     -10.873   9.613  71.186  1.00  0.00    -0.404 A  
HETATM   36  C   UNL     1      -9.438   6.475  74.343  1.00  0.00    -0.270 A  
HETATM   37  C   UNL     1     -11.618  10.574  70.511  1.00  0.00    -0.441 A  
HETATM   38  C   UNL     1      -8.181   6.803  73.823  1.00  0.00    -0.124 A  
ENDBRANCH   2  26
TORSDOF 9
ENDMDL
MODEL       55
REMARK 921   NORMALIZED FREE ENERGY PREDICTED BY IDOCK:   -6.41 KCAL/MOL
REMARK 922        TOTAL FREE ENERGY PREDICTED BY IDOCK:  -11.55 KCAL/MOL
REMARK 923 INTER-LIGAND FREE ENERGY PREDICTED BY IDOCK:   -9.76 KCAL/MOL
REMARK 924 INTRA-LIGAND FREE ENERGY PREDICTED BY IDOCK:   -1.79 KCAL/MOL
REMARK 927      BINDING AFFINITY PREDICTED BY RF-SCORE:    0.00 PKD
ROOT
HETATM    1  C   UNL     1     -12.512  12.284  64.891  1.00  0.00    -0.245 C  
HETATM    2  N   UNL     1     -11.648  12.797  66.038  1.00  0.00    -0.361 N  
HETATM    3  C   UNL     1     -12.103  14.204  66.415  1.00  0.00    -0.451 C  
ENDROOT
BRANCH   2   4
HETATM    4  C   UNL     1     -11.762  11.843  67.209  1.00  0.00    -0.247 C  
BRANCH   4   5
HETATM    5  C   UNL     1     -11.873  12.480  68.594  1.00  0.00    -0.340 C  
BRANCH   5   6
HETATM    6  C   UNL     1     -11.393  11.476  69.651  1.00  0.00    -0.329 C  
BRANCH   6   7
HETATM    7  C   UNL     1     -12.360  11.300  70.836  1.00  0.00    -0.490 C  
BRANCH   7   8
HETATM    8  C   UNL     1     -12.517   9.845  71.303  1.00  0.00    -0.479 C  
BRANCH   8   9
HETATM    9  C   UNL     1     -11.126   9.252  71.526  1.00  0.00    -0.373 C  
BRANCH   9  10
HETATM   10  N   UNL     1     -11.088   7.756  71.798  1.00  0.00    -0.239 N  
HETATM   11  C   UNL     1     -10.886   7.469  73.282  1.00  0.00    -0.355 C  
HETATM   12  C   UNL     1     -12.386   7.071  71.397  1.00  0.00    -0.377 C  
BRANCH  10  13
HETATM   13  C   UNL     1      -9.866   7.158  70.946  1.00  0.00    -0.181 C  
HETATM   14  C   UNL     1     -10.101   7.157  69.423  1.00  0.00    -0.178 A  
HETATM   15  C   UNL     1     -10.068   5.834  68.927  1.00  0.00    -0.242 A  
HETATM   16  C   UNL     1      -9.728   4.930  69.999  1.00  0.00    -0.285 A  
HETATM   17  C   UNL     1     -10.310   5.557  67.589  1.00  0.00    -0.256 A  
HETATM   18  C   UNL     1      -9.574   5.660  71.200  1.00  0.00    -0.208 A  
HETATM   19  C   UNL     1     -10.583   6.618  66.728  1.00  0.00    -0.315 A  
HETATM   20  C   UNL     1     -10.581   7.936  67.204  1.00  0.00    -0.383 A  
HETATM   21  C   UNL     1      -9.165   5.002  72.355  1.00  0.00    -0.150 A  
HETATM   22  C   UNL     1      -8.966   3.616  72.312  1.00  0.00    -0.133 A  
HETATM   23  C   UNL     1     -10.318   8.215  68.548  1.00  0.00    -0.230 A  
HETATM   24  C   UNL     1      -9.131   2.902  71.120  1.00  0.00    -0.182 A  
HETATM   25  C   UNL     1      -9.506   3.559  69.949  1.00  0.00    -0.254 A  
ENDBRANCH  10  13
ENDBRANCH   9  10
ENDBRANCH   8   9
ENDBRANCH   7   8
ENDBRANCH   6   7
ENDBRANCH   5   6
ENDBRANCH   4   5
ENDBRANCH   2   4
BRANCH   2  26
HETATM   26  C   UNL     1     -10.096  12.835  65.600  1.00  0.00    -0.270 C  
HETATM   27  C   UNL     1      -7.547  12.783  68.305  1.00  0.00    -0.134 A  
HETATM   28  C   UNL     1      -9.441  11.446  65.440  1.00  0.00    -0.240 A  
HETATM   29  C   UNL     1      -7.628  14.055  68.860  1.00  0.00    -0.080 A  
HETATM   30  C   UNL     1      -8.442  11.278  66.429  1.00  0.00    -0.169 A  
HETATM   31  C   UNL     1      -8.334  12.494  67.201  1.00  0.00    -0.179 A  
HETATM   32  C   UNL     1      -7.689  10.115  66.503  1.00  0.00    -0.108 A  
HETATM   33  C   UNL     1      -8.428  15.051  68.279  1.00  0.00    -0.147 A  
HETATM   34  C   UNL     1      -9.642  10.447  64.490  1.00  0.00    -0.369 A  
HETATM   35  C   UNL     1      -9.201  13.467  66.660  1.00  0.00    -0.223 A  
HETATM   36  C   UNL     1      -7.934   9.097  65.580  1.00  0.00    -0.107 A  
HETATM   37  C   UNL     1      -9.195  14.773  67.139  1.00  0.00    -0.233 A  
HETATM   38  C   UNL     1      -8.902   9.260  64.583  1.00  0.00    -0.218 A  
ENDBRANCH   2  26
TORSDOF 9
ENDMDL
MODEL       56
REMARK 921   NORMALIZED FREE ENERGY PREDICTED BY IDOCK:   -6.41 KCAL/MOL
REMARK 922        TOTAL FREE ENERGY PREDICTED BY IDOCK:  -11.54 KCAL/MOL
REMARK 923 INTER-LIGAND FREE ENERGY PREDICTED BY IDOCK:   -9.27 KCAL/MOL
REMARK 924 INTRA-LIGAND FREE ENERGY PREDICTED BY IDOCK:   -2.27 KCAL/MOL
REMARK 927      BINDING AFFINITY PREDICTED BY RF-SCORE:    0.00 PKD
ROOT
HETATM    1  C   UNL     1     -10.176  14.498  65.681  1.00  0.00    -0.357 C  
HETATM    2  N   UNL     1     -10.425  13.181  66.409  1.00  0.00    -0.278 N  
HETATM    3  C   UNL     1     -11.923  12.888  66.413  1.00  0.00    -0.395 C  
ENDROOT
BRANCH   2   4
HETATM    4  C   UNL     1      -9.645  12.081  65.720  1.00  0.00    -0.213 C  
BRANCH   4   5
HETATM    5  C   UNL     1     -10.390  10.767  65.484  1.00  0.00    -0.308 C  
BRANCH   5   6
HETATM    6  C   UNL     1      -9.695   9.645  66.268  1.00  0.00    -0.303 C  
BRANCH   6   7
HETATM    7  C   UNL     1     -10.658   8.589  66.842  1.00  0.00    -0.279 C  
BRANCH   7   8
HETATM    8  C   UNL     1     -10.000   7.230  67.122  1.00  0.00    -0.279 C  
BRANCH   8   9
HETATM    9  C   UNL     1     -10.642   6.627  68.372  1.00  0.00    -0.242 C  
BRANCH   9  10
HETATM   10  N   UNL     1      -9.674   6.035  69.385  1.00  0.00    -0.139 N  
HETATM   11  C   UNL     1     -10.285   4.833  70.096  1.00  0.00    -0.189 C  
HETATM   12  C   UNL     1      -8.392   5.545  68.729  1.00  0.00    -0.102 C  
BRANCH  10  13
HETATM   13  C   UNL     1      -9.339   7.195  70.443  1.00  0.00    -0.159 C  
HETATM   14  C   UNL     1     -10.553   8.061  70.834  1.00  0.00    -0.233 A  
HETATM   15  C   UNL     1     -10.326   9.407  70.472  1.00  0.00    -0.341 A  
HETATM   16  C   UNL     1      -8.991   9.542  69.942  1.00  0.00    -0.231 A  
HETATM   17  C   UNL     1     -11.295  10.381  70.666  1.00  0.00    -0.411 A  
HETATM   18  C   UNL     1      -8.361   8.276  69.928  1.00  0.00    -0.125 A  
HETATM   19  C   UNL     1     -12.510  10.007  71.238  1.00  0.00    -0.494 A  
HETATM   20  C   UNL     1     -12.729   8.681  71.634  1.00  0.00    -0.379 A  
HETATM   21  C   UNL     1      -7.032   8.177  69.530  1.00  0.00    -0.050 A  
HETATM   22  C   UNL     1      -6.363   9.332  69.102  1.00  0.00    -0.042 A  
HETATM   23  C   UNL     1     -11.744   7.706  71.456  1.00  0.00    -0.310 A  
HETATM   24  C   UNL     1      -7.000  10.577  69.111  1.00  0.00    -0.080 A  
HETATM   25  C   UNL     1      -8.322  10.692  69.542  1.00  0.00    -0.013 A  
ENDBRANCH  10  13
ENDBRANCH   9  10
ENDBRANCH   8   9
ENDBRANCH   7   8
ENDBRANCH   6   7
ENDBRANCH   5   6
ENDBRANCH   4   5
ENDBRANCH   2   4
BRANCH   2  26
HETATM   26  C   UNL     1      -9.890  13.269  67.928  1.00  0.00    -0.234 C  
HETATM   27  C   UNL     1      -8.016  16.323  68.916  1.00  0.00    -0.230 A  
HETATM   28  C   UNL     1     -10.853  13.972  68.908  1.00  0.00    -0.278 A  
HETATM   29  C   UNL     1      -6.788  16.177  68.280  1.00  0.00    -0.126 A  
HETATM   30  C   UNL     1     -10.268  15.177  69.364  1.00  0.00    -0.244 A  
HETATM   31  C   UNL     1      -8.941  15.296  68.807  1.00  0.00    -0.200 A  
HETATM   32  C   UNL     1     -10.924  16.002  70.266  1.00  0.00    -0.360 A  
HETATM   33  C   UNL     1      -6.456  14.992  67.606  1.00  0.00    -0.175 A  
HETATM   34  C   UNL     1     -12.091  13.577  69.411  1.00  0.00    -0.340 A  
HETATM   35  C   UNL     1      -8.642  14.134  68.063  1.00  0.00    -0.172 A  
HETATM   36  C   UNL     1     -12.188  15.625  70.723  1.00  0.00    -0.463 A  
HETATM   37  C   UNL     1      -7.374  13.936  67.528  1.00  0.00    -0.181 A  
HETATM   38  C   UNL     1     -12.767  14.424  70.299  1.00  0.00    -0.318 A  
ENDBRANCH   2  26
TORSDOF 9
ENDMDL
MODEL       57
REMARK 921   NORMALIZED FREE ENERGY PREDICTED BY IDOCK:   -6.40 KCAL/MOL
REMARK 922        TOTAL FREE ENERGY PREDICTED BY IDOCK:  -11.54 KCAL/MOL
REMARK 923 INTER-LIGAND FREE ENERGY PREDICTED BY IDOCK:  -10.28 KCAL/MOL
REMARK 924 INTRA-LIGAND FREE ENERGY PREDICTED BY IDOCK:   -1.26 KCAL/MOL
REMARK 927      BINDING AFFINITY PREDICTED BY RF-SCORE:    0.00 PKD
ROOT
HETATM    1  C   UNL     1      -9.430  11.809  68.683  1.00  0.00    -0.100 C  
HETATM    2  N   UNL     1     -10.789  11.118  68.677  1.00  0.00    -0.194 N  
HETATM    3  C   UNL     1     -10.754   9.956  67.689  1.00  0.00    -0.281 C  
ENDROOT
BRANCH   2   4
HETATM    4  C   UNL     1     -11.110  10.646  70.080  1.00  0.00    -0.289 C  
BRANCH   4   5
HETATM    5  C   UNL     1     -10.640   9.239  70.446  1.00  0.00    -0.298 C  
BRANCH   5   6
HETATM    6  C   UNL     1     -11.832   8.432  70.979  1.00  0.00    -0.278 C  
BRANCH   6   7
HETATM    7  C   UNL     1     -11.708   6.912  70.763  1.00  0.00    -0.417 C  
BRANCH   7   8
HETATM    8  C   UNL     1     -11.036   6.521  69.438  1.00  0.00    -0.407 C  
BRANCH   8   9
HETATM    9  C   UNL     1     -10.495   5.097  69.568  1.00  0.00    -0.163 C  
BRANCH   9  10
HETATM   10  N   UNL     1      -8.981   4.965  69.514  1.00  0.00    -0.090 N  
HETATM   11  C   UNL     1      -8.559   3.807  68.616  1.00  0.00    -0.094 C  
HETATM   12  C   UNL     1      -8.320   6.213  68.950  1.00  0.00    -0.115 C  
BRANCH  10  13
HETATM   13  C   UNL     1      -8.481   4.712  71.019  1.00  0.00    -0.106 C  
HETATM   14  C   UNL     1      -9.389   3.772  71.835  1.00  0.00    -0.194 A  
HETATM   15  C   UNL     1      -9.911   4.454  72.957  1.00  0.00    -0.195 A  
HETATM   16  C   UNL     1      -9.342   5.779  73.019  1.00  0.00    -0.143 A  
HETATM   17  C   UNL     1     -10.805   3.841  73.823  1.00  0.00    -0.320 A  
HETATM   18  C   UNL     1      -8.477   5.971  71.917  1.00  0.00    -0.133 A  
HETATM   19  C   UNL     1     -11.181   2.523  73.570  1.00  0.00    -0.311 A  
HETATM   20  C   UNL     1     -10.639   1.828  72.481  1.00  0.00    -0.211 A  
HETATM   21  C   UNL     1      -7.751   7.153  71.814  1.00  0.00    -0.092 A  
HETATM   22  C   UNL     1      -7.937   8.150  72.782  1.00  0.00    -0.209 A  
HETATM   23  C   UNL     1      -9.724   2.440  71.621  1.00  0.00    -0.222 A  
HETATM   24  C   UNL     1      -8.804   7.952  73.862  1.00  0.00    -0.315 A  
HETATM   25  C   UNL     1      -9.509   6.756  73.992  1.00  0.00    -0.255 A  
ENDBRANCH  10  13
ENDBRANCH   9  10
ENDBRANCH   8   9
ENDBRANCH   7   8
ENDBRANCH   6   7
ENDBRANCH   5   6
ENDBRANCH   4   5
ENDBRANCH   2   4
BRANCH   2  26
HETATM   26  C   UNL     1     -11.945  12.156  68.244  1.00  0.00    -0.187 C  
HETATM   27  C   UNL     1     -11.481  15.727  69.165  1.00  0.00    -0.383 A  
HETATM   28  C   UNL     1     -11.713  12.844  66.882  1.00  0.00    -0.445 A  
HETATM   29  C   UNL     1     -11.701  15.745  70.538  1.00  0.00    -0.400 A  
HETATM   30  C   UNL     1     -11.504  14.230  67.081  1.00  0.00    -0.377 A  
HETATM   31  C   UNL     1     -11.652  14.531  68.486  1.00  0.00    -0.344 A  
HETATM   32  C   UNL     1     -11.281  15.087  66.013  1.00  0.00    -0.310 A  
HETATM   33  C   UNL     1     -12.157  14.604  71.215  1.00  0.00    -0.410 A  
HETATM   34  C   UNL     1     -11.743  12.334  65.586  1.00  0.00    -0.440 A  
HETATM   35  C   UNL     1     -12.034  13.360  69.175  1.00  0.00    -0.363 A  
HETATM   36  C   UNL     1     -11.259  14.558  64.722  1.00  0.00    -0.395 A  
HETATM   37  C   UNL     1     -12.369  13.403  70.525  1.00  0.00    -0.401 A  
HETATM   38  C   UNL     1     -11.487  13.194  64.510  1.00  0.00    -0.390 A  
ENDBRANCH   2  26
TORSDOF 9
ENDMDL
MODEL       58
REMARK 921   NORMALIZED FREE ENERGY PREDICTED BY IDOCK:   -6.40 KCAL/MOL
REMARK 922        TOTAL FREE ENERGY PREDICTED BY IDOCK:  -11.53 KCAL/MOL
REMARK 923 INTER-LIGAND FREE ENERGY PREDICTED BY IDOCK:   -9.39 KCAL/MOL
REMARK 924 INTRA-LIGAND FREE ENERGY PREDICTED BY IDOCK:   -2.14 KCAL/MOL
REMARK 927      BINDING AFFINITY PREDICTED BY RF-SCORE:    0.00 PKD
ROOT
HETATM    1  C   UNL     1     -12.390  13.556  69.607  1.00  0.00    -0.165 C  
HETATM    2  N   UNL     1     -11.199  14.436  69.243  1.00  0.00    -0.265 N  
HETATM    3  C   UNL     1     -10.882  15.359  70.417  1.00  0.00    -0.308 C  
ENDROOT
BRANCH   2   4
HETATM    4  C   UNL     1     -10.018  13.552  68.898  1.00  0.00     0.021 C  
BRANCH   4   5
HETATM    5  C   UNL     1     -10.316  12.063  68.716  1.00  0.00    -0.181 C  
BRANCH   5   6
HETATM    6  C   UNL     1      -9.324  11.470  67.706  1.00  0.00    -0.168 C  
BRANCH   6   7
HETATM    7  C   UNL     1      -9.978  10.954  66.411  1.00  0.00    -0.266 C  
BRANCH   7   8
HETATM    8  C   UNL     1      -9.616   9.503  66.063  1.00  0.00    -0.316 C  
BRANCH   8   9
HETATM    9  C   UNL     1     -10.345   8.573  67.033  1.00  0.00    -0.309 C  
BRANCH   9  10
HETATM   10  N   UNL     1      -9.810   7.152  67.106  1.00  0.00    -0.167 N  
HETATM   11  C   UNL     1     -10.911   6.131  66.841  1.00  0.00    -0.305 C  
HETATM   12  C   UNL     1      -8.725   6.898  66.069  1.00  0.00    -0.141 C  
BRANCH  10  13
HETATM   13  C   UNL     1      -9.213   6.953  68.583  1.00  0.00    -0.130 C  
HETATM   14  C   UNL     1     -10.232   7.199  69.713  1.00  0.00    -0.215 A  
HETATM   15  C   UNL     1      -9.802   8.267  70.531  1.00  0.00    -0.197 A  
HETATM   16  C   UNL     1      -8.500   8.710  70.094  1.00  0.00    -0.135 A  
HETATM   17  C   UNL     1     -10.575   8.723  71.589  1.00  0.00    -0.401 A  
HETATM   18  C   UNL     1      -8.099   7.954  68.969  1.00  0.00    -0.124 A  
HETATM   19  C   UNL     1     -11.796   8.100  71.840  1.00  0.00    -0.366 A  
HETATM   20  C   UNL     1     -12.213   7.016  71.056  1.00  0.00    -0.419 A  
HETATM   21  C   UNL     1      -6.835   8.155  68.424  1.00  0.00    -0.068 A  
HETATM   22  C   UNL     1      -6.008   9.143  68.975  1.00  0.00    -0.043 A  
HETATM   23  C   UNL     1     -11.424   6.545  70.002  1.00  0.00    -0.476 A  
HETATM   24  C   UNL     1      -6.420   9.892  70.082  1.00  0.00    -0.093 A  
HETATM   25  C   UNL     1      -7.671   9.673  70.657  1.00  0.00    -0.099 A  
ENDBRANCH  10  13
ENDBRANCH   9  10
ENDBRANCH   8   9
ENDBRANCH   7   8
ENDBRANCH   6   7
ENDBRANCH   5   6
ENDBRANCH   4   5
ENDBRANCH   2   4
BRANCH   2  26
HETATM   26  C   UNL     1     -11.532  15.322  67.938  1.00  0.00    -0.316 C  
HETATM   27  C   UNL     1      -8.668  16.463  65.860  1.00  0.00    -0.134 A  
HETATM   28  C   UNL     1     -11.695  14.509  66.635  1.00  0.00    -0.384 A  
HETATM   29  C   UNL     1      -8.077  17.458  66.631  1.00  0.00    -0.294 A  
HETATM   30  C   UNL     1     -10.649  14.836  65.739  1.00  0.00    -0.338 A  
HETATM   31  C   UNL     1      -9.831  15.870  66.328  1.00  0.00    -0.325 A  
HETATM   32  C   UNL     1     -10.565  14.251  64.484  1.00  0.00    -0.232 A  
HETATM   33  C   UNL     1      -8.675  17.909  67.817  1.00  0.00    -0.250 A  
HETATM   34  C   UNL     1     -12.690  13.620  66.234  1.00  0.00    -0.222 A  
HETATM   35  C   UNL     1     -10.395  16.264  67.560  1.00  0.00    -0.288 A  
HETATM   36  C   UNL     1     -11.536  13.320  64.111  1.00  0.00    -0.451 A  
HETATM   37  C   UNL     1      -9.871  17.339  68.273  1.00  0.00    -0.304 A  
HETATM   38  C   UNL     1     -12.589  13.006  64.978  1.00  0.00    -0.515 A  
ENDBRANCH   2  26
TORSDOF 9
ENDMDL
MODEL       59
REMARK 921   NORMALIZED FREE ENERGY PREDICTED BY IDOCK:   -6.38 KCAL/MOL
REMARK 922        TOTAL FREE ENERGY PREDICTED BY IDOCK:  -11.51 KCAL/MOL
REMARK 923 INTER-LIGAND FREE ENERGY PREDICTED BY IDOCK:   -9.18 KCAL/MOL
REMARK 924 INTRA-LIGAND FREE ENERGY PREDICTED BY IDOCK:   -2.32 KCAL/MOL
REMARK 927      BINDING AFFINITY PREDICTED BY RF-SCORE:    0.00 PKD
ROOT
HETATM    1  C   UNL     1      -9.349   5.322  68.316  1.00  0.00    -0.118 C  
HETATM    2  N   UNL     1      -8.704   6.204  69.380  1.00  0.00    -0.122 N  
HETATM    3  C   UNL     1      -7.204   5.925  69.418  1.00  0.00    -0.067 C  
ENDROOT
BRANCH   2   4
HETATM    4  C   UNL     1      -8.990   7.656  69.058  1.00  0.00    -0.137 C  
BRANCH   4   5
HETATM    5  C   UNL     1      -7.857   8.647  69.325  1.00  0.00    -0.101 C  
BRANCH   5   6
HETATM    6  C   UNL     1      -8.455  10.007  69.708  1.00  0.00    -0.189 C  
BRANCH   6   7
HETATM    7  C   UNL     1      -8.009  11.168  68.800  1.00  0.00    -0.144 C  
BRANCH   7   8
HETATM    8  C   UNL     1      -7.897  10.793  67.314  1.00  0.00    -0.113 C  
BRANCH   8   9
HETATM    9  C   UNL     1      -8.707  11.799  66.496  1.00  0.00    -0.173 C  
BRANCH   9  10
HETATM   10  N   UNL     1      -9.926  11.235  65.784  1.00  0.00    -0.227 N  
HETATM   11  C   UNL     1      -9.774  11.327  64.270  1.00  0.00    -0.256 C  
HETATM   12  C   UNL     1     -10.145   9.765  66.109  1.00  0.00    -0.245 C  
BRANCH  10  13
HETATM   13  C   UNL     1     -11.190  12.097  66.269  1.00  0.00    -0.334 C  
HETATM   14  C   UNL     1     -11.008  13.620  66.121  1.00  0.00    -0.285 A  
HETATM   15  C   UNL     1     -11.089  14.244  67.387  1.00  0.00    -0.314 A  
HETATM   16  C   UNL     1     -11.414  13.256  68.387  1.00  0.00    -0.349 A  
HETATM   17  C   UNL     1     -10.901  15.611  67.532  1.00  0.00    -0.316 A  
HETATM   18  C   UNL     1     -11.509  11.983  67.778  1.00  0.00    -0.394 A  
HETATM   19  C   UNL     1     -10.632  16.371  66.395  1.00  0.00    -0.236 A  
HETATM   20  C   UNL     1     -10.586  15.766  65.132  1.00  0.00    -0.436 A  
HETATM   21  C   UNL     1     -11.893  10.885  68.541  1.00  0.00    -0.236 A  
HETATM   22  C   UNL     1     -12.127  11.060  69.912  1.00  0.00    -0.435 A  
HETATM   23  C   UNL     1     -10.796  14.392  64.985  1.00  0.00    -0.420 A  
HETATM   24  C   UNL     1     -12.020  12.322  70.505  1.00  0.00    -0.296 A  
HETATM   25  C   UNL     1     -11.670  13.435  69.741  1.00  0.00    -0.355 A  
ENDBRANCH  10  13
ENDBRANCH   9  10
ENDBRANCH   8   9
ENDBRANCH   7   8
ENDBRANCH   6   7
ENDBRANCH   5   6
ENDBRANCH   4   5
ENDBRANCH   2   4
BRANCH   2  26
HETATM   26  C   UNL     1      -9.344   5.899  70.828  1.00  0.00    -0.160 C  
HETATM   27  C   UNL     1      -8.458   8.192  73.616  1.00  0.00    -0.308 A  
HETATM   28  C   UNL     1     -10.670   6.637  71.112  1.00  0.00    -0.274 A  
HETATM   29  C   UNL     1      -7.139   7.863  73.908  1.00  0.00    -0.156 A  
HETATM   30  C   UNL     1     -10.477   7.568  72.160  1.00  0.00    -0.255 A  
HETATM   31  C   UNL     1      -9.123   7.454  72.649  1.00  0.00    -0.181 A  
HETATM   32  C   UNL     1     -11.519   8.361  72.622  1.00  0.00    -0.359 A  
HETATM   33  C   UNL     1      -6.512   6.766  73.297  1.00  0.00    -0.063 A  
HETATM   34  C   UNL     1     -11.940   6.474  70.563  1.00  0.00    -0.322 A  
HETATM   35  C   UNL     1      -8.472   6.399  71.974  1.00  0.00    -0.115 A  
HETATM   36  C   UNL     1     -12.775   8.230  72.029  1.00  0.00    -0.376 A  
HETATM   37  C   UNL     1      -7.195   5.994  72.348  1.00  0.00    -0.086 A  
HETATM   38  C   UNL     1     -12.984   7.296  71.007  1.00  0.00    -0.233 A  
ENDBRANCH   2  26
TORSDOF 9
ENDMDL
MODEL       60
REMARK 921   NORMALIZED FREE ENERGY PREDICTED BY IDOCK:   -6.37 KCAL/MOL
REMARK 922        TOTAL FREE ENERGY PREDICTED BY IDOCK:  -11.49 KCAL/MOL
REMARK 923 INTER-LIGAND FREE ENERGY PREDICTED BY IDOCK:  -10.45 KCAL/MOL
REMARK 924 INTRA-LIGAND FREE ENERGY PREDICTED BY IDOCK:   -1.04 KCAL/MOL
REMARK 927      BINDING AFFINITY PREDICTED BY RF-SCORE:    0.00 PKD
ROOT
HETATM    1  C   UNL     1      -9.675  14.171  65.985  1.00  0.00    -0.274 C  
HETATM    2  N   UNL     1     -10.595  13.773  67.135  1.00  0.00    -0.275 N  
HETATM    3  C   UNL     1     -11.501  12.634  66.677  1.00  0.00    -0.351 C  
ENDROOT
BRANCH   2   4
HETATM    4  C   UNL     1      -9.751  13.368  68.326  1.00  0.00    -0.226 C  
BRANCH   4   5
HETATM    5  C   UNL     1      -8.237  13.359  68.113  1.00  0.00    -0.160 C  
BRANCH   5   6
HETATM    6  C   UNL     1      -7.711  11.929  68.295  1.00  0.00    -0.127 C  
BRANCH   6   7
HETATM    7  C   UNL     1      -8.322  10.905  67.321  1.00  0.00    -0.123 C  
BRANCH   7   8
HETATM    8  C   UNL     1      -7.802   9.472  67.513  1.00  0.00    -0.102 C  
BRANCH   8   9
HETATM    9  C   UNL     1      -7.365   9.304  68.968  1.00  0.00    -0.072 C  
BRANCH   9  10
HETATM   10  N   UNL     1      -8.113   8.241  69.758  1.00  0.00    -0.116 N  
HETATM   11  C   UNL     1      -9.208   7.595  68.915  1.00  0.00    -0.139 C  
HETATM   12  C   UNL     1      -7.195   7.116  70.211  1.00  0.00    -0.071 C  
BRANCH  10  13
HETATM   13  C   UNL     1      -8.754   8.973  71.035  1.00  0.00    -0.222 C  
HETATM   14  C   UNL     1      -8.942   8.055  72.258  1.00  0.00    -0.230 A  
HETATM   15  C   UNL     1     -10.311   7.975  72.599  1.00  0.00    -0.398 A  
HETATM   16  C   UNL     1     -11.069   8.859  71.746  1.00  0.00    -0.433 A  
HETATM   17  C   UNL     1     -10.752   7.164  73.635  1.00  0.00    -0.302 A  
HETATM   18  C   UNL     1     -10.198   9.487  70.827  1.00  0.00    -0.363 A  
HETATM   19  C   UNL     1      -9.811   6.423  74.348  1.00  0.00    -0.338 A  
HETATM   20  C   UNL     1      -8.448   6.525  74.040  1.00  0.00    -0.133 A  
HETATM   21  C   UNL     1     -10.699  10.447  69.954  1.00  0.00    -0.331 A  
HETATM   22  C   UNL     1     -12.072  10.730  69.972  1.00  0.00    -0.423 A  
HETATM   23  C   UNL     1      -8.004   7.358  73.009  1.00  0.00    -0.125 A  
HETATM   24  C   UNL     1     -12.926  10.095  70.879  1.00  0.00    -0.432 A  
HETATM   25  C   UNL     1     -12.426   9.157  71.782  1.00  0.00    -0.447 A  
ENDBRANCH  10  13
ENDBRANCH   9  10
ENDBRANCH   8   9
ENDBRANCH   7   8
ENDBRANCH   6   7
ENDBRANCH   5   6
ENDBRANCH   4   5
ENDBRANCH   2   4
BRANCH   2  26
HETATM   26  C   UNL     1     -11.498  15.028  67.593  1.00  0.00    -0.333 C  
HETATM   27  C   UNL     1     -11.202  16.161  71.121  1.00  0.00    -0.257 A  
HETATM   28  C   UNL     1     -10.802  16.400  67.465  1.00  0.00    -0.249 A  
HETATM   29  C   UNL     1     -11.857  15.169  71.842  1.00  0.00    -0.477 A  
HETATM   30  C   UNL     1     -10.609  16.954  68.753  1.00  0.00    -0.355 A  
HETATM   31  C   UNL     1     -11.194  16.074  69.738  1.00  0.00    -0.344 A  
HETATM   32  C   UNL     1     -10.010  18.194  68.923  1.00  0.00    -0.352 A  
HETATM   33  C   UNL     1     -12.560  14.143  71.192  1.00  0.00    -0.439 A  
HETATM   34  C   UNL     1     -10.430  17.132  66.340  1.00  0.00    -0.255 A  
HETATM   35  C   UNL     1     -11.833  15.000  69.080  1.00  0.00    -0.330 A  
HETATM   36  C   UNL     1      -9.591  18.897  67.793  1.00  0.00    -0.357 A  
HETATM   37  C   UNL     1     -12.588  14.075  69.793  1.00  0.00    -0.128 A  
HETATM   38  C   UNL     1      -9.797  18.371  66.513  1.00  0.00    -0.368 A  
ENDBRANCH   2  26
TORSDOF 9
ENDMDL
MODEL       61
REMARK 921   NORMALIZED FREE ENERGY PREDICTED BY IDOCK:   -6.37 KCAL/MOL
REMARK 922        TOTAL FREE ENERGY PREDICTED BY IDOCK:  -11.49 KCAL/MOL
REMARK 923 INTER-LIGAND FREE ENERGY PREDICTED BY IDOCK:  -10.62 KCAL/MOL
REMARK 924 INTRA-LIGAND FREE ENERGY PREDICTED BY IDOCK:   -0.87 KCAL/MOL
REMARK 927      BINDING AFFINITY PREDICTED BY RF-SCORE:    0.00 PKD
ROOT
HETATM    1  C   UNL     1     -10.441  13.865  64.662  1.00  0.00    -0.396 C  
HETATM    2  N   UNL     1     -11.168  13.476  65.945  1.00  0.00    -0.299 N  
HETATM    3  C   UNL     1     -12.580  14.056  65.914  1.00  0.00    -0.449 C  
ENDROOT
BRANCH   2   4
HETATM    4  C   UNL     1     -11.190  11.967  66.064  1.00  0.00    -0.324 C  
BRANCH   4   5
HETATM    5  C   UNL     1      -9.830  11.271  66.128  1.00  0.00    -0.262 C  
BRANCH   5   6
HETATM    6  C   UNL     1      -9.774  10.387  67.381  1.00  0.00    -0.191 C  
BRANCH   6   7
HETATM    7  C   UNL     1      -8.350  10.146  67.917  1.00  0.00    -0.117 C  
BRANCH   7   8
HETATM    8  C   UNL     1      -8.042   8.675  68.234  1.00  0.00    -0.118 C  
BRANCH   8   9
HETATM    9  C   UNL     1      -9.364   7.918  68.366  1.00  0.00    -0.140 C  
BRANCH   9  10
HETATM   10  N   UNL     1      -9.297   6.615  69.147  1.00  0.00    -0.135 N  
HETATM   11  C   UNL     1     -10.432   5.676  68.754  1.00  0.00    -0.219 C  
HETATM   12  C   UNL     1      -8.002   5.861  68.888  1.00  0.00    -0.102 C  
BRANCH  10  13
HETATM   13  C   UNL     1      -9.407   6.998  70.703  1.00  0.00    -0.162 C  
HETATM   14  C   UNL     1      -9.727   5.804  71.623  1.00  0.00    -0.192 A  
HETATM   15  C   UNL     1     -10.954   6.020  72.290  1.00  0.00    -0.310 A  
HETATM   16  C   UNL     1     -11.453   7.333  71.960  1.00  0.00    -0.305 A  
HETATM   17  C   UNL     1     -11.495   5.063  73.137  1.00  0.00    -0.362 A  
HETATM   18  C   UNL     1     -10.568   7.958  71.051  1.00  0.00    -0.232 A  
HETATM   19  C   UNL     1     -10.797   3.872  73.328  1.00  0.00    -0.297 A  
HETATM   20  C   UNL     1      -9.562   3.665  72.700  1.00  0.00    -0.188 A  
HETATM   21  C   UNL     1     -10.807   9.269  70.653  1.00  0.00    -0.339 A  
HETATM   22  C   UNL     1     -11.954   9.923  71.126  1.00  0.00    -0.473 A  
HETATM   23  C   UNL     1      -9.009   4.638  71.862  1.00  0.00    -0.150 A  
HETATM   24  C   UNL     1     -12.827   9.291  72.017  1.00  0.00    -0.495 A  
HETATM   25  C   UNL     1     -12.576   7.989  72.449  1.00  0.00    -0.218 A  
ENDBRANCH  10  13
ENDBRANCH   9  10
ENDBRANCH   8   9
ENDBRANCH   7   8
ENDBRANCH   6   7
ENDBRANCH   5   6
ENDBRANCH   4   5
ENDBRANCH   2   4
BRANCH   2  26
HETATM   26  C   UNL     1     -10.381  14.047  67.232  1.00  0.00    -0.264 C  
HETATM   27  C   UNL     1     -10.652  17.687  67.935  1.00  0.00    -0.390 A  
HETATM   28  C   UNL     1     -11.219  14.094  68.528  1.00  0.00    -0.285 A  
HETATM   29  C   UNL     1      -9.869  18.274  66.947  1.00  0.00    -0.335 A  
HETATM   30  C   UNL     1     -11.417  15.441  68.914  1.00  0.00    -0.354 A  
HETATM   31  C   UNL     1     -10.705  16.303  67.999  1.00  0.00    -0.331 A  
HETATM   32  C   UNL     1     -12.134  15.767  70.057  1.00  0.00    -0.344 A  
HETATM   33  C   UNL     1      -9.091  17.493  66.079  1.00  0.00    -0.060 A  
HETATM   34  C   UNL     1     -11.710  13.070  69.334  1.00  0.00    -0.386 A  
HETATM   35  C   UNL     1      -9.986  15.511  67.078  1.00  0.00    -0.240 A  
HETATM   36  C   UNL     1     -12.668  14.735  70.830  1.00  0.00    -0.422 A  
HETATM   37  C   UNL     1      -9.112  16.094  66.167  1.00  0.00    -0.382 A  
HETATM   38  C   UNL     1     -12.459  13.398  70.472  1.00  0.00    -0.350 A  
ENDBRANCH   2  26
TORSDOF 9
ENDMDL
MODEL       62
REMARK 921   NORMALIZED FREE ENERGY PREDICTED BY IDOCK:   -6.36 KCAL/MOL
REMARK 922        TOTAL FREE ENERGY PREDICTED BY IDOCK:  -11.48 KCAL/MOL
REMARK 923 INTER-LIGAND FREE ENERGY PREDICTED BY IDOCK:  -10.13 KCAL/MOL
REMARK 924 INTRA-LIGAND FREE ENERGY PREDICTED BY IDOCK:   -1.35 KCAL/MOL
REMARK 927      BINDING AFFINITY PREDICTED BY RF-SCORE:    0.00 PKD
ROOT
HETATM    1  C   UNL     1     -10.411   6.732  72.540  1.00  0.00    -0.209 C  
HETATM    2  N   UNL     1     -10.797   7.486  71.272  1.00  0.00    -0.233 N  
HETATM    3  C   UNL     1     -11.941   6.749  70.582  1.00  0.00    -0.362 C  
ENDROOT
BRANCH   2   4
HETATM    4  C   UNL     1     -11.189   8.902  71.638  1.00  0.00    -0.345 C  
BRANCH   4   5
HETATM    5  C   UNL     1     -12.675   9.150  71.896  1.00  0.00    -0.464 C  
BRANCH   5   6
HETATM    6  C   UNL     1     -13.147  10.328  71.033  1.00  0.00    -0.458 C  
BRANCH   6   7
HETATM    7  C   UNL     1     -12.020  11.286  70.606  1.00  0.00    -0.435 C  
BRANCH   7   8
HETATM    8  C   UNL     1     -12.407  12.772  70.666  1.00  0.00    -0.381 C  
BRANCH   8   9
HETATM    9  C   UNL     1     -11.869  13.466  69.414  1.00  0.00    -0.335 C  
BRANCH   9  10
HETATM   10  N   UNL     1     -11.494  14.929  69.587  1.00  0.00    -0.277 N  
HETATM   11  C   UNL     1     -12.341  15.593  70.667  1.00  0.00    -0.413 C  
HETATM   12  C   UNL     1     -10.042  15.099  70.010  1.00  0.00    -0.081 C  
BRANCH  10  13
HETATM   13  C   UNL     1     -11.739  15.644  68.171  1.00  0.00    -0.199 C  
HETATM   14  C   UNL     1     -11.639  14.696  66.960  1.00  0.00    -0.385 A  
HETATM   15  C   UNL     1     -10.595  15.112  66.104  1.00  0.00    -0.318 A  
HETATM   16  C   UNL     1     -10.032  16.345  66.599  1.00  0.00    -0.281 A  
HETATM   17  C   UNL     1     -10.261  14.389  64.967  1.00  0.00    -0.406 A  
HETATM   18  C   UNL     1     -10.686  16.713  67.796  1.00  0.00    -0.327 A  
HETATM   19  C   UNL     1     -10.986  13.234  64.676  1.00  0.00    -0.384 A  
HETATM   20  C   UNL     1     -12.046  12.836  65.500  1.00  0.00    -0.517 A  
HETATM   21  C   UNL     1     -10.361  17.917  68.413  1.00  0.00    -0.380 A  
HETATM   22  C   UNL     1      -9.351  18.713  67.856  1.00  0.00    -0.323 A  
HETATM   23  C   UNL     1     -12.393  13.576  66.634  1.00  0.00    -0.351 A  
HETATM   24  C   UNL     1      -8.704  18.334  66.675  1.00  0.00    -0.289 A  
HETATM   25  C   UNL     1      -9.048  17.146  66.031  1.00  0.00    -0.140 A  
ENDBRANCH  10  13
ENDBRANCH   9  10
ENDBRANCH   8   9
ENDBRANCH   7   8
ENDBRANCH   6   7
ENDBRANCH   5   6
ENDBRANCH   4   5
ENDBRANCH   2   4
BRANCH   2  26
HETATM   26  C   UNL     1      -9.537   7.581  70.270  1.00  0.00    -0.165 C  
HETATM   27  C   UNL     1      -8.845  10.873  68.689  1.00  0.00    -0.158 A  
HETATM   28  C   UNL     1      -8.217   8.023  70.938  1.00  0.00    -0.103 A  
HETATM   29  C   UNL     1      -9.859  11.007  67.747  1.00  0.00    -0.190 A  
HETATM   30  C   UNL     1      -7.832   9.288  70.434  1.00  0.00    -0.158 A  
HETATM   31  C   UNL     1      -8.772   9.696  69.416  1.00  0.00    -0.173 A  
HETATM   32  C   UNL     1      -6.670   9.913  70.864  1.00  0.00     0.011 A  
HETATM   33  C   UNL     1     -10.746   9.953  67.481  1.00  0.00    -0.333 A  
HETATM   34  C   UNL     1      -7.391   7.365  71.847  1.00  0.00    -0.079 A  
HETATM   35  C   UNL     1      -9.710   8.661  69.208  1.00  0.00    -0.173 A  
HETATM   36  C   UNL     1      -5.876   9.271  71.816  1.00  0.00    -0.060 A  
HETATM   37  C   UNL     1     -10.650   8.746  68.186  1.00  0.00    -0.203 A  
HETATM   38  C   UNL     1      -6.234   8.009  72.304  1.00  0.00    -0.051 A  
ENDBRANCH   2  26
TORSDOF 9
ENDMDL
MODEL       63
REMARK 921   NORMALIZED FREE ENERGY PREDICTED BY IDOCK:   -6.36 KCAL/MOL
REMARK 922        TOTAL FREE ENERGY PREDICTED BY IDOCK:  -11.47 KCAL/MOL
REMARK 923 INTER-LIGAND FREE ENERGY PREDICTED BY IDOCK:  -10.98 KCAL/MOL
REMARK 924 INTRA-LIGAND FREE ENERGY PREDICTED BY IDOCK:   -0.49 KCAL/MOL
REMARK 927      BINDING AFFINITY PREDICTED BY RF-SCORE:    0.00 PKD
ROOT
HETATM    1  C   UNL     1     -10.694   6.788  72.850  1.00  0.00    -0.261 C  
HETATM    2  N   UNL     1     -11.046   7.495  71.545  1.00  0.00    -0.234 N  
HETATM    3  C   UNL     1     -12.244   6.798  70.907  1.00  0.00    -0.331 C  
ENDROOT
BRANCH   2   4
HETATM    4  C   UNL     1     -11.340   8.952  71.835  1.00  0.00    -0.376 C  
BRANCH   4   5
HETATM    5  C   UNL     1     -12.773   9.285  72.248  1.00  0.00    -0.435 C  
BRANCH   5   6
HETATM    6  C   UNL     1     -13.248  10.521  71.472  1.00  0.00    -0.470 C  
BRANCH   6   7
HETATM    7  C   UNL     1     -12.106  11.384  70.905  1.00  0.00    -0.383 C  
BRANCH   7   8
HETATM    8  C   UNL     1     -12.414  12.889  70.876  1.00  0.00    -0.383 C  
BRANCH   8   9
HETATM    9  C   UNL     1     -11.820  13.483  69.599  1.00  0.00    -0.336 C  
BRANCH   9  10
HETATM   10  N   UNL     1     -11.405  14.943  69.688  1.00  0.00    -0.268 N  
HETATM   11  C   UNL     1     -12.206  15.681  70.756  1.00  0.00    -0.418 C  
HETATM   12  C   UNL     1      -9.939  15.097  70.063  1.00  0.00    -0.030 C  
BRANCH  10  13
HETATM   13  C   UNL     1     -11.674  15.594  68.245  1.00  0.00    -0.242 C  
HETATM   14  C   UNL     1     -11.489  14.615  67.069  1.00  0.00    -0.379 A  
HETATM   15  C   UNL     1     -10.461  15.071  66.214  1.00  0.00    -0.309 A  
HETATM   16  C   UNL     1      -9.989  16.355  66.675  1.00  0.00    -0.281 A  
HETATM   17  C   UNL     1     -10.061  14.335  65.108  1.00  0.00    -0.353 A  
HETATM   18  C   UNL     1     -10.687  16.717  67.850  1.00  0.00    -0.347 A  
HETATM   19  C   UNL     1     -10.702  13.126  64.845  1.00  0.00    -0.362 A  
HETATM   20  C   UNL     1     -11.748  12.684  65.666  1.00  0.00    -0.458 A  
HETATM   21  C   UNL     1     -10.453  17.960  68.430  1.00  0.00    -0.338 A  
HETATM   22  C   UNL     1      -9.489  18.803  67.861  1.00  0.00    -0.339 A  
HETATM   23  C   UNL     1     -12.163  13.437  66.769  1.00  0.00    -0.367 A  
HETATM   24  C   UNL     1      -8.798  18.429  66.704  1.00  0.00    -0.297 A  
HETATM   25  C   UNL     1      -9.051  17.200  66.096  1.00  0.00    -0.214 A  
ENDBRANCH  10  13
ENDBRANCH   9  10
ENDBRANCH   8   9
ENDBRANCH   7   8
ENDBRANCH   6   7
ENDBRANCH   5   6
ENDBRANCH   4   5
ENDBRANCH   2   4
BRANCH   2  26
HETATM   26  C   UNL     1      -9.795   7.452  70.528  1.00  0.00    -0.180 C  
HETATM   27  C   UNL     1      -9.946   5.017  67.723  1.00  0.00    -0.198 A  
HETATM   28  C   UNL     1      -9.947   8.355  69.285  1.00  0.00    -0.195 A  
HETATM   29  C   UNL     1      -9.742   3.788  68.341  1.00  0.00    -0.094 A  
HETATM   30  C   UNL     1     -10.032   7.550  68.124  1.00  0.00    -0.198 A  
HETATM   31  C   UNL     1      -9.875   6.164  68.498  1.00  0.00    -0.157 A  
HETATM   32  C   UNL     1     -10.164   8.115  66.863  1.00  0.00    -0.387 A  
HETATM   33  C   UNL     1      -9.400   3.707  69.700  1.00  0.00    -0.243 A  
HETATM   34  C   UNL     1      -9.947   9.742  69.161  1.00  0.00    -0.195 A  
HETATM   35  C   UNL     1      -9.609   6.083  69.882  1.00  0.00    -0.188 A  
HETATM   36  C   UNL     1     -10.217   9.505  66.753  1.00  0.00    -0.313 A  
HETATM   37  C   UNL     1      -9.289   4.867  70.477  1.00  0.00    -0.216 A  
HETATM   38  C   UNL     1     -10.111  10.312  67.891  1.00  0.00    -0.200 A  
ENDBRANCH   2  26
TORSDOF 9
ENDMDL
MODEL       64
REMARK 921   NORMALIZED FREE ENERGY PREDICTED BY IDOCK:   -6.35 KCAL/MOL
REMARK 922        TOTAL FREE ENERGY PREDICTED BY IDOCK:  -11.46 KCAL/MOL
REMARK 923 INTER-LIGAND FREE ENERGY PREDICTED BY IDOCK:  -11.17 KCAL/MOL
REMARK 924 INTRA-LIGAND FREE ENERGY PREDICTED BY IDOCK:   -0.29 KCAL/MOL
REMARK 927      BINDING AFFINITY PREDICTED BY RF-SCORE:    0.00 PKD
ROOT
HETATM    1  C   UNL     1     -11.647  15.048  64.456  1.00  0.00    -0.343 C  
HETATM    2  N   UNL     1     -11.309  13.697  65.077  1.00  0.00    -0.319 N  
HETATM    3  C   UNL     1     -12.605  12.971  65.429  1.00  0.00    -0.422 C  
ENDROOT
BRANCH   2   4
HETATM    4  C   UNL     1     -10.473  12.898  64.098  1.00  0.00    -0.406 C  
BRANCH   4   5
HETATM    5  C   UNL     1     -10.900  11.448  63.867  1.00  0.00    -0.463 C  
BRANCH   5   6
HETATM    6  C   UNL     1      -9.806  10.511  64.396  1.00  0.00    -0.405 C  
BRANCH   6   7
HETATM    7  C   UNL     1     -10.046  10.011  65.832  1.00  0.00    -0.319 C  
BRANCH   7   8
HETATM    8  C   UNL     1      -9.574   8.571  66.081  1.00  0.00    -0.276 C  
BRANCH   8   9
HETATM    9  C   UNL     1     -10.242   8.053  67.355  1.00  0.00    -0.261 C  
BRANCH   9  10
HETATM   10  N   UNL     1      -9.505   6.933  68.071  1.00  0.00    -0.125 N  
HETATM   11  C   UNL     1      -8.884   5.955  67.078  1.00  0.00    -0.112 C  
HETATM   12  C   UNL     1      -8.365   7.459  68.931  1.00  0.00    -0.129 C  
BRANCH  10  13
HETATM   13  C   UNL     1     -10.582   6.179  68.992  1.00  0.00    -0.279 C  
HETATM   14  C   UNL     1     -11.063   7.003  70.203  1.00  0.00    -0.323 A  
HETATM   15  C   UNL     1     -10.734   6.337  71.405  1.00  0.00    -0.297 A  
HETATM   16  C   UNL     1     -10.142   5.057  71.096  1.00  0.00    -0.293 A  
HETATM   17  C   UNL     1     -11.009   6.901  72.642  1.00  0.00    -0.303 A  
HETATM   18  C   UNL     1     -10.054   4.906  69.694  1.00  0.00    -0.300 A  
HETATM   19  C   UNL     1     -11.630   8.148  72.682  1.00  0.00    -0.441 A  
HETATM   20  C   UNL     1     -11.993   8.799  71.496  1.00  0.00    -0.386 A  
HETATM   21  C   UNL     1      -9.586   3.708  69.162  1.00  0.00    -0.172 A  
HETATM   22  C   UNL     1      -9.163   2.697  70.035  1.00  0.00    -0.202 A  
HETATM   23  C   UNL     1     -11.732   8.220  70.250  1.00  0.00     0.105 A  
HETATM   24  C   UNL     1      -9.246   2.863  71.422  1.00  0.00    -0.190 A  
HETATM   25  C   UNL     1      -9.747   4.046  71.964  1.00  0.00    -0.232 A  
ENDBRANCH  10  13
ENDBRANCH   9  10
ENDBRANCH   8   9
ENDBRANCH   7   8
ENDBRANCH   6   7
ENDBRANCH   5   6
ENDBRANCH   4   5
ENDBRANCH   2   4
BRANCH   2  26
HETATM   26  C   UNL     1     -10.425  13.895  66.410  1.00  0.00    -0.284 C  
HETATM   27  C   UNL     1     -11.029  16.956  68.431  1.00  0.00    -0.296 A  
HETATM   28  C   UNL     1     -11.074  13.345  67.698  1.00  0.00    -0.288 A  
HETATM   29  C   UNL     1     -10.467  17.973  67.667  1.00  0.00    -0.422 A  
HETATM   30  C   UNL     1     -11.376  14.417  68.571  1.00  0.00    -0.307 A  
HETATM   31  C   UNL     1     -10.906  15.650  67.983  1.00  0.00    -0.308 A  
HETATM   32  C   UNL     1     -11.960  14.197  69.811  1.00  0.00    -0.396 A  
HETATM   33  C   UNL     1      -9.729  17.687  66.508  1.00  0.00    -0.310 A  
HETATM   34  C   UNL     1     -11.321  12.036  68.108  1.00  0.00    -0.349 A  
HETATM   35  C   UNL     1     -10.233  15.363  66.776  1.00  0.00    -0.273 A  
HETATM   36  C   UNL     1     -12.254  12.886  70.190  1.00  0.00    -0.336 A  
HETATM   37  C   UNL     1      -9.570  16.364  66.074  1.00  0.00    -0.352 A  
HETATM   38  C   UNL     1     -11.939  11.815  69.346  1.00  0.00    -0.361 A  
ENDBRANCH   2  26
TORSDOF 9
ENDMDL
MODEL       65
REMARK 921   NORMALIZED FREE ENERGY PREDICTED BY IDOCK:   -6.34 KCAL/MOL
REMARK 922        TOTAL FREE ENERGY PREDICTED BY IDOCK:  -11.44 KCAL/MOL
REMARK 923 INTER-LIGAND FREE ENERGY PREDICTED BY IDOCK:   -9.37 KCAL/MOL
REMARK 924 INTRA-LIGAND FREE ENERGY PREDICTED BY IDOCK:   -2.07 KCAL/MOL
REMARK 927      BINDING AFFINITY PREDICTED BY RF-SCORE:    0.00 PKD
ROOT
HETATM    1  C   UNL     1      -9.858  12.840  68.186  1.00  0.00    -0.226 C  
HETATM    2  N   UNL     1      -9.151  11.621  67.603  1.00  0.00    -0.169 N  
HETATM    3  C   UNL     1      -7.926  12.082  66.819  1.00  0.00    -0.060 C  
ENDROOT
BRANCH   2   4
HETATM    4  C   UNL     1      -8.769  10.685  68.731  1.00  0.00    -0.157 C  
BRANCH   4   5
HETATM    5  C   UNL     1      -7.451   9.928  68.567  1.00  0.00    -0.082 C  
BRANCH   5   6
HETATM    6  C   UNL     1      -7.430   8.736  69.533  1.00  0.00    -0.075 C  
BRANCH   6   7
HETATM    7  C   UNL     1      -7.990   9.050  70.932  1.00  0.00    -0.194 C  
BRANCH   7   8
HETATM    8  C   UNL     1      -7.879   7.885  71.927  1.00  0.00    -0.120 C  
BRANCH   8   9
HETATM    9  C   UNL     1      -9.137   7.865  72.796  1.00  0.00    -0.211 C  
BRANCH   9  10
HETATM   10  N   UNL     1      -9.850   6.525  72.886  1.00  0.00    -0.161 N  
HETATM   11  C   UNL     1      -8.899   5.371  72.587  1.00  0.00    -0.123 C  
HETATM   12  C   UNL     1     -10.414   6.272  74.276  1.00  0.00    -0.196 C  
BRANCH  10  13
HETATM   13  C   UNL     1     -11.040   6.557  71.809  1.00  0.00    -0.257 C  
HETATM   14  C   UNL     1     -10.608   6.172  70.381  1.00  0.00    -0.317 A  
HETATM   15  C   UNL     1     -10.834   7.251  69.498  1.00  0.00    -0.224 A  
HETATM   16  C   UNL     1     -11.486   8.324  70.210  1.00  0.00    -0.065 A  
HETATM   17  C   UNL     1     -10.474   7.178  68.160  1.00  0.00    -0.244 A  
HETATM   18  C   UNL     1     -11.652   7.956  71.565  1.00  0.00    -0.306 A  
HETATM   19  C   UNL     1      -9.885   6.005  67.692  1.00  0.00    -0.134 A  
HETATM   20  C   UNL     1      -9.691   4.916  68.553  1.00  0.00    -0.218 A  
HETATM   21  C   UNL     1     -12.334   8.808  72.428  1.00  0.00    -0.414 A  
HETATM   22  C   UNL     1     -12.794  10.040  71.942  1.00  0.00    -0.524 A  
HETATM   23  C   UNL     1     -10.072   4.985  69.896  1.00  0.00    -0.344 A  
HETATM   24  C   UNL     1     -12.615  10.397  70.601  1.00  0.00    -0.435 A  
HETATM   25  C   UNL     1     -11.964   9.533  69.721  1.00  0.00     0.324 A  
ENDBRANCH  10  13
ENDBRANCH   9  10
ENDBRANCH   8   9
ENDBRANCH   7   8
ENDBRANCH   6   7
ENDBRANCH   5   6
ENDBRANCH   4   5
ENDBRANCH   2   4
BRANCH   2  26
HETATM   26  C   UNL     1     -10.143  10.811  66.624  1.00  0.00    -0.218 C  
HETATM   27  C   UNL     1     -11.256  12.516  63.514  1.00  0.00    -0.525 A  
HETATM   28  C   UNL     1      -9.433  10.011  65.510  1.00  0.00    -0.296 A  
HETATM   29  C   UNL     1     -12.159  13.471  63.966  1.00  0.00    -0.494 A  
HETATM   30  C   UNL     1      -9.759  10.565  64.249  1.00  0.00    -0.391 A  
HETATM   31  C   UNL     1     -10.701  11.644  64.438  1.00  0.00    -0.387 A  
HETATM   32  C   UNL     1      -9.259  10.025  63.073  1.00  0.00    -0.313 A  
HETATM   33  C   UNL     1     -12.561  13.512  65.310  1.00  0.00    -0.517 A  
HETATM   34  C   UNL     1      -8.634   8.872  65.574  1.00  0.00    -0.191 A  
HETATM   35  C   UNL     1     -11.041  11.730  65.805  1.00  0.00    -0.351 A  
HETATM   36  C   UNL     1      -8.415   8.917  63.149  1.00  0.00    -0.162 A  
HETATM   37  C   UNL     1     -12.032  12.606  66.239  1.00  0.00    -0.439 A  
HETATM   38  C   UNL     1      -8.103   8.346  64.388  1.00  0.00    -0.158 A  
ENDBRANCH   2  26
TORSDOF 9
ENDMDL
MODEL       66
REMARK 921   NORMALIZED FREE ENERGY PREDICTED BY IDOCK:   -6.32 KCAL/MOL
REMARK 922        TOTAL FREE ENERGY PREDICTED BY IDOCK:  -11.41 KCAL/MOL
REMARK 923 INTER-LIGAND FREE ENERGY PREDICTED BY IDOCK:   -9.92 KCAL/MOL
REMARK 924 INTRA-LIGAND FREE ENERGY PREDICTED BY IDOCK:   -1.49 KCAL/MOL
REMARK 927      BINDING AFFINITY PREDICTED BY RF-SCORE:    0.00 PKD
ROOT
HETATM    1  C   UNL     1     -10.425   8.188  67.602  1.00  0.00    -0.231 C  
HETATM    2  N   UNL     1      -9.041   8.815  67.738  1.00  0.00    -0.135 N  
HETATM    3  C   UNL     1      -7.983   7.726  67.592  1.00  0.00    -0.124 C  
ENDROOT
BRANCH   2   4
HETATM    4  C   UNL     1      -8.881   9.891  66.684  1.00  0.00    -0.135 C  
BRANCH   4   5
HETATM    5  C   UNL     1      -9.062   9.451  65.232  1.00  0.00    -0.287 C  
BRANCH   5   6
HETATM    6  C   UNL     1      -9.929  10.482  64.497  1.00  0.00    -0.413 C  
BRANCH   6   7
HETATM    7  C   UNL     1     -10.904  11.249  65.409  1.00  0.00    -0.255 C  
BRANCH   7   8
HETATM    8  C   UNL     1     -11.618  12.420  64.717  1.00  0.00    -0.395 C  
BRANCH   8   9
HETATM    9  C   UNL     1     -10.649  13.600  64.635  1.00  0.00    -0.430 C  
BRANCH   9  10
HETATM   10  N   UNL     1     -11.105  14.871  65.335  1.00  0.00    -0.348 N  
HETATM   11  C   UNL     1     -11.974  15.726  64.418  1.00  0.00    -0.081 C  
HETATM   12  C   UNL     1     -11.942  14.572  66.570  1.00  0.00    -0.340 C  
BRANCH  10  13
HETATM   13  C   UNL     1      -9.779  15.675  65.752  1.00  0.00    -0.345 C  
HETATM   14  C   UNL     1      -8.947  14.988  66.853  1.00  0.00    -0.276 A  
HETATM   15  C   UNL     1      -8.865  15.822  67.991  1.00  0.00    -0.176 A  
HETATM   16  C   UNL     1      -9.508  17.083  67.707  1.00  0.00    -0.245 A  
HETATM   17  C   UNL     1      -8.215  15.409  69.145  1.00  0.00    -0.243 A  
HETATM   18  C   UNL     1     -10.039  17.056  66.397  1.00  0.00    -0.325 A  
HETATM   19  C   UNL     1      -7.631  14.143  69.163  1.00  0.00    -0.003 A  
HETATM   20  C   UNL     1      -7.675  13.325  68.027  1.00  0.00    -0.147 A  
HETATM   21  C   UNL     1     -10.637  18.199  65.877  1.00  0.00    -0.247 A  
HETATM   22  C   UNL     1     -10.745  19.337  66.687  1.00  0.00    -0.504 A  
HETATM   23  C   UNL     1      -8.314  13.751  66.858  1.00  0.00    -0.029 A  
HETATM   24  C   UNL     1     -10.225  19.349  67.985  1.00  0.00    -0.531 A  
HETATM   25  C   UNL     1      -9.592  18.219  68.503  1.00  0.00    -0.358 A  
ENDBRANCH  10  13
ENDBRANCH   9  10
ENDBRANCH   8   9
ENDBRANCH   7   8
ENDBRANCH   6   7
ENDBRANCH   5   6
ENDBRANCH   4   5
ENDBRANCH   2   4
BRANCH   2  26
HETATM   26  C   UNL     1      -8.885   9.526  69.177  1.00  0.00    -0.147 C  
HETATM   27  C   UNL     1     -11.997  10.297  71.058  1.00  0.00    -0.483 A  
HETATM   28  C   UNL     1      -8.826   8.551  70.372  1.00  0.00    -0.157 A  
HETATM   29  C   UNL     1     -12.546  11.370  70.364  1.00  0.00    -0.267 A  
HETATM   30  C   UNL     1      -9.973   8.724  71.182  1.00  0.00    -0.317 A  
HETATM   31  C   UNL     1     -10.768   9.805  70.647  1.00  0.00    -0.394 A  
HETATM   32  C   UNL     1     -10.164   7.974  72.333  1.00  0.00    -0.347 A  
HETATM   33  C   UNL     1     -11.846  11.993  69.320  1.00  0.00    -0.377 A  
HETATM   34  C   UNL     1      -7.842   7.644  70.760  1.00  0.00    -0.096 A  
HETATM   35  C   UNL     1     -10.095  10.377  69.546  1.00  0.00    -0.246 A  
HETATM   36  C   UNL     1      -9.199   7.029  72.685  1.00  0.00    -0.154 A  
HETATM   37  C   UNL     1     -10.585  11.523  68.928  1.00  0.00    -0.236 A  
HETATM   38  C   UNL     1      -8.049   6.864  71.906  1.00  0.00    -0.100 A  
ENDBRANCH   2  26
TORSDOF 9
ENDMDL
MODEL       67
REMARK 921   NORMALIZED FREE ENERGY PREDICTED BY IDOCK:   -6.31 KCAL/MOL
REMARK 922        TOTAL FREE ENERGY PREDICTED BY IDOCK:  -11.39 KCAL/MOL
REMARK 923 INTER-LIGAND FREE ENERGY PREDICTED BY IDOCK:   -8.97 KCAL/MOL
REMARK 924 INTRA-LIGAND FREE ENERGY PREDICTED BY IDOCK:   -2.43 KCAL/MOL
REMARK 927      BINDING AFFINITY PREDICTED BY RF-SCORE:    0.00 PKD
ROOT
HETATM    1  C   UNL     1     -11.764  10.833  67.984  1.00  0.00    -0.044 C  
HETATM    2  N   UNL     1     -10.536  11.670  68.326  1.00  0.00    -0.197 N  
HETATM    3  C   UNL     1     -10.981  12.933  69.059  1.00  0.00    -0.197 C  
ENDROOT
BRANCH   2   4
HETATM    4  C   UNL     1      -9.592  10.840  69.172  1.00  0.00    -0.151 C  
BRANCH   4   5
HETATM    5  C   UNL     1     -10.238   9.806  70.093  1.00  0.00    -0.328 C  
BRANCH   5   6
HETATM    6  C   UNL     1      -9.143   9.098  70.903  1.00  0.00    -0.316 C  
BRANCH   6   7
HETATM    7  C   UNL     1      -8.005   8.514  70.046  1.00  0.00    -0.109 C  
BRANCH   7   8
HETATM    8  C   UNL     1      -7.237   7.369  70.723  1.00  0.00    -0.068 C  
BRANCH   8   9
HETATM    9  C   UNL     1      -7.246   6.158  69.790  1.00  0.00    -0.074 C  
BRANCH   9  10
HETATM   10  N   UNL     1      -7.570   4.827  70.448  1.00  0.00    -0.054 N  
HETATM   11  C   UNL     1      -6.621   3.730  69.976  1.00  0.00    -0.033 C  
HETATM   12  C   UNL     1      -7.437   4.892  71.962  1.00  0.00    -0.083 C  
BRANCH  10  13
HETATM   13  C   UNL     1      -9.081   4.463  70.047  1.00  0.00    -0.106 C  
HETATM   14  C   UNL     1      -9.463   4.858  68.607  1.00  0.00    -0.198 A  
HETATM   15  C   UNL     1     -10.522   5.793  68.624  1.00  0.00    -0.298 A  
HETATM   16  C   UNL     1     -10.961   5.994  69.984  1.00  0.00    -0.450 A  
HETATM   17  C   UNL     1     -11.014   6.350  67.452  1.00  0.00    -0.463 A  
HETATM   18  C   UNL     1     -10.163   5.217  70.855  1.00  0.00    -0.299 A  
HETATM   19  C   UNL     1     -10.444   5.964  66.241  1.00  0.00    -0.082 A  
HETATM   20  C   UNL     1      -9.418   5.010  66.212  1.00  0.00    -0.162 A  
HETATM   21  C   UNL     1     -10.458   5.191  72.214  1.00  0.00    -0.277 A  
HETATM   22  C   UNL     1     -11.510   5.981  72.696  1.00  0.00    -0.297 A  
HETATM   23  C   UNL     1      -8.937   4.435  67.392  1.00  0.00    -0.129 A  
HETATM   24  C   UNL     1     -12.286   6.754  71.826  1.00  0.00    -0.400 A  
HETATM   25  C   UNL     1     -12.021   6.758  70.457  1.00  0.00    -0.385 A  
ENDBRANCH  10  13
ENDBRANCH   9  10
ENDBRANCH   8   9
ENDBRANCH   7   8
ENDBRANCH   6   7
ENDBRANCH   5   6
ENDBRANCH   4   5
ENDBRANCH   2   4
BRANCH   2  26
HETATM   26  C   UNL     1      -9.743  12.079  66.983  1.00  0.00    -0.196 C  
HETATM   27  C   UNL     1      -9.267   9.448  64.401  1.00  0.00    -0.114 A  
HETATM   28  C   UNL     1     -10.645  12.555  65.825  1.00  0.00    -0.299 A  
HETATM   29  C   UNL     1      -8.303   8.612  64.955  1.00  0.00    -0.174 A  
HETATM   30  C   UNL     1     -10.574  11.628  64.758  1.00  0.00    -0.358 A  
HETATM   31  C   UNL     1      -9.625  10.592  65.096  1.00  0.00    -0.304 A  
HETATM   32  C   UNL     1     -11.285  11.823  63.583  1.00  0.00    -0.519 A  
HETATM   33  C   UNL     1      -7.651   8.949  66.150  1.00  0.00    -0.091 A  
HETATM   34  C   UNL     1     -11.406  13.713  65.678  1.00  0.00    -0.309 A  
HETATM   35  C   UNL     1      -9.028  10.896  66.339  1.00  0.00    -0.186 A  
HETATM   36  C   UNL     1     -12.088  12.959  63.466  1.00  0.00    -0.633 A  
HETATM   37  C   UNL     1      -7.982  10.125  66.835  1.00  0.00    -0.114 A  
HETATM   38  C   UNL     1     -12.149  13.895  64.504  1.00  0.00    -0.473 A  
ENDBRANCH   2  26
TORSDOF 9
ENDMDL
MODEL       68
REMARK 921   NORMALIZED FREE ENERGY PREDICTED BY IDOCK:   -6.30 KCAL/MOL
REMARK 922        TOTAL FREE ENERGY PREDICTED BY IDOCK:  -11.37 KCAL/MOL
REMARK 923 INTER-LIGAND FREE ENERGY PREDICTED BY IDOCK:  -10.71 KCAL/MOL
REMARK 924 INTRA-LIGAND FREE ENERGY PREDICTED BY IDOCK:   -0.67 KCAL/MOL
REMARK 927      BINDING AFFINITY PREDICTED BY RF-SCORE:    0.00 PKD
ROOT
HETATM    1  C   UNL     1     -11.407  15.905  64.853  1.00  0.00    -0.256 C  
HETATM    2  N   UNL     1     -11.017  14.968  65.991  1.00  0.00    -0.331 N  
HETATM    3  C   UNL     1     -12.273  14.290  66.532  1.00  0.00    -0.391 C  
ENDROOT
BRANCH   2   4
HETATM    4  C   UNL     1     -10.016  13.955  65.477  1.00  0.00    -0.251 C  
BRANCH   4   5
HETATM    5  C   UNL     1     -10.473  13.083  64.308  1.00  0.00    -0.424 C  
BRANCH   5   6
HETATM    6  C   UNL     1     -10.123  11.618  64.603  1.00  0.00    -0.305 C  
BRANCH   6   7
HETATM    7  C   UNL     1     -10.189  11.245  66.096  1.00  0.00    -0.291 C  
BRANCH   7   8
HETATM    8  C   UNL     1      -9.427   9.960  66.453  1.00  0.00    -0.234 C  
BRANCH   8   9
HETATM    9  C   UNL     1      -8.597  10.220  67.711  1.00  0.00    -0.118 C  
BRANCH   9  10
HETATM   10  N   UNL     1      -8.795   9.224  68.843  1.00  0.00    -0.134 N  
HETATM   11  C   UNL     1      -8.069   7.913  68.559  1.00  0.00    -0.123 C  
HETATM   12  C   UNL     1      -8.247   9.746  70.162  1.00  0.00    -0.179 C  
BRANCH  10  13
HETATM   13  C   UNL     1     -10.375   8.968  68.968  1.00  0.00    -0.219 C  
HETATM   14  C   UNL     1     -11.156  10.143  69.587  1.00  0.00    -0.308 A  
HETATM   15  C   UNL     1     -11.788   9.731  70.782  1.00  0.00    -0.400 A  
HETATM   16  C   UNL     1     -11.570   8.317  70.975  1.00  0.00    -0.301 A  
HETATM   17  C   UNL     1     -12.510  10.622  71.562  1.00  0.00    -0.471 A  
HETATM   18  C   UNL     1     -10.768   7.817  69.924  1.00  0.00    -0.245 A  
HETATM   19  C   UNL     1     -12.610  11.947  71.141  1.00  0.00    -0.390 A  
HETATM   20  C   UNL     1     -12.018  12.356  69.939  1.00  0.00    -0.369 A  
HETATM   21  C   UNL     1     -10.494   6.455  69.860  1.00  0.00    -0.265 A  
HETATM   22  C   UNL     1     -10.980   5.617  70.872  1.00  0.00    -0.257 A  
HETATM   23  C   UNL     1     -11.307  11.452  69.144  1.00  0.00    -0.353 A  
HETATM   24  C   UNL     1     -11.765   6.125  71.912  1.00  0.00    -0.337 A  
HETATM   25  C   UNL     1     -12.074   7.483  71.966  1.00  0.00    -0.326 A  
ENDBRANCH  10  13
ENDBRANCH   9  10
ENDBRANCH   8   9
ENDBRANCH   7   8
ENDBRANCH   6   7
ENDBRANCH   5   6
ENDBRANCH   4   5
ENDBRANCH   2   4
BRANCH   2  26
HETATM   26  C   UNL     1     -10.299  15.792  67.177  1.00  0.00    -0.291 C  
HETATM   27  C   UNL     1      -6.593  15.617  67.390  1.00  0.00    -0.194 A  
HETATM   28  C   UNL     1      -9.856  17.219  66.790  1.00  0.00    -0.296 A  
HETATM   29  C   UNL     1      -6.349  14.332  67.864  1.00  0.00    -0.173 A  
HETATM   30  C   UNL     1      -8.443  17.299  66.815  1.00  0.00    -0.275 A  
HETATM   31  C   UNL     1      -7.908  16.035  67.264  1.00  0.00    -0.212 A  
HETATM   32  C   UNL     1      -7.782  18.481  66.515  1.00  0.00    -0.278 A  
HETATM   33  C   UNL     1      -7.401  13.500  68.277  1.00  0.00    -0.116 A  
HETATM   34  C   UNL     1     -10.603  18.361  66.506  1.00  0.00    -0.344 A  
HETATM   35  C   UNL     1      -8.973  15.173  67.604  1.00  0.00    -0.183 A  
HETATM   36  C   UNL     1      -8.537  19.605  66.178  1.00  0.00    -0.357 A  
HETATM   37  C   UNL     1      -8.730  13.935  68.189  1.00  0.00    -0.182 A  
HETATM   38  C   UNL     1      -9.935  19.546  66.173  1.00  0.00    -0.526 A  
ENDBRANCH   2  26
TORSDOF 9
ENDMDL
MODEL       69
REMARK 921   NORMALIZED FREE ENERGY PREDICTED BY IDOCK:   -6.28 KCAL/MOL
REMARK 922        TOTAL FREE ENERGY PREDICTED BY IDOCK:  -11.35 KCAL/MOL
REMARK 923 INTER-LIGAND FREE ENERGY PREDICTED BY IDOCK:   -9.83 KCAL/MOL
REMARK 924 INTRA-LIGAND FREE ENERGY PREDICTED BY IDOCK:   -1.53 KCAL/MOL
REMARK 927      BINDING AFFINITY PREDICTED BY RF-SCORE:    0.00 PKD
ROOT
HETATM    1  C   UNL     1      -6.304   5.534  72.392  1.00  0.00    -0.051 C  
HETATM    2  N   UNL     1      -7.672   5.986  71.892  1.00  0.00    -0.097 N  
HETATM    3  C   UNL     1      -7.565   7.416  71.369  1.00  0.00    -0.082 C  
ENDROOT
BRANCH   2   4
HETATM    4  C   UNL     1      -8.145   5.034  70.813  1.00  0.00    -0.095 C  
BRANCH   4   5
HETATM    5  C   UNL     1      -8.672   5.672  69.528  1.00  0.00    -0.109 C  
BRANCH   5   6
HETATM    6  C   UNL     1     -10.126   5.233  69.306  1.00  0.00    -0.300 C  
BRANCH   6   7
HETATM    7  C   UNL     1     -11.004   6.291  68.614  1.00  0.00    -0.423 C  
BRANCH   7   8
HETATM    8  C   UNL     1     -10.484   7.729  68.762  1.00  0.00    -0.201 C  
BRANCH   8   9
HETATM    9  C   UNL     1     -10.542   8.411  67.395  1.00  0.00    -0.243 C  
BRANCH   9  10
HETATM   10  N   UNL     1     -10.050   9.849  67.359  1.00  0.00    -0.192 N  
HETATM   11  C   UNL     1      -9.264  10.196  68.620  1.00  0.00    -0.157 C  
HETATM   12  C   UNL     1      -9.117  10.104  66.184  1.00  0.00    -0.155 C  
BRANCH  10  13
HETATM   13  C   UNL     1     -11.349  10.785  67.240  1.00  0.00    -0.093 C  
HETATM   14  C   UNL     1     -11.190  11.961  66.257  1.00  0.00    -0.392 A  
HETATM   15  C   UNL     1     -11.334  13.188  66.941  1.00  0.00    -0.355 A  
HETATM   16  C   UNL     1     -11.679  12.931  68.318  1.00  0.00    -0.390 A  
HETATM   17  C   UNL     1     -11.179  14.403  66.287  1.00  0.00    -0.338 A  
HETATM   18  C   UNL     1     -11.725  11.535  68.539  1.00  0.00    -0.379 A  
HETATM   19  C   UNL     1     -10.880  14.393  64.926  1.00  0.00    -0.430 A  
HETATM   20  C   UNL     1     -10.772  13.180  64.232  1.00  0.00    -0.431 A  
HETATM   21  C   UNL     1     -12.118  11.050  69.782  1.00  0.00    -0.424 A  
HETATM   22  C   UNL     1     -12.409  11.963  70.805  1.00  0.00    -0.416 A  
HETATM   23  C   UNL     1     -10.949  11.959  64.888  1.00  0.00    -0.367 A  
HETATM   24  C   UNL     1     -12.351  13.342  70.578  1.00  0.00    -0.389 A  
HETATM   25  C   UNL     1     -11.992  13.837  69.324  1.00  0.00    -0.399 A  
ENDBRANCH  10  13
ENDBRANCH   9  10
ENDBRANCH   8   9
ENDBRANCH   7   8
ENDBRANCH   6   7
ENDBRANCH   5   6
ENDBRANCH   4   5
ENDBRANCH   2   4
BRANCH   2  26
HETATM   26  C   UNL     1      -8.754   5.931  73.087  1.00  0.00    -0.122 C  
HETATM   27  C   UNL     1     -12.335   6.352  72.184  1.00  0.00    -0.231 A  
HETATM   28  C   UNL     1      -9.350   4.532  73.349  1.00  0.00    -0.125 A  
HETATM   29  C   UNL     1     -12.442   7.705  71.880  1.00  0.00    -0.338 A  
HETATM   30  C   UNL     1     -10.729   4.538  73.031  1.00  0.00    -0.298 A  
HETATM   31  C   UNL     1     -11.116   5.873  72.638  1.00  0.00    -0.322 A  
HETATM   32  C   UNL     1     -11.511   3.402  73.186  1.00  0.00     0.019 A  
HETATM   33  C   UNL     1     -11.370   8.584  72.095  1.00  0.00    -0.442 A  
HETATM   34  C   UNL     1      -8.772   3.378  73.875  1.00  0.00    -0.088 A  
HETATM   35  C   UNL     1     -10.010   6.739  72.781  1.00  0.00    -0.190 A  
HETATM   36  C   UNL     1     -10.912   2.236  73.662  1.00  0.00    -0.290 A  
HETATM   37  C   UNL     1     -10.148   8.110  72.592  1.00  0.00    -0.379 A  
HETATM   38  C   UNL     1      -9.554   2.223  74.003  1.00  0.00    -0.111 A  
ENDBRANCH   2  26
TORSDOF 9
ENDMDL
MODEL       70
REMARK 921   NORMALIZED FREE ENERGY PREDICTED BY IDOCK:   -6.27 KCAL/MOL
REMARK 922        TOTAL FREE ENERGY PREDICTED BY IDOCK:  -11.34 KCAL/MOL
REMARK 923 INTER-LIGAND FREE ENERGY PREDICTED BY IDOCK:  -10.52 KCAL/MOL
REMARK 924 INTRA-LIGAND FREE ENERGY PREDICTED BY IDOCK:   -0.82 KCAL/MOL
REMARK 927      BINDING AFFINITY PREDICTED BY RF-SCORE:    0.00 PKD
ROOT
HETATM    1  C   UNL     1      -7.830   7.020  68.967  1.00  0.00    -0.115 C  
HETATM    2  N   UNL     1      -8.745   8.089  69.556  1.00  0.00    -0.136 N  
HETATM    3  C   UNL     1      -8.236   8.472  70.943  1.00  0.00    -0.133 C  
ENDROOT
BRANCH   2   4
HETATM    4  C   UNL     1      -8.774   9.283  68.625  1.00  0.00    -0.132 C  
BRANCH   4   5
HETATM    5  C   UNL     1      -7.461  10.049  68.463  1.00  0.00    -0.086 C  
BRANCH   5   6
HETATM    6  C   UNL     1      -7.693  11.526  68.808  1.00  0.00    -0.124 C  
BRANCH   6   7
HETATM    7  C   UNL     1      -6.894  12.509  67.933  1.00  0.00    -0.105 C  
BRANCH   7   8
HETATM    8  C   UNL     1      -7.762  13.548  67.206  1.00  0.00    -0.093 C  
BRANCH   8   9
HETATM    9  C   UNL     1      -9.086  13.687  67.958  1.00  0.00    -0.192 C  
BRANCH   9  10
HETATM   10  N   UNL     1     -10.338  13.582  67.102  1.00  0.00    -0.249 N  
HETATM   11  C   UNL     1     -10.018  13.790  65.625  1.00  0.00    -0.255 C  
HETATM   12  C   UNL     1     -10.993  12.213  67.215  1.00  0.00    -0.260 C  
BRANCH  10  13
HETATM   13  C   UNL     1     -11.351  14.718  67.615  1.00  0.00    -0.339 C  
HETATM   14  C   UNL     1     -10.811  16.154  67.471  1.00  0.00    -0.284 A  
HETATM   15  C   UNL     1     -10.718  16.768  68.741  1.00  0.00    -0.341 A  
HETATM   16  C   UNL     1     -11.252  15.877  69.743  1.00  0.00    -0.339 A  
HETATM   17  C   UNL     1     -10.205  18.048  68.889  1.00  0.00    -0.320 A  
HETATM   18  C   UNL     1     -11.660  14.670  69.130  1.00  0.00    -0.331 A  
HETATM   19  C   UNL     1      -9.782  18.732  67.750  1.00  0.00    -0.356 A  
HETATM   20  C   UNL     1      -9.905  18.146  66.484  1.00  0.00    -0.362 A  
HETATM   21  C   UNL     1     -12.283  13.689  69.895  1.00  0.00    -0.367 A  
HETATM   22  C   UNL     1     -12.443  13.902  71.271  1.00  0.00    -0.440 A  
HETATM   23  C   UNL     1     -10.441  16.863  66.335  1.00  0.00    -0.252 A  
HETATM   24  C   UNL     1     -12.026  15.096  71.868  1.00  0.00    -0.465 A  
HETATM   25  C   UNL     1     -11.433  16.100  71.102  1.00  0.00    -0.433 A  
ENDBRANCH  10  13
ENDBRANCH   9  10
ENDBRANCH   8   9
ENDBRANCH   7   8
ENDBRANCH   6   7
ENDBRANCH   5   6
ENDBRANCH   4   5
ENDBRANCH   2   4
BRANCH   2  26
HETATM   26  C   UNL     1     -10.255   7.535  69.672  1.00  0.00    -0.205 C  
HETATM   27  C   UNL     1     -11.172   5.682  72.761  1.00  0.00    -0.347 A  
HETATM   28  C   UNL     1     -11.237   8.493  70.379  1.00  0.00    -0.224 A  
HETATM   29  C   UNL     1     -10.522   4.460  72.618  1.00  0.00    -0.249 A  
HETATM   30  C   UNL     1     -11.667   7.915  71.598  1.00  0.00    -0.320 A  
HETATM   31  C   UNL     1     -11.091   6.596  71.722  1.00  0.00    -0.287 A  
HETATM   32  C   UNL     1     -12.566   8.568  72.428  1.00  0.00    -0.409 A  
HETATM   33  C   UNL     1      -9.861   4.125  71.427  1.00  0.00    -0.254 A  
HETATM   34  C   UNL     1     -11.763   9.720  69.978  1.00  0.00    -0.131 A  
HETATM   35  C   UNL     1     -10.361   6.295  70.553  1.00  0.00    -0.255 A  
HETATM   36  C   UNL     1     -13.046   9.821  72.045  1.00  0.00    -0.546 A  
HETATM   37  C   UNL     1      -9.811   5.032  70.360  1.00  0.00    -0.301 A  
HETATM   38  C   UNL     1     -12.647  10.393  70.832  1.00  0.00    -0.478 A  
ENDBRANCH   2  26
TORSDOF 9
ENDMDL
MODEL       71
REMARK 921   NORMALIZED FREE ENERGY PREDICTED BY IDOCK:   -6.27 KCAL/MOL
REMARK 922        TOTAL FREE ENERGY PREDICTED BY IDOCK:  -11.34 KCAL/MOL
REMARK 923 INTER-LIGAND FREE ENERGY PREDICTED BY IDOCK:  -10.00 KCAL/MOL
REMARK 924 INTRA-LIGAND FREE ENERGY PREDICTED BY IDOCK:   -1.33 KCAL/MOL
REMARK 927      BINDING AFFINITY PREDICTED BY RF-SCORE:    0.00 PKD
ROOT
HETATM    1  C   UNL     1      -6.874   5.523  71.075  1.00  0.00    -0.053 C  
HETATM    2  N   UNL     1      -7.984   6.551  70.886  1.00  0.00    -0.110 N  
HETATM    3  C   UNL     1      -7.364   7.889  70.494  1.00  0.00    -0.067 C  
ENDROOT
BRANCH   2   4
HETATM    4  C   UNL     1      -8.946   6.053  69.827  1.00  0.00    -0.133 C  
BRANCH   4   5
HETATM    5  C   UNL     1      -9.058   6.902  68.560  1.00  0.00    -0.127 C  
BRANCH   5   6
HETATM    6  C   UNL     1     -10.494   7.427  68.431  1.00  0.00    -0.220 C  
BRANCH   6   7
HETATM    7  C   UNL     1     -10.637   8.647  67.502  1.00  0.00    -0.292 C  
BRANCH   7   8
HETATM    8  C   UNL     1     -10.305   9.988  68.174  1.00  0.00    -0.228 C  
BRANCH   8   9
HETATM    9  C   UNL     1     -11.115  11.089  67.489  1.00  0.00    -0.302 C  
BRANCH   9  10
HETATM   10  N   UNL     1     -10.404  12.423  67.333  1.00  0.00    -0.207 N  
HETATM   11  C   UNL     1      -9.209  12.527  68.275  1.00  0.00    -0.186 C  
HETATM   12  C   UNL     1      -9.863  12.620  65.925  1.00  0.00    -0.244 C  
BRANCH  10  13
HETATM   13  C   UNL     1     -11.478  13.567  67.672  1.00  0.00    -0.318 C  
HETATM   14  C   UNL     1     -11.015  14.993  67.313  1.00  0.00    -0.326 A  
HETATM   15  C   UNL     1     -10.963  15.794  68.476  1.00  0.00    -0.312 A  
HETATM   16  C   UNL     1     -11.454  15.036  69.602  1.00  0.00    -0.321 A  
HETATM   17  C   UNL     1     -10.519  17.108  68.429  1.00  0.00    -0.376 A  
HETATM   18  C   UNL     1     -11.793  13.731  69.178  1.00  0.00    -0.398 A  
HETATM   19  C   UNL     1     -10.127  17.635  67.199  1.00  0.00    -0.328 A  
HETATM   20  C   UNL     1     -10.211  16.859  66.036  1.00  0.00    -0.350 A  
HETATM   21  C   UNL     1     -12.367  12.844  70.083  1.00  0.00    -0.249 A  
HETATM   22  C   UNL     1     -12.547  13.252  71.411  1.00  0.00    -0.365 A  
HETATM   23  C   UNL     1     -10.677  15.542  66.082  1.00  0.00    -0.315 A  
HETATM   24  C   UNL     1     -12.198  14.543  71.821  1.00  0.00    -0.385 A  
HETATM   25  C   UNL     1     -11.655  15.450  70.912  1.00  0.00    -0.396 A  
ENDBRANCH  10  13
ENDBRANCH   9  10
ENDBRANCH   8   9
ENDBRANCH   7   8
ENDBRANCH   6   7
ENDBRANCH   5   6
ENDBRANCH   4   5
ENDBRANCH   2   4
BRANCH   2  26
HETATM   26  C   UNL     1      -8.825   6.728  72.251  1.00  0.00    -0.131 C  
HETATM   27  C   UNL     1     -12.460   7.445  71.948  1.00  0.00    -0.334 A  
HETATM   28  C   UNL     1      -9.484   5.433  72.771  1.00  0.00    -0.158 A  
HETATM   29  C   UNL     1     -12.501   8.766  71.516  1.00  0.00    -0.374 A  
HETATM   30  C   UNL     1     -10.892   5.558  72.701  1.00  0.00    -0.305 A  
HETATM   31  C   UNL     1     -11.225   6.883  72.233  1.00  0.00    -0.299 A  
HETATM   32  C   UNL     1     -11.729   4.533  73.119  1.00  0.00    -0.145 A  
HETATM   33  C   UNL     1     -11.334   9.541  71.438  1.00  0.00    -0.462 A  
HETATM   34  C   UNL     1      -8.923   4.279  73.315  1.00  0.00    -0.107 A  
HETATM   35  C   UNL     1     -10.039   7.634  72.080  1.00  0.00    -0.246 A  
HETATM   36  C   UNL     1     -11.158   3.359  73.612  1.00  0.00    -0.316 A  
HETATM   37  C   UNL     1     -10.088   8.987  71.763  1.00  0.00    -0.373 A  
HETATM   38  C   UNL     1      -9.767   3.232  73.709  1.00  0.00    -0.145 A  
ENDBRANCH   2  26
TORSDOF 9
ENDMDL
MODEL       72
REMARK 921   NORMALIZED FREE ENERGY PREDICTED BY IDOCK:   -6.25 KCAL/MOL
REMARK 922        TOTAL FREE ENERGY PREDICTED BY IDOCK:  -11.30 KCAL/MOL
REMARK 923 INTER-LIGAND FREE ENERGY PREDICTED BY IDOCK:   -8.28 KCAL/MOL
REMARK 924 INTRA-LIGAND FREE ENERGY PREDICTED BY IDOCK:   -3.02 KCAL/MOL
REMARK 927      BINDING AFFINITY PREDICTED BY RF-SCORE:    0.00 PKD
ROOT
HETATM    1  C   UNL     1     -10.672   7.385  66.979  1.00  0.00    -0.319 C  
HETATM    2  N   UNL     1      -9.169   7.640  66.985  1.00  0.00    -0.132 N  
HETATM    3  C   UNL     1      -8.501   6.710  65.976  1.00  0.00    -0.142 C  
ENDROOT
BRANCH   2   4
HETATM    4  C   UNL     1      -8.913   9.096  66.654  1.00  0.00    -0.137 C  
BRANCH   4   5
HETATM    5  C   UNL     1     -10.014  10.083  67.039  1.00  0.00    -0.257 C  
BRANCH   5   6
HETATM    6  C   UNL     1      -9.373  11.385  67.536  1.00  0.00    -0.166 C  
BRANCH   6   7
HETATM    7  C   UNL     1      -8.140  11.828  66.727  1.00  0.00    -0.133 C  
BRANCH   7   8
HETATM    8  C   UNL     1      -7.341  12.967  67.378  1.00  0.00    -0.122 C  
BRANCH   8   9
HETATM    9  C   UNL     1      -8.277  13.758  68.293  1.00  0.00    -0.156 C  
BRANCH   9  10
HETATM   10  N   UNL     1      -8.325  15.256  68.042  1.00  0.00    -0.143 N  
HETATM   11  C   UNL     1      -7.801  16.035  69.245  1.00  0.00    -0.222 C  
HETATM   12  C   UNL     1      -7.466  15.664  66.855  1.00  0.00    -0.134 C  
BRANCH  10  13
HETATM   13  C   UNL     1      -9.860  15.634  67.763  1.00  0.00    -0.220 C  
HETATM   14  C   UNL     1     -10.786  15.451  68.982  1.00  0.00    -0.242 A  
HETATM   15  C   UNL     1     -11.785  14.495  68.693  1.00  0.00    -0.364 A  
HETATM   16  C   UNL     1     -11.665  14.078  67.317  1.00  0.00    -0.420 A  
HETATM   17  C   UNL     1     -12.713  14.107  69.649  1.00  0.00     0.090 A  
HETATM   18  C   UNL     1     -10.566  14.736  66.720  1.00  0.00    -0.302 A  
HETATM   19  C   UNL     1     -12.647  14.688  70.915  1.00  0.00    -0.410 A  
HETATM   20  C   UNL     1     -11.683  15.664  71.198  1.00  0.00    -0.461 A  
HETATM   21  C   UNL     1     -10.307  14.548  65.366  1.00  0.00    -0.405 A  
HETATM   22  C   UNL     1     -11.114  13.665  64.637  1.00  0.00    -0.387 A  
HETATM   23  C   UNL     1     -10.761  16.067  70.227  1.00  0.00    -0.278 A  
HETATM   24  C   UNL     1     -12.193  13.011  65.241  1.00  0.00    -0.513 A  
HETATM   25  C   UNL     1     -12.482  13.221  66.589  1.00  0.00    -0.129 A  
ENDBRANCH  10  13
ENDBRANCH   9  10
ENDBRANCH   8   9
ENDBRANCH   7   8
ENDBRANCH   6   7
ENDBRANCH   5   6
ENDBRANCH   4   5
ENDBRANCH   2   4
BRANCH   2  26
HETATM   26  C   UNL     1      -8.558   7.368  68.452  1.00  0.00    -0.124 C  
HETATM   27  C   UNL     1      -6.965  10.231  70.207  1.00  0.00    -0.136 A  
HETATM   28  C   UNL     1      -9.532   7.654  69.616  1.00  0.00    -0.156 A  
HETATM   29  C   UNL     1      -5.768  10.413  69.524  1.00  0.00    -0.038 A  
HETATM   30  C   UNL     1      -9.052   8.748  70.376  1.00  0.00    -0.198 A  
HETATM   31  C   UNL     1      -7.780   9.172  69.840  1.00  0.00    -0.087 A  
HETATM   32  C   UNL     1      -9.738   9.207  71.491  1.00  0.00    -0.313 A  
HETATM   33  C   UNL     1      -5.352   9.508  68.535  1.00  0.00    -0.033 A  
HETATM   34  C   UNL     1     -10.689   6.992  70.020  1.00  0.00    -0.267 A  
HETATM   35  C   UNL     1      -7.404   8.304  68.792  1.00  0.00    -0.088 A  
HETATM   36  C   UNL     1     -10.925   8.572  71.857  1.00  0.00    -0.394 A  
HETATM   37  C   UNL     1      -6.155   8.413  68.189  1.00  0.00    -0.050 A  
HETATM   38  C   UNL     1     -11.398   7.475  71.128  1.00  0.00    -0.288 A  
ENDBRANCH   2  26
TORSDOF 9
ENDMDL
MODEL       73
REMARK 921   NORMALIZED FREE ENERGY PREDICTED BY IDOCK:   -6.25 KCAL/MOL
REMARK 922        TOTAL FREE ENERGY PREDICTED BY IDOCK:  -11.30 KCAL/MOL
REMARK 923 INTER-LIGAND FREE ENERGY PREDICTED BY IDOCK:  -10.00 KCAL/MOL
REMARK 924 INTRA-LIGAND FREE ENERGY PREDICTED BY IDOCK:   -1.30 KCAL/MOL
REMARK 927      BINDING AFFINITY PREDICTED BY RF-SCORE:    0.00 PKD
ROOT
HETATM    1  C   UNL     1     -10.561   4.893  72.450  1.00  0.00    -0.200 C  
HETATM    2  N   UNL     1      -9.145   5.453  72.361  1.00  0.00    -0.137 N  
HETATM    3  C   UNL     1      -8.221   4.620  73.245  1.00  0.00    -0.100 C  
ENDROOT
BRANCH   2   4
HETATM    4  C   UNL     1      -8.696   5.435  70.914  1.00  0.00    -0.134 C  
BRANCH   4   5
HETATM    5  C   UNL     1      -9.784   5.190  69.869  1.00  0.00    -0.269 C  
BRANCH   5   6
HETATM    6  C   UNL     1      -9.494   6.046  68.629  1.00  0.00    -0.134 C  
BRANCH   6   7
HETATM    7  C   UNL     1     -10.572   7.103  68.328  1.00  0.00    -0.230 C  
BRANCH   7   8
HETATM    8  C   UNL     1     -10.103   8.225  67.388  1.00  0.00    -0.298 C  
BRANCH   8   9
HETATM    9  C   UNL     1     -10.714   9.544  67.861  1.00  0.00    -0.228 C  
BRANCH   9  10
HETATM   10  N   UNL     1     -10.419  10.752  66.987  1.00  0.00    -0.235 N  
HETATM   11  C   UNL     1      -9.238  11.551  67.528  1.00  0.00    -0.166 C  
HETATM   12  C   UNL     1     -10.057  10.352  65.565  1.00  0.00    -0.283 C  
BRANCH  10  13
HETATM   13  C   UNL     1     -11.745  11.658  66.981  1.00  0.00    -0.092 C  
HETATM   14  C   UNL     1     -11.926  12.500  65.703  1.00  0.00    -0.492 A  
HETATM   15  C   UNL     1     -11.934  13.876  66.025  1.00  0.00    -0.436 A  
HETATM   16  C   UNL     1     -11.866  14.033  67.458  1.00  0.00    -0.442 A  
HETATM   17  C   UNL     1     -12.027  14.848  65.039  1.00  0.00    -0.258 A  
HETATM   18  C   UNL     1     -11.779  12.760  68.066  1.00  0.00    -0.405 A  
HETATM   19  C   UNL     1     -12.121  14.442  63.709  1.00  0.00    -0.039 A  
HETATM   20  C   UNL     1     -12.152  13.079  63.385  1.00  0.00    -0.591 A  
HETATM   21  C   UNL     1     -11.783  12.662  69.454  1.00  0.00    -0.387 A  
HETATM   22  C   UNL     1     -11.821  13.837  70.217  1.00  0.00    -0.342 A  
HETATM   23  C   UNL     1     -12.078  12.101  64.381  1.00  0.00    -0.443 A  
HETATM   24  C   UNL     1     -11.897  15.091  69.603  1.00  0.00    -0.358 A  
HETATM   25  C   UNL     1     -11.929  15.197  68.213  1.00  0.00    -0.187 A  
ENDBRANCH  10  13
ENDBRANCH   9  10
ENDBRANCH   8   9
ENDBRANCH   7   8
ENDBRANCH   6   7
ENDBRANCH   5   6
ENDBRANCH   4   5
ENDBRANCH   2   4
BRANCH   2  26
HETATM   26  C   UNL     1      -9.117   6.989  72.852  1.00  0.00    -0.134 C  
HETATM   27  C   UNL     1      -7.806   9.528  70.475  1.00  0.00    -0.182 A  
HETATM   28  C   UNL     1     -10.373   7.805  72.480  1.00  0.00    -0.328 A  
HETATM   29  C   UNL     1      -6.435   9.296  70.466  1.00  0.00    -0.067 A  
HETATM   30  C   UNL     1     -10.023   8.818  71.555  1.00  0.00    -0.370 A  
HETATM   31  C   UNL     1      -8.596   8.780  71.334  1.00  0.00    -0.254 A  
HETATM   32  C   UNL     1     -10.970   9.704  71.062  1.00  0.00    -0.431 A  
HETATM   33  C   UNL     1      -5.848   8.382  71.355  1.00  0.00    -0.037 A  
HETATM   34  C   UNL     1     -11.684   7.724  72.945  1.00  0.00    -0.231 A  
HETATM   35  C   UNL     1      -8.020   7.803  72.174  1.00  0.00    -0.130 A  
HETATM   36  C   UNL     1     -12.291   9.582  71.493  1.00  0.00    -0.465 A  
HETATM   37  C   UNL     1      -6.639   7.653  72.252  1.00  0.00    -0.056 A  
HETATM   38  C   UNL     1     -12.646   8.600  72.425  1.00  0.00    -0.426 A  
ENDBRANCH   2  26
TORSDOF 9
ENDMDL
MODEL       74
REMARK 921   NORMALIZED FREE ENERGY PREDICTED BY IDOCK:   -6.24 KCAL/MOL
REMARK 922        TOTAL FREE ENERGY PREDICTED BY IDOCK:  -11.29 KCAL/MOL
REMARK 923 INTER-LIGAND FREE ENERGY PREDICTED BY IDOCK:  -10.67 KCAL/MOL
REMARK 924 INTRA-LIGAND FREE ENERGY PREDICTED BY IDOCK:   -0.62 KCAL/MOL
REMARK 927      BINDING AFFINITY PREDICTED BY RF-SCORE:    0.00 PKD
ROOT
HETATM    1  C   UNL     1     -12.782  14.675  70.108  1.00  0.00    -0.220 C  
HETATM    2  N   UNL     1     -11.456  14.755  69.358  1.00  0.00    -0.283 N  
HETATM    3  C   UNL     1     -10.436  15.486  70.227  1.00  0.00    -0.263 C  
ENDROOT
BRANCH   2   4
HETATM    4  C   UNL     1     -10.994  13.353  69.018  1.00  0.00    -0.224 C  
BRANCH   4   5
HETATM    5  C   UNL     1     -11.692  12.211  69.757  1.00  0.00    -0.381 C  
BRANCH   5   6
HETATM    6  C   UNL     1     -12.034  11.098  68.757  1.00  0.00    -0.337 C  
BRANCH   6   7
HETATM    7  C   UNL     1     -11.016  10.947  67.612  1.00  0.00    -0.350 C  
BRANCH   7   8
HETATM    8  C   UNL     1      -9.935   9.887  67.871  1.00  0.00    -0.190 C  
BRANCH   8   9
HETATM    9  C   UNL     1     -10.512   8.511  67.536  1.00  0.00    -0.258 C  
BRANCH   9  10
HETATM   10  N   UNL     1      -9.699   7.324  68.026  1.00  0.00    -0.139 N  
HETATM   11  C   UNL     1      -9.139   6.518  66.858  1.00  0.00    -0.138 C  
HETATM   12  C   UNL     1      -8.506   7.757  68.865  1.00  0.00    -0.129 C  
BRANCH  10  13
HETATM   13  C   UNL     1     -10.686   6.413  68.905  1.00  0.00    -0.288 C  
HETATM   14  C   UNL     1     -11.005   6.992  70.297  1.00  0.00    -0.304 A  
HETATM   15  C   UNL     1     -10.560   6.107  71.305  1.00  0.00    -0.295 A  
HETATM   16  C   UNL     1     -10.042   4.907  70.693  1.00  0.00    -0.306 A  
HETATM   17  C   UNL     1     -10.679   6.425  72.650  1.00  0.00    -0.262 A  
HETATM   18  C   UNL     1     -10.116   5.026  69.287  1.00  0.00    -0.270 A  
HETATM   19  C   UNL     1     -11.257   7.645  72.998  1.00  0.00    -0.388 A  
HETATM   20  C   UNL     1     -11.734   8.512  72.006  1.00  0.00    -0.431 A  
HETATM   21  C   UNL     1      -9.744   3.951  68.487  1.00  0.00    -0.114 A  
HETATM   22  C   UNL     1      -9.252   2.789  69.098  1.00  0.00    -0.215 A  
HETATM   23  C   UNL     1     -11.631   8.181  70.652  1.00  0.00    -0.199 A  
HETATM   24  C   UNL     1      -9.174   2.687  70.491  1.00  0.00    -0.206 A  
HETATM   25  C   UNL     1      -9.578   3.747  71.301  1.00  0.00    -0.243 A  
ENDBRANCH  10  13
ENDBRANCH   9  10
ENDBRANCH   8   9
ENDBRANCH   7   8
ENDBRANCH   6   7
ENDBRANCH   5   6
ENDBRANCH   4   5
ENDBRANCH   2   4
BRANCH   2  26
HETATM   26  C   UNL     1     -11.644  15.548  67.967  1.00  0.00    -0.268 C  
HETATM   27  C   UNL     1      -8.577  16.392  66.044  1.00  0.00    -0.246 A  
HETATM   28  C   UNL     1     -11.749  14.643  66.721  1.00  0.00    -0.355 A  
HETATM   29  C   UNL     1      -7.996  17.418  66.782  1.00  0.00    -0.278 A  
HETATM   30  C   UNL     1     -10.623  14.850  65.890  1.00  0.00    -0.334 A  
HETATM   31  C   UNL     1      -9.800  15.891  66.462  1.00  0.00    -0.277 A  
HETATM   32  C   UNL     1     -10.473  14.164  64.693  1.00  0.00    -0.366 A  
HETATM   33  C   UNL     1      -8.660  17.988  67.879  1.00  0.00    -0.258 A  
HETATM   34  C   UNL     1     -12.754  13.770  66.311  1.00  0.00    -0.258 A  
HETATM   35  C   UNL     1     -10.435  16.406  67.612  1.00  0.00    -0.302 A  
HETATM   36  C   UNL     1     -11.458  13.251  64.315  1.00  0.00    -0.435 A  
HETATM   37  C   UNL     1      -9.914  17.510  68.280  1.00  0.00    -0.330 A  
HETATM   38  C   UNL     1     -12.588  13.054  65.117  1.00  0.00    -0.530 A  
ENDBRANCH   2  26
TORSDOF 9
ENDMDL
MODEL       75
REMARK 921   NORMALIZED FREE ENERGY PREDICTED BY IDOCK:   -6.20 KCAL/MOL
REMARK 922        TOTAL FREE ENERGY PREDICTED BY IDOCK:  -11.23 KCAL/MOL
REMARK 923 INTER-LIGAND FREE ENERGY PREDICTED BY IDOCK:   -9.20 KCAL/MOL
REMARK 924 INTRA-LIGAND FREE ENERGY PREDICTED BY IDOCK:   -2.03 KCAL/MOL
REMARK 927      BINDING AFFINITY PREDICTED BY RF-SCORE:    0.00 PKD
ROOT
HETATM    1  C   UNL     1     -11.099  15.171  70.783  1.00  0.00    -0.255 C  
HETATM    2  N   UNL     1     -11.075  14.361  69.491  1.00  0.00    -0.250 N  
HETATM    3  C   UNL     1      -9.631  13.995  69.159  1.00  0.00     0.201 C  
ENDROOT
BRANCH   2   4
HETATM    4  C   UNL     1     -11.936  13.127  69.664  1.00  0.00    -0.306 C  
BRANCH   4   5
HETATM    5  C   UNL     1     -11.273  11.788  69.342  1.00  0.00    -0.300 C  
BRANCH   5   6
HETATM    6  C   UNL     1     -11.772  10.728  70.333  1.00  0.00    -0.445 C  
BRANCH   6   7
HETATM    7  C   UNL     1     -11.060   9.368  70.212  1.00  0.00    -0.299 C  
BRANCH   7   8
HETATM    8  C   UNL     1      -9.812   9.234  71.098  1.00  0.00    -0.342 C  
BRANCH   8   9
HETATM    9  C   UNL     1      -9.030   7.998  70.653  1.00  0.00    -0.148 C  
BRANCH   9  10
HETATM   10  N   UNL     1      -7.624   8.264  70.139  1.00  0.00    -0.073 N  
HETATM   11  C   UNL     1      -7.182   9.690  70.448  1.00  0.00    -0.142 C  
HETATM   12  C   UNL     1      -6.598   7.344  70.783  1.00  0.00    -0.043 C  
BRANCH  10  13
HETATM   13  C   UNL     1      -7.655   8.024  68.552  1.00  0.00    -0.104 C  
HETATM   14  C   UNL     1      -8.153   9.237  67.741  1.00  0.00    -0.104 A  
HETATM   15  C   UNL     1      -9.323   8.895  67.026  1.00  0.00    -0.194 A  
HETATM   16  C   UNL     1      -9.607   7.493  67.216  1.00  0.00    -0.198 A  
HETATM   17  C   UNL     1     -10.002   9.832  66.261  1.00  0.00    -0.331 A  
HETATM   18  C   UNL     1      -8.643   6.931  68.083  1.00  0.00    -0.123 A  
HETATM   19  C   UNL     1      -9.503  11.133  66.203  1.00  0.00    -0.229 A  
HETATM   20  C   UNL     1      -8.324  11.471  66.880  1.00  0.00    -0.166 A  
HETATM   21  C   UNL     1      -8.672   5.565  68.347  1.00  0.00    -0.105 A  
HETATM   22  C   UNL     1      -9.693   4.787  67.785  1.00  0.00    -0.202 A  
HETATM   23  C   UNL     1      -7.630  10.520  67.634  1.00  0.00    -0.093 A  
HETATM   24  C   UNL     1     -10.647   5.356  66.936  1.00  0.00    -0.320 A  
HETATM   25  C   UNL     1     -10.605   6.718  66.637  1.00  0.00    -0.208 A  
ENDBRANCH  10  13
ENDBRANCH   9  10
ENDBRANCH   8   9
ENDBRANCH   7   8
ENDBRANCH   6   7
ENDBRANCH   5   6
ENDBRANCH   4   5
ENDBRANCH   2   4
BRANCH   2  26
HETATM   26  C   UNL     1     -11.703  15.218  68.278  1.00  0.00    -0.301 C  
HETATM   27  C   UNL     1      -9.359  17.191  66.173  1.00  0.00    -0.222 A  
HETATM   28  C   UNL     1     -11.741  14.481  66.923  1.00  0.00    -0.399 A  
HETATM   29  C   UNL     1      -8.989  18.251  66.995  1.00  0.00    -0.274 A  
HETATM   30  C   UNL     1     -10.871  15.123  66.010  1.00  0.00    -0.335 A  
HETATM   31  C   UNL     1     -10.302  16.291  66.643  1.00  0.00    -0.302 A  
HETATM   32  C   UNL     1     -10.723  14.665  64.709  1.00  0.00    -0.399 A  
HETATM   33  C   UNL     1      -9.604  18.452  68.240  1.00  0.00    -0.355 A  
HETATM   34  C   UNL     1     -12.503  13.395  66.496  1.00  0.00    -0.255 A  
HETATM   35  C   UNL     1     -10.867  16.444  67.928  1.00  0.00    -0.328 A  
HETATM   36  C   UNL     1     -11.450  13.545  64.306  1.00  0.00    -0.414 A  
HETATM   37  C   UNL     1     -10.586  17.566  68.701  1.00  0.00    -0.288 A  
HETATM   38  C   UNL     1     -12.332  12.914  65.191  1.00  0.00    -0.547 A  
ENDBRANCH   2  26
TORSDOF 9
ENDMDL
MODEL       76
REMARK 921   NORMALIZED FREE ENERGY PREDICTED BY IDOCK:   -6.20 KCAL/MOL
REMARK 922        TOTAL FREE ENERGY PREDICTED BY IDOCK:  -11.23 KCAL/MOL
REMARK 923 INTER-LIGAND FREE ENERGY PREDICTED BY IDOCK:  -10.92 KCAL/MOL
REMARK 924 INTRA-LIGAND FREE ENERGY PREDICTED BY IDOCK:   -0.31 KCAL/MOL
REMARK 927      BINDING AFFINITY PREDICTED BY RF-SCORE:    0.00 PKD
ROOT
HETATM    1  C   UNL     1      -9.164   7.976  71.057  1.00  0.00    -0.149 C  
HETATM    2  N   UNL     1     -10.664   8.128  70.826  1.00  0.00    -0.219 N  
HETATM    3  C   UNL     1     -11.291   8.800  72.045  1.00  0.00    -0.371 C  
ENDROOT
BRANCH   2   4
HETATM    4  C   UNL     1     -10.892   8.938  69.567  1.00  0.00    -0.153 C  
BRANCH   4   5
HETATM    5  C   UNL     1      -9.938  10.110  69.333  1.00  0.00    -0.247 C  
BRANCH   5   6
HETATM    6  C   UNL     1      -9.476  10.099  67.870  1.00  0.00    -0.154 C  
BRANCH   6   7
HETATM    7  C   UNL     1     -10.603   9.830  66.856  1.00  0.00    -0.243 C  
BRANCH   7   8
HETATM    8  C   UNL     1     -10.663  10.843  65.703  1.00  0.00    -0.178 C  
BRANCH   8   9
HETATM    9  C   UNL     1      -9.815  12.059  66.079  1.00  0.00    -0.237 C  
BRANCH   9  10
HETATM   10  N   UNL     1     -10.572  13.371  66.205  1.00  0.00    -0.287 N  
HETATM   11  C   UNL     1     -10.396  14.233  64.959  1.00  0.00    -0.421 C  
HETATM   12  C   UNL     1     -12.068  13.152  66.373  1.00  0.00    -0.382 C  
BRANCH  10  13
HETATM   13  C   UNL     1      -9.982  14.129  67.492  1.00  0.00    -0.236 C  
HETATM   14  C   UNL     1     -10.941  14.162  68.698  1.00  0.00    -0.275 A  
HETATM   15  C   UNL     1     -11.256  15.499  69.030  1.00  0.00    -0.304 A  
HETATM   16  C   UNL     1     -10.498  16.393  68.189  1.00  0.00    -0.302 A  
HETATM   17  C   UNL     1     -12.150  15.799  70.049  1.00  0.00    -0.344 A  
HETATM   18  C   UNL     1      -9.715  15.638  67.286  1.00  0.00    -0.219 A  
HETATM   19  C   UNL     1     -12.734  14.748  70.753  1.00  0.00    -0.422 A  
HETATM   20  C   UNL     1     -12.399  13.421  70.455  1.00  0.00    -0.382 A  
HETATM   21  C   UNL     1      -8.837  16.292  66.428  1.00  0.00    -0.346 A  
HETATM   22  C   UNL     1      -8.789  17.693  66.444  1.00  0.00    -0.263 A  
HETATM   23  C   UNL     1     -11.484  13.121  69.441  1.00  0.00    -0.321 A  
HETATM   24  C   UNL     1      -9.576  18.429  67.335  1.00  0.00    -0.292 A  
HETATM   25  C   UNL     1     -10.433  17.781  68.224  1.00  0.00    -0.368 A  
ENDBRANCH  10  13
ENDBRANCH   9  10
ENDBRANCH   8   9
ENDBRANCH   7   8
ENDBRANCH   6   7
ENDBRANCH   5   6
ENDBRANCH   4   5
ENDBRANCH   2   4
BRANCH   2  26
HETATM   26  C   UNL     1     -11.347   6.685  70.598  1.00  0.00    -0.347 C  
HETATM   27  C   UNL     1      -9.474   4.202  68.563  1.00  0.00    -0.216 A  
HETATM   28  C   UNL     1     -10.945   5.613  71.633  1.00  0.00    -0.277 A  
HETATM   29  C   UNL     1      -9.589   4.685  67.264  1.00  0.00    -0.201 A  
HETATM   30  C   UNL     1     -10.201   4.593  70.993  1.00  0.00    -0.207 A  
HETATM   31  C   UNL     1     -10.138   4.874  69.577  1.00  0.00    -0.286 A  
HETATM   32  C   UNL     1      -9.723   3.498  71.698  1.00  0.00    -0.234 A  
HETATM   33  C   UNL     1     -10.414   5.781  66.968  1.00  0.00    -0.342 A  
HETATM   34  C   UNL     1     -11.247   5.495  72.988  1.00  0.00    -0.346 A  
HETATM   35  C   UNL     1     -10.905   6.025  69.297  1.00  0.00    -0.428 A  
HETATM   36  C   UNL     1      -9.985   3.414  73.066  1.00  0.00    -0.208 A  
HETATM   37  C   UNL     1     -11.117   6.439  67.985  1.00  0.00    -0.365 A  
HETATM   38  C   UNL     1     -10.739   4.404  73.706  1.00  0.00    -0.344 A  
ENDBRANCH   2  26
TORSDOF 9
ENDMDL
MODEL       77
REMARK 921   NORMALIZED FREE ENERGY PREDICTED BY IDOCK:   -6.18 KCAL/MOL
REMARK 922        TOTAL FREE ENERGY PREDICTED BY IDOCK:  -11.20 KCAL/MOL
REMARK 923 INTER-LIGAND FREE ENERGY PREDICTED BY IDOCK:  -11.07 KCAL/MOL
REMARK 924 INTRA-LIGAND FREE ENERGY PREDICTED BY IDOCK:   -0.13 KCAL/MOL
REMARK 927      BINDING AFFINITY PREDICTED BY RF-SCORE:    0.00 PKD
ROOT
HETATM    1  C   UNL     1      -7.878   7.293  68.388  1.00  0.00    -0.122 C  
HETATM    2  N   UNL     1      -9.167   8.096  68.244  1.00  0.00    -0.135 N  
HETATM    3  C   UNL     1      -9.053   9.375  69.070  1.00  0.00    -0.142 C  
ENDROOT
BRANCH   2   4
HETATM    4  C   UNL     1      -9.400   8.400  66.779  1.00  0.00    -0.184 C  
BRANCH   4   5
HETATM    5  C   UNL     1      -8.936   9.771  66.288  1.00  0.00    -0.180 C  
BRANCH   5   6
HETATM    6  C   UNL     1      -9.403   9.973  64.840  1.00  0.00    -0.324 C  
BRANCH   6   7
HETATM    7  C   UNL     1     -10.486  11.055  64.674  1.00  0.00    -0.398 C  
BRANCH   7   8
HETATM    8  C   UNL     1     -10.285  12.285  65.573  1.00  0.00    -0.296 C  
BRANCH   8   9
HETATM    9  C   UNL     1     -11.534  12.465  66.436  1.00  0.00    -0.373 C  
BRANCH   9  10
HETATM   10  N   UNL     1     -11.277  12.767  67.904  1.00  0.00    -0.257 N  
HETATM   11  C   UNL     1     -11.804  11.650  68.799  1.00  0.00    -0.325 C  
HETATM   12  C   UNL     1      -9.792  12.899  68.208  1.00  0.00    -0.228 C  
BRANCH  10  13
HETATM   13  C   UNL     1     -12.029  14.146  68.237  1.00  0.00    -0.332 C  
HETATM   14  C   UNL     1     -11.256  15.406  67.800  1.00  0.00    -0.321 A  
HETATM   15  C   UNL     1     -10.957  16.206  68.926  1.00  0.00    -0.324 A  
HETATM   16  C   UNL     1     -11.562  15.625  70.100  1.00  0.00    -0.366 A  
HETATM   17  C   UNL     1     -10.215  17.373  68.807  1.00  0.00    -0.361 A  
HETATM   18  C   UNL     1     -12.223  14.427  69.745  1.00  0.00    -0.370 A  
HETATM   19  C   UNL     1      -9.767  17.751  67.542  1.00  0.00    -0.284 A  
HETATM   20  C   UNL     1     -10.090  16.982  66.416  1.00  0.00    -0.325 A  
HETATM   21  C   UNL     1     -12.949  13.734  70.707  1.00  0.00    -0.238 A  
HETATM   22  C   UNL     1     -12.962  14.214  72.024  1.00  0.00    -0.444 A  
HETATM   23  C   UNL     1     -10.854  15.818  66.535  1.00  0.00    -0.230 A  
HETATM   24  C   UNL     1     -12.296  15.396  72.366  1.00  0.00    -0.467 A  
HETATM   25  C   UNL     1     -11.595  16.117  71.399  1.00  0.00    -0.495 A  
ENDBRANCH  10  13
ENDBRANCH   9  10
ENDBRANCH   8   9
ENDBRANCH   7   8
ENDBRANCH   6   7
ENDBRANCH   5   6
ENDBRANCH   4   5
ENDBRANCH   2   4
BRANCH   2  26
HETATM   26  C   UNL     1     -10.428   7.233  68.761  1.00  0.00    -0.200 C  
HETATM   27  C   UNL     1      -9.717   4.020  70.488  1.00  0.00    -0.258 A  
HETATM   28  C   UNL     1     -10.845   7.518  70.220  1.00  0.00    -0.257 A  
HETATM   29  C   UNL     1      -9.306   3.176  69.462  1.00  0.00    -0.228 A  
HETATM   30  C   UNL     1     -10.614   6.367  71.011  1.00  0.00    -0.282 A  
HETATM   31  C   UNL     1     -10.133   5.301  70.162  1.00  0.00    -0.333 A  
HETATM   32  C   UNL     1     -10.914   6.350  72.365  1.00  0.00    -0.284 A  
HETATM   33  C   UNL     1      -9.378   3.579  68.119  1.00  0.00    -0.236 A  
HETATM   34  C   UNL     1     -11.431   8.642  70.798  1.00  0.00    -0.293 A  
HETATM   35  C   UNL     1     -10.133   5.739  68.821  1.00  0.00    -0.231 A  
HETATM   36  C   UNL     1     -11.450   7.499  72.948  1.00  0.00    -0.311 A  
HETATM   37  C   UNL     1      -9.836   4.860  67.784  1.00  0.00    -0.196 A  
HETATM   38  C   UNL     1     -11.705   8.635  72.172  1.00  0.00    -0.442 A  
ENDBRANCH   2  26
TORSDOF 9
ENDMDL
MODEL       78
REMARK 921   NORMALIZED FREE ENERGY PREDICTED BY IDOCK:   -6.16 KCAL/MOL
REMARK 922        TOTAL FREE ENERGY PREDICTED BY IDOCK:  -11.16 KCAL/MOL
REMARK 923 INTER-LIGAND FREE ENERGY PREDICTED BY IDOCK:   -9.71 KCAL/MOL
REMARK 924 INTRA-LIGAND FREE ENERGY PREDICTED BY IDOCK:   -1.45 KCAL/MOL
REMARK 927      BINDING AFFINITY PREDICTED BY RF-SCORE:    0.00 PKD
ROOT
HETATM    1  C   UNL     1     -10.677   6.072  68.348  1.00  0.00    -0.280 C  
HETATM    2  N   UNL     1      -9.682   5.246  69.157  1.00  0.00    -0.154 N  
HETATM    3  C   UNL     1      -9.466   3.904  68.464  1.00  0.00    -0.148 C  
ENDROOT
BRANCH   2   4
HETATM    4  C   UNL     1      -8.387   6.020  69.286  1.00  0.00    -0.115 C  
BRANCH   4   5
HETATM    5  C   UNL     1      -8.371   7.424  68.681  1.00  0.00    -0.129 C  
BRANCH   5   6
HETATM    6  C   UNL     1      -7.776   8.405  69.699  1.00  0.00    -0.095 C  
BRANCH   6   7
HETATM    7  C   UNL     1      -8.826   9.231  70.465  1.00  0.00    -0.285 C  
BRANCH   7   8
HETATM    8  C   UNL     1     -10.175   9.355  69.740  1.00  0.00    -0.238 C  
BRANCH   8   9
HETATM    9  C   UNL     1     -10.438  10.832  69.449  1.00  0.00    -0.200 C  
BRANCH   9  10
HETATM   10  N   UNL     1     -10.479  11.213  67.978  1.00  0.00    -0.181 N  
HETATM   11  C   UNL     1      -9.194  11.916  67.552  1.00  0.00    -0.177 C  
HETATM   12  C   UNL     1     -10.624   9.994  67.078  1.00  0.00    -0.212 C  
BRANCH  10  13
HETATM   13  C   UNL     1     -11.738  12.190  67.784  1.00  0.00    -0.320 C  
HETATM   14  C   UNL     1     -11.819  12.843  66.390  1.00  0.00    -0.478 A  
HETATM   15  C   UNL     1     -11.741  14.249  66.507  1.00  0.00    -0.409 A  
HETATM   16  C   UNL     1     -11.709  14.612  67.903  1.00  0.00    -0.379 A  
HETATM   17  C   UNL     1     -11.735  15.068  65.387  1.00  0.00    -0.170 A  
HETATM   18  C   UNL     1     -11.730  13.441  68.694  1.00  0.00    -0.384 A  
HETATM   19  C   UNL     1     -11.815  14.475  64.128  1.00  0.00    -0.290 A  
HETATM   20  C   UNL     1     -11.930  13.084  64.004  1.00  0.00    -0.523 A  
HETATM   21  C   UNL     1     -11.786  13.550  70.080  1.00  0.00    -0.371 A  
HETATM   22  C   UNL     1     -11.767  14.826  70.661  1.00  0.00    -0.353 A  
HETATM   23  C   UNL     1     -11.955  12.262  65.135  1.00  0.00    -0.395 A  
HETATM   24  C   UNL     1     -11.736  15.977  69.868  1.00  0.00    -0.276 A  
HETATM   25  C   UNL     1     -11.715  15.878  68.477  1.00  0.00    -0.297 A  
ENDBRANCH  10  13
ENDBRANCH   9  10
ENDBRANCH   8   9
ENDBRANCH   7   8
ENDBRANCH   6   7
ENDBRANCH   5   6
ENDBRANCH   4   5
ENDBRANCH   2   4
BRANCH   2  26
HETATM   26  C   UNL     1     -10.242   4.997  70.649  1.00  0.00    -0.235 C  
HETATM   27  C   UNL     1      -8.202   6.269  73.484  1.00  0.00    -0.117 A  
HETATM   28  C   UNL     1     -11.101   6.148  71.213  1.00  0.00    -0.351 A  
HETATM   29  C   UNL     1      -7.119   5.398  73.529  1.00  0.00    -0.086 A  
HETATM   30  C   UNL     1     -10.433   6.745  72.308  1.00  0.00    -0.233 A  
HETATM   31  C   UNL     1      -9.208   6.023  72.563  1.00  0.00    -0.141 A  
HETATM   32  C   UNL     1     -10.995   7.804  73.007  1.00  0.00    -0.442 A  
HETATM   33  C   UNL     1      -7.074   4.254  72.717  1.00  0.00    -0.063 A  
HETATM   34  C   UNL     1     -12.371   6.597  70.857  1.00  0.00    -0.260 A  
HETATM   35  C   UNL     1      -9.130   4.917  71.689  1.00  0.00    -0.169 A  
HETATM   36  C   UNL     1     -12.243   8.283  72.609  1.00  0.00    -0.293 A  
HETATM   37  C   UNL     1      -8.109   3.981  71.813  1.00  0.00    -0.082 A  
HETATM   38  C   UNL     1     -12.926   7.686  71.543  1.00  0.00    -0.378 A  
ENDBRANCH   2  26
TORSDOF 9
ENDMDL
MODEL       79
REMARK 921   NORMALIZED FREE ENERGY PREDICTED BY IDOCK:   -6.15 KCAL/MOL
REMARK 922        TOTAL FREE ENERGY PREDICTED BY IDOCK:  -11.16 KCAL/MOL
REMARK 923 INTER-LIGAND FREE ENERGY PREDICTED BY IDOCK:  -10.33 KCAL/MOL
REMARK 924 INTRA-LIGAND FREE ENERGY PREDICTED BY IDOCK:   -0.83 KCAL/MOL
REMARK 927      BINDING AFFINITY PREDICTED BY RF-SCORE:    0.00 PKD
ROOT
HETATM    1  C   UNL     1     -11.974  16.158  68.727  1.00  0.00     0.018 C  
HETATM    2  N   UNL     1     -11.436  14.992  69.550  1.00  0.00    -0.275 N  
HETATM    3  C   UNL     1     -10.800  15.534  70.827  1.00  0.00    -0.261 C  
ENDROOT
BRANCH   2   4
HETATM    4  C   UNL     1     -12.572  14.038  69.858  1.00  0.00    -0.142 C  
BRANCH   4   5
HETATM    5  C   UNL     1     -12.454  13.238  71.155  1.00  0.00    -0.397 C  
BRANCH   5   6
HETATM    6  C   UNL     1     -12.485  11.739  70.828  1.00  0.00    -0.405 C  
BRANCH   6   7
HETATM    7  C   UNL     1     -13.182  10.877  71.896  1.00  0.00    -0.508 C  
BRANCH   7   8
HETATM    8  C   UNL     1     -12.952   9.367  71.729  1.00  0.00    -0.484 C  
BRANCH   8   9
HETATM    9  C   UNL     1     -11.469   9.072  71.955  1.00  0.00    -0.370 C  
BRANCH   9  10
HETATM   10  N   UNL     1     -11.087   7.600  71.955  1.00  0.00    -0.241 N  
HETATM   11  C   UNL     1     -10.725   7.123  73.357  1.00  0.00    -0.368 C  
HETATM   12  C   UNL     1     -12.228   6.715  71.477  1.00  0.00    -0.340 C  
BRANCH  10  13
HETATM   13  C   UNL     1      -9.826   7.446  70.973  1.00  0.00    -0.179 C  
HETATM   14  C   UNL     1      -9.958   8.225  69.650  1.00  0.00    -0.193 A  
HETATM   15  C   UNL     1      -9.925   7.333  68.555  1.00  0.00    -0.168 A  
HETATM   16  C   UNL     1      -9.680   5.994  69.036  1.00  0.00    -0.161 A  
HETATM   17  C   UNL     1     -10.083   7.782  67.252  1.00  0.00    -0.307 A  
HETATM   18  C   UNL     1      -9.589   6.011  70.447  1.00  0.00    -0.194 A  
HETATM   19  C   UNL     1     -10.271   9.146  67.035  1.00  0.00    -0.333 A  
HETATM   20  C   UNL     1     -10.268  10.042  68.112  1.00  0.00    -0.205 A  
HETATM   21  C   UNL     1      -9.276   4.839  71.127  1.00  0.00    -0.192 A  
HETATM   22  C   UNL     1      -9.109   3.654  70.397  1.00  0.00    -0.198 A  
HETATM   23  C   UNL     1     -10.089   9.590  69.423  1.00  0.00    -0.206 A  
HETATM   24  C   UNL     1      -9.211   3.648  69.002  1.00  0.00    -0.225 A  
HETATM   25  C   UNL     1      -9.490   4.826  68.309  1.00  0.00    -0.191 A  
ENDBRANCH  10  13
ENDBRANCH   9  10
ENDBRANCH   8   9
ENDBRANCH   7   8
ENDBRANCH   6   7
ENDBRANCH   5   6
ENDBRANCH   4   5
ENDBRANCH   2   4
BRANCH   2  26
HETATM   26  C   UNL     1     -10.334  14.170  68.708  1.00  0.00    -0.229 C  
HETATM   27  C   UNL     1     -10.384  14.526  65.008  1.00  0.00    -0.442 A  
HETATM   28  C   UNL     1      -9.038  14.953  68.412  1.00  0.00    -0.185 A  
HETATM   29  C   UNL     1     -11.509  13.805  64.622  1.00  0.00    -0.385 A  
HETATM   30  C   UNL     1      -8.928  15.177  67.019  1.00  0.00    -0.255 A  
HETATM   31  C   UNL     1     -10.034  14.533  66.349  1.00  0.00    -0.304 A  
HETATM   32  C   UNL     1      -7.843  15.854  66.480  1.00  0.00    -0.169 A  
HETATM   33  C   UNL     1     -12.234  13.040  65.548  1.00  0.00    -0.521 A  
HETATM   34  C   UNL     1      -8.014  15.376  69.258  1.00  0.00    -0.229 A  
HETATM   35  C   UNL     1     -10.805  13.829  67.299  1.00  0.00    -0.292 A  
HETATM   36  C   UNL     1      -6.849  16.322  67.341  1.00  0.00    -0.210 A  
HETATM   37  C   UNL     1     -11.859  13.013  66.898  1.00  0.00    -0.442 A  
HETATM   38  C   UNL     1      -6.934  16.086  68.718  1.00  0.00    -0.139 A  
ENDBRANCH   2  26
TORSDOF 9
ENDMDL
MODEL       80
REMARK 921   NORMALIZED FREE ENERGY PREDICTED BY IDOCK:   -6.15 KCAL/MOL
REMARK 922        TOTAL FREE ENERGY PREDICTED BY IDOCK:  -11.15 KCAL/MOL
REMARK 923 INTER-LIGAND FREE ENERGY PREDICTED BY IDOCK:  -10.17 KCAL/MOL
REMARK 924 INTRA-LIGAND FREE ENERGY PREDICTED BY IDOCK:   -0.99 KCAL/MOL
REMARK 927      BINDING AFFINITY PREDICTED BY RF-SCORE:    0.00 PKD
ROOT
HETATM    1  C   UNL     1     -10.145  14.389  66.631  1.00  0.00    -0.274 C  
HETATM    2  N   UNL     1      -9.605  13.329  67.585  1.00  0.00    -0.207 N  
HETATM    3  C   UNL     1      -8.085  13.448  67.654  1.00  0.00    -0.175 C  
ENDROOT
BRANCH   2   4
HETATM    4  C   UNL     1     -10.240  13.519  68.947  1.00  0.00    -0.057 C  
BRANCH   4   5
HETATM    5  C   UNL     1     -11.724  13.168  69.058  1.00  0.00    -0.367 C  
BRANCH   5   6
HETATM    6  C   UNL     1     -11.865  11.714  69.527  1.00  0.00    -0.414 C  
BRANCH   6   7
HETATM    7  C   UNL     1     -12.377  11.566  70.971  1.00  0.00    -0.434 C  
BRANCH   7   8
HETATM    8  C   UNL     1     -12.560  10.110  71.424  1.00  0.00    -0.526 C  
BRANCH   8   9
HETATM    9  C   UNL     1     -11.208   9.401  71.344  1.00  0.00    -0.381 C  
BRANCH   9  10
HETATM   10  N   UNL     1     -11.235   7.906  71.617  1.00  0.00    -0.245 N  
HETATM   11  C   UNL     1     -11.131   7.615  73.111  1.00  0.00    -0.317 C  
HETATM   12  C   UNL     1     -12.528   7.262  71.140  1.00  0.00    -0.336 C  
BRANCH  10  13
HETATM   13  C   UNL     1      -9.984   7.266  70.840  1.00  0.00    -0.185 C  
HETATM   14  C   UNL     1     -10.158   7.207  69.310  1.00  0.00    -0.178 A  
HETATM   15  C   UNL     1     -10.116   5.865  68.868  1.00  0.00    -0.231 A  
HETATM   16  C   UNL     1      -9.827   5.002  69.987  1.00  0.00    -0.298 A  
HETATM   17  C   UNL     1     -10.305   5.538  67.533  1.00  0.00    -0.268 A  
HETATM   18  C   UNL     1      -9.716   5.778  71.163  1.00  0.00    -0.210 A  
HETATM   19  C   UNL     1     -10.535   6.566  66.621  1.00  0.00    -0.229 A  
HETATM   20  C   UNL     1     -10.541   7.902  67.044  1.00  0.00    -0.381 A  
HETATM   21  C   UNL     1      -9.359   5.163  72.359  1.00  0.00    -0.155 A  
HETATM   22  C   UNL     1      -9.170   3.775  72.378  1.00  0.00    -0.157 A  
HETATM   23  C   UNL     1     -10.331   8.231  68.386  1.00  0.00    -0.237 A  
HETATM   24  C   UNL     1      -9.292   3.016  71.210  1.00  0.00    -0.208 A  
HETATM   25  C   UNL     1      -9.615   3.629  69.999  1.00  0.00    -0.244 A  
ENDBRANCH  10  13
ENDBRANCH   9  10
ENDBRANCH   8   9
ENDBRANCH   7   8
ENDBRANCH   6   7
ENDBRANCH   5   6
ENDBRANCH   4   5
ENDBRANCH   2   4
BRANCH   2  26
HETATM   26  C   UNL     1     -10.005  11.854  67.071  1.00  0.00    -0.202 C  
HETATM   27  C   UNL     1     -10.655  11.419  63.437  1.00  0.00    -0.435 A  
HETATM   28  C   UNL     1      -8.813  10.993  66.600  1.00  0.00    -0.168 A  
HETATM   29  C   UNL     1     -11.886  12.037  63.245  1.00  0.00    -0.450 A  
HETATM   30  C   UNL     1      -8.922  10.754  65.209  1.00  0.00    -0.211 A  
HETATM   31  C   UNL     1     -10.150  11.341  64.725  1.00  0.00    -0.338 A  
HETATM   32  C   UNL     1      -7.980   9.994  64.532  1.00  0.00    -0.148 A  
HETATM   33  C   UNL     1     -12.639  12.507  64.332  1.00  0.00    -0.497 A  
HETATM   34  C   UNL     1      -7.767  10.415  67.316  1.00  0.00    -0.099 A  
HETATM   35  C   UNL     1     -10.867  11.882  65.814  1.00  0.00    -0.341 A  
HETATM   36  C   UNL     1      -6.906   9.464  65.247  1.00  0.00    -0.083 A  
HETATM   37  C   UNL     1     -12.149  12.394  65.640  1.00  0.00    -0.396 A  
HETATM   38  C   UNL     1      -6.799   9.672  66.627  1.00  0.00    -0.084 A  
ENDBRANCH   2  26
TORSDOF 9
ENDMDL
MODEL       81
REMARK 921   NORMALIZED FREE ENERGY PREDICTED BY IDOCK:   -6.14 KCAL/MOL
REMARK 922        TOTAL FREE ENERGY PREDICTED BY IDOCK:  -11.14 KCAL/MOL
REMARK 923 INTER-LIGAND FREE ENERGY PREDICTED BY IDOCK:   -9.71 KCAL/MOL
REMARK 924 INTRA-LIGAND FREE ENERGY PREDICTED BY IDOCK:   -1.43 KCAL/MOL
REMARK 927      BINDING AFFINITY PREDICTED BY RF-SCORE:    0.00 PKD
ROOT
HETATM    1  C   UNL     1      -8.993  13.704  68.072  1.00  0.00    -0.188 C  
HETATM    2  N   UNL     1     -10.314  13.453  67.352  1.00  0.00    -0.239 N  
HETATM    3  C   UNL     1     -10.058  13.390  65.848  1.00  0.00    -0.293 C  
ENDROOT
BRANCH   2   4
HETATM    4  C   UNL     1     -10.921  12.164  67.866  1.00  0.00    -0.229 C  
BRANCH   4   5
HETATM    5  C   UNL     1      -9.955  11.169  68.510  1.00  0.00    -0.204 C  
BRANCH   5   6
HETATM    6  C   UNL     1      -9.548  10.117  67.470  1.00  0.00    -0.180 C  
BRANCH   6   7
HETATM    7  C   UNL     1     -10.556   8.965  67.313  1.00  0.00    -0.304 C  
BRANCH   7   8
HETATM    8  C   UNL     1      -9.924   7.635  66.874  1.00  0.00    -0.325 C  
BRANCH   8   9
HETATM    9  C   UNL     1     -10.393   6.535  67.827  1.00  0.00    -0.192 C  
BRANCH   9  10
HETATM   10  N   UNL     1      -9.300   5.621  68.359  1.00  0.00    -0.117 N  
HETATM   11  C   UNL     1      -9.767   4.170  68.405  1.00  0.00    -0.081 C  
HETATM   12  C   UNL     1      -8.057   5.649  67.484  1.00  0.00    -0.102 C  
BRANCH  10  13
HETATM   13  C   UNL     1      -8.941   6.135  69.837  1.00  0.00    -0.139 C  
HETATM   14  C   UNL     1     -10.124   6.784  70.583  1.00  0.00    -0.204 A  
HETATM   15  C   UNL     1      -9.824   8.130  70.891  1.00  0.00    -0.203 A  
HETATM   16  C   UNL     1      -8.470   8.422  70.489  1.00  0.00    -0.133 A  
HETATM   17  C   UNL     1     -10.752   8.953  71.514  1.00  0.00    -0.398 A  
HETATM   18  C   UNL     1      -7.900   7.277  69.888  1.00  0.00    -0.112 A  
HETATM   19  C   UNL     1     -11.999   8.422  71.842  1.00  0.00    -0.397 A  
HETATM   20  C   UNL     1     -12.290   7.078  71.574  1.00  0.00    -0.420 A  
HETATM   21  C   UNL     1      -6.566   7.302  69.494  1.00  0.00    -0.040 A  
HETATM   22  C   UNL     1      -5.833   8.485  69.656  1.00  0.00    -0.029 A  
HETATM   23  C   UNL     1     -11.347   6.246  70.964  1.00  0.00    -0.378 A  
HETATM   24  C   UNL     1      -6.410   9.616  70.242  1.00  0.00    -0.076 A  
HETATM   25  C   UNL     1      -7.737   9.588  70.673  1.00  0.00    -0.151 A  
ENDBRANCH  10  13
ENDBRANCH   9  10
ENDBRANCH   8   9
ENDBRANCH   7   8
ENDBRANCH   6   7
ENDBRANCH   5   6
ENDBRANCH   4   5
ENDBRANCH   2   4
BRANCH   2  26
HETATM   26  C   UNL     1     -11.361  14.637  67.669  1.00  0.00    -0.336 C  
HETATM   27  C   UNL     1     -11.412  16.005  71.125  1.00  0.00    -0.470 A  
HETATM   28  C   UNL     1     -10.793  16.061  67.493  1.00  0.00    -0.292 A  
HETATM   29  C   UNL     1     -12.017  14.998  71.870  1.00  0.00    -0.454 A  
HETATM   30  C   UNL     1     -10.741  16.709  68.750  1.00  0.00    -0.342 A  
HETATM   31  C   UNL     1     -11.304  15.835  69.754  1.00  0.00    -0.339 A  
HETATM   32  C   UNL     1     -10.276  18.010  68.873  1.00  0.00    -0.320 A  
HETATM   33  C   UNL     1     -12.573  13.870  71.248  1.00  0.00    -0.450 A  
HETATM   34  C   UNL     1     -10.418  16.758  66.346  1.00  0.00    -0.269 A  
HETATM   35  C   UNL     1     -11.791  14.666  69.132  1.00  0.00    -0.347 A  
HETATM   36  C   UNL     1      -9.851  18.682  67.726  1.00  0.00    -0.357 A  
HETATM   37  C   UNL     1     -12.500  13.714  69.858  1.00  0.00    -0.226 A  
HETATM   38  C   UNL     1      -9.920  18.061  66.474  1.00  0.00    -0.371 A  
ENDBRANCH   2  26
TORSDOF 9
ENDMDL
MODEL       82
REMARK 921   NORMALIZED FREE ENERGY PREDICTED BY IDOCK:   -6.14 KCAL/MOL
REMARK 922        TOTAL FREE ENERGY PREDICTED BY IDOCK:  -11.14 KCAL/MOL
REMARK 923 INTER-LIGAND FREE ENERGY PREDICTED BY IDOCK:   -8.28 KCAL/MOL
REMARK 924 INTRA-LIGAND FREE ENERGY PREDICTED BY IDOCK:   -2.85 KCAL/MOL
REMARK 927      BINDING AFFINITY PREDICTED BY RF-SCORE:    0.00 PKD
ROOT
HETATM    1  C   UNL     1     -10.134   8.554  68.868  1.00  0.00    -0.203 C  
HETATM    2  N   UNL     1      -9.835   8.167  67.423  1.00  0.00    -0.168 N  
HETATM    3  C   UNL     1     -10.696   6.965  67.041  1.00  0.00    -0.362 C  
ENDROOT
BRANCH   2   4
HETATM    4  C   UNL     1     -10.109   9.355  66.525  1.00  0.00    -0.262 C  
BRANCH   4   5
HETATM    5  C   UNL     1     -10.313  10.700  67.223  1.00  0.00    -0.265 C  
BRANCH   5   6
HETATM    6  C   UNL     1      -9.214  11.672  66.775  1.00  0.00    -0.190 C  
BRANCH   6   7
HETATM    7  C   UNL     1      -8.693  12.592  67.895  1.00  0.00    -0.180 C  
BRANCH   7   8
HETATM    8  C   UNL     1      -7.984  13.857  67.386  1.00  0.00    -0.184 C  
BRANCH   8   9
HETATM    9  C   UNL     1      -8.319  15.014  68.328  1.00  0.00    -0.145 C  
BRANCH   9  10
HETATM   10  N   UNL     1      -8.762  16.301  67.651  1.00  0.00    -0.181 N  
HETATM   11  C   UNL     1      -8.280  17.525  68.422  1.00  0.00    -0.278 C  
HETATM   12  C   UNL     1      -8.201  16.427  66.243  1.00  0.00    -0.308 C  
BRANCH  10  13
HETATM   13  C   UNL     1     -10.367  16.274  67.601  1.00  0.00    -0.284 C  
HETATM   14  C   UNL     1     -11.028  15.740  68.887  1.00  0.00    -0.283 A  
HETATM   15  C   UNL     1     -11.781  14.579  68.600  1.00  0.00    -0.364 A  
HETATM   16  C   UNL     1     -11.759  14.334  67.178  1.00  0.00    -0.430 A  
HETATM   17  C   UNL     1     -12.430  13.873  69.602  1.00  0.00    -0.192 A  
HETATM   18  C   UNL     1     -10.964  15.316  66.544  1.00  0.00    -0.295 A  
HETATM   19  C   UNL     1     -12.332  14.335  70.914  1.00  0.00    -0.429 A  
HETATM   20  C   UNL     1     -11.618  15.505  71.202  1.00  0.00    -0.446 A  
HETATM   21  C   UNL     1     -10.864  15.326  65.157  1.00  0.00    -0.441 A  
HETATM   22  C   UNL     1     -11.516  14.325  64.422  1.00  0.00    -0.321 A  
HETATM   23  C   UNL     1     -10.981  16.227  70.188  1.00  0.00    -0.335 A  
HETATM   24  C   UNL     1     -12.293  13.354  65.062  1.00  0.00    -0.481 A  
HETATM   25  C   UNL     1     -12.427  13.357  66.450  1.00  0.00    -0.297 A  
ENDBRANCH  10  13
ENDBRANCH   9  10
ENDBRANCH   8   9
ENDBRANCH   7   8
ENDBRANCH   6   7
ENDBRANCH   5   6
ENDBRANCH   4   5
ENDBRANCH   2   4
BRANCH   2  26
HETATM   26  C   UNL     1      -8.277   7.787  67.254  1.00  0.00    -0.119 C  
HETATM   27  C   UNL     1      -6.511   9.084  64.251  1.00  0.00    -0.079 A  
HETATM   28  C   UNL     1      -7.296   8.824  67.842  1.00  0.00    -0.088 A  
HETATM   29  C   UNL     1      -7.019   8.313  63.210  1.00  0.00    -0.086 A  
HETATM   30  C   UNL     1      -6.553   9.419  66.795  1.00  0.00    -0.068 A  
HETATM   31  C   UNL     1      -6.921   8.798  65.544  1.00  0.00    -0.076 A  
HETATM   32  C   UNL     1      -5.589  10.383  67.052  1.00  0.00    -0.042 A  
HETATM   33  C   UNL     1      -7.867   7.223  63.461  1.00  0.00    -0.108 A  
HETATM   34  C   UNL     1      -7.024   9.174  69.162  1.00  0.00    -0.058 A  
HETATM   35  C   UNL     1      -7.836   7.753  65.795  1.00  0.00    -0.104 A  
HETATM   36  C   UNL     1      -5.360  10.767  68.373  1.00  0.00    -0.040 A  
HETATM   37  C   UNL     1      -8.251   6.907  64.771  1.00  0.00    -0.051 A  
HETATM   38  C   UNL     1      -6.072  10.170  69.420  1.00  0.00    -0.041 A  
ENDBRANCH   2  26
TORSDOF 9
ENDMDL
MODEL       83
REMARK 921   NORMALIZED FREE ENERGY PREDICTED BY IDOCK:   -6.13 KCAL/MOL
REMARK 922        TOTAL FREE ENERGY PREDICTED BY IDOCK:  -11.11 KCAL/MOL
REMARK 923 INTER-LIGAND FREE ENERGY PREDICTED BY IDOCK:   -8.73 KCAL/MOL
REMARK 924 INTRA-LIGAND FREE ENERGY PREDICTED BY IDOCK:   -2.39 KCAL/MOL
REMARK 927      BINDING AFFINITY PREDICTED BY RF-SCORE:    0.00 PKD
ROOT
HETATM    1  C   UNL     1     -11.122  10.535  67.692  1.00  0.00    -0.309 C  
HETATM    2  N   UNL     1     -10.101  11.634  67.968  1.00  0.00    -0.184 N  
HETATM    3  C   UNL     1     -10.786  12.776  68.713  1.00  0.00    -0.234 C  
ENDROOT
BRANCH   2   4
HETATM    4  C   UNL     1      -8.956  11.054  68.772  1.00  0.00    -0.149 C  
BRANCH   4   5
HETATM    5  C   UNL     1      -9.256   9.777  69.556  1.00  0.00    -0.226 C  
BRANCH   5   6
HETATM    6  C   UNL     1      -8.003   9.359  70.338  1.00  0.00    -0.190 C  
BRANCH   6   7
HETATM    7  C   UNL     1      -8.301   8.664  71.679  1.00  0.00    -0.216 C  
BRANCH   7   8
HETATM    8  C   UNL     1      -9.792   8.382  71.920  1.00  0.00    -0.328 C  
BRANCH   8   9
HETATM    9  C   UNL     1      -9.933   6.984  72.522  1.00  0.00    -0.170 C  
BRANCH   9  10
HETATM   10  N   UNL     1     -11.007   6.108  71.898  1.00  0.00    -0.251 N  
HETATM   11  C   UNL     1     -11.660   5.207  72.940  1.00  0.00    -0.205 C  
HETATM   12  C   UNL     1     -12.125   6.932  71.277  1.00  0.00    -0.373 C  
BRANCH  10  13
HETATM   13  C   UNL     1     -10.289   5.221  70.769  1.00  0.00    -0.239 C  
HETATM   14  C   UNL     1      -8.796   4.949  71.037  1.00  0.00    -0.152 A  
HETATM   15  C   UNL     1      -8.009   5.494  69.998  1.00  0.00    -0.086 A  
HETATM   16  C   UNL     1      -8.873   6.041  68.980  1.00  0.00    -0.121 A  
HETATM   17  C   UNL     1      -6.623   5.433  70.032  1.00  0.00    -0.046 A  
HETATM   18  C   UNL     1     -10.222   5.883  69.373  1.00  0.00    -0.284 A  
HETATM   19  C   UNL     1      -6.011   4.811  71.119  1.00  0.00    -0.017 A  
HETATM   20  C   UNL     1      -6.784   4.235  72.135  1.00  0.00    -0.030 A  
HETATM   21  C   UNL     1     -11.239   6.267  68.505  1.00  0.00    -0.305 A  
HETATM   22  C   UNL     1     -10.898   6.853  67.278  1.00  0.00    -0.426 A  
HETATM   23  C   UNL     1      -8.181   4.281  72.089  1.00  0.00    -0.102 A  
HETATM   24  C   UNL     1      -9.560   7.013  66.904  1.00  0.00    -0.214 A  
HETATM   25  C   UNL     1      -8.534   6.598  67.753  1.00  0.00    -0.122 A  
ENDBRANCH  10  13
ENDBRANCH   9  10
ENDBRANCH   8   9
ENDBRANCH   7   8
ENDBRANCH   6   7
ENDBRANCH   5   6
ENDBRANCH   4   5
ENDBRANCH   2   4
BRANCH   2  26
HETATM   26  C   UNL     1      -9.483  12.188  66.586  1.00  0.00    -0.223 C  
HETATM   27  C   UNL     1      -9.145   9.785  63.770  1.00  0.00    -0.270 A  
HETATM   28  C   UNL     1     -10.532  12.687  65.569  1.00  0.00    -0.304 A  
HETATM   29  C   UNL     1      -8.081   8.975  64.153  1.00  0.00    -0.157 A  
HETATM   30  C   UNL     1     -10.526  11.845  64.431  1.00  0.00    -0.356 A  
HETATM   31  C   UNL     1      -9.488  10.851  64.586  1.00  0.00    -0.285 A  
HETATM   32  C   UNL     1     -11.371  12.077  63.356  1.00  0.00    -0.484 A  
HETATM   33  C   UNL     1      -7.322   9.267  65.297  1.00  0.00    -0.094 A  
HETATM   34  C   UNL     1     -11.369  13.801  65.593  1.00  0.00    -0.311 A  
HETATM   35  C   UNL     1      -8.778  11.103  65.780  1.00  0.00    -0.153 A  
HETATM   36  C   UNL     1     -12.244  13.164  63.412  1.00  0.00    -0.521 A  
HETATM   37  C   UNL     1      -7.642  10.368  66.102  1.00  0.00    -0.130 A  
HETATM   38  C   UNL     1     -12.244  14.018  64.521  1.00  0.00    -0.463 A  
ENDBRANCH   2  26
TORSDOF 9
ENDMDL
MODEL       84
REMARK 921   NORMALIZED FREE ENERGY PREDICTED BY IDOCK:   -6.12 KCAL/MOL
REMARK 922        TOTAL FREE ENERGY PREDICTED BY IDOCK:  -11.11 KCAL/MOL
REMARK 923 INTER-LIGAND FREE ENERGY PREDICTED BY IDOCK:   -9.43 KCAL/MOL
REMARK 924 INTRA-LIGAND FREE ENERGY PREDICTED BY IDOCK:   -1.68 KCAL/MOL
REMARK 927      BINDING AFFINITY PREDICTED BY RF-SCORE:    0.00 PKD
ROOT
HETATM    1  C   UNL     1      -9.588  18.000  68.098  1.00  0.00    -0.301 C  
HETATM    2  N   UNL     1      -9.739  16.642  67.419  1.00  0.00    -0.247 N  
HETATM    3  C   UNL     1      -9.420  16.789  65.934  1.00  0.00    -0.150 C  
ENDROOT
BRANCH   2   4
HETATM    4  C   UNL     1      -8.814  15.648  68.090  1.00  0.00    -0.174 C  
BRANCH   4   5
HETATM    5  C   UNL     1      -7.807  14.940  67.185  1.00  0.00    -0.203 C  
BRANCH   5   6
HETATM    6  C   UNL     1      -8.161  13.449  67.104  1.00  0.00    -0.121 C  
BRANCH   6   7
HETATM    7  C   UNL     1      -8.061  12.705  68.448  1.00  0.00    -0.137 C  
BRANCH   7   8
HETATM    8  C   UNL     1      -8.983  11.482  68.556  1.00  0.00    -0.146 C  
BRANCH   8   9
HETATM    9  C   UNL     1      -8.119  10.221  68.581  1.00  0.00    -0.114 C  
BRANCH   9  10
HETATM   10  N   UNL     1      -8.382   9.224  67.464  1.00  0.00    -0.118 N  
HETATM   11  C   UNL     1      -9.724   9.492  66.789  1.00  0.00    -0.197 C  
HETATM   12  C   UNL     1      -7.326   9.299  66.371  1.00  0.00    -0.092 C  
BRANCH  10  13
HETATM   13  C   UNL     1      -8.378   7.764  68.130  1.00  0.00    -0.124 C  
HETATM   14  C   UNL     1      -8.773   6.629  67.165  1.00  0.00    -0.111 A  
HETATM   15  C   UNL     1      -9.938   5.979  67.629  1.00  0.00    -0.154 A  
HETATM   16  C   UNL     1     -10.317   6.532  68.908  1.00  0.00    -0.225 A  
HETATM   17  C   UNL     1     -10.532   4.955  66.906  1.00  0.00    -0.202 A  
HETATM   18  C   UNL     1      -9.418   7.566  69.258  1.00  0.00    -0.154 A  
HETATM   19  C   UNL     1      -9.950   4.567  65.700  1.00  0.00    -0.245 A  
HETATM   20  C   UNL     1      -8.774   5.181  65.250  1.00  0.00    -0.150 A  
HETATM   21  C   UNL     1      -9.542   8.192  70.493  1.00  0.00    -0.177 A  
HETATM   22  C   UNL     1     -10.592   7.816  71.342  1.00  0.00    -0.242 A  
HETATM   23  C   UNL     1      -8.166   6.200  65.990  1.00  0.00    -0.127 A  
HETATM   24  C   UNL     1     -11.481   6.799  70.981  1.00  0.00    -0.372 A  
HETATM   25  C   UNL     1     -11.343   6.141  69.759  1.00  0.00    -0.452 A  
ENDBRANCH  10  13
ENDBRANCH   9  10
ENDBRANCH   8   9
ENDBRANCH   7   8
ENDBRANCH   6   7
ENDBRANCH   5   6
ENDBRANCH   4   5
ENDBRANCH   2   4
BRANCH   2  26
HETATM   26  C   UNL     1     -11.243  16.091  67.593  1.00  0.00    -0.183 C  
HETATM   27  C   UNL     1     -11.868  12.518  66.777  1.00  0.00    -0.416 A  
HETATM   28  C   UNL     1     -11.541  15.461  68.971  1.00  0.00    -0.361 A  
HETATM   29  C   UNL     1     -11.801  12.480  65.388  1.00  0.00    -0.479 A  
HETATM   30  C   UNL     1     -11.789  14.076  68.815  1.00  0.00    -0.396 A  
HETATM   31  C   UNL     1     -11.747  13.746  67.409  1.00  0.00    -0.417 A  
HETATM   32  C   UNL     1     -12.093  13.270  69.902  1.00  0.00    -0.377 A  
HETATM   33  C   UNL     1     -11.689  13.658  64.635  1.00  0.00    -0.414 A  
HETATM   34  C   UNL     1     -11.652  16.040  70.233  1.00  0.00    -0.335 A  
HETATM   35  C   UNL     1     -11.555  14.926  66.659  1.00  0.00    -0.265 A  
HETATM   36  C   UNL     1     -12.149  13.849  71.171  1.00  0.00    -0.320 A  
HETATM   37  C   UNL     1     -11.606  14.905  65.269  1.00  0.00    -0.300 A  
HETATM   38  C   UNL     1     -11.929  15.221  71.336  1.00  0.00    -0.428 A  
ENDBRANCH   2  26
TORSDOF 9
ENDMDL
MODEL       85
REMARK 921   NORMALIZED FREE ENERGY PREDICTED BY IDOCK:   -6.12 KCAL/MOL
REMARK 922        TOTAL FREE ENERGY PREDICTED BY IDOCK:  -11.10 KCAL/MOL
REMARK 923 INTER-LIGAND FREE ENERGY PREDICTED BY IDOCK:   -9.70 KCAL/MOL
REMARK 924 INTRA-LIGAND FREE ENERGY PREDICTED BY IDOCK:   -1.41 KCAL/MOL
REMARK 927      BINDING AFFINITY PREDICTED BY RF-SCORE:    0.00 PKD
ROOT
HETATM    1  C   UNL     1     -13.214   7.098  71.476  1.00  0.00    -0.360 C  
HETATM    2  N   UNL     1     -11.784   7.328  70.999  1.00  0.00    -0.297 N  
HETATM    3  C   UNL     1     -11.451   6.312  69.911  1.00  0.00    -0.389 C  
ENDROOT
BRANCH   2   4
HETATM    4  C   UNL     1     -11.655   8.749  70.490  1.00  0.00    -0.147 C  
BRANCH   4   5
HETATM    5  C   UNL     1     -12.717   9.740  70.967  1.00  0.00    -0.392 C  
BRANCH   5   6
HETATM    6  C   UNL     1     -12.114  11.150  71.000  1.00  0.00    -0.380 C  
BRANCH   6   7
HETATM    7  C   UNL     1     -11.937  11.791  69.611  1.00  0.00    -0.378 C  
BRANCH   7   8
HETATM    8  C   UNL     1     -11.880  13.326  69.633  1.00  0.00    -0.391 C  
BRANCH   8   9
HETATM    9  C   UNL     1     -11.807  13.831  68.192  1.00  0.00    -0.376 C  
BRANCH   9  10
HETATM   10  N   UNL     1     -10.539  14.585  67.826  1.00  0.00    -0.249 N  
HETATM   11  C   UNL     1     -10.858  15.977  67.290  1.00  0.00    -0.255 C  
HETATM   12  C   UNL     1      -9.626  14.782  69.027  1.00  0.00    -0.178 C  
BRANCH  10  13
HETATM   13  C   UNL     1      -9.788  13.717  66.704  1.00  0.00    -0.284 C  
HETATM   14  C   UNL     1     -10.668  13.360  65.490  1.00  0.00    -0.301 A  
HETATM   15  C   UNL     1     -10.791  11.957  65.376  1.00  0.00    -0.343 A  
HETATM   16  C   UNL     1      -9.970  11.321  66.378  1.00  0.00    -0.252 A  
HETATM   17  C   UNL     1     -11.581  11.378  64.393  1.00  0.00    -0.075 A  
HETATM   18  C   UNL     1      -9.340  12.311  67.167  1.00  0.00    -0.196 A  
HETATM   19  C   UNL     1     -12.257  12.213  63.505  1.00  0.00    -0.670 A  
HETATM   20  C   UNL     1     -12.112  13.604  63.588  1.00  0.00    -0.397 A  
HETATM   21  C   UNL     1      -8.433  11.929  68.150  1.00  0.00    -0.163 A  
HETATM   22  C   UNL     1      -8.205  10.564  68.370  1.00  0.00    -0.121 A  
HETATM   23  C   UNL     1     -11.299  14.184  64.566  1.00  0.00    -0.355 A  
HETATM   24  C   UNL     1      -8.841   9.593  67.589  1.00  0.00    -0.127 A  
HETATM   25  C   UNL     1      -9.725   9.968  66.577  1.00  0.00    -0.254 A  
ENDBRANCH  10  13
ENDBRANCH   9  10
ENDBRANCH   8   9
ENDBRANCH   7   8
ENDBRANCH   6   7
ENDBRANCH   5   6
ENDBRANCH   4   5
ENDBRANCH   2   4
BRANCH   2  26
HETATM   26  C   UNL     1     -10.749   7.163  72.225  1.00  0.00    -0.221 C  
HETATM   27  C   UNL     1      -8.946   3.926  72.524  1.00  0.00    -0.129 A  
HETATM   28  C   UNL     1      -9.290   7.539  71.888  1.00  0.00    -0.171 A  
HETATM   29  C   UNL     1      -9.924   3.043  72.968  1.00  0.00    -0.194 A  
HETATM   30  C   UNL     1      -8.477   6.383  71.950  1.00  0.00    -0.123 A  
HETATM   31  C   UNL     1      -9.283   5.262  72.377  1.00  0.00    -0.154 A  
HETATM   32  C   UNL     1      -7.114   6.445  71.699  1.00  0.00    -0.081 A  
HETATM   33  C   UNL     1     -11.201   3.497  73.332  1.00  0.00    -0.258 A  
HETATM   34  C   UNL     1      -8.707   8.775  71.617  1.00  0.00    -0.255 A  
HETATM   35  C   UNL     1     -10.589   5.713  72.667  1.00  0.00    -0.266 A  
HETATM   36  C   UNL     1      -6.547   7.678  71.375  1.00  0.00    -0.041 A  
HETATM   37  C   UNL     1     -11.532   4.854  73.223  1.00  0.00    -0.359 A  
HETATM   38  C   UNL     1      -7.336   8.833  71.333  1.00  0.00    -0.117 A  
ENDBRANCH   2  26
TORSDOF 9
ENDMDL
MODEL       86
REMARK 921   NORMALIZED FREE ENERGY PREDICTED BY IDOCK:   -6.11 KCAL/MOL
REMARK 922        TOTAL FREE ENERGY PREDICTED BY IDOCK:  -11.09 KCAL/MOL
REMARK 923 INTER-LIGAND FREE ENERGY PREDICTED BY IDOCK:   -9.71 KCAL/MOL
REMARK 924 INTRA-LIGAND FREE ENERGY PREDICTED BY IDOCK:   -1.38 KCAL/MOL
REMARK 927      BINDING AFFINITY PREDICTED BY RF-SCORE:    0.00 PKD
ROOT
HETATM    1  C   UNL     1      -5.804   7.061  69.408  1.00  0.00    -0.018 C  
HETATM    2  N   UNL     1      -7.075   7.587  70.067  1.00  0.00    -0.059 N  
HETATM    3  C   UNL     1      -6.740   8.083  71.471  1.00  0.00    -0.053 C  
ENDROOT
BRANCH   2   4
HETATM    4  C   UNL     1      -7.656   8.692  69.210  1.00  0.00    -0.094 C  
BRANCH   4   5
HETATM    5  C   UNL     1      -8.231   9.896  69.956  1.00  0.00    -0.187 C  
BRANCH   5   6
HETATM    6  C   UNL     1      -9.596  10.257  69.354  1.00  0.00    -0.237 C  
BRANCH   6   7
HETATM    7  C   UNL     1      -9.771   9.822  67.887  1.00  0.00    -0.168 C  
BRANCH   7   8
HETATM    8  C   UNL     1     -10.846  10.611  67.124  1.00  0.00    -0.328 C  
BRANCH   8   9
HETATM    9  C   UNL     1     -11.103  11.924  67.865  1.00  0.00    -0.242 C  
BRANCH   9  10
HETATM   10  N   UNL     1     -10.636  13.181  67.148  1.00  0.00    -0.256 N  
HETATM   11  C   UNL     1      -9.181  13.498  67.478  1.00  0.00    -0.219 C  
HETATM   12  C   UNL     1     -10.717  13.039  65.636  1.00  0.00    -0.275 C  
BRANCH  10  13
HETATM   13  C   UNL     1     -11.589  14.378  67.637  1.00  0.00    -0.370 C  
HETATM   14  C   UNL     1     -11.027  15.785  67.357  1.00  0.00    -0.279 A  
HETATM   15  C   UNL     1     -10.843  16.484  68.571  1.00  0.00    -0.349 A  
HETATM   16  C   UNL     1     -11.334  15.682  69.665  1.00  0.00    -0.331 A  
HETATM   17  C   UNL     1     -10.292  17.758  68.595  1.00  0.00    -0.351 A  
HETATM   18  C   UNL     1     -11.806  14.446  69.167  1.00  0.00    -0.359 A  
HETATM   19  C   UNL     1      -9.925  18.348  67.387  1.00  0.00    -0.347 A  
HETATM   20  C   UNL     1     -10.139  17.676  66.176  1.00  0.00    -0.307 A  
HETATM   21  C   UNL     1     -12.403  13.539  70.036  1.00  0.00    -0.315 A  
HETATM   22  C   UNL     1     -12.474  13.854  71.401  1.00  0.00    -0.424 A  
HETATM   23  C   UNL     1     -10.711  16.401  66.152  1.00  0.00    -0.174 A  
HETATM   24  C   UNL     1     -11.994  15.076  71.883  1.00  0.00    -0.454 A  
HETATM   25  C   UNL     1     -11.427  16.006  71.013  1.00  0.00    -0.460 A  
ENDBRANCH  10  13
ENDBRANCH   9  10
ENDBRANCH   8   9
ENDBRANCH   7   8
ENDBRANCH   6   7
ENDBRANCH   5   6
ENDBRANCH   4   5
ENDBRANCH   2   4
BRANCH   2  26
HETATM   26  C   UNL     1      -8.183   6.419  70.160  1.00  0.00    -0.129 C  
HETATM   27  C   UNL     1     -11.700   7.438  70.804  1.00  0.00    -0.305 A  
HETATM   28  C   UNL     1      -8.893   6.100  68.827  1.00  0.00    -0.121 A  
HETATM   29  C   UNL     1     -11.695   7.815  72.143  1.00  0.00    -0.368 A  
HETATM   30  C   UNL     1     -10.260   6.455  68.921  1.00  0.00    -0.215 A  
HETATM   31  C   UNL     1     -10.532   6.927  70.259  1.00  0.00    -0.227 A  
HETATM   32  C   UNL     1     -11.131   6.261  67.858  1.00  0.00    -0.360 A  
HETATM   33  C   UNL     1     -10.562   7.618  72.948  1.00  0.00    -0.411 A  
HETATM   34  C   UNL     1      -8.418   5.499  67.663  1.00  0.00    -0.102 A  
HETATM   35  C   UNL     1      -9.366   6.800  71.043  1.00  0.00    -0.160 A  
HETATM   36  C   UNL     1     -10.635   5.709  66.677  1.00  0.00    -0.361 A  
HETATM   37  C   UNL     1      -9.393   7.065  72.409  1.00  0.00    -0.152 A  
HETATM   38  C   UNL     1      -9.291   5.332  66.579  1.00  0.00    -0.146 A  
ENDBRANCH   2  26
TORSDOF 9
ENDMDL
MODEL       87
REMARK 921   NORMALIZED FREE ENERGY PREDICTED BY IDOCK:   -6.11 KCAL/MOL
REMARK 922        TOTAL FREE ENERGY PREDICTED BY IDOCK:  -11.09 KCAL/MOL
REMARK 923 INTER-LIGAND FREE ENERGY PREDICTED BY IDOCK:   -9.24 KCAL/MOL
REMARK 924 INTRA-LIGAND FREE ENERGY PREDICTED BY IDOCK:   -1.85 KCAL/MOL
REMARK 927      BINDING AFFINITY PREDICTED BY RF-SCORE:    0.00 PKD
ROOT
HETATM    1  C   UNL     1     -12.031  13.880  68.855  1.00  0.00    -0.358 C  
HETATM    2  N   UNL     1     -11.166  12.644  68.630  1.00  0.00    -0.263 N  
HETATM    3  C   UNL     1      -9.752  13.085  68.261  1.00  0.00    -0.221 C  
ENDROOT
BRANCH   2   4
HETATM    4  C   UNL     1     -11.175  11.798  69.887  1.00  0.00    -0.014 C  
BRANCH   4   5
HETATM    5  C   UNL     1     -12.527  11.622  70.576  1.00  0.00    -0.344 C  
BRANCH   5   6
HETATM    6  C   UNL     1     -12.866  10.127  70.647  1.00  0.00    -0.314 C  
BRANCH   6   7
HETATM    7  C   UNL     1     -12.829   9.540  72.070  1.00  0.00    -0.499 C  
BRANCH   7   8
HETATM    8  C   UNL     1     -12.520   8.036  72.119  1.00  0.00    -0.335 C  
BRANCH   8   9
HETATM    9  C   UNL     1     -11.149   7.842  72.766  1.00  0.00    -0.398 C  
BRANCH   9  10
HETATM   10  N   UNL     1     -10.428   6.554  72.399  1.00  0.00    -0.200 N  
HETATM   11  C   UNL     1      -9.177   6.359  73.249  1.00  0.00    -0.127 C  
HETATM   12  C   UNL     1     -11.301   5.329  72.626  1.00  0.00    -0.231 C  
BRANCH  10  13
HETATM   13  C   UNL     1     -10.033   6.667  70.847  1.00  0.00    -0.187 C  
HETATM   14  C   UNL     1      -9.344   5.410  70.280  1.00  0.00    -0.198 A  
HETATM   15  C   UNL     1      -8.045   5.732  69.826  1.00  0.00    -0.104 A  
HETATM   16  C   UNL     1      -7.831   7.153  69.956  1.00  0.00    -0.113 A  
HETATM   17  C   UNL     1      -7.195   4.759  69.321  1.00  0.00    -0.052 A  
HETATM   18  C   UNL     1      -8.978   7.751  70.527  1.00  0.00    -0.150 A  
HETATM   19  C   UNL     1      -7.649   3.442  69.261  1.00  0.00    -0.051 A  
HETATM   20  C   UNL     1      -8.949   3.121  69.675  1.00  0.00    -0.169 A  
HETATM   21  C   UNL     1      -9.029   9.133  70.673  1.00  0.00    -0.292 A  
HETATM   22  C   UNL     1      -7.916   9.897  70.296  1.00  0.00    -0.135 A  
HETATM   23  C   UNL     1      -9.811   4.106  70.165  1.00  0.00    -0.242 A  
HETATM   24  C   UNL     1      -6.783   9.293  69.741  1.00  0.00    -0.051 A  
HETATM   25  C   UNL     1      -6.737   7.911  69.559  1.00  0.00    -0.042 A  
ENDBRANCH  10  13
ENDBRANCH   9  10
ENDBRANCH   8   9
ENDBRANCH   7   8
ENDBRANCH   6   7
ENDBRANCH   5   6
ENDBRANCH   4   5
ENDBRANCH   2   4
BRANCH   2  26
HETATM   26  C   UNL     1     -11.775  11.741  67.441  1.00  0.00    -0.230 C  
HETATM   27  C   UNL     1     -10.845  12.639  63.955  1.00  0.00    -0.452 A  
HETATM   28  C   UNL     1     -10.875  10.566  67.002  1.00  0.00    -0.288 A  
HETATM   29  C   UNL     1     -11.565  13.803  63.710  1.00  0.00    -0.125 A  
HETATM   30  C   UNL     1     -10.428  10.781  65.677  1.00  0.00    -0.255 A  
HETATM   31  C   UNL     1     -11.027  11.993  65.168  1.00  0.00    -0.359 A  
HETATM   32  C   UNL     1      -9.608   9.865  65.034  1.00  0.00    -0.364 A  
HETATM   33  C   UNL     1     -12.510  14.278  64.632  1.00  0.00    -0.371 A  
HETATM   34  C   UNL     1     -10.527   9.389  67.661  1.00  0.00    -0.328 A  
HETATM   35  C   UNL     1     -11.919  12.511  66.133  1.00  0.00    -0.432 A  
HETATM   36  C   UNL     1      -9.220   8.715  65.721  1.00  0.00    -0.245 A  
HETATM   37  C   UNL     1     -12.726  13.606  65.842  1.00  0.00    -0.428 A  
HETATM   38  C   UNL     1      -9.674   8.479  67.024  1.00  0.00    -0.266 A  
ENDBRANCH   2  26
TORSDOF 9
ENDMDL
MODEL       88
REMARK 921   NORMALIZED FREE ENERGY PREDICTED BY IDOCK:   -6.10 KCAL/MOL
REMARK 922        TOTAL FREE ENERGY PREDICTED BY IDOCK:  -11.07 KCAL/MOL
REMARK 923 INTER-LIGAND FREE ENERGY PREDICTED BY IDOCK:  -10.32 KCAL/MOL
REMARK 924 INTRA-LIGAND FREE ENERGY PREDICTED BY IDOCK:   -0.76 KCAL/MOL
REMARK 927      BINDING AFFINITY PREDICTED BY RF-SCORE:    0.00 PKD
ROOT
HETATM    1  C   UNL     1     -10.520  18.851  65.978  1.00  0.00    -0.446 C  
HETATM    2  N   UNL     1     -10.232  17.383  66.278  1.00  0.00    -0.340 N  
HETATM    3  C   UNL     1     -10.893  17.006  67.601  1.00  0.00    -0.244 C  
ENDROOT
BRANCH   2   4
HETATM    4  C   UNL     1     -10.751  16.534  65.136  1.00  0.00    -0.244 C  
BRANCH   4   5
HETATM    5  C   UNL     1     -11.114  15.089  65.476  1.00  0.00    -0.358 C  
BRANCH   5   6
HETATM    6  C   UNL     1     -11.981  14.508  64.350  1.00  0.00    -0.467 C  
BRANCH   6   7
HETATM    7  C   UNL     1     -11.441  13.195  63.754  1.00  0.00    -0.426 C  
BRANCH   7   8
HETATM    8  C   UNL     1     -10.208  12.639  64.482  1.00  0.00    -0.331 C  
BRANCH   8   9
HETATM    9  C   UNL     1     -10.216  11.115  64.358  1.00  0.00    -0.330 C  
BRANCH   9  10
HETATM   10  N   UNL     1      -9.646  10.358  65.547  1.00  0.00    -0.215 N  
HETATM   11  C   UNL     1      -8.871   9.124  65.097  1.00  0.00    -0.200 C  
HETATM   12  C   UNL     1      -8.677  11.209  66.353  1.00  0.00    -0.177 C  
BRANCH  10  13
HETATM   13  C   UNL     1     -10.891   9.927  66.465  1.00  0.00     0.095 C  
HETATM   14  C   UNL     1     -11.267  10.962  67.542  1.00  0.00    -0.364 A  
HETATM   15  C   UNL     1     -11.129  10.396  68.830  1.00  0.00    -0.298 A  
HETATM   16  C   UNL     1     -10.774   9.003  68.704  1.00  0.00    -0.137 A  
HETATM   17  C   UNL     1     -11.354  11.143  69.976  1.00  0.00    -0.326 A  
HETATM   18  C   UNL     1     -10.647   8.672  67.335  1.00  0.00    -0.298 A  
HETATM   19  C   UNL     1     -11.730  12.479  69.838  1.00  0.00    -0.327 A  
HETATM   20  C   UNL     1     -11.906  13.038  68.565  1.00  0.00    -0.360 A  
HETATM   21  C   UNL     1     -10.387   7.355  66.970  1.00  0.00    -0.384 A  
HETATM   22  C   UNL     1     -10.204   6.395  67.975  1.00  0.00    -0.195 A  
HETATM   23  C   UNL     1     -11.697  12.277  67.411  1.00  0.00    -0.405 A  
HETATM   24  C   UNL     1     -10.323   6.737  69.326  1.00  0.00    -0.221 A  
HETATM   25  C   UNL     1     -10.619   8.047  69.701  1.00  0.00    -0.223 A  
ENDBRANCH  10  13
ENDBRANCH   9  10
ENDBRANCH   8   9
ENDBRANCH   7   8
ENDBRANCH   6   7
ENDBRANCH   5   6
ENDBRANCH   4   5
ENDBRANCH   2   4
BRANCH   2  26
HETATM   26  C   UNL     1      -8.643  17.131  66.380  1.00  0.00    -0.265 C  
HETATM   27  C   UNL     1      -6.726  19.206  68.796  1.00  0.00    -0.330 A  
HETATM   28  C   UNL     1      -8.223  16.114  67.463  1.00  0.00    -0.167 A  
HETATM   29  C   UNL     1      -6.691  20.461  68.198  1.00  0.00    -0.326 A  
HETATM   30  C   UNL     1      -7.484  16.776  68.472  1.00  0.00    -0.213 A  
HETATM   31  C   UNL     1      -7.319  18.162  68.103  1.00  0.00    -0.254 A  
HETATM   32  C   UNL     1      -6.976  16.087  69.564  1.00  0.00    -0.191 A  
HETATM   33  C   UNL     1      -7.174  20.658  66.895  1.00  0.00    -0.350 A  
HETATM   34  C   UNL     1      -8.405  14.735  67.537  1.00  0.00    -0.197 A  
HETATM   35  C   UNL     1      -7.878  18.372  66.823  1.00  0.00    -0.253 A  
HETATM   36  C   UNL     1      -7.210  14.714  69.658  1.00  0.00    -0.098 A  
HETATM   37  C   UNL     1      -7.738  19.596  66.176  1.00  0.00    -0.331 A  
HETATM   38  C   UNL     1      -7.918  14.044  68.655  1.00  0.00    -0.122 A  
ENDBRANCH   2  26
TORSDOF 9
ENDMDL
MODEL       89
REMARK 921   NORMALIZED FREE ENERGY PREDICTED BY IDOCK:   -6.08 KCAL/MOL
REMARK 922        TOTAL FREE ENERGY PREDICTED BY IDOCK:  -11.04 KCAL/MOL
REMARK 923 INTER-LIGAND FREE ENERGY PREDICTED BY IDOCK:  -10.26 KCAL/MOL
REMARK 924 INTRA-LIGAND FREE ENERGY PREDICTED BY IDOCK:   -0.78 KCAL/MOL
REMARK 927      BINDING AFFINITY PREDICTED BY RF-SCORE:    0.00 PKD
ROOT
HETATM    1  C   UNL     1     -10.752  13.410  64.992  1.00  0.00    -0.343 C  
HETATM    2  N   UNL     1     -11.007  14.793  65.580  1.00  0.00    -0.330 N  
HETATM    3  C   UNL     1     -11.763  15.638  64.558  1.00  0.00    -0.220 C  
ENDROOT
BRANCH   2   4
HETATM    4  C   UNL     1     -11.791  14.647  66.868  1.00  0.00    -0.326 C  
BRANCH   4   5
HETATM    5  C   UNL     1     -11.983  13.222  67.387  1.00  0.00    -0.383 C  
BRANCH   5   6
HETATM    6  C   UNL     1     -11.665  13.184  68.888  1.00  0.00    -0.368 C  
BRANCH   6   7
HETATM    7  C   UNL     1     -11.508  11.764  69.462  1.00  0.00    -0.363 C  
BRANCH   7   8
HETATM    8  C   UNL     1     -11.106  10.709  68.419  1.00  0.00    -0.328 C  
BRANCH   8   9
HETATM    9  C   UNL     1     -10.200   9.679  69.094  1.00  0.00    -0.202 C  
BRANCH   9  10
HETATM   10  N   UNL     1      -9.887   8.442  68.267  1.00  0.00    -0.163 N  
HETATM   11  C   UNL     1     -10.147   8.687  66.784  1.00  0.00    -0.296 C  
HETATM   12  C   UNL     1      -8.427   8.030  68.388  1.00  0.00    -0.127 C  
BRANCH  10  13
HETATM   13  C   UNL     1     -10.835   7.265  68.809  1.00  0.00    -0.086 C  
HETATM   14  C   UNL     1     -10.996   7.243  70.342  1.00  0.00    -0.273 A  
HETATM   15  C   UNL     1     -10.508   6.024  70.864  1.00  0.00    -0.293 A  
HETATM   16  C   UNL     1     -10.108   5.163  69.776  1.00  0.00    -0.336 A  
HETATM   17  C   UNL     1     -10.487   5.778  72.229  1.00  0.00    -0.253 A  
HETATM   18  C   UNL     1     -10.304   5.836  68.548  1.00  0.00    -0.274 A  
HETATM   19  C   UNL     1     -10.969   6.763  73.090  1.00  0.00    -0.279 A  
HETATM   20  C   UNL     1     -11.489   7.959  72.579  1.00  0.00    -0.455 A  
HETATM   21  C   UNL     1     -10.061   5.167  67.353  1.00  0.00    -0.222 A  
HETATM   22  C   UNL     1      -9.576   3.853  67.398  1.00  0.00    -0.218 A  
HETATM   23  C   UNL     1     -11.526   8.197  71.202  1.00  0.00    -0.304 A  
HETATM   24  C   UNL     1      -9.376   3.201  68.620  1.00  0.00    -0.236 A  
HETATM   25  C   UNL     1      -9.651   3.852  69.822  1.00  0.00    -0.271 A  
ENDBRANCH  10  13
ENDBRANCH   9  10
ENDBRANCH   8   9
ENDBRANCH   7   8
ENDBRANCH   6   7
ENDBRANCH   5   6
ENDBRANCH   4   5
ENDBRANCH   2   4
BRANCH   2  26
HETATM   26  C   UNL     1      -9.613  15.515  65.947  1.00  0.00    -0.348 C  
HETATM   27  C   UNL     1      -9.672  18.122  68.596  1.00  0.00    -0.367 A  
HETATM   28  C   UNL     1      -8.835  14.856  67.107  1.00  0.00    -0.235 A  
HETATM   29  C   UNL     1     -10.300  19.201  67.984  1.00  0.00    -0.483 A  
HETATM   30  C   UNL     1      -8.788  15.744  68.209  1.00  0.00    -0.180 A  
HETATM   31  C   UNL     1      -9.424  16.987  67.840  1.00  0.00    -0.245 A  
HETATM   32  C   UNL     1      -8.136  15.401  69.385  1.00  0.00    -0.249 A  
HETATM   33  C   UNL     1     -10.610  19.179  66.615  1.00  0.00    -0.520 A  
HETATM   34  C   UNL     1      -8.174  13.632  67.183  1.00  0.00    -0.123 A  
HETATM   35  C   UNL     1      -9.805  16.929  66.482  1.00  0.00    -0.307 A  
HETATM   36  C   UNL     1      -7.523  14.150  69.471  1.00  0.00     0.159 A  
HETATM   37  C   UNL     1     -10.323  18.048  65.838  1.00  0.00    -0.274 A  
HETATM   38  C   UNL     1      -7.542  13.273  68.381  1.00  0.00    -0.137 A  
ENDBRANCH   2  26
TORSDOF 9
ENDMDL
MODEL       90
REMARK 921   NORMALIZED FREE ENERGY PREDICTED BY IDOCK:   -6.07 KCAL/MOL
REMARK 922        TOTAL FREE ENERGY PREDICTED BY IDOCK:  -11.03 KCAL/MOL
REMARK 923 INTER-LIGAND FREE ENERGY PREDICTED BY IDOCK:   -9.63 KCAL/MOL
REMARK 924 INTRA-LIGAND FREE ENERGY PREDICTED BY IDOCK:   -1.40 KCAL/MOL
REMARK 927      BINDING AFFINITY PREDICTED BY RF-SCORE:    0.00 PKD
ROOT
HETATM    1  C   UNL     1     -11.331  10.318  69.318  1.00  0.00    -0.196 C  
HETATM    2  N   UNL     1     -10.216   9.468  68.716  1.00  0.00    -0.191 N  
HETATM    3  C   UNL     1     -10.297   9.545  67.194  1.00  0.00    -0.253 C  
ENDROOT
BRANCH   2   4
HETATM    4  C   UNL     1      -8.881   9.969  69.228  1.00  0.00    -0.178 C  
BRANCH   4   5
HETATM    5  C   UNL     1      -8.033  10.770  68.241  1.00  0.00    -0.118 C  
BRANCH   5   6
HETATM    6  C   UNL     1      -8.445  12.247  68.306  1.00  0.00    -0.173 C  
BRANCH   6   7
HETATM    7  C   UNL     1      -7.969  13.086  67.105  1.00  0.00    -0.095 C  
BRANCH   7   8
HETATM    8  C   UNL     1      -7.314  14.420  67.493  1.00  0.00    -0.208 C  
BRANCH   8   9
HETATM    9  C   UNL     1      -8.285  15.199  68.381  1.00  0.00    -0.145 C  
BRANCH   9  10
HETATM   10  N   UNL     1      -8.912  16.429  67.743  1.00  0.00    -0.197 N  
HETATM   11  C   UNL     1      -8.613  17.685  68.554  1.00  0.00    -0.285 C  
HETATM   12  C   UNL     1      -8.376  16.680  66.342  1.00  0.00    -0.318 C  
BRANCH  10  13
HETATM   13  C   UNL     1     -10.495  16.169  67.686  1.00  0.00    -0.292 C  
HETATM   14  C   UNL     1     -11.097  15.654  69.008  1.00  0.00    -0.279 A  
HETATM   15  C   UNL     1     -11.673  14.378  68.815  1.00  0.00    -0.372 A  
HETATM   16  C   UNL     1     -11.592  14.023  67.418  1.00  0.00    -0.397 A  
HETATM   17  C   UNL     1     -12.234  13.671  69.868  1.00  0.00    -0.367 A  
HETATM   18  C   UNL     1     -10.931  15.052  66.709  1.00  0.00    -0.323 A  
HETATM   19  C   UNL     1     -12.226  14.248  71.137  1.00  0.00    -0.431 A  
HETATM   20  C   UNL     1     -11.690  15.528  71.331  1.00  0.00    -0.470 A  
HETATM   21  C   UNL     1     -10.809  14.963  65.326  1.00  0.00    -0.398 A  
HETATM   22  C   UNL     1     -11.300  13.823  64.674  1.00  0.00    -0.382 A  
HETATM   23  C   UNL     1     -11.143  16.247  70.264  1.00  0.00    -0.340 A  
HETATM   24  C   UNL     1     -11.943  12.807  65.388  1.00  0.00    -0.482 A  
HETATM   25  C   UNL     1     -12.102  12.905  66.770  1.00  0.00    -0.335 A  
ENDBRANCH  10  13
ENDBRANCH   9  10
ENDBRANCH   8   9
ENDBRANCH   7   8
ENDBRANCH   6   7
ENDBRANCH   5   6
ENDBRANCH   4   5
ENDBRANCH   2   4
BRANCH   2  26
HETATM   26  C   UNL     1     -10.364   7.933  69.185  1.00  0.00    -0.219 C  
HETATM   27  C   UNL     1      -7.285   6.174  70.302  1.00  0.00    -0.083 A  
HETATM   28  C   UNL     1     -10.596   7.744  70.700  1.00  0.00    -0.222 A  
HETATM   29  C   UNL     1      -6.583   5.955  69.122  1.00  0.00    -0.051 A  
HETATM   30  C   UNL     1      -9.479   7.088  71.271  1.00  0.00    -0.164 A  
HETATM   31  C   UNL     1      -8.540   6.759  70.224  1.00  0.00    -0.140 A  
HETATM   32  C   UNL     1      -9.434   6.785  72.624  1.00  0.00    -0.152 A  
HETATM   33  C   UNL     1      -7.154   6.248  67.873  1.00  0.00    -0.085 A  
HETATM   34  C   UNL     1     -11.695   8.050  71.499  1.00  0.00    -0.321 A  
HETATM   35  C   UNL     1      -9.086   7.128  68.976  1.00  0.00    -0.132 A  
HETATM   36  C   UNL     1     -10.517   7.144  73.428  1.00  0.00    -0.410 A  
HETATM   37  C   UNL     1      -8.438   6.803  67.789  1.00  0.00    -0.122 A  
HETATM   38  C   UNL     1     -11.637   7.772  72.871  1.00  0.00    -0.301 A  
ENDBRANCH   2  26
TORSDOF 9
ENDMDL
MODEL       91
REMARK 921   NORMALIZED FREE ENERGY PREDICTED BY IDOCK:   -6.06 KCAL/MOL
REMARK 922        TOTAL FREE ENERGY PREDICTED BY IDOCK:  -11.01 KCAL/MOL
REMARK 923 INTER-LIGAND FREE ENERGY PREDICTED BY IDOCK:  -10.70 KCAL/MOL
REMARK 924 INTRA-LIGAND FREE ENERGY PREDICTED BY IDOCK:   -0.31 KCAL/MOL
REMARK 927      BINDING AFFINITY PREDICTED BY RF-SCORE:    0.00 PKD
ROOT
HETATM    1  C   UNL     1      -7.699   6.204  70.249  1.00  0.00    -0.097 C  
HETATM    2  N   UNL     1      -8.577   7.385  69.848  1.00  0.00    -0.139 N  
HETATM    3  C   UNL     1      -8.315   8.548  70.801  1.00  0.00    -0.139 C  
ENDROOT
BRANCH   2   4
HETATM    4  C   UNL     1      -8.273   7.764  68.413  1.00  0.00    -0.124 C  
BRANCH   4   5
HETATM    5  C   UNL     1      -8.190   9.259  68.110  1.00  0.00    -0.119 C  
BRANCH   5   6
HETATM    6  C   UNL     1      -9.231   9.616  67.040  1.00  0.00    -0.167 C  
BRANCH   6   7
HETATM    7  C   UNL     1      -9.222  11.098  66.623  1.00  0.00    -0.188 C  
BRANCH   7   8
HETATM    8  C   UNL     1     -10.567  11.603  66.079  1.00  0.00    -0.303 C  
BRANCH   8   9
HETATM    9  C   UNL     1     -10.324  12.900  65.307  1.00  0.00    -0.300 C  
BRANCH   9  10
HETATM   10  N   UNL     1     -11.051  14.125  65.838  1.00  0.00    -0.302 N  
HETATM   11  C   UNL     1     -11.102  15.234  64.793  1.00  0.00    -0.394 C  
HETATM   12  C   UNL     1     -12.493  13.814  66.211  1.00  0.00    -0.391 C  
BRANCH  10  13
HETATM   13  C   UNL     1     -10.244  14.620  67.134  1.00  0.00    -0.256 C  
HETATM   14  C   UNL     1     -11.028  14.487  68.454  1.00  0.00    -0.255 A  
HETATM   15  C   UNL     1     -11.204  15.758  69.045  1.00  0.00    -0.319 A  
HETATM   16  C   UNL     1     -10.506  16.750  68.264  1.00  0.00    -0.341 A  
HETATM   17  C   UNL     1     -11.931  15.916  70.217  1.00  0.00    -0.324 A  
HETATM   18  C   UNL     1      -9.904  16.129  67.145  1.00  0.00    -0.241 A  
HETATM   19  C   UNL     1     -12.486  14.786  70.814  1.00  0.00    -0.402 A  
HETATM   20  C   UNL     1     -12.285  13.517  70.254  1.00  0.00    -0.417 A  
HETATM   21  C   UNL     1      -9.107  16.882  66.290  1.00  0.00    -0.302 A  
HETATM   22  C   UNL     1      -8.962  18.256  66.531  1.00  0.00    -0.285 A  
HETATM   23  C   UNL     1     -11.536  13.357  69.085  1.00  0.00    -0.365 A  
HETATM   24  C   UNL     1      -9.570  18.861  67.635  1.00  0.00    -0.351 A  
HETATM   25  C   UNL     1     -10.342  18.106  68.518  1.00  0.00    -0.352 A  
ENDBRANCH  10  13
ENDBRANCH   9  10
ENDBRANCH   8   9
ENDBRANCH   7   8
ENDBRANCH   6   7
ENDBRANCH   5   6
ENDBRANCH   4   5
ENDBRANCH   2   4
BRANCH   2  26
HETATM   26  C   UNL     1     -10.135   6.976  69.915  1.00  0.00    -0.193 C  
HETATM   27  C   UNL     1     -11.379   5.466  73.076  1.00  0.00    -0.355 A  
HETATM   28  C   UNL     1     -11.062   8.070  70.488  1.00  0.00    -0.251 A  
HETATM   29  C   UNL     1     -10.837   4.186  73.067  1.00  0.00    -0.252 A  
HETATM   30  C   UNL     1     -11.607   7.632  71.719  1.00  0.00    -0.307 A  
HETATM   31  C   UNL     1     -11.161   6.283  71.978  1.00  0.00    -0.313 A  
HETATM   32  C   UNL     1     -12.485   8.426  72.442  1.00  0.00    -0.390 A  
HETATM   33  C   UNL     1     -10.147   3.698  71.946  1.00  0.00    -0.182 A  
HETATM   34  C   UNL     1     -11.451   9.301  69.964  1.00  0.00    -0.077 A  
HETATM   35  C   UNL     1     -10.400   5.825  70.880  1.00  0.00    -0.299 A  
HETATM   36  C   UNL     1     -12.827   9.680  71.936  1.00  0.00    -0.515 A  
HETATM   37  C   UNL     1      -9.959   4.508  70.818  1.00  0.00    -0.269 A  
HETATM   38  C   UNL     1     -12.315  10.115  70.709  1.00  0.00    -0.422 A  
ENDBRANCH   2  26
TORSDOF 9
ENDMDL
MODEL       92
REMARK 921   NORMALIZED FREE ENERGY PREDICTED BY IDOCK:   -6.06 KCAL/MOL
REMARK 922        TOTAL FREE ENERGY PREDICTED BY IDOCK:  -11.01 KCAL/MOL
REMARK 923 INTER-LIGAND FREE ENERGY PREDICTED BY IDOCK:   -8.88 KCAL/MOL
REMARK 924 INTRA-LIGAND FREE ENERGY PREDICTED BY IDOCK:   -2.13 KCAL/MOL
REMARK 927      BINDING AFFINITY PREDICTED BY RF-SCORE:    0.00 PKD
ROOT
HETATM    1  C   UNL     1      -7.271   2.116  69.754  1.00  0.00    -0.036 C  
HETATM    2  N   UNL     1      -7.753   3.470  70.265  1.00  0.00    -0.047 N  
HETATM    3  C   UNL     1      -7.322   3.637  71.719  1.00  0.00    -0.051 C  
ENDROOT
BRANCH   2   4
HETATM    4  C   UNL     1      -7.180   4.563  69.387  1.00  0.00    -0.051 C  
BRANCH   4   5
HETATM    5  C   UNL     1      -6.811   5.871  70.086  1.00  0.00    -0.053 C  
BRANCH   5   6
HETATM    6  C   UNL     1      -7.099   7.046  69.141  1.00  0.00    -0.084 C  
BRANCH   6   7
HETATM    7  C   UNL     1      -7.122   6.663  67.650  1.00  0.00    -0.085 C  
BRANCH   7   8
HETATM    8  C   UNL     1      -7.578   7.798  66.720  1.00  0.00    -0.098 C  
BRANCH   8   9
HETATM    9  C   UNL     1      -8.296   8.855  67.558  1.00  0.00    -0.109 C  
BRANCH   9  10
HETATM   10  N   UNL     1      -8.783  10.077  66.794  1.00  0.00    -0.129 N  
HETATM   11  C   UNL     1      -7.723  10.576  65.818  1.00  0.00    -0.145 C  
HETATM   12  C   UNL     1     -10.024   9.775  65.968  1.00  0.00    -0.272 C  
BRANCH  10  13
HETATM   13  C   UNL     1      -9.111  11.209  67.884  1.00  0.00    -0.150 C  
HETATM   14  C   UNL     1      -9.962  10.714  69.070  1.00  0.00    -0.226 A  
HETATM   15  C   UNL     1     -11.185  11.420  69.118  1.00  0.00    -0.335 A  
HETATM   16  C   UNL     1     -11.189  12.440  68.097  1.00  0.00    -0.313 A  
HETATM   17  C   UNL     1     -12.156  11.121  70.063  1.00  0.00    -0.437 A  
HETATM   18  C   UNL     1      -9.984  12.374  67.361  1.00  0.00    -0.203 A  
HETATM   19  C   UNL     1     -11.900  10.104  70.981  1.00  0.00    -0.475 A  
HETATM   20  C   UNL     1     -10.676   9.424  70.964  1.00  0.00    -0.407 A  
HETATM   21  C   UNL     1      -9.732  13.319  66.372  1.00  0.00    -0.279 A  
HETATM   22  C   UNL     1     -10.708  14.285  66.093  1.00  0.00    -0.295 A  
HETATM   23  C   UNL     1      -9.691   9.740  70.023  1.00  0.00    -0.292 A  
HETATM   24  C   UNL     1     -11.901  14.335  66.821  1.00  0.00    -0.449 A  
HETATM   25  C   UNL     1     -12.147  13.413  67.838  1.00  0.00    -0.289 A  
ENDBRANCH  10  13
ENDBRANCH   9  10
ENDBRANCH   8   9
ENDBRANCH   7   8
ENDBRANCH   6   7
ENDBRANCH   5   6
ENDBRANCH   4   5
ENDBRANCH   2   4
BRANCH   2  26
HETATM   26  C   UNL     1      -9.359   3.569  70.165  1.00  0.00    -0.174 C  
HETATM   27  C   UNL     1     -11.015   6.418  71.885  1.00  0.00    -0.295 A  
HETATM   28  C   UNL     1      -9.878   4.433  68.996  1.00  0.00    -0.182 A  
HETATM   29  C   UNL     1     -10.918   6.091  73.233  1.00  0.00    -0.244 A  
HETATM   30  C   UNL     1     -10.530   5.579  69.508  1.00  0.00    -0.368 A  
HETATM   31  C   UNL     1     -10.546   5.507  70.951  1.00  0.00    -0.309 A  
HETATM   32  C   UNL     1     -11.101   6.523  68.665  1.00  0.00    -0.348 A  
HETATM   33  C   UNL     1     -10.429   4.842  73.644  1.00  0.00    -0.286 A  
HETATM   34  C   UNL     1      -9.848   4.218  67.620  1.00  0.00    -0.150 A  
HETATM   35  C   UNL     1      -9.980   4.281  71.361  1.00  0.00    -0.238 A  
HETATM   36  C   UNL     1     -11.018   6.326  67.286  1.00  0.00    -0.455 A  
HETATM   37  C   UNL     1      -9.991   3.903  72.700  1.00  0.00    -0.217 A  
HETATM   38  C   UNL     1     -10.396   5.185  66.767  1.00  0.00    -0.306 A  
ENDBRANCH   2  26
TORSDOF 9
ENDMDL
MODEL       93
REMARK 921   NORMALIZED FREE ENERGY PREDICTED BY IDOCK:   -6.05 KCAL/MOL
REMARK 922        TOTAL FREE ENERGY PREDICTED BY IDOCK:  -10.99 KCAL/MOL
REMARK 923 INTER-LIGAND FREE ENERGY PREDICTED BY IDOCK:   -8.99 KCAL/MOL
REMARK 924 INTRA-LIGAND FREE ENERGY PREDICTED BY IDOCK:   -2.00 KCAL/MOL
REMARK 927      BINDING AFFINITY PREDICTED BY RF-SCORE:    0.00 PKD
ROOT
HETATM    1  C   UNL     1     -10.590   6.155  67.940  1.00  0.00    -0.263 C  
HETATM    2  N   UNL     1      -9.698   5.208  68.736  1.00  0.00    -0.143 N  
HETATM    3  C   UNL     1      -9.501   3.921  67.941  1.00  0.00    -0.173 C  
ENDROOT
BRANCH   2   4
HETATM    4  C   UNL     1      -8.377   5.894  69.020  1.00  0.00    -0.106 C  
BRANCH   4   5
HETATM    5  C   UNL     1      -8.306   7.387  68.701  1.00  0.00    -0.129 C  
BRANCH   5   6
HETATM    6  C   UNL     1      -7.781   8.141  69.931  1.00  0.00    -0.098 C  
BRANCH   6   7
HETATM    7  C   UNL     1      -8.740   9.221  70.464  1.00  0.00    -0.276 C  
BRANCH   7   8
HETATM    8  C   UNL     1      -9.739   9.740  69.419  1.00  0.00    -0.214 C  
BRANCH   8   9
HETATM    9  C   UNL     1      -9.191  11.037  68.824  1.00  0.00    -0.162 C  
BRANCH   9  10
HETATM   10  N   UNL     1     -10.181  11.852  68.006  1.00  0.00    -0.187 N  
HETATM   11  C   UNL     1     -11.476  11.081  67.778  1.00  0.00    -0.261 C  
HETATM   12  C   UNL     1     -10.566  13.148  68.703  1.00  0.00    -0.239 C  
BRANCH  10  13
HETATM   13  C   UNL     1      -9.472  12.174  66.602  1.00  0.00    -0.223 C  
HETATM   14  C   UNL     1     -10.427  12.730  65.528  1.00  0.00    -0.306 A  
HETATM   15  C   UNL     1     -10.465  11.859  64.415  1.00  0.00    -0.356 A  
HETATM   16  C   UNL     1      -9.521  10.786  64.615  1.00  0.00    -0.297 A  
HETATM   17  C   UNL     1     -11.297  12.107  63.332  1.00  0.00    -0.495 A  
HETATM   18  C   UNL     1      -8.894  10.940  65.872  1.00  0.00    -0.197 A  
HETATM   19  C   UNL     1     -12.100  13.245  63.356  1.00  0.00    -0.508 A  
HETATM   20  C   UNL     1     -12.041  14.133  64.438  1.00  0.00    -0.486 A  
HETATM   21  C   UNL     1      -7.883  10.060  66.245  1.00  0.00    -0.111 A  
HETATM   22  C   UNL     1      -7.546   9.008  65.383  1.00  0.00    -0.090 A  
HETATM   23  C   UNL     1     -11.188  13.893  65.519  1.00  0.00    -0.307 A  
HETATM   24  C   UNL     1      -8.181   8.861  64.145  1.00  0.00    -0.167 A  
HETATM   25  C   UNL     1      -9.171   9.759  63.747  1.00  0.00    -0.237 A  
ENDBRANCH  10  13
ENDBRANCH   9  10
ENDBRANCH   8   9
ENDBRANCH   7   8
ENDBRANCH   6   7
ENDBRANCH   5   6
ENDBRANCH   4   5
ENDBRANCH   2   4
BRANCH   2  26
HETATM   26  C   UNL     1     -10.373   4.863  70.159  1.00  0.00    -0.183 C  
HETATM   27  C   UNL     1      -8.266   5.240  73.198  1.00  0.00    -0.112 A  
HETATM   28  C   UNL     1     -11.007   6.072  70.879  1.00  0.00    -0.355 A  
HETATM   29  C   UNL     1      -7.389   4.164  73.127  1.00  0.00    -0.070 A  
HETATM   30  C   UNL     1     -10.288   6.345  72.067  1.00  0.00    -0.222 A  
HETATM   31  C   UNL     1      -9.252   5.352  72.230  1.00  0.00    -0.155 A  
HETATM   32  C   UNL     1     -10.657   7.382  72.912  1.00  0.00    -0.370 A  
HETATM   33  C   UNL     1      -7.537   3.170  72.148  1.00  0.00    -0.053 A  
HETATM   34  C   UNL     1     -12.138   6.826  70.573  1.00  0.00    -0.332 A  
HETATM   35  C   UNL     1      -9.357   4.397  71.195  1.00  0.00    -0.213 A  
HETATM   36  C   UNL     1     -11.759   8.167  72.569  1.00  0.00    -0.457 A  
HETATM   37  C   UNL     1      -8.557   3.259  71.192  1.00  0.00    -0.107 A  
HETATM   38  C   UNL     1     -12.492   7.893  71.410  1.00  0.00    -0.330 A  
ENDBRANCH   2  26
TORSDOF 9
ENDMDL
MODEL       94
REMARK 921   NORMALIZED FREE ENERGY PREDICTED BY IDOCK:   -6.04 KCAL/MOL
REMARK 922        TOTAL FREE ENERGY PREDICTED BY IDOCK:  -10.98 KCAL/MOL
REMARK 923 INTER-LIGAND FREE ENERGY PREDICTED BY IDOCK:  -10.44 KCAL/MOL
REMARK 924 INTRA-LIGAND FREE ENERGY PREDICTED BY IDOCK:   -0.54 KCAL/MOL
REMARK 927      BINDING AFFINITY PREDICTED BY RF-SCORE:    0.00 PKD
ROOT
HETATM    1  C   UNL     1      -7.760   7.219  69.302  1.00  0.00    -0.107 C  
HETATM    2  N   UNL     1      -8.684   8.380  69.656  1.00  0.00    -0.132 N  
HETATM    3  C   UNL     1      -8.290   8.932  71.023  1.00  0.00    -0.191 C  
ENDROOT
BRANCH   2   4
HETATM    4  C   UNL     1      -8.583   9.439  68.578  1.00  0.00    -0.123 C  
BRANCH   4   5
HETATM    5  C   UNL     1      -7.860  10.730  68.962  1.00  0.00    -0.138 C  
BRANCH   5   6
HETATM    6  C   UNL     1      -8.509  11.910  68.226  1.00  0.00    -0.161 C  
BRANCH   6   7
HETATM    7  C   UNL     1      -9.410  11.496  67.048  1.00  0.00    -0.185 C  
BRANCH   7   8
HETATM    8  C   UNL     1     -10.422  12.573  66.626  1.00  0.00    -0.252 C  
BRANCH   8   9
HETATM    9  C   UNL     1      -9.657  13.745  66.011  1.00  0.00    -0.175 C  
BRANCH   9  10
HETATM   10  N   UNL     1     -10.360  15.092  66.075  1.00  0.00    -0.294 N  
HETATM   11  C   UNL     1     -11.239  15.316  64.848  1.00  0.00    -0.415 C  
HETATM   12  C   UNL     1     -11.273  15.200  67.287  1.00  0.00    -0.324 C  
BRANCH  10  13
HETATM   13  C   UNL     1      -9.215  16.214  66.150  1.00  0.00    -0.347 C  
HETATM   14  C   UNL     1      -8.095  15.904  67.162  1.00  0.00    -0.240 A  
HETATM   15  C   UNL     1      -8.047  16.907  68.156  1.00  0.00    -0.201 A  
HETATM   16  C   UNL     1      -9.002  17.942  67.838  1.00  0.00    -0.264 A  
HETATM   17  C   UNL     1      -7.159  16.830  69.219  1.00  0.00    -0.198 A  
HETATM   18  C   UNL     1      -9.695  17.594  66.656  1.00  0.00    -0.304 A  
HETATM   19  C   UNL     1      -6.297  15.737  69.289  1.00  0.00    -0.147 A  
HETATM   20  C   UNL     1      -6.312  14.757  68.288  1.00  0.00    -0.123 A  
HETATM   21  C   UNL     1     -10.614  18.486  66.112  1.00  0.00    -0.377 A  
HETATM   22  C   UNL     1     -10.868  19.691  66.783  1.00  0.00    -0.489 A  
HETATM   23  C   UNL     1      -7.194  14.846  67.207  1.00  0.00    -0.142 A  
HETATM   24  C   UNL     1     -10.183  20.019  67.957  1.00  0.00    -0.538 A  
HETATM   25  C   UNL     1      -9.234  19.146  68.490  1.00  0.00    -0.425 A  
ENDBRANCH  10  13
ENDBRANCH   9  10
ENDBRANCH   8   9
ENDBRANCH   7   8
ENDBRANCH   6   7
ENDBRANCH   5   6
ENDBRANCH   4   5
ENDBRANCH   2   4
BRANCH   2  26
HETATM   26  C   UNL     1     -10.218   7.884  69.699  1.00  0.00    -0.207 C  
HETATM   27  C   UNL     1     -11.359   6.090  72.747  1.00  0.00    -0.282 A  
HETATM   28  C   UNL     1     -11.197   8.884  70.350  1.00  0.00    -0.259 A  
HETATM   29  C   UNL     1     -10.750   4.844  72.645  1.00  0.00    -0.274 A  
HETATM   30  C   UNL     1     -11.710   8.331  71.548  1.00  0.00    -0.337 A  
HETATM   31  C   UNL     1     -11.191   6.993  71.709  1.00  0.00    -0.278 A  
HETATM   32  C   UNL     1     -12.624   9.024  72.329  1.00  0.00    -0.445 A  
HETATM   33  C   UNL     1     -10.043   4.474  71.490  1.00  0.00    -0.239 A  
HETATM   34  C   UNL     1     -11.655  10.126  69.916  1.00  0.00    -0.290 A  
HETATM   35  C   UNL     1     -10.415   6.656  70.580  1.00  0.00    -0.240 A  
HETATM   36  C   UNL     1     -13.036  10.291  71.915  1.00  0.00    -0.554 A  
HETATM   37  C   UNL     1      -9.905   5.371  70.422  1.00  0.00    -0.270 A  
HETATM   38  C   UNL     1     -12.555  10.839  70.720  1.00  0.00    -0.476 A  
ENDBRANCH   2  26
TORSDOF 9
ENDMDL
MODEL       95
REMARK 921   NORMALIZED FREE ENERGY PREDICTED BY IDOCK:   -6.04 KCAL/MOL
REMARK 922        TOTAL FREE ENERGY PREDICTED BY IDOCK:  -10.98 KCAL/MOL
REMARK 923 INTER-LIGAND FREE ENERGY PREDICTED BY IDOCK:   -9.25 KCAL/MOL
REMARK 924 INTRA-LIGAND FREE ENERGY PREDICTED BY IDOCK:   -1.73 KCAL/MOL
REMARK 927      BINDING AFFINITY PREDICTED BY RF-SCORE:    0.00 PKD
ROOT
HETATM    1  C   UNL     1     -10.937   7.193  73.400  1.00  0.00    -0.236 C  
HETATM    2  N   UNL     1     -11.043   7.548  71.921  1.00  0.00    -0.234 N  
HETATM    3  C   UNL     1     -12.341   6.972  71.361  1.00  0.00    -0.377 C  
ENDROOT
BRANCH   2   4
HETATM    4  C   UNL     1     -10.993   9.054  71.769  1.00  0.00    -0.372 C  
BRANCH   4   5
HETATM    5  C   UNL     1     -11.977   9.669  70.774  1.00  0.00    -0.356 C  
BRANCH   5   6
HETATM    6  C   UNL     1     -12.575  10.946  71.379  1.00  0.00    -0.508 C  
BRANCH   6   7
HETATM    7  C   UNL     1     -12.369  12.206  70.518  1.00  0.00    -0.358 C  
BRANCH   7   8
HETATM    8  C   UNL     1     -11.384  12.014  69.355  1.00  0.00    -0.317 C  
BRANCH   8   9
HETATM    9  C   UNL     1     -11.779  12.962  68.222  1.00  0.00    -0.350 C  
BRANCH   9  10
HETATM   10  N   UNL     1     -10.898  14.191  68.060  1.00  0.00    -0.242 N  
HETATM   11  C   UNL     1     -11.734  15.465  67.996  1.00  0.00    -0.221 C  
HETATM   12  C   UNL     1      -9.938  14.361  69.228  1.00  0.00     0.021 C  
BRANCH  10  13
HETATM   13  C   UNL     1     -10.074  13.998  66.696  1.00  0.00    -0.276 C  
HETATM   14  C   UNL     1     -10.906  13.423  65.534  1.00  0.00    -0.299 A  
HETATM   15  C   UNL     1     -10.366  12.186  65.115  1.00  0.00    -0.311 A  
HETATM   16  C   UNL     1      -9.154  11.919  65.853  1.00  0.00    -0.085 A  
HETATM   17  C   UNL     1     -10.968  11.435  64.116  1.00  0.00    -0.411 A  
HETATM   18  C   UNL     1      -8.926  12.965  66.776  1.00  0.00    -0.182 A  
HETATM   19  C   UNL     1     -12.127  11.928  63.519  1.00  0.00    -0.575 A  
HETATM   20  C   UNL     1     -12.648  13.171  63.902  1.00  0.00    -0.249 A  
HETATM   21  C   UNL     1      -7.766  12.961  67.544  1.00  0.00    -0.174 A  
HETATM   22  C   UNL     1      -6.875  11.886  67.421  1.00  0.00    -0.130 A  
HETATM   23  C   UNL     1     -12.029  13.935  64.895  1.00  0.00    -0.412 A  
HETATM   24  C   UNL     1      -7.117  10.851  66.511  1.00  0.00    -0.139 A  
HETATM   25  C   UNL     1      -8.259  10.866  65.711  1.00  0.00    -0.113 A  
ENDBRANCH  10  13
ENDBRANCH   9  10
ENDBRANCH   8   9
ENDBRANCH   7   8
ENDBRANCH   6   7
ENDBRANCH   5   6
ENDBRANCH   4   5
ENDBRANCH   2   4
BRANCH   2  26
HETATM   26  C   UNL     1      -9.791   6.943  71.106  1.00  0.00    -0.177 C  
HETATM   27  C   UNL     1      -9.236   8.178  67.644  1.00  0.00    -0.150 A  
HETATM   28  C   UNL     1      -8.488   7.762  71.228  1.00  0.00    -0.125 A  
HETATM   29  C   UNL     1     -10.257   7.581  66.912  1.00  0.00    -0.359 A  
HETATM   30  C   UNL     1      -8.156   8.314  69.968  1.00  0.00    -0.116 A  
HETATM   31  C   UNL     1      -9.114   7.859  68.987  1.00  0.00    -0.144 A  
HETATM   32  C   UNL     1      -7.019   9.090  69.797  1.00  0.00    -0.054 A  
HETATM   33  C   UNL     1     -11.101   6.622  67.494  1.00  0.00    -0.374 A  
HETATM   34  C   UNL     1      -7.634   7.960  72.311  1.00  0.00    -0.116 A  
HETATM   35  C   UNL     1     -10.010   6.954  69.597  1.00  0.00    -0.179 A  
HETATM   36  C   UNL     1      -6.198   9.329  70.900  1.00  0.00    -0.068 A  
HETATM   37  C   UNL     1     -10.955   6.268  68.841  1.00  0.00    -0.435 A  
HETATM   38  C   UNL     1      -6.502   8.770  72.146  1.00  0.00    -0.049 A  
ENDBRANCH   2  26
TORSDOF 9
ENDMDL
MODEL       96
REMARK 921   NORMALIZED FREE ENERGY PREDICTED BY IDOCK:   -6.02 KCAL/MOL
REMARK 922        TOTAL FREE ENERGY PREDICTED BY IDOCK:  -10.95 KCAL/MOL
REMARK 923 INTER-LIGAND FREE ENERGY PREDICTED BY IDOCK:  -10.86 KCAL/MOL
REMARK 924 INTRA-LIGAND FREE ENERGY PREDICTED BY IDOCK:   -0.09 KCAL/MOL
REMARK 927      BINDING AFFINITY PREDICTED BY RF-SCORE:    0.00 PKD
ROOT
HETATM    1  C   UNL     1      -7.937   7.643  68.103  1.00  0.00    -0.123 C  
HETATM    2  N   UNL     1      -9.248   8.362  67.807  1.00  0.00    -0.131 N  
HETATM    3  C   UNL     1      -9.211   9.750  68.441  1.00  0.00    -0.130 C  
ENDROOT
BRANCH   2   4
HETATM    4  C   UNL     1      -9.441   8.442  66.307  1.00  0.00    -0.224 C  
BRANCH   4   5
HETATM    5  C   UNL     1      -9.203   9.808  65.664  1.00  0.00    -0.252 C  
BRANCH   5   6
HETATM    6  C   UNL     1      -9.120   9.642  64.141  1.00  0.00    -0.256 C  
BRANCH   6   7
HETATM    7  C   UNL     1      -9.834  10.752  63.348  1.00  0.00    -0.400 C  
BRANCH   7   8
HETATM    8  C   UNL     1     -10.876  11.532  64.163  1.00  0.00    -0.435 C  
BRANCH   8   9
HETATM    9  C   UNL     1     -10.526  13.019  64.104  1.00  0.00    -0.372 C  
BRANCH   9  10
HETATM   10  N   UNL     1     -11.247  13.902  65.111  1.00  0.00    -0.314 N  
HETATM   11  C   UNL     1     -11.530  15.284  64.532  1.00  0.00    -0.315 C  
HETATM   12  C   UNL     1     -12.592  13.320  65.519  1.00  0.00    -0.446 C  
BRANCH  10  13
HETATM   13  C   UNL     1     -10.290  14.023  66.394  1.00  0.00    -0.289 C  
HETATM   14  C   UNL     1     -10.937  13.546  67.709  1.00  0.00    -0.284 A  
HETATM   15  C   UNL     1     -11.001  14.612  68.634  1.00  0.00    -0.266 A  
HETATM   16  C   UNL     1     -10.351  15.772  68.073  1.00  0.00    -0.252 A  
HETATM   17  C   UNL     1     -11.594  14.455  69.878  1.00  0.00    -0.341 A  
HETATM   18  C   UNL     1      -9.894  15.470  66.770  1.00  0.00    -0.252 A  
HETATM   19  C   UNL     1     -12.127  13.210  70.210  1.00  0.00    -0.399 A  
HETATM   20  C   UNL     1     -12.034  12.137  69.313  1.00  0.00    -0.318 A  
HETATM   21  C   UNL     1      -9.162  16.419  66.063  1.00  0.00    -0.328 A  
HETATM   22  C   UNL     1      -8.940  17.675  66.645  1.00  0.00    -0.283 A  
HETATM   23  C   UNL     1     -11.419  12.292  68.068  1.00  0.00    -0.378 A  
HETATM   24  C   UNL     1      -9.406  17.965  67.931  1.00  0.00    -0.271 A  
HETATM   25  C   UNL     1     -10.110  17.008  68.660  1.00  0.00    -0.303 A  
ENDBRANCH  10  13
ENDBRANCH   9  10
ENDBRANCH   8   9
ENDBRANCH   7   8
ENDBRANCH   6   7
ENDBRANCH   5   6
ENDBRANCH   4   5
ENDBRANCH   2   4
BRANCH   2  26
HETATM   26  C   UNL     1     -10.493   7.531  68.406  1.00  0.00    -0.175 C  
HETATM   27  C   UNL     1      -9.775   4.208  69.909  1.00  0.00    -0.280 A  
HETATM   28  C   UNL     1     -10.754   7.761  69.910  1.00  0.00    -0.245 A  
HETATM   29  C   UNL     1      -9.506   3.399  68.810  1.00  0.00    -0.201 A  
HETATM   30  C   UNL     1     -10.504   6.563  70.622  1.00  0.00    -0.257 A  
HETATM   31  C   UNL     1     -10.159   5.521  69.684  1.00  0.00    -0.309 A  
HETATM   32  C   UNL     1     -10.672   6.493  71.998  1.00  0.00    -0.253 A  
HETATM   33  C   UNL     1      -9.688   3.871  67.501  1.00  0.00    -0.164 A  
HETATM   34  C   UNL     1     -11.226   8.879  70.593  1.00  0.00    -0.308 A  
HETATM   35  C   UNL     1     -10.267   6.024  68.369  1.00  0.00    -0.220 A  
HETATM   36  C   UNL     1     -11.094   7.634  72.681  1.00  0.00    -0.412 A  
HETATM   37  C   UNL     1     -10.114   5.185  67.270  1.00  0.00    -0.235 A  
HETATM   38  C   UNL     1     -11.367   8.817  71.986  1.00  0.00    -0.441 A  
ENDBRANCH   2  26
TORSDOF 9
ENDMDL
MODEL       97
REMARK 921   NORMALIZED FREE ENERGY PREDICTED BY IDOCK:   -6.01 KCAL/MOL
REMARK 922        TOTAL FREE ENERGY PREDICTED BY IDOCK:  -10.93 KCAL/MOL
REMARK 923 INTER-LIGAND FREE ENERGY PREDICTED BY IDOCK:  -10.37 KCAL/MOL
REMARK 924 INTRA-LIGAND FREE ENERGY PREDICTED BY IDOCK:   -0.57 KCAL/MOL
REMARK 927      BINDING AFFINITY PREDICTED BY RF-SCORE:    0.00 PKD
ROOT
HETATM    1  C   UNL     1     -12.385  13.782  69.739  1.00  0.00    -0.255 C  
HETATM    2  N   UNL     1     -11.215  14.665  69.314  1.00  0.00    -0.269 N  
HETATM    3  C   UNL     1     -10.938  15.688  70.413  1.00  0.00    -0.348 C  
ENDROOT
BRANCH   2   4
HETATM    4  C   UNL     1     -10.007  13.791  69.050  1.00  0.00     0.066 C  
BRANCH   4   5
HETATM    5  C   UNL     1     -10.290  12.350  68.627  1.00  0.00    -0.198 C  
BRANCH   5   6
HETATM    6  C   UNL     1      -8.973  11.673  68.227  1.00  0.00    -0.185 C  
BRANCH   6   7
HETATM    7  C   UNL     1      -9.137  10.533  67.206  1.00  0.00    -0.152 C  
BRANCH   7   8
HETATM    8  C   UNL     1      -8.753   9.147  67.748  1.00  0.00    -0.121 C  
BRANCH   8   9
HETATM    9  C   UNL     1     -10.032   8.411  68.149  1.00  0.00    -0.191 C  
BRANCH   9  10
HETATM   10  N   UNL     1      -9.827   7.098  68.887  1.00  0.00    -0.153 N  
HETATM   11  C   UNL     1     -10.960   6.118  68.600  1.00  0.00    -0.336 C  
HETATM   12  C   UNL     1      -8.539   6.404  68.470  1.00  0.00    -0.122 C  
BRANCH  10  13
HETATM   13  C   UNL     1      -9.779   7.446  70.454  1.00  0.00    -0.175 C  
HETATM   14  C   UNL     1      -9.993   6.230  71.376  1.00  0.00    -0.210 A  
HETATM   15  C   UNL     1     -11.146   6.420  72.170  1.00  0.00    -0.302 A  
HETATM   16  C   UNL     1     -11.687   7.735  71.922  1.00  0.00    -0.335 A  
HETATM   17  C   UNL     1     -11.590   5.440  73.047  1.00  0.00    -0.268 A  
HETATM   18  C   UNL     1     -10.905   8.387  70.941  1.00  0.00    -0.267 A  
HETATM   19  C   UNL     1     -10.867   4.252  73.139  1.00  0.00    -0.303 A  
HETATM   20  C   UNL     1      -9.701   4.070  72.383  1.00  0.00    -0.210 A  
HETATM   21  C   UNL     1     -11.194   9.704  70.599  1.00  0.00    -0.385 A  
HETATM   22  C   UNL     1     -12.290  10.336  71.200  1.00  0.00    -0.501 A  
HETATM   23  C   UNL     1      -9.245   5.067  71.514  1.00  0.00    -0.181 A  
HETATM   24  C   UNL     1     -13.062   9.678  72.163  1.00  0.00    -0.520 A  
HETATM   25  C   UNL     1     -12.758   8.369  72.538  1.00  0.00    -0.286 A  
ENDBRANCH  10  13
ENDBRANCH   9  10
ENDBRANCH   8   9
ENDBRANCH   7   8
ENDBRANCH   6   7
ENDBRANCH   5   6
ENDBRANCH   4   5
ENDBRANCH   2   4
BRANCH   2  26
HETATM   26  C   UNL     1     -11.561  15.433  67.940  1.00  0.00    -0.257 C  
HETATM   27  C   UNL     1      -8.709  16.625  65.875  1.00  0.00    -0.101 A  
HETATM   28  C   UNL     1     -11.623  14.524  66.694  1.00  0.00    -0.385 A  
HETATM   29  C   UNL     1      -8.213  17.709  66.590  1.00  0.00    -0.291 A  
HETATM   30  C   UNL     1     -10.571  14.859  65.810  1.00  0.00    -0.342 A  
HETATM   31  C   UNL     1      -9.845  15.986  66.348  1.00  0.00    -0.308 A  
HETATM   32  C   UNL     1     -10.403  14.197  64.602  1.00  0.00    -0.296 A  
HETATM   33  C   UNL     1      -8.882  18.198  67.723  1.00  0.00    -0.259 A  
HETATM   34  C   UNL     1     -12.541  13.542  66.327  1.00  0.00    -0.298 A  
HETATM   35  C   UNL     1     -10.477  16.425  67.531  1.00  0.00    -0.304 A  
HETATM   36  C   UNL     1     -11.295  13.178  64.267  1.00  0.00    -0.427 A  
HETATM   37  C   UNL     1     -10.053  17.579  68.181  1.00  0.00    -0.341 A  
HETATM   38  C   UNL     1     -12.355  12.852  65.122  1.00  0.00    -0.547 A  
ENDBRANCH   2  26
TORSDOF 9
ENDMDL
MODEL       98
REMARK 921   NORMALIZED FREE ENERGY PREDICTED BY IDOCK:   -5.99 KCAL/MOL
REMARK 922        TOTAL FREE ENERGY PREDICTED BY IDOCK:  -10.91 KCAL/MOL
REMARK 923 INTER-LIGAND FREE ENERGY PREDICTED BY IDOCK:  -10.79 KCAL/MOL
REMARK 924 INTRA-LIGAND FREE ENERGY PREDICTED BY IDOCK:   -0.12 KCAL/MOL
REMARK 927      BINDING AFFINITY PREDICTED BY RF-SCORE:    0.00 PKD
ROOT
HETATM    1  C   UNL     1     -10.967  10.003  67.847  1.00  0.00    -0.252 C  
HETATM    2  N   UNL     1     -10.084   8.761  67.924  1.00  0.00    -0.195 N  
HETATM    3  C   UNL     1     -10.845   7.572  67.342  1.00  0.00    -0.202 C  
ENDROOT
BRANCH   2   4
HETATM    4  C   UNL     1      -8.798   9.021  67.168  1.00  0.00    -0.119 C  
BRANCH   4   5
HETATM    5  C   UNL     1      -8.880   8.946  65.643  1.00  0.00    -0.230 C  
BRANCH   5   6
HETATM    6  C   UNL     1      -8.665  10.347  65.056  1.00  0.00    -0.195 C  
BRANCH   6   7
HETATM    7  C   UNL     1      -9.693  10.743  63.981  1.00  0.00    -0.367 C  
BRANCH   7   8
HETATM    8  C   UNL     1     -10.791  11.693  64.485  1.00  0.00    -0.383 C  
BRANCH   8   9
HETATM    9  C   UNL     1     -10.270  12.428  65.720  1.00  0.00    -0.260 C  
BRANCH   9  10
HETATM   10  N   UNL     1     -10.835  13.822  65.939  1.00  0.00    -0.281 N  
HETATM   11  C   UNL     1     -10.607  14.709  64.719  1.00  0.00    -0.353 C  
HETATM   12  C   UNL     1     -12.336  13.796  66.182  1.00  0.00    -0.452 C  
BRANCH  10  13
HETATM   13  C   UNL     1     -10.083  14.435  67.218  1.00  0.00    -0.251 C  
HETATM   14  C   UNL     1     -10.905  14.374  68.521  1.00  0.00    -0.260 A  
HETATM   15  C   UNL     1     -11.135  15.679  69.011  1.00  0.00    -0.279 A  
HETATM   16  C   UNL     1     -10.440  16.632  68.180  1.00  0.00    -0.321 A  
HETATM   17  C   UNL     1     -11.902  15.899  70.146  1.00  0.00    -0.327 A  
HETATM   18  C   UNL     1      -9.786  15.950  67.128  1.00  0.00    -0.232 A  
HETATM   19  C   UNL     1     -12.444  14.799  70.808  1.00  0.00    -0.402 A  
HETATM   20  C   UNL     1     -12.190  13.500  70.350  1.00  0.00    -0.426 A  
HETATM   21  C   UNL     1      -8.984  16.663  66.244  1.00  0.00    -0.340 A  
HETATM   22  C   UNL     1      -8.885  18.053  66.387  1.00  0.00    -0.251 A  
HETATM   23  C   UNL     1     -11.401  13.278  69.217  1.00  0.00    -0.311 A  
HETATM   24  C   UNL     1      -9.544  18.718  67.426  1.00  0.00    -0.337 A  
HETATM   25  C   UNL     1     -10.323  18.007  68.339  1.00  0.00    -0.377 A  
ENDBRANCH  10  13
ENDBRANCH   9  10
ENDBRANCH   8   9
ENDBRANCH   7   8
ENDBRANCH   6   7
ENDBRANCH   5   6
ENDBRANCH   4   5
ENDBRANCH   2   4
BRANCH   2  26
HETATM   26  C   UNL     1      -9.686   8.448  69.454  1.00  0.00    -0.177 C  
HETATM   27  C   UNL     1     -12.375   7.232  71.715  1.00  0.00    -0.375 A  
HETATM   28  C   UNL     1      -9.283   6.983  69.725  1.00  0.00    -0.147 A  
HETATM   29  C   UNL     1     -13.154   8.361  71.939  1.00  0.00    -0.383 A  
HETATM   30  C   UNL     1     -10.239   6.378  70.576  1.00  0.00    -0.230 A  
HETATM   31  C   UNL     1     -11.224   7.365  70.953  1.00  0.00    -0.292 A  
HETATM   32  C   UNL     1     -10.109   5.059  70.986  1.00  0.00    -0.297 A  
HETATM   33  C   UNL     1     -12.754   9.623  71.472  1.00  0.00    -0.480 A  
HETATM   34  C   UNL     1      -8.161   6.257  69.329  1.00  0.00    -0.114 A  
HETATM   35  C   UNL     1     -10.858   8.617  70.414  1.00  0.00    -0.250 A  
HETATM   36  C   UNL     1      -9.010   4.323  70.539  1.00  0.00    -0.149 A  
HETATM   37  C   UNL     1     -11.571   9.768  70.736  1.00  0.00    -0.417 A  
HETATM   38  C   UNL     1      -8.045   4.916  69.717  1.00  0.00    -0.069 A  
ENDBRANCH   2  26
TORSDOF 9
ENDMDL
MODEL       99
REMARK 921   NORMALIZED FREE ENERGY PREDICTED BY IDOCK:   -5.98 KCAL/MOL
REMARK 922        TOTAL FREE ENERGY PREDICTED BY IDOCK:  -10.88 KCAL/MOL
REMARK 923 INTER-LIGAND FREE ENERGY PREDICTED BY IDOCK:   -9.28 KCAL/MOL
REMARK 924 INTRA-LIGAND FREE ENERGY PREDICTED BY IDOCK:   -1.61 KCAL/MOL
REMARK 927      BINDING AFFINITY PREDICTED BY RF-SCORE:    0.00 PKD
ROOT
HETATM    1  C   UNL     1     -10.247  10.697  69.213  1.00  0.00    -0.213 C  
HETATM    2  N   UNL     1     -10.448  10.974  67.727  1.00  0.00    -0.189 N  
HETATM    3  C   UNL     1      -9.242  11.743  67.194  1.00  0.00    -0.179 C  
ENDROOT
BRANCH   2   4
HETATM    4  C   UNL     1     -10.634   9.659  66.999  1.00  0.00    -0.197 C  
BRANCH   4   5
HETATM    5  C   UNL     1      -9.654   9.368  65.863  1.00  0.00    -0.338 C  
BRANCH   5   6
HETATM    6  C   UNL     1      -8.693   8.254  66.299  1.00  0.00    -0.173 C  
BRANCH   6   7
HETATM    7  C   UNL     1      -7.204   8.632  66.197  1.00  0.00    -0.085 C  
BRANCH   7   8
HETATM    8  C   UNL     1      -6.433   8.501  67.520  1.00  0.00    -0.058 C  
BRANCH   8   9
HETATM    9  C   UNL     1      -7.433   8.567  68.674  1.00  0.00    -0.093 C  
BRANCH   9  10
HETATM   10  N   UNL     1      -6.932   8.033  70.006  1.00  0.00    -0.048 N  
HETATM   11  C   UNL     1      -5.511   7.490  69.885  1.00  0.00    -0.023 C  
HETATM   12  C   UNL     1      -6.892   9.114  71.076  1.00  0.00    -0.095 C  
BRANCH  10  13
HETATM   13  C   UNL     1      -7.937   6.862  70.448  1.00  0.00    -0.114 C  
HETATM   14  C   UNL     1      -8.405   5.962  69.287  1.00  0.00    -0.113 A  
HETATM   15  C   UNL     1      -9.808   6.043  69.145  1.00  0.00    -0.185 A  
HETATM   16  C   UNL     1     -10.349   6.867  70.198  1.00  0.00    -0.218 A  
HETATM   17  C   UNL     1     -10.472   5.367  68.130  1.00  0.00    -0.188 A  
HETATM   18  C   UNL     1      -9.294   7.352  71.005  1.00  0.00    -0.157 A  
HETATM   19  C   UNL     1      -9.724   4.593  67.245  1.00  0.00    -0.216 A  
HETATM   20  C   UNL     1      -8.337   4.478  67.402  1.00  0.00    -0.104 A  
HETATM   21  C   UNL     1      -9.587   8.107  72.136  1.00  0.00    -0.308 A  
HETATM   22  C   UNL     1     -10.925   8.414  72.418  1.00  0.00    -0.425 A  
HETATM   23  C   UNL     1      -7.672   5.143  68.436  1.00  0.00    -0.080 A  
HETATM   24  C   UNL     1     -11.960   7.938  71.607  1.00  0.00    -0.329 A  
HETATM   25  C   UNL     1     -11.678   7.150  70.492  1.00  0.00    -0.314 A  
ENDBRANCH  10  13
ENDBRANCH   9  10
ENDBRANCH   8   9
ENDBRANCH   7   8
ENDBRANCH   6   7
ENDBRANCH   5   6
ENDBRANCH   4   5
ENDBRANCH   2   4
BRANCH   2  26
HETATM   26  C   UNL     1     -11.785  11.844  67.493  1.00  0.00    -0.265 C  
HETATM   27  C   UNL     1     -11.695  15.429  68.472  1.00  0.00    -0.355 A  
HETATM   28  C   UNL     1     -11.843  12.582  66.138  1.00  0.00    -0.459 A  
HETATM   29  C   UNL     1     -11.721  15.393  69.862  1.00  0.00    -0.357 A  
HETATM   30  C   UNL     1     -11.802  13.979  66.358  1.00  0.00    -0.437 A  
HETATM   31  C   UNL     1     -11.792  14.233  67.780  1.00  0.00    -0.414 A  
HETATM   32  C   UNL     1     -11.850  14.877  65.301  1.00  0.00    -0.217 A  
HETATM   33  C   UNL     1     -11.915  14.187  70.553  1.00  0.00    -0.393 A  
HETATM   34  C   UNL     1     -11.984  12.094  64.840  1.00  0.00    -0.356 A  
HETATM   35  C   UNL     1     -11.909  13.008  68.471  1.00  0.00    -0.360 A  
HETATM   36  C   UNL     1     -11.937  14.379  64.001  1.00  0.00    -0.288 A  
HETATM   37  C   UNL     1     -12.054  12.980  69.854  1.00  0.00    -0.347 A  
HETATM   38  C   UNL     1     -12.001  13.000  63.771  1.00  0.00    -0.585 A  
ENDBRANCH   2  26
TORSDOF 9
ENDMDL
MODEL      100
REMARK 921   NORMALIZED FREE ENERGY PREDICTED BY IDOCK:   -5.95 KCAL/MOL
REMARK 922        TOTAL FREE ENERGY PREDICTED BY IDOCK:  -10.85 KCAL/MOL
REMARK 923 INTER-LIGAND FREE ENERGY PREDICTED BY IDOCK:  -10.76 KCAL/MOL
REMARK 924 INTRA-LIGAND FREE ENERGY PREDICTED BY IDOCK:   -0.10 KCAL/MOL
REMARK 927      BINDING AFFINITY PREDICTED BY RF-SCORE:    0.00 PKD
ROOT
HETATM    1  C   UNL     1     -11.137  15.115  65.160  1.00  0.00    -0.403 C  
HETATM    2  N   UNL     1     -10.315  15.113  66.444  1.00  0.00    -0.276 N  
HETATM    3  C   UNL     1     -11.206  15.534  67.609  1.00  0.00    -0.291 C  
ENDROOT
BRANCH   2   4
HETATM    4  C   UNL     1      -9.737  13.729  66.659  1.00  0.00    -0.289 C  
BRANCH   4   5
HETATM    5  C   UNL     1     -10.488  12.571  66.003  1.00  0.00    -0.282 C  
BRANCH   5   6
HETATM    6  C   UNL     1     -11.472  11.970  67.015  1.00  0.00    -0.402 C  
BRANCH   6   7
HETATM    7  C   UNL     1     -11.210  10.489  67.344  1.00  0.00    -0.249 C  
BRANCH   7   8
HETATM    8  C   UNL     1      -9.725  10.097  67.322  1.00  0.00    -0.203 C  
BRANCH   8   9
HETATM    9  C   UNL     1      -9.123  10.393  68.696  1.00  0.00    -0.157 C  
BRANCH   9  10
HETATM   10  N   UNL     1      -8.846   9.177  69.566  1.00  0.00    -0.142 N  
HETATM   11  C   UNL     1      -9.562   7.941  69.032  1.00  0.00    -0.155 C  
HETATM   12  C   UNL     1      -7.365   8.835  69.611  1.00  0.00    -0.059 C  
BRANCH  10  13
HETATM   13  C   UNL     1      -9.372   9.529  71.041  1.00  0.00    -0.001 C  
HETATM   14  C   UNL     1      -9.098   8.430  72.086  1.00  0.00    -0.309 A  
HETATM   15  C   UNL     1     -10.317   7.950  72.616  1.00  0.00    -0.372 A  
HETATM   16  C   UNL     1     -11.411   8.717  72.072  1.00  0.00    -0.441 A  
HETATM   17  C   UNL     1     -10.345   6.913  73.539  1.00  0.00    -0.368 A  
HETATM   18  C   UNL     1     -10.907   9.674  71.162  1.00  0.00    -0.404 A  
HETATM   19  C   UNL     1      -9.137   6.350  73.945  1.00  0.00    -0.148 A  
HETATM   20  C   UNL     1      -7.922   6.845  73.452  1.00  0.00    -0.108 A  
HETATM   21  C   UNL     1     -11.778  10.584  70.572  1.00  0.00    -0.443 A  
HETATM   22  C   UNL     1     -13.148  10.495  70.858  1.00  0.00    -0.390 A  
HETATM   23  C   UNL     1      -7.895   7.902  72.538  1.00  0.00    -0.150 A  
HETATM   24  C   UNL     1     -13.636   9.538  71.753  1.00  0.00    -0.447 A  
HETATM   25  C   UNL     1     -12.765   8.644  72.376  1.00  0.00    -0.423 A  
ENDBRANCH  10  13
ENDBRANCH   9  10
ENDBRANCH   8   9
ENDBRANCH   7   8
ENDBRANCH   6   7
ENDBRANCH   5   6
ENDBRANCH   4   5
ENDBRANCH   2   4
BRANCH   2  26
HETATM   26  C   UNL     1      -9.075  16.136  66.319  1.00  0.00    -0.338 C  
HETATM   27  C   UNL     1      -9.098  19.139  68.510  1.00  0.00    -0.416 A  
HETATM   28  C   UNL     1      -7.916  15.863  67.303  1.00  0.00    -0.212 A  
HETATM   29  C   UNL     1     -10.081  19.948  67.950  1.00  0.00    -0.571 A  
HETATM   30  C   UNL     1      -7.813  16.936  68.221  1.00  0.00    -0.208 A  
HETATM   31  C   UNL     1      -8.784  17.948  67.874  1.00  0.00    -0.252 A  
HETATM   32  C   UNL     1      -6.842  16.947  69.211  1.00  0.00    -0.228 A  
HETATM   33  C   UNL     1     -10.692  19.611  66.733  1.00  0.00    -0.562 A  
HETATM   34  C   UNL     1      -6.995  14.820  67.361  1.00  0.00    -0.141 A  
HETATM   35  C   UNL     1      -9.452  17.565  66.690  1.00  0.00    -0.285 A  
HETATM   36  C   UNL     1      -5.957  15.871  69.296  1.00  0.00    -0.128 A  
HETATM   37  C   UNL     1     -10.348  18.427  66.067  1.00  0.00    -0.397 A  
HETATM   38  C   UNL     1      -6.034  14.816  68.380  1.00  0.00    -0.102 A  
ENDBRANCH   2  26
TORSDOF 9
ENDMDL
MODEL      101
REMARK 921   NORMALIZED FREE ENERGY PREDICTED BY IDOCK:   -5.95 KCAL/MOL
REMARK 922        TOTAL FREE ENERGY PREDICTED BY IDOCK:  -10.85 KCAL/MOL
REMARK 923 INTER-LIGAND FREE ENERGY PREDICTED BY IDOCK:   -9.33 KCAL/MOL
REMARK 924 INTRA-LIGAND FREE ENERGY PREDICTED BY IDOCK:   -1.52 KCAL/MOL
REMARK 927      BINDING AFFINITY PREDICTED BY RF-SCORE:    0.00 PKD
ROOT
HETATM    1  C   UNL     1     -12.049   5.611  72.587  1.00  0.00     0.024 C  
HETATM    2  N   UNL     1     -11.148   6.640  71.911  1.00  0.00    -0.243 N  
HETATM    3  C   UNL     1     -11.425   6.635  70.410  1.00  0.00    -0.386 C  
ENDROOT
BRANCH   2   4
HETATM    4  C   UNL     1     -11.410   8.002  72.519  1.00  0.00    -0.406 C  
BRANCH   4   5
HETATM    5  C   UNL     1     -12.552   8.812  71.905  1.00  0.00    -0.428 C  
BRANCH   5   6
HETATM    6  C   UNL     1     -11.980  10.082  71.260  1.00  0.00    -0.483 C  
BRANCH   6   7
HETATM    7  C   UNL     1     -12.804  11.353  71.535  1.00  0.00    -0.508 C  
BRANCH   7   8
HETATM    8  C   UNL     1     -12.635  12.450  70.474  1.00  0.00    -0.169 C  
BRANCH   8   9
HETATM    9  C   UNL     1     -11.204  12.394  69.939  1.00  0.00     0.144 C  
BRANCH   9  10
HETATM   10  N   UNL     1     -11.003  12.970  68.547  1.00  0.00    -0.252 N  
HETATM   11  C   UNL     1     -11.668  14.336  68.412  1.00  0.00    -0.338 C  
HETATM   12  C   UNL     1      -9.530  13.172  68.221  1.00  0.00    -0.210 C  
BRANCH  10  13
HETATM   13  C   UNL     1     -11.655  11.930  67.512  1.00  0.00    -0.304 C  
HETATM   14  C   UNL     1     -10.828  10.646  67.305  1.00  0.00    -0.345 A  
HETATM   15  C   UNL     1     -10.432  10.536  65.953  1.00  0.00    -0.224 A  
HETATM   16  C   UNL     1     -11.016  11.616  65.194  1.00  0.00    -0.326 A  
HETATM   17  C   UNL     1      -9.627   9.493  65.518  1.00  0.00    -0.349 A  
HETATM   18  C   UNL     1     -11.763  12.448  66.059  1.00  0.00    -0.469 A  
HETATM   19  C   UNL     1      -9.216   8.537  66.446  1.00  0.00    -0.251 A  
HETATM   20  C   UNL     1      -9.635   8.618  67.781  1.00  0.00    -0.178 A  
HETATM   21  C   UNL     1     -12.484  13.513  65.530  1.00  0.00    -0.538 A  
HETATM   22  C   UNL     1     -12.409  13.768  64.154  1.00  0.00    -0.382 A  
HETATM   23  C   UNL     1     -10.461   9.660  68.213  1.00  0.00    -0.259 A  
HETATM   24  C   UNL     1     -11.658  12.943  63.310  1.00  0.00    -0.326 A  
HETATM   25  C   UNL     1     -10.960  11.851  63.826  1.00  0.00    -0.494 A  
ENDBRANCH  10  13
ENDBRANCH   9  10
ENDBRANCH   8   9
ENDBRANCH   7   8
ENDBRANCH   6   7
ENDBRANCH   5   6
ENDBRANCH   4   5
ENDBRANCH   2   4
BRANCH   2  26
HETATM   26  C   UNL     1      -9.597   6.288  72.173  1.00  0.00    -0.150 C  
HETATM   27  C   UNL     1      -7.985   3.832  69.895  1.00  0.00    -0.054 A  
HETATM   28  C   UNL     1      -8.599   7.152  71.372  1.00  0.00    -0.116 A  
HETATM   29  C   UNL     1      -8.533   2.614  70.281  1.00  0.00    -0.087 A  
HETATM   30  C   UNL     1      -7.910   6.339  70.440  1.00  0.00    -0.107 A  
HETATM   31  C   UNL     1      -8.331   4.967  70.611  1.00  0.00    -0.106 A  
HETATM   32  C   UNL     1      -6.944   6.867  69.597  1.00  0.00    -0.063 A  
HETATM   33  C   UNL     1      -9.359   2.516  71.411  1.00  0.00    -0.202 A  
HETATM   34  C   UNL     1      -8.268   8.501  71.482  1.00  0.00    -0.199 A  
HETATM   35  C   UNL     1      -9.224   4.887  71.701  1.00  0.00    -0.179 A  
HETATM   36  C   UNL     1      -6.657   8.231  69.676  1.00  0.00    -0.037 A  
HETATM   37  C   UNL     1      -9.679   3.656  72.161  1.00  0.00    -0.231 A  
HETATM   38  C   UNL     1      -7.314   9.041  70.609  1.00  0.00    -0.099 A  
ENDBRANCH   2  26
TORSDOF 9
ENDMDL
MODEL      102
REMARK 921   NORMALIZED FREE ENERGY PREDICTED BY IDOCK:   -5.89 KCAL/MOL
REMARK 922        TOTAL FREE ENERGY PREDICTED BY IDOCK:  -10.76 KCAL/MOL
REMARK 923 INTER-LIGAND FREE ENERGY PREDICTED BY IDOCK:   -9.37 KCAL/MOL
REMARK 924 INTRA-LIGAND FREE ENERGY PREDICTED BY IDOCK:   -1.39 KCAL/MOL
REMARK 927      BINDING AFFINITY PREDICTED BY RF-SCORE:    0.00 PKD
ROOT
HETATM    1  C   UNL     1      -9.812  12.389  68.403  1.00  0.00    -0.198 C  
HETATM    2  N   UNL     1     -11.241  12.124  67.941  1.00  0.00    -0.252 N  
HETATM    3  C   UNL     1     -11.206  11.471  66.562  1.00  0.00    -0.259 C  
ENDROOT
BRANCH   2   4
HETATM    4  C   UNL     1     -11.934  11.240  68.957  1.00  0.00    -0.325 C  
BRANCH   4   5
HETATM    5  C   UNL     1     -11.028  10.480  69.925  1.00  0.00    -0.359 C  
BRANCH   5   6
HETATM    6  C   UNL     1     -11.886   9.850  71.030  1.00  0.00    -0.463 C  
BRANCH   6   7
HETATM    7  C   UNL     1     -11.122   8.867  71.936  1.00  0.00    -0.442 C  
BRANCH   7   8
HETATM    8  C   UNL     1     -11.501   7.394  71.721  1.00  0.00    -0.297 C  
BRANCH   8   9
HETATM    9  C   UNL     1     -10.840   6.905  70.431  1.00  0.00    -0.261 C  
BRANCH   9  10
HETATM   10  N   UNL     1      -9.989   5.652  70.566  1.00  0.00    -0.193 N  
HETATM   11  C   UNL     1     -10.384   4.845  71.798  1.00  0.00    -0.179 C  
HETATM   12  C   UNL     1     -10.149   4.724  69.371  1.00  0.00    -0.171 C  
BRANCH  10  13
HETATM   13  C   UNL     1      -8.463   6.136  70.684  1.00  0.00    -0.134 C  
HETATM   14  C   UNL     1      -8.053   6.585  72.100  1.00  0.00    -0.106 A  
HETATM   15  C   UNL     1      -7.660   7.942  72.084  1.00  0.00    -0.103 A  
HETATM   16  C   UNL     1      -7.681   8.430  70.726  1.00  0.00    -0.083 A  
HETATM   17  C   UNL     1      -7.297   8.604  73.249  1.00  0.00     0.050 A  
HETATM   18  C   UNL     1      -8.121   7.401  69.863  1.00  0.00    -0.126 A  
HETATM   19  C   UNL     1      -7.321   7.898  74.451  1.00  0.00    -0.198 A  
HETATM   20  C   UNL     1      -7.674   6.542  74.470  1.00  0.00    -0.101 A  
HETATM   21  C   UNL     1      -8.144   7.621  68.490  1.00  0.00    -0.124 A  
HETATM   22  C   UNL     1      -7.777   8.881  67.999  1.00  0.00    -0.101 A  
HETATM   23  C   UNL     1      -8.020   5.872  73.293  1.00  0.00    -0.109 A  
HETATM   24  C   UNL     1      -7.353   9.895  68.863  1.00  0.00    -0.078 A  
HETATM   25  C   UNL     1      -7.293   9.672  70.239  1.00  0.00    -0.153 A  
ENDBRANCH  10  13
ENDBRANCH   9  10
ENDBRANCH   8   9
ENDBRANCH   7   8
ENDBRANCH   6   7
ENDBRANCH   5   6
ENDBRANCH   4   5
ENDBRANCH   2   4
BRANCH   2  26
HETATM   26  C   UNL     1     -12.071  13.504  67.861  1.00  0.00    -0.269 C  
HETATM   27  C   UNL     1     -11.208  16.171  70.303  1.00  0.00    -0.389 A  
HETATM   28  C   UNL     1     -11.423  14.593  66.980  1.00  0.00    -0.379 A  
HETATM   29  C   UNL     1     -11.723  15.698  71.505  1.00  0.00    -0.504 A  
HETATM   30  C   UNL     1     -11.026  15.683  67.790  1.00  0.00    -0.316 A  
HETATM   31  C   UNL     1     -11.429  15.429  69.153  1.00  0.00    -0.344 A  
HETATM   32  C   UNL     1     -10.422  16.807  67.243  1.00  0.00    -0.310 A  
HETATM   33  C   UNL     1     -12.511  14.537  71.550  1.00  0.00    -0.424 A  
HETATM   34  C   UNL     1     -11.251  14.665  65.599  1.00  0.00    -0.342 A  
HETATM   35  C   UNL     1     -12.155  14.219  69.205  1.00  0.00    -0.351 A  
HETATM   36  C   UNL     1     -10.205  16.847  65.865  1.00  0.00    -0.330 A  
HETATM   37  C   UNL     1     -12.770  13.806  70.383  1.00  0.00    -0.245 A  
HETATM   38  C   UNL     1     -10.614  15.786  65.050  1.00  0.00    -0.397 A  
ENDBRANCH   2  26
TORSDOF 9
ENDMDL
MODEL      103
REMARK 921   NORMALIZED FREE ENERGY PREDICTED BY IDOCK:   -5.89 KCAL/MOL
REMARK 922        TOTAL FREE ENERGY PREDICTED BY IDOCK:  -10.75 KCAL/MOL
REMARK 923 INTER-LIGAND FREE ENERGY PREDICTED BY IDOCK:   -9.16 KCAL/MOL
REMARK 924 INTRA-LIGAND FREE ENERGY PREDICTED BY IDOCK:   -1.59 KCAL/MOL
REMARK 927      BINDING AFFINITY PREDICTED BY RF-SCORE:    0.00 PKD
ROOT
HETATM    1  C   UNL     1      -9.593  11.823  68.757  1.00  0.00    -0.042 C  
HETATM    2  N   UNL     1     -11.008  11.275  68.611  1.00  0.00    -0.200 N  
HETATM    3  C   UNL     1     -11.020  10.208  67.520  1.00  0.00    -0.255 C  
ENDROOT
BRANCH   2   4
HETATM    4  C   UNL     1     -11.462  10.714  69.942  1.00  0.00    -0.317 C  
BRANCH   4   5
HETATM    5  C   UNL     1     -10.549   9.669  70.584  1.00  0.00    -0.386 C  
BRANCH   5   6
HETATM    6  C   UNL     1     -11.404   8.512  71.119  1.00  0.00    -0.319 C  
BRANCH   6   7
HETATM    7  C   UNL     1     -10.742   7.129  70.991  1.00  0.00    -0.252 C  
BRANCH   7   8
HETATM    8  C   UNL     1     -11.280   6.283  69.827  1.00  0.00    -0.499 C  
BRANCH   8   9
HETATM    9  C   UNL     1     -10.527   6.671  68.554  1.00  0.00    -0.213 C  
BRANCH   9  10
HETATM   10  N   UNL     1      -9.642   5.587  67.961  1.00  0.00    -0.120 N  
HETATM   11  C   UNL     1      -9.578   4.365  68.871  1.00  0.00    -0.163 C  
HETATM   12  C   UNL     1     -10.162   5.098  66.617  1.00  0.00    -0.261 C  
BRANCH  10  13
HETATM   13  C   UNL     1      -8.179   6.224  67.783  1.00  0.00    -0.118 C  
HETATM   14  C   UNL     1      -7.626   6.895  69.055  1.00  0.00    -0.104 A  
HETATM   15  C   UNL     1      -7.396   8.269  68.818  1.00  0.00    -0.088 A  
HETATM   16  C   UNL     1      -7.664   8.567  67.432  1.00  0.00    -0.098 A  
HETATM   17  C   UNL     1      -6.949   9.112  69.827  1.00  0.00    -0.056 A  
HETATM   18  C   UNL     1      -8.103   7.395  66.776  1.00  0.00    -0.123 A  
HETATM   19  C   UNL     1      -6.722   8.574  71.092  1.00  0.00    -0.061 A  
HETATM   20  C   UNL     1      -6.913   7.205  71.326  1.00  0.00    -0.060 A  
HETATM   21  C   UNL     1      -8.345   7.426  65.406  1.00  0.00    -0.122 A  
HETATM   22  C   UNL     1      -8.198   8.639  64.719  1.00  0.00    -0.161 A  
HETATM   23  C   UNL     1      -7.344   6.355  70.304  1.00  0.00    -0.089 A  
HETATM   24  C   UNL     1      -7.772   9.795  65.381  1.00  0.00    -0.123 A  
HETATM   25  C   UNL     1      -7.493   9.764  66.747  1.00  0.00    -0.095 A  
ENDBRANCH  10  13
ENDBRANCH   9  10
ENDBRANCH   8   9
ENDBRANCH   7   8
ENDBRANCH   6   7
ENDBRANCH   5   6
ENDBRANCH   4   5
ENDBRANCH   2   4
BRANCH   2  26
HETATM   26  C   UNL     1     -12.031  12.458  68.216  1.00  0.00    -0.214 C  
HETATM   27  C   UNL     1     -11.229  15.888  69.402  1.00  0.00    -0.336 A  
HETATM   28  C   UNL     1     -11.675  13.207  66.914  1.00  0.00    -0.441 A  
HETATM   29  C   UNL     1     -11.499  15.838  70.765  1.00  0.00    -0.423 A  
HETATM   30  C   UNL     1     -11.329  14.545  67.217  1.00  0.00    -0.363 A  
HETATM   31  C   UNL     1     -11.499  14.766  68.635  1.00  0.00    -0.325 A  
HETATM   32  C   UNL     1     -10.975  15.443  66.220  1.00  0.00    -0.278 A  
HETATM   33  C   UNL     1     -12.098  14.710  71.345  1.00  0.00    -0.416 A  
HETATM   34  C   UNL     1     -11.708  12.791  65.585  1.00  0.00    -0.443 A  
HETATM   35  C   UNL     1     -12.029  13.599  69.227  1.00  0.00    -0.384 A  
HETATM   36  C   UNL     1     -10.959  15.003  64.896  1.00  0.00    -0.427 A  
HETATM   37  C   UNL     1     -12.409  13.588  70.565  1.00  0.00    -0.412 A  
HETATM   38  C   UNL     1     -11.321  13.688  64.581  1.00  0.00    -0.380 A  
ENDBRANCH   2  26
TORSDOF 9
ENDMDL
MODEL      104
REMARK 921   NORMALIZED FREE ENERGY PREDICTED BY IDOCK:   -5.89 KCAL/MOL
REMARK 922        TOTAL FREE ENERGY PREDICTED BY IDOCK:  -10.75 KCAL/MOL
REMARK 923 INTER-LIGAND FREE ENERGY PREDICTED BY IDOCK:   -9.37 KCAL/MOL
REMARK 924 INTRA-LIGAND FREE ENERGY PREDICTED BY IDOCK:   -1.38 KCAL/MOL
REMARK 927      BINDING AFFINITY PREDICTED BY RF-SCORE:    0.00 PKD
ROOT
HETATM    1  C   UNL     1     -11.103   5.816  73.094  1.00  0.00    -0.247 C  
HETATM    2  N   UNL     1     -11.045   6.753  71.892  1.00  0.00    -0.239 N  
HETATM    3  C   UNL     1     -12.324   6.593  71.073  1.00  0.00    -0.230 C  
ENDROOT
BRANCH   2   4
HETATM    4  C   UNL     1     -10.873   8.176  72.381  1.00  0.00    -0.339 C  
BRANCH   4   5
HETATM    5  C   UNL     1     -11.995   9.154  72.033  1.00  0.00    -0.421 C  
BRANCH   5   6
HETATM    6  C   UNL     1     -11.463  10.200  71.044  1.00  0.00    -0.436 C  
BRANCH   6   7
HETATM    7  C   UNL     1     -12.228  11.536  71.070  1.00  0.00    -0.368 C  
BRANCH   7   8
HETATM    8  C   UNL     1     -12.636  12.051  69.681  1.00  0.00     0.248 C  
BRANCH   8   9
HETATM    9  C   UNL     1     -11.972  13.408  69.451  1.00  0.00    -0.315 C  
BRANCH   9  10
HETATM   10  N   UNL     1     -11.169  13.535  68.166  1.00  0.00    -0.259 N  
HETATM   11  C   UNL     1     -11.855  14.468  67.174  1.00  0.00    -0.387 C  
HETATM   12  C   UNL     1      -9.783  14.111  68.415  1.00  0.00    -0.226 C  
BRANCH  10  13
HETATM   13  C   UNL     1     -11.045  12.059  67.546  1.00  0.00    -0.275 C  
HETATM   14  C   UNL     1      -9.666  11.404  67.750  1.00  0.00    -0.184 A  
HETATM   15  C   UNL     1      -9.068  11.130  66.499  1.00  0.00    -0.193 A  
HETATM   16  C   UNL     1      -9.992  11.467  65.443  1.00  0.00    -0.288 A  
HETATM   17  C   UNL     1      -7.793  10.589  66.410  1.00  0.00    -0.138 A  
HETATM   18  C   UNL     1     -11.177  11.994  66.006  1.00  0.00    -0.385 A  
HETATM   19  C   UNL     1      -7.104  10.310  67.589  1.00  0.00    -0.086 A  
HETATM   20  C   UNL     1      -7.704  10.544  68.834  1.00  0.00    -0.117 A  
HETATM   21  C   UNL     1     -12.246  12.315  65.176  1.00  0.00    -0.345 A  
HETATM   22  C   UNL     1     -12.101  12.157  63.791  1.00  0.00    -0.620 A  
HETATM   23  C   UNL     1      -8.996  11.071  68.921  1.00  0.00    -0.123 A  
HETATM   24  C   UNL     1     -10.919  11.645  63.245  1.00  0.00    -0.361 A  
HETATM   25  C   UNL     1      -9.856  11.286  64.073  1.00  0.00    -0.334 A  
ENDBRANCH  10  13
ENDBRANCH   9  10
ENDBRANCH   8   9
ENDBRANCH   7   8
ENDBRANCH   6   7
ENDBRANCH   5   6
ENDBRANCH   4   5
ENDBRANCH   2   4
BRANCH   2  26
HETATM   26  C   UNL     1      -9.770   6.406  70.969  1.00  0.00    -0.176 C  
HETATM   27  C   UNL     1      -9.503   2.945  69.638  1.00  0.00    -0.164 A  
HETATM   28  C   UNL     1     -10.004   6.592  69.454  1.00  0.00    -0.178 A  
HETATM   29  C   UNL     1      -9.155   2.189  70.752  1.00  0.00    -0.166 A  
HETATM   30  C   UNL     1      -9.943   5.334  68.808  1.00  0.00    -0.243 A  
HETATM   31  C   UNL     1      -9.612   4.320  69.782  1.00  0.00    -0.279 A  
HETATM   32  C   UNL     1     -10.111   5.218  67.436  1.00  0.00    -0.228 A  
HETATM   33  C   UNL     1      -8.847   2.801  71.977  1.00  0.00    -0.112 A  
HETATM   34  C   UNL     1     -10.187   7.745  68.694  1.00  0.00    -0.217 A  
HETATM   35  C   UNL     1      -9.381   4.933  71.032  1.00  0.00    -0.209 A  
HETATM   36  C   UNL     1     -10.348   6.373  66.690  1.00  0.00    -0.223 A  
HETATM   37  C   UNL     1      -8.918   4.193  72.115  1.00  0.00    -0.143 A  
HETATM   38  C   UNL     1     -10.387   7.626  67.313  1.00  0.00    -0.367 A  
ENDBRANCH   2  26
TORSDOF 9
ENDMDL
MODEL      105
REMARK 921   NORMALIZED FREE ENERGY PREDICTED BY IDOCK:   -5.88 KCAL/MOL
REMARK 922        TOTAL FREE ENERGY PREDICTED BY IDOCK:  -10.74 KCAL/MOL
REMARK 923 INTER-LIGAND FREE ENERGY PREDICTED BY IDOCK:  -10.31 KCAL/MOL
REMARK 924 INTRA-LIGAND FREE ENERGY PREDICTED BY IDOCK:   -0.43 KCAL/MOL
REMARK 927      BINDING AFFINITY PREDICTED BY RF-SCORE:    0.00 PKD
ROOT
HETATM    1  C   UNL     1      -8.985   8.123  70.733  1.00  0.00    -0.145 C  
HETATM    2  N   UNL     1     -10.420   8.360  70.274  1.00  0.00    -0.213 N  
HETATM    3  C   UNL     1     -11.119   9.275  71.276  1.00  0.00    -0.357 C  
ENDROOT
BRANCH   2   4
HETATM    4  C   UNL     1     -10.403   8.966  68.886  1.00  0.00    -0.212 C  
BRANCH   4   5
HETATM    5  C   UNL     1      -9.128   9.706  68.485  1.00  0.00    -0.131 C  
BRANCH   5   6
HETATM    6  C   UNL     1      -9.301  10.281  67.073  1.00  0.00    -0.177 C  
BRANCH   6   7
HETATM    7  C   UNL     1     -10.769  10.451  66.639  1.00  0.00    -0.198 C  
BRANCH   7   8
HETATM    8  C   UNL     1     -11.341  11.852  66.905  1.00  0.00    -0.392 C  
BRANCH   8   9
HETATM    9  C   UNL     1     -10.601  12.856  66.020  1.00  0.00    -0.270 C  
BRANCH   9  10
HETATM   10  N   UNL     1     -11.019  14.308  66.188  1.00  0.00    -0.308 N  
HETATM   11  C   UNL     1     -11.963  14.745  65.073  1.00  0.00    -0.318 C  
HETATM   12  C   UNL     1     -11.757  14.541  67.497  1.00  0.00    -0.386 C  
BRANCH  10  13
HETATM   13  C   UNL     1      -9.675  15.187  66.153  1.00  0.00    -0.310 C  
HETATM   14  C   UNL     1      -8.657  14.824  67.251  1.00  0.00    -0.230 A  
HETATM   15  C   UNL     1      -8.430  15.939  68.090  1.00  0.00    -0.167 A  
HETATM   16  C   UNL     1      -9.156  17.077  67.580  1.00  0.00    -0.223 A  
HETATM   17  C   UNL     1      -7.593  15.854  69.194  1.00  0.00    -0.213 A  
HETATM   18  C   UNL     1      -9.882  16.694  66.429  1.00  0.00    -0.308 A  
HETATM   19  C   UNL     1      -6.967  14.639  69.463  1.00  0.00    -0.165 A  
HETATM   20  C   UNL     1      -7.157  13.539  68.615  1.00  0.00    -0.106 A  
HETATM   21  C   UNL     1     -10.596  17.654  65.719  1.00  0.00    -0.177 A  
HETATM   22  C   UNL     1     -10.619  18.972  66.194  1.00  0.00    -0.495 A  
HETATM   23  C   UNL     1      -7.985  13.632  67.493  1.00  0.00    -0.189 A  
HETATM   24  C   UNL     1      -9.904  19.337  67.340  1.00  0.00    -0.425 A  
HETATM   25  C   UNL     1      -9.157  18.389  68.038  1.00  0.00    -0.308 A  
ENDBRANCH  10  13
ENDBRANCH   9  10
ENDBRANCH   8   9
ENDBRANCH   7   8
ENDBRANCH   6   7
ENDBRANCH   5   6
ENDBRANCH   4   5
ENDBRANCH   2   4
BRANCH   2  26
HETATM   26  C   UNL     1     -11.217   6.962  70.177  1.00  0.00    -0.313 C  
HETATM   27  C   UNL     1      -9.510   4.126  68.485  1.00  0.00    -0.216 A  
HETATM   28  C   UNL     1     -10.934   5.979  71.334  1.00  0.00    -0.336 A  
HETATM   29  C   UNL     1      -9.549   4.473  67.139  1.00  0.00    -0.209 A  
HETATM   30  C   UNL     1     -10.263   4.838  70.833  1.00  0.00    -0.247 A  
HETATM   31  C   UNL     1     -10.139   4.957  69.398  1.00  0.00    -0.270 A  
HETATM   32  C   UNL     1      -9.899   3.791  71.666  1.00  0.00    -0.240 A  
HETATM   33  C   UNL     1     -10.270   5.593  66.699  1.00  0.00    -0.276 A  
HETATM   34  C   UNL     1     -11.280   6.035  72.682  1.00  0.00    -0.326 A  
HETATM   35  C   UNL     1     -10.799   6.129  68.970  1.00  0.00    -0.416 A  
HETATM   36  C   UNL     1     -10.202   3.879  73.026  1.00  0.00    -0.228 A  
HETATM   37  C   UNL     1     -10.941   6.413  67.616  1.00  0.00    -0.441 A  
HETATM   38  C   UNL     1     -10.885   4.991  73.530  1.00  0.00    -0.369 A  
ENDBRANCH   2  26
TORSDOF 9
ENDMDL
MODEL      106
REMARK 921   NORMALIZED FREE ENERGY PREDICTED BY IDOCK:   -5.88 KCAL/MOL
REMARK 922        TOTAL FREE ENERGY PREDICTED BY IDOCK:  -10.74 KCAL/MOL
REMARK 923 INTER-LIGAND FREE ENERGY PREDICTED BY IDOCK:   -9.05 KCAL/MOL
REMARK 924 INTRA-LIGAND FREE ENERGY PREDICTED BY IDOCK:   -1.69 KCAL/MOL
REMARK 927      BINDING AFFINITY PREDICTED BY RF-SCORE:    0.00 PKD
ROOT
HETATM    1  C   UNL     1      -6.457   5.345  71.244  1.00  0.00    -0.035 C  
HETATM    2  N   UNL     1      -7.711   6.148  70.914  1.00  0.00    -0.096 N  
HETATM    3  C   UNL     1      -7.303   7.459  70.246  1.00  0.00    -0.078 C  
ENDROOT
BRANCH   2   4
HETATM    4  C   UNL     1      -8.606   5.321  70.015  1.00  0.00    -0.112 C  
BRANCH   4   5
HETATM    5  C   UNL     1      -8.959   5.934  68.660  1.00  0.00    -0.116 C  
BRANCH   5   6
HETATM    6  C   UNL     1     -10.469   6.203  68.606  1.00  0.00    -0.285 C  
BRANCH   6   7
HETATM    7  C   UNL     1     -10.856   7.456  67.799  1.00  0.00    -0.186 C  
BRANCH   7   8
HETATM    8  C   UNL     1      -9.780   8.552  67.790  1.00  0.00    -0.199 C  
BRANCH   8   9
HETATM    9  C   UNL     1     -10.446   9.886  67.453  1.00  0.00    -0.267 C  
BRANCH   9  10
HETATM   10  N   UNL     1      -9.641  11.127  67.807  1.00  0.00    -0.169 N  
HETATM   11  C   UNL     1     -10.466  12.100  68.643  1.00  0.00    -0.216 C  
HETATM   12  C   UNL     1      -8.405  10.790  68.627  1.00  0.00    -0.141 C  
BRANCH  10  13
HETATM   13  C   UNL     1      -9.210  11.814  66.421  1.00  0.00    -0.217 C  
HETATM   14  C   UNL     1     -10.357  12.544  65.696  1.00  0.00    -0.294 A  
HETATM   15  C   UNL     1     -10.582  11.959  64.430  1.00  0.00    -0.366 A  
HETATM   16  C   UNL     1      -9.596  10.931  64.196  1.00  0.00    -0.321 A  
HETATM   17  C   UNL     1     -11.603  12.400  63.601  1.00  0.00    -0.580 A  
HETATM   18  C   UNL     1      -8.752  10.824  65.325  1.00  0.00    -0.183 A  
HETATM   19  C   UNL     1     -12.411  13.448  64.039  1.00  0.00    -0.402 A  
HETATM   20  C   UNL     1     -12.171  14.059  65.277  1.00  0.00    -0.451 A  
HETATM   21  C   UNL     1      -7.672   9.947  65.292  1.00  0.00    -0.129 A  
HETATM   22  C   UNL     1      -7.480   9.150  64.156  1.00  0.00    -0.109 A  
HETATM   23  C   UNL     1     -11.129  13.626  66.102  1.00  0.00    -0.299 A  
HETATM   24  C   UNL     1      -8.328   9.258  63.049  1.00  0.00    -0.195 A  
HETATM   25  C   UNL     1      -9.392  10.160  63.059  1.00  0.00    -0.330 A  
ENDBRANCH  10  13
ENDBRANCH   9  10
ENDBRANCH   8   9
ENDBRANCH   7   8
ENDBRANCH   6   7
ENDBRANCH   5   6
ENDBRANCH   4   5
ENDBRANCH   2   4
BRANCH   2  26
HETATM   26  C   UNL     1      -8.545   6.466  72.257  1.00  0.00    -0.117 C  
HETATM   27  C   UNL     1     -12.124   7.393  71.878  1.00  0.00    -0.341 A  
HETATM   28  C   UNL     1      -9.288   5.252  72.854  1.00  0.00    -0.147 A  
HETATM   29  C   UNL     1     -12.079   8.683  71.362  1.00  0.00    -0.351 A  
HETATM   30  C   UNL     1     -10.685   5.462  72.764  1.00  0.00    -0.293 A  
HETATM   31  C   UNL     1     -10.930   6.773  72.209  1.00  0.00    -0.276 A  
HETATM   32  C   UNL     1     -11.588   4.522  73.240  1.00  0.00    -0.254 A  
HETATM   33  C   UNL     1     -10.864   9.375  71.244  1.00  0.00    -0.431 A  
HETATM   34  C   UNL     1      -8.805   4.103  73.476  1.00  0.00    -0.093 A  
HETATM   35  C   UNL     1      -9.698   7.435  72.019  1.00  0.00    -0.182 A  
HETATM   36  C   UNL     1     -11.095   3.349  73.813  1.00  0.00    -0.286 A  
HETATM   37  C   UNL     1      -9.658   8.765  71.615  1.00  0.00    -0.363 A  
HETATM   38  C   UNL     1      -9.716   3.140  73.929  1.00  0.00    -0.135 A  
ENDBRANCH   2  26
TORSDOF 9
ENDMDL
MODEL      107
REMARK 921   NORMALIZED FREE ENERGY PREDICTED BY IDOCK:   -5.85 KCAL/MOL
REMARK 922        TOTAL FREE ENERGY PREDICTED BY IDOCK:  -10.69 KCAL/MOL
REMARK 923 INTER-LIGAND FREE ENERGY PREDICTED BY IDOCK:  -10.04 KCAL/MOL
REMARK 924 INTRA-LIGAND FREE ENERGY PREDICTED BY IDOCK:   -0.65 KCAL/MOL
REMARK 927      BINDING AFFINITY PREDICTED BY RF-SCORE:    0.00 PKD
ROOT
HETATM    1  C   UNL     1      -8.763  20.031  66.472  1.00  0.00    -0.317 C  
HETATM    2  N   UNL     1      -8.606  18.800  67.359  1.00  0.00    -0.271 N  
HETATM    3  C   UNL     1      -9.128  19.122  68.757  1.00  0.00    -0.353 C  
ENDROOT
BRANCH   2   4
HETATM    4  C   UNL     1      -9.360  17.643  66.737  1.00  0.00    -0.278 C  
BRANCH   4   5
HETATM    5  C   UNL     1     -10.429  16.984  67.609  1.00  0.00    -0.343 C  
BRANCH   5   6
HETATM    6  C   UNL     1     -11.251  16.012  66.751  1.00  0.00     0.095 C  
BRANCH   6   7
HETATM    7  C   UNL     1     -10.428  15.265  65.684  1.00  0.00    -0.377 C  
BRANCH   7   8
HETATM    8  C   UNL     1     -10.278  13.760  65.951  1.00  0.00    -0.322 C  
BRANCH   8   9
HETATM    9  C   UNL     1     -11.487  13.285  66.759  1.00  0.00    -0.350 C  
BRANCH   9  10
HETATM   10  N   UNL     1     -11.167  12.647  68.101  1.00  0.00    -0.250 N  
HETATM   11  C   UNL     1      -9.667  12.656  68.374  1.00  0.00    -0.187 C  
HETATM   12  C   UNL     1     -11.822  13.390  69.256  1.00  0.00    -0.334 C  
BRANCH  10  13
HETATM   13  C   UNL     1     -11.711  11.138  68.041  1.00  0.00    -0.212 C  
HETATM   14  C   UNL     1     -11.904  10.483  69.423  1.00  0.00    -0.271 A  
HETATM   15  C   UNL     1     -11.072   9.347  69.542  1.00  0.00    -0.134 A  
HETATM   16  C   UNL     1     -10.388   9.121  68.292  1.00  0.00    -0.256 A  
HETATM   17  C   UNL     1     -11.017   8.611  70.717  1.00  0.00    -0.286 A  
HETATM   18  C   UNL     1     -10.749  10.131  67.370  1.00  0.00    -0.336 A  
HETATM   19  C   UNL     1     -11.811   9.011  71.791  1.00  0.00    -0.442 A  
HETATM   20  C   UNL     1     -12.667  10.114  71.669  1.00  0.00    -0.549 A  
HETATM   21  C   UNL     1     -10.270  10.070  66.065  1.00  0.00    -0.277 A  
HETATM   22  C   UNL     1      -9.396   9.033  65.711  1.00  0.00    -0.302 A  
HETATM   23  C   UNL     1     -12.735  10.842  70.478  1.00  0.00    -0.388 A  
HETATM   24  C   UNL     1      -9.038   8.046  66.635  1.00  0.00    -0.199 A  
HETATM   25  C   UNL     1      -9.542   8.079  67.935  1.00  0.00    -0.178 A  
ENDBRANCH  10  13
ENDBRANCH   9  10
ENDBRANCH   8   9
ENDBRANCH   7   8
ENDBRANCH   6   7
ENDBRANCH   5   6
ENDBRANCH   4   5
ENDBRANCH   2   4
BRANCH   2  26
HETATM   26  C   UNL     1      -7.056  18.367  67.451  1.00  0.00    -0.204 C  
HETATM   27  C   UNL     1      -5.400  18.602  70.770  1.00  0.00    -0.253 A  
HETATM   28  C   UNL     1      -6.823  16.890  67.834  1.00  0.00    -0.159 A  
HETATM   29  C   UNL     1      -5.237  19.970  70.962  1.00  0.00    -0.287 A  
HETATM   30  C   UNL     1      -6.201  16.823  69.104  1.00  0.00    -0.188 A  
HETATM   31  C   UNL     1      -5.934  18.164  69.569  1.00  0.00    -0.247 A  
HETATM   32  C   UNL     1      -5.870  15.606  69.682  1.00  0.00    -0.128 A  
HETATM   33  C   UNL     1      -5.533  20.886  69.941  1.00  0.00    -0.346 A  
HETATM   34  C   UNL     1      -7.066  15.715  67.126  1.00  0.00    -0.203 A  
HETATM   35  C   UNL     1      -6.309  19.087  68.568  1.00  0.00    -0.256 A  
HETATM   36  C   UNL     1      -6.166  14.432  68.989  1.00  0.00    -0.094 A  
HETATM   37  C   UNL     1      -6.037  20.443  68.711  1.00  0.00    -0.366 A  
HETATM   38  C   UNL     1      -6.760  14.485  67.723  1.00  0.00    -0.191 A  
ENDBRANCH   2  26
TORSDOF 9
ENDMDL
MODEL      108
REMARK 921   NORMALIZED FREE ENERGY PREDICTED BY IDOCK:   -5.84 KCAL/MOL
REMARK 922        TOTAL FREE ENERGY PREDICTED BY IDOCK:  -10.68 KCAL/MOL
REMARK 923 INTER-LIGAND FREE ENERGY PREDICTED BY IDOCK:  -10.59 KCAL/MOL
REMARK 924 INTRA-LIGAND FREE ENERGY PREDICTED BY IDOCK:   -0.09 KCAL/MOL
REMARK 927      BINDING AFFINITY PREDICTED BY RF-SCORE:    0.00 PKD
ROOT
HETATM    1  C   UNL     1     -10.297   8.620  69.917  1.00  0.00    -0.209 C  
HETATM    2  N   UNL     1     -10.466   7.145  69.571  1.00  0.00    -0.219 N  
HETATM    3  C   UNL     1     -11.838   6.674  70.044  1.00  0.00    -0.238 C  
ENDROOT
BRANCH   2   4
HETATM    4  C   UNL     1     -10.302   6.965  68.076  1.00  0.00    -0.192 C  
BRANCH   4   5
HETATM    5  C   UNL     1     -10.768   8.126  67.198  1.00  0.00    -0.264 C  
BRANCH   5   6
HETATM    6  C   UNL     1      -9.610   8.573  66.296  1.00  0.00    -0.306 C  
BRANCH   6   7
HETATM    7  C   UNL     1      -9.900   9.852  65.489  1.00  0.00    -0.381 C  
BRANCH   7   8
HETATM    8  C   UNL     1      -9.870  11.140  66.326  1.00  0.00    -0.253 C  
BRANCH   8   9
HETATM    9  C   UNL     1     -11.238  11.816  66.228  1.00  0.00    -0.312 C  
BRANCH   9  10
HETATM   10  N   UNL     1     -11.210  13.315  65.973  1.00  0.00    -0.294 N  
HETATM   11  C   UNL     1     -10.526  13.638  64.649  1.00  0.00    -0.423 C  
HETATM   12  C   UNL     1     -12.610  13.905  65.892  1.00  0.00    -0.456 C  
BRANCH  10  13
HETATM   13  C   UNL     1     -10.405  13.981  67.192  1.00  0.00    -0.265 C  
HETATM   14  C   UNL     1     -11.120  13.875  68.552  1.00  0.00    -0.289 A  
HETATM   15  C   UNL     1     -11.395  15.165  69.058  1.00  0.00    -0.307 A  
HETATM   16  C   UNL     1     -10.826  16.156  68.176  1.00  0.00    -0.329 A  
HETATM   17  C   UNL     1     -12.087  15.343  70.248  1.00  0.00    -0.402 A  
HETATM   18  C   UNL     1     -10.212  15.511  67.079  1.00  0.00    -0.271 A  
HETATM   19  C   UNL     1     -12.507  14.215  70.949  1.00  0.00    -0.436 A  
HETATM   20  C   UNL     1     -12.206  12.931  70.474  1.00  0.00    -0.395 A  
HETATM   21  C   UNL     1      -9.525  16.268  66.136  1.00  0.00    -0.373 A  
HETATM   22  C   UNL     1      -9.503  17.663  66.271  1.00  0.00    -0.232 A  
HETATM   23  C   UNL     1     -11.492  12.754  69.285  1.00  0.00    -0.349 A  
HETATM   24  C   UNL     1     -10.123  18.291  67.356  1.00  0.00    -0.364 A  
HETATM   25  C   UNL     1     -10.784  17.537  68.325  1.00  0.00    -0.309 A  
ENDBRANCH  10  13
ENDBRANCH   9  10
ENDBRANCH   8   9
ENDBRANCH   7   8
ENDBRANCH   6   7
ENDBRANCH   5   6
ENDBRANCH   4   5
ENDBRANCH   2   4
BRANCH   2  26
HETATM   26  C   UNL     1      -9.320   6.265  70.288  1.00  0.00    -0.161 C  
HETATM   27  C   UNL     1     -10.250   4.427  73.382  1.00  0.00    -0.221 A  
HETATM   28  C   UNL     1      -9.276   4.786  69.846  1.00  0.00    -0.183 A  
HETATM   29  C   UNL     1     -10.361   5.429  74.340  1.00  0.00    -0.293 A  
HETATM   30  C   UNL     1      -9.627   3.956  70.937  1.00  0.00    -0.258 A  
HETATM   31  C   UNL     1      -9.836   4.778  72.107  1.00  0.00    -0.228 A  
HETATM   32  C   UNL     1      -9.656   2.574  70.813  1.00  0.00    -0.175 A  
HETATM   33  C   UNL     1      -9.994   6.752  74.053  1.00  0.00    -0.367 A  
HETATM   34  C   UNL     1      -8.904   4.207  68.635  1.00  0.00    -0.141 A  
HETATM   35  C   UNL     1      -9.541   6.122  71.789  1.00  0.00    -0.165 A  
HETATM   36  C   UNL     1      -9.335   2.005  69.580  1.00  0.00    -0.154 A  
HETATM   37  C   UNL     1      -9.538   7.103  72.775  1.00  0.00    -0.183 A  
HETATM   38  C   UNL     1      -8.963   2.814  68.500  1.00  0.00    -0.193 A  
ENDBRANCH   2  26
TORSDOF 9
ENDMDL
MODEL      109
REMARK 921   NORMALIZED FREE ENERGY PREDICTED BY IDOCK:   -5.81 KCAL/MOL
REMARK 922        TOTAL FREE ENERGY PREDICTED BY IDOCK:  -10.64 KCAL/MOL
REMARK 923 INTER-LIGAND FREE ENERGY PREDICTED BY IDOCK:   -8.01 KCAL/MOL
REMARK 924 INTRA-LIGAND FREE ENERGY PREDICTED BY IDOCK:   -2.63 KCAL/MOL
REMARK 927      BINDING AFFINITY PREDICTED BY RF-SCORE:    0.00 PKD
ROOT
HETATM    1  C   UNL     1      -6.643   7.092  71.241  1.00  0.00    -0.044 C  
HETATM    2  N   UNL     1      -8.043   7.621  71.534  1.00  0.00    -0.096 N  
HETATM    3  C   UNL     1      -8.059   8.248  72.925  1.00  0.00    -0.150 C  
ENDROOT
BRANCH   2   4
HETATM    4  C   UNL     1      -8.426   8.626  70.467  1.00  0.00    -0.150 C  
BRANCH   4   5
HETATM    5  C   UNL     1      -7.286   9.458  69.879  1.00  0.00    -0.088 C  
BRANCH   5   6
HETATM    6  C   UNL     1      -7.823  10.841  69.485  1.00  0.00    -0.045 C  
BRANCH   6   7
HETATM    7  C   UNL     1      -7.156  11.441  68.234  1.00  0.00    -0.078 C  
BRANCH   7   8
HETATM    8  C   UNL     1      -7.424  12.941  68.041  1.00  0.00    -0.125 C  
BRANCH   8   9
HETATM    9  C   UNL     1      -8.761  13.285  68.696  1.00  0.00     0.032 C  
BRANCH   9  10
HETATM   10  N   UNL     1      -9.799  13.909  67.778  1.00  0.00    -0.231 N  
HETATM   11  C   UNL     1     -10.213  15.293  68.270  1.00  0.00    -0.226 C  
HETATM   12  C   UNL     1      -9.271  14.093  66.363  1.00  0.00    -0.183 C  
BRANCH  10  13
HETATM   13  C   UNL     1     -11.066  12.923  67.766  1.00  0.00    -0.259 C  
HETATM   14  C   UNL     1     -11.680  12.670  69.156  1.00  0.00    -0.375 A  
HETATM   15  C   UNL     1     -11.604  11.296  69.478  1.00  0.00    -0.398 A  
HETATM   16  C   UNL     1     -11.062  10.571  68.355  1.00  0.00    -0.335 A  
HETATM   17  C   UNL     1     -12.039  10.816  70.705  1.00  0.00    -0.473 A  
HETATM   18  C   UNL     1     -10.754  11.477  67.314  1.00  0.00    -0.286 A  
HETATM   19  C   UNL     1     -12.567  11.721  71.625  1.00  0.00    -0.249 A  
HETATM   20  C   UNL     1     -12.681  13.079  71.300  1.00  0.00    -0.385 A  
HETATM   21  C   UNL     1     -10.291  10.990  66.096  1.00  0.00    -0.306 A  
HETATM   22  C   UNL     1     -10.092   9.611  65.948  1.00  0.00    -0.304 A  
HETATM   23  C   UNL     1     -12.259  13.557  70.056  1.00  0.00    -0.381 A  
HETATM   24  C   UNL     1     -10.391   8.725  66.988  1.00  0.00    -0.353 A  
HETATM   25  C   UNL     1     -10.889   9.201  68.201  1.00  0.00    -0.118 A  
ENDBRANCH  10  13
ENDBRANCH   9  10
ENDBRANCH   8   9
ENDBRANCH   7   8
ENDBRANCH   6   7
ENDBRANCH   5   6
ENDBRANCH   4   5
ENDBRANCH   2   4
BRANCH   2  26
HETATM   26  C   UNL     1      -9.121   6.423  71.472  1.00  0.00    -0.144 C  
HETATM   27  C   UNL     1     -12.571   7.271  70.380  1.00  0.00     0.207 A  
HETATM   28  C   UNL     1      -9.235   5.733  70.096  1.00  0.00    -0.173 A  
HETATM   29  C   UNL     1     -13.101   7.960  71.466  1.00  0.00    -0.343 A  
HETATM   30  C   UNL     1     -10.514   5.985  69.545  1.00  0.00    -0.330 A  
HETATM   31  C   UNL     1     -11.295   6.743  70.494  1.00  0.00    -0.394 A  
HETATM   32  C   UNL     1     -10.883   5.468  68.311  1.00  0.00    -0.057 A  
HETATM   33  C   UNL     1     -12.398   8.058  72.676  1.00  0.00    -0.165 A  
HETATM   34  C   UNL     1      -8.343   4.909  69.412  1.00  0.00    -0.085 A  
HETATM   35  C   UNL     1     -10.551   6.906  71.683  1.00  0.00    -0.231 A  
HETATM   36  C   UNL     1      -9.963   4.689  67.608  1.00  0.00    -0.161 A  
HETATM   37  C   UNL     1     -11.124   7.491  72.808  1.00  0.00    -0.416 A  
HETATM   38  C   UNL     1      -8.704   4.413  68.152  1.00  0.00    -0.115 A  
ENDBRANCH   2  26
TORSDOF 9
ENDMDL
MODEL      110
REMARK 921   NORMALIZED FREE ENERGY PREDICTED BY IDOCK:   -5.77 KCAL/MOL
REMARK 922        TOTAL FREE ENERGY PREDICTED BY IDOCK:  -10.57 KCAL/MOL
REMARK 923 INTER-LIGAND FREE ENERGY PREDICTED BY IDOCK:  -10.38 KCAL/MOL
REMARK 924 INTRA-LIGAND FREE ENERGY PREDICTED BY IDOCK:   -0.19 KCAL/MOL
REMARK 927      BINDING AFFINITY PREDICTED BY RF-SCORE:    0.00 PKD
ROOT
HETATM    1  C   UNL     1      -8.707   9.712  69.758  1.00  0.00    -0.208 C  
HETATM    2  N   UNL     1      -9.347   8.382  69.373  1.00  0.00    -0.154 N  
HETATM    3  C   UNL     1     -10.814   8.394  69.795  1.00  0.00    -0.183 C  
ENDROOT
BRANCH   2   4
HETATM    4  C   UNL     1      -9.200   8.176  67.880  1.00  0.00    -0.131 C  
BRANCH   4   5
HETATM    5  C   UNL     1     -10.201   8.914  66.991  1.00  0.00    -0.345 C  
BRANCH   5   6
HETATM    6  C   UNL     1      -9.453   9.954  66.146  1.00  0.00    -0.254 C  
BRANCH   6   7
HETATM    7  C   UNL     1     -10.372  10.848  65.293  1.00  0.00    -0.334 C  
BRANCH   7   8
HETATM    8  C   UNL     1     -10.465  12.300  65.786  1.00  0.00    -0.287 C  
BRANCH   8   9
HETATM    9  C   UNL     1     -11.660  12.417  66.731  1.00  0.00    -0.379 C  
BRANCH   9  10
HETATM   10  N   UNL     1     -11.324  12.768  68.172  1.00  0.00    -0.267 N  
HETATM   11  C   UNL     1     -11.778  11.671  69.129  1.00  0.00    -0.326 C  
HETATM   12  C   UNL     1      -9.826  12.934  68.383  1.00  0.00    -0.197 C  
BRANCH  10  13
HETATM   13  C   UNL     1     -12.080  14.144  68.506  1.00  0.00    -0.277 C  
HETATM   14  C   UNL     1     -11.303  15.407  68.088  1.00  0.00    -0.353 A  
HETATM   15  C   UNL     1     -11.017  16.200  69.222  1.00  0.00    -0.315 A  
HETATM   16  C   UNL     1     -11.634  15.610  70.386  1.00  0.00    -0.368 A  
HETATM   17  C   UNL     1     -10.274  17.367  69.120  1.00  0.00    -0.273 A  
HETATM   18  C   UNL     1     -12.291  14.414  70.014  1.00  0.00    -0.391 A  
HETATM   19  C   UNL     1      -9.813  17.755  67.863  1.00  0.00    -0.306 A  
HETATM   20  C   UNL     1     -10.123  16.995  66.728  1.00  0.00    -0.300 A  
HETATM   21  C   UNL     1     -13.027  13.713  70.964  1.00  0.00    -0.303 A  
HETATM   22  C   UNL     1     -13.054  14.184  72.284  1.00  0.00    -0.514 A  
HETATM   23  C   UNL     1     -10.888  15.830  66.830  1.00  0.00    -0.265 A  
HETATM   24  C   UNL     1     -12.392  15.363  72.642  1.00  0.00    -0.492 A  
HETATM   25  C   UNL     1     -11.681  16.091  71.688  1.00  0.00    -0.583 A  
ENDBRANCH  10  13
ENDBRANCH   9  10
ENDBRANCH   8   9
ENDBRANCH   7   8
ENDBRANCH   6   7
ENDBRANCH   5   6
ENDBRANCH   4   5
ENDBRANCH   2   4
BRANCH   2  26
HETATM   26  C   UNL     1      -8.588   7.161  70.103  1.00  0.00    -0.140 C  
HETATM   27  C   UNL     1     -10.523   5.165  72.570  1.00  0.00    -0.267 A  
HETATM   28  C   UNL     1      -8.750   5.795  69.402  1.00  0.00    -0.111 A  
HETATM   29  C   UNL     1     -10.635   6.013  73.667  1.00  0.00    -0.281 A  
HETATM   30  C   UNL     1      -9.491   4.921  70.234  1.00  0.00    -0.238 A  
HETATM   31  C   UNL     1      -9.779   5.590  71.481  1.00  0.00    -0.201 A  
HETATM   32  C   UNL     1      -9.772   3.620  69.844  1.00  0.00    -0.166 A  
HETATM   33  C   UNL     1      -9.954   7.239  73.708  1.00  0.00    -0.368 A  
HETATM   34  C   UNL     1      -8.248   5.327  68.190  1.00  0.00    -0.098 A  
HETATM   35  C   UNL     1      -9.156   6.857  71.485  1.00  0.00    -0.144 A  
HETATM   36  C   UNL     1      -9.311   3.177  68.604  1.00  0.00    -0.236 A  
HETATM   37  C   UNL     1      -9.169   7.655  72.624  1.00  0.00    -0.217 A  
HETATM   38  C   UNL     1      -8.557   4.022  67.783  1.00  0.00    -0.108 A  
ENDBRANCH   2  26
TORSDOF 9
ENDMDL
MODEL      111
REMARK 921   NORMALIZED FREE ENERGY PREDICTED BY IDOCK:   -5.75 KCAL/MOL
REMARK 922        TOTAL FREE ENERGY PREDICTED BY IDOCK:  -10.54 KCAL/MOL
REMARK 923 INTER-LIGAND FREE ENERGY PREDICTED BY IDOCK:   -8.91 KCAL/MOL
REMARK 924 INTRA-LIGAND FREE ENERGY PREDICTED BY IDOCK:   -1.63 KCAL/MOL
REMARK 927      BINDING AFFINITY PREDICTED BY RF-SCORE:    0.00 PKD
ROOT
HETATM    1  C   UNL     1     -10.872   7.949  72.717  1.00  0.00    -0.386 C  
HETATM    2  N   UNL     1     -11.733   7.799  71.468  1.00  0.00    -0.271 N  
HETATM    3  C   UNL     1     -13.141   8.308  71.767  1.00  0.00    -0.344 C  
ENDROOT
BRANCH   2   4
HETATM    4  C   UNL     1     -11.094   8.568  70.331  1.00  0.00    -0.231 C  
BRANCH   4   5
HETATM    5  C   UNL     1     -10.955  10.078  70.527  1.00  0.00    -0.392 C  
BRANCH   5   6
HETATM    6  C   UNL     1     -11.732  10.804  69.421  1.00  0.00    -0.378 C  
BRANCH   6   7
HETATM    7  C   UNL     1     -11.569  12.335  69.439  1.00  0.00    -0.378 C  
BRANCH   7   8
HETATM    8  C   UNL     1     -12.223  13.048  68.245  1.00  0.00    -0.033 C  
BRANCH   8   9
HETATM    9  C   UNL     1     -11.307  14.186  67.796  1.00  0.00    -0.306 C  
BRANCH   9  10
HETATM   10  N   UNL     1     -10.926  14.177  66.324  1.00  0.00    -0.300 N  
HETATM   11  C   UNL     1     -11.867  13.291  65.514  1.00  0.00    -0.370 C  
HETATM   12  C   UNL     1     -11.000  15.565  65.707  1.00  0.00    -0.283 C  
BRANCH  10  13
HETATM   13  C   UNL     1      -9.423  13.617  66.234  1.00  0.00    -0.191 C  
HETATM   14  C   UNL     1      -9.305  12.095  66.446  1.00  0.00    -0.225 A  
HETATM   15  C   UNL     1      -8.504  11.823  67.577  1.00  0.00    -0.154 A  
HETATM   16  C   UNL     1      -7.982  13.062  68.103  1.00  0.00    -0.154 A  
HETATM   17  C   UNL     1      -8.288  10.524  68.016  1.00  0.00    -0.116 A  
HETATM   18  C   UNL     1      -8.472  14.142  67.335  1.00  0.00    -0.214 A  
HETATM   19  C   UNL     1      -8.878   9.477  67.309  1.00  0.00    -0.136 A  
HETATM   20  C   UNL     1      -9.643   9.735  66.164  1.00  0.00    -0.287 A  
HETATM   21  C   UNL     1      -8.035  15.433  67.611  1.00  0.00    -0.172 A  
HETATM   22  C   UNL     1      -7.156  15.637  68.683  1.00  0.00    -0.127 A  
HETATM   23  C   UNL     1      -9.842  11.043  65.713  1.00  0.00    -0.282 A  
HETATM   24  C   UNL     1      -6.685  14.561  69.443  1.00  0.00    -0.142 A  
HETATM   25  C   UNL     1      -7.090  13.259  69.150  1.00  0.00     0.005 A  
ENDBRANCH  10  13
ENDBRANCH   9  10
ENDBRANCH   8   9
ENDBRANCH   7   8
ENDBRANCH   6   7
ENDBRANCH   5   6
ENDBRANCH   4   5
ENDBRANCH   2   4
BRANCH   2  26
HETATM   26  C   UNL     1     -11.806   6.252  71.018  1.00  0.00    -0.154 C  
HETATM   27  C   UNL     1      -9.051   4.951  68.889  1.00  0.00    -0.149 A  
HETATM   28  C   UNL     1     -11.065   5.275  71.957  1.00  0.00    -0.151 A  
HETATM   29  C   UNL     1      -9.291   5.530  67.648  1.00  0.00    -0.116 A  
HETATM   30  C   UNL     1      -9.965   4.704  71.274  1.00  0.00    -0.268 A  
HETATM   31  C   UNL     1      -9.959   5.181  69.910  1.00  0.00    -0.316 A  
HETATM   32  C   UNL     1      -9.134   3.780  71.890  1.00  0.00    -0.163 A  
HETATM   33  C   UNL     1     -10.459   6.270  67.406  1.00  0.00    -0.308 A  
HETATM   34  C   UNL     1     -11.352   4.867  73.258  1.00  0.00    -0.408 A  
HETATM   35  C   UNL     1     -11.096   5.990  69.695  1.00  0.00    -0.474 A  
HETATM   36  C   UNL     1      -9.397   3.418  73.212  1.00  0.00    -0.119 A  
HETATM   37  C   UNL     1     -11.398   6.471  68.426  1.00  0.00    -0.154 A  
HETATM   38  C   UNL     1     -10.495   3.957  73.891  1.00  0.00    -0.267 A  
ENDBRANCH   2  26
TORSDOF 9
ENDMDL
MODEL      112
REMARK 921   NORMALIZED FREE ENERGY PREDICTED BY IDOCK:   -5.74 KCAL/MOL
REMARK 922        TOTAL FREE ENERGY PREDICTED BY IDOCK:  -10.53 KCAL/MOL
REMARK 923 INTER-LIGAND FREE ENERGY PREDICTED BY IDOCK:   -9.78 KCAL/MOL
REMARK 924 INTRA-LIGAND FREE ENERGY PREDICTED BY IDOCK:   -0.75 KCAL/MOL
REMARK 927      BINDING AFFINITY PREDICTED BY RF-SCORE:    0.00 PKD
ROOT
HETATM    1  C   UNL     1     -12.487   9.268  72.634  1.00  0.00     0.016 C  
HETATM    2  N   UNL     1     -12.372   8.743  71.206  1.00  0.00    -0.291 N  
HETATM    3  C   UNL     1     -13.452   7.691  70.973  1.00  0.00     0.003 C  
ENDROOT
BRANCH   2   4
HETATM    4  C   UNL     1     -12.506   9.902  70.240  1.00  0.00     0.041 C  
BRANCH   4   5
HETATM    5  C   UNL     1     -11.489  11.032  70.391  1.00  0.00    -0.316 C  
BRANCH   5   6
HETATM    6  C   UNL     1     -12.179  12.373  70.109  1.00  0.00    -0.303 C  
BRANCH   6   7
HETATM    7  C   UNL     1     -11.381  13.308  69.181  1.00  0.00    -0.336 C  
BRANCH   7   8
HETATM    8  C   UNL     1     -11.802  13.233  67.706  1.00  0.00    -0.394 C  
BRANCH   8   9
HETATM    9  C   UNL     1     -11.712  14.635  67.102  1.00  0.00    -0.373 C  
BRANCH   9  10
HETATM   10  N   UNL     1     -10.938  14.738  65.798  1.00  0.00    -0.324 N  
HETATM   11  C   UNL     1     -10.510  13.361  65.299  1.00  0.00    -0.324 C  
HETATM   12  C   UNL     1     -11.771  15.361  64.688  1.00  0.00    -0.267 C  
BRANCH  10  13
HETATM   13  C   UNL     1      -9.648  15.647  66.091  1.00  0.00    -0.330 C  
HETATM   14  C   UNL     1      -8.732  15.101  67.204  1.00  0.00    -0.238 A  
HETATM   15  C   UNL     1      -8.656  16.028  68.268  1.00  0.00    -0.179 A  
HETATM   16  C   UNL     1      -9.384  17.223  67.916  1.00  0.00    -0.258 A  
HETATM   17  C   UNL     1      -7.936  15.747  69.421  1.00  0.00    -0.211 A  
HETATM   18  C   UNL     1      -9.964  17.059  66.637  1.00  0.00    -0.307 A  
HETATM   19  C   UNL     1      -7.277  14.523  69.513  1.00  0.00    -0.095 A  
HETATM   20  C   UNL     1      -7.317  13.614  68.448  1.00  0.00    -0.118 A  
HETATM   21  C   UNL     1     -10.650  18.120  66.055  1.00  0.00    -0.278 A  
HETATM   22  C   UNL     1     -10.795  19.313  66.777  1.00  0.00    -0.451 A  
HETATM   23  C   UNL     1      -8.026  13.907  67.279  1.00  0.00    -0.147 A  
HETATM   24  C   UNL     1     -10.225  19.459  68.046  1.00  0.00    -0.531 A  
HETATM   25  C   UNL     1      -9.505  18.413  68.622  1.00  0.00    -0.356 A  
ENDBRANCH  10  13
ENDBRANCH   9  10
ENDBRANCH   8   9
ENDBRANCH   7   8
ENDBRANCH   6   7
ENDBRANCH   5   6
ENDBRANCH   4   5
ENDBRANCH   2   4
BRANCH   2  26
HETATM   26  C   UNL     1     -10.920   8.084  70.966  1.00  0.00    -0.241 C  
HETATM   27  C   UNL     1     -10.520   4.473  71.749  1.00  0.00    -0.114 A  
HETATM   28  C   UNL     1     -10.729   7.441  69.575  1.00  0.00    -0.233 A  
HETATM   29  C   UNL     1     -10.529   4.433  73.139  1.00  0.00    -0.251 A  
HETATM   30  C   UNL     1     -10.576   6.041  69.719  1.00  0.00    -0.356 A  
HETATM   31  C   UNL     1     -10.579   5.709  71.124  1.00  0.00    -0.312 A  
HETATM   32  C   UNL     1     -10.378   5.220  68.618  1.00  0.00    -0.193 A  
HETATM   33  C   UNL     1     -10.522   5.613  73.899  1.00  0.00    -0.302 A  
HETATM   34  C   UNL     1     -10.632   8.016  68.310  1.00  0.00    -0.155 A  
HETATM   35  C   UNL     1     -10.653   6.897  71.883  1.00  0.00    -0.236 A  
HETATM   36  C   UNL     1     -10.336   5.799  67.349  1.00  0.00    -0.279 A  
HETATM   37  C   UNL     1     -10.542   6.865  73.270  1.00  0.00    -0.353 A  
HETATM   38  C   UNL     1     -10.463   7.184  67.195  1.00  0.00    -0.389 A  
ENDBRANCH   2  26
TORSDOF 9
ENDMDL
MODEL      113
REMARK 921   NORMALIZED FREE ENERGY PREDICTED BY IDOCK:   -5.74 KCAL/MOL
REMARK 922        TOTAL FREE ENERGY PREDICTED BY IDOCK:  -10.52 KCAL/MOL
REMARK 923 INTER-LIGAND FREE ENERGY PREDICTED BY IDOCK:   -7.96 KCAL/MOL
REMARK 924 INTRA-LIGAND FREE ENERGY PREDICTED BY IDOCK:   -2.56 KCAL/MOL
REMARK 927      BINDING AFFINITY PREDICTED BY RF-SCORE:    0.00 PKD
ROOT
HETATM    1  C   UNL     1      -6.133   5.152  69.495  1.00  0.00    -0.021 C  
HETATM    2  N   UNL     1      -7.197   5.249  70.583  1.00  0.00    -0.066 N  
HETATM    3  C   UNL     1      -6.641   4.662  71.878  1.00  0.00    -0.027 C  
ENDROOT
BRANCH   2   4
HETATM    4  C   UNL     1      -7.596   6.700  70.757  1.00  0.00    -0.092 C  
BRANCH   4   5
HETATM    5  C   UNL     1      -7.428   7.601  69.535  1.00  0.00    -0.092 C  
BRANCH   5   6
HETATM    6  C   UNL     1      -8.316   8.842  69.696  1.00  0.00    -0.123 C  
BRANCH   6   7
HETATM    7  C   UNL     1      -8.868   9.039  71.120  1.00  0.00    -0.282 C  
BRANCH   7   8
HETATM    8  C   UNL     1     -10.319   9.543  71.165  1.00  0.00    -0.330 C  
BRANCH   8   9
HETATM    9  C   UNL     1     -10.462  10.701  70.177  1.00  0.00     0.090 C  
BRANCH   9  10
HETATM   10  N   UNL     1     -11.889  11.128  69.872  1.00  0.00    -0.330 N  
HETATM   11  C   UNL     1     -12.884  10.029  70.232  1.00  0.00     0.066 C  
HETATM   12  C   UNL     1     -12.298  12.359  70.667  1.00  0.00    -0.279 C  
BRANCH  10  13
HETATM   13  C   UNL     1     -11.956  11.444  68.300  1.00  0.00    -0.164 C  
HETATM   14  C   UNL     1     -11.026  10.565  67.441  1.00  0.00    -0.352 A  
HETATM   15  C   UNL     1     -10.083  11.372  66.765  1.00  0.00    -0.250 A  
HETATM   16  C   UNL     1     -10.367  12.762  67.029  1.00  0.00    -0.240 A  
HETATM   17  C   UNL     1      -9.094  10.815  65.968  1.00  0.00    -0.204 A  
HETATM   18  C   UNL     1     -11.473  12.858  67.905  1.00  0.00    -0.362 A  
HETATM   19  C   UNL     1      -9.047   9.428  65.837  1.00  0.00    -0.242 A  
HETATM   20  C   UNL     1     -10.000   8.622  66.474  1.00  0.00    -0.353 A  
HETATM   21  C   UNL     1     -11.978  14.112  68.236  1.00  0.00    -0.367 A  
HETATM   22  C   UNL     1     -11.341  15.254  67.732  1.00  0.00    -0.331 A  
HETATM   23  C   UNL     1     -11.009   9.187  67.260  1.00  0.00     0.040 A  
HETATM   24  C   UNL     1     -10.241  15.147  66.875  1.00  0.00    -0.259 A  
HETATM   25  C   UNL     1      -9.750  13.894  66.509  1.00  0.00    -0.303 A  
ENDBRANCH  10  13
ENDBRANCH   9  10
ENDBRANCH   8   9
ENDBRANCH   7   8
ENDBRANCH   6   7
ENDBRANCH   5   6
ENDBRANCH   4   5
ENDBRANCH   2   4
BRANCH   2  26
HETATM   26  C   UNL     1      -8.521   4.437  70.150  1.00  0.00    -0.069 C  
HETATM   27  C   UNL     1     -11.688   6.356  69.833  1.00  0.00    -0.309 A  
HETATM   28  C   UNL     1      -8.794   4.418  68.631  1.00  0.00    -0.135 A  
HETATM   29  C   UNL     1     -12.043   6.628  71.150  1.00  0.00    -0.391 A  
HETATM   30  C   UNL     1      -9.982   5.135  68.355  1.00  0.00    -0.214 A  
HETATM   31  C   UNL     1     -10.566   5.576  69.600  1.00  0.00    -0.375 A  
HETATM   32  C   UNL     1     -10.463   5.264  67.060  1.00  0.00    -0.290 A  
HETATM   33  C   UNL     1     -11.333   6.068  72.223  1.00  0.00    -0.353 A  
HETATM   34  C   UNL     1      -8.116   3.786  67.590  1.00  0.00    -0.089 A  
HETATM   35  C   UNL     1      -9.801   5.075  70.675  1.00  0.00    -0.282 A  
HETATM   36  C   UNL     1      -9.748   4.673  66.017  1.00  0.00    -0.208 A  
HETATM   37  C   UNL     1     -10.222   5.246  71.990  1.00  0.00    -0.259 A  
HETATM   38  C   UNL     1      -8.584   3.942  66.279  1.00  0.00    -0.112 A  
ENDBRANCH   2  26
TORSDOF 9
ENDMDL
MODEL      114
REMARK 921   NORMALIZED FREE ENERGY PREDICTED BY IDOCK:   -5.72 KCAL/MOL
REMARK 922        TOTAL FREE ENERGY PREDICTED BY IDOCK:  -10.50 KCAL/MOL
REMARK 923 INTER-LIGAND FREE ENERGY PREDICTED BY IDOCK:   -9.60 KCAL/MOL
REMARK 924 INTRA-LIGAND FREE ENERGY PREDICTED BY IDOCK:   -0.91 KCAL/MOL
REMARK 927      BINDING AFFINITY PREDICTED BY RF-SCORE:    0.00 PKD
ROOT
HETATM    1  C   UNL     1     -10.102   7.141  68.840  1.00  0.00    -0.177 C  
HETATM    2  N   UNL     1      -9.175   7.998  69.695  1.00  0.00    -0.152 N  
HETATM    3  C   UNL     1      -7.774   7.394  69.672  1.00  0.00    -0.107 C  
ENDROOT
BRANCH   2   4
HETATM    4  C   UNL     1      -9.179   9.415  69.161  1.00  0.00    -0.155 C  
BRANCH   4   5
HETATM    5  C   UNL     1      -8.119   9.746  68.110  1.00  0.00    -0.108 C  
BRANCH   5   6
HETATM    6  C   UNL     1      -7.536  11.136  68.402  1.00  0.00    -0.110 C  
BRANCH   6   7
HETATM    7  C   UNL     1      -8.580  12.268  68.400  1.00  0.00    -0.136 C  
BRANCH   7   8
HETATM    8  C   UNL     1      -9.525  12.245  67.189  1.00  0.00    -0.196 C  
BRANCH   8   9
HETATM    9  C   UNL     1      -9.678  13.673  66.664  1.00  0.00    -0.284 C  
BRANCH   9  10
HETATM   10  N   UNL     1     -11.062  14.036  66.150  1.00  0.00    -0.299 N  
HETATM   11  C   UNL     1     -11.003  14.543  64.713  1.00  0.00    -0.391 C  
HETATM   12  C   UNL     1     -12.002  12.840  66.150  1.00  0.00    -0.414 C  
BRANCH  10  13
HETATM   13  C   UNL     1     -11.634  15.182  67.119  1.00  0.00    -0.199 C  
HETATM   14  C   UNL     1     -10.739  16.433  67.212  1.00  0.00    -0.257 A  
HETATM   15  C   UNL     1     -10.303  16.620  68.543  1.00  0.00    -0.303 A  
HETATM   16  C   UNL     1     -10.920  15.631  69.393  1.00  0.00    -0.283 A  
HETATM   17  C   UNL     1      -9.436  17.650  68.881  1.00  0.00    -0.183 A  
HETATM   18  C   UNL     1     -11.731  14.778  68.609  1.00  0.00    -0.356 A  
HETATM   19  C   UNL     1      -9.001  18.512  67.875  1.00  0.00    -0.300 A  
HETATM   20  C   UNL     1      -9.458  18.356  66.560  1.00  0.00    -0.317 A  
HETATM   21  C   UNL     1     -12.491  13.793  69.231  1.00  0.00    -0.003 A  
HETATM   22  C   UNL     1     -12.392  13.637  70.621  1.00  0.00    -0.440 A  
HETATM   23  C   UNL     1     -10.347  17.330  66.225  1.00  0.00    -0.323 A  
HETATM   24  C   UNL     1     -11.579  14.480  71.384  1.00  0.00    -0.117 A  
HETATM   25  C   UNL     1     -10.841  15.493  70.773  1.00  0.00    -0.298 A  
ENDBRANCH  10  13
ENDBRANCH   9  10
ENDBRANCH   8   9
ENDBRANCH   7   8
ENDBRANCH   6   7
ENDBRANCH   5   6
ENDBRANCH   4   5
ENDBRANCH   2   4
BRANCH   2  26
HETATM   26  C   UNL     1      -9.709   8.058  71.216  1.00  0.00    -0.163 C  
HETATM   27  C   UNL     1     -13.377   7.803  71.760  1.00  0.00    -0.362 A  
HETATM   28  C   UNL     1      -9.870   6.681  71.894  1.00  0.00    -0.174 A  
HETATM   29  C   UNL     1     -13.861   9.034  71.330  1.00  0.00    -0.302 A  
HETATM   30  C   UNL     1     -11.240   6.438  72.153  1.00  0.00    -0.319 A  
HETATM   31  C   UNL     1     -12.007   7.596  71.756  1.00  0.00    -0.333 A  
HETATM   32  C   UNL     1     -11.662   5.269  72.770  1.00  0.00    -0.214 A  
HETATM   33  C   UNL     1     -12.988  10.072  70.970  1.00  0.00    -0.445 A  
HETATM   34  C   UNL     1      -8.917   5.752  72.309  1.00  0.00    -0.139 A  
HETATM   35  C   UNL     1     -11.126   8.610  71.321  1.00  0.00    -0.336 A  
HETATM   36  C   UNL     1     -10.705   4.320  73.134  1.00  0.00    -0.285 A  
HETATM   37  C   UNL     1     -11.600   9.879  71.004  1.00  0.00    -0.470 A  
HETATM   38  C   UNL     1      -9.346   4.558  72.905  1.00  0.00    -0.145 A  
ENDBRANCH   2  26
TORSDOF 9
ENDMDL
MODEL      115
REMARK 921   NORMALIZED FREE ENERGY PREDICTED BY IDOCK:   -5.72 KCAL/MOL
REMARK 922        TOTAL FREE ENERGY PREDICTED BY IDOCK:  -10.50 KCAL/MOL
REMARK 923 INTER-LIGAND FREE ENERGY PREDICTED BY IDOCK:   -9.25 KCAL/MOL
REMARK 924 INTRA-LIGAND FREE ENERGY PREDICTED BY IDOCK:   -1.25 KCAL/MOL
REMARK 927      BINDING AFFINITY PREDICTED BY RF-SCORE:    0.00 PKD
ROOT
HETATM    1  C   UNL     1     -10.692  10.138  66.878  1.00  0.00    -0.161 C  
HETATM    2  N   UNL     1     -10.024  11.244  67.688  1.00  0.00    -0.177 N  
HETATM    3  C   UNL     1     -11.042  11.836  68.659  1.00  0.00    -0.238 C  
ENDROOT
BRANCH   2   4
HETATM    4  C   UNL     1      -8.829  10.668  68.420  1.00  0.00    -0.145 C  
BRANCH   4   5
HETATM    5  C   UNL     1      -8.642   9.154  68.327  1.00  0.00    -0.129 C  
BRANCH   5   6
HETATM    6  C   UNL     1      -7.395   8.750  69.125  1.00  0.00    -0.072 C  
BRANCH   6   7
HETATM    7  C   UNL     1      -7.667   8.466  70.614  1.00  0.00    -0.083 C  
BRANCH   7   8
HETATM    8  C   UNL     1      -6.912   7.247  71.166  1.00  0.00    -0.060 C  
BRANCH   8   9
HETATM    9  C   UNL     1      -7.300   6.020  70.341  1.00  0.00    -0.088 C  
BRANCH   9  10
HETATM   10  N   UNL     1      -7.907   4.868  71.127  1.00  0.00    -0.086 N  
HETATM   11  C   UNL     1      -7.318   3.531  70.691  1.00  0.00    -0.040 C  
HETATM   12  C   UNL     1      -7.639   4.993  72.619  1.00  0.00    -0.096 C  
BRANCH  10  13
HETATM   13  C   UNL     1      -9.488   4.895  70.849  1.00  0.00    -0.165 C  
HETATM   14  C   UNL     1      -9.864   4.964  69.356  1.00  0.00    -0.281 A  
HETATM   15  C   UNL     1     -10.591   6.147  69.093  1.00  0.00    -0.345 A  
HETATM   16  C   UNL     1     -10.823   6.852  70.331  1.00  0.00    -0.297 A  
HETATM   17  C   UNL     1     -10.999   6.474  67.808  1.00  0.00    -0.407 A  
HETATM   18  C   UNL     1     -10.218   6.145  71.395  1.00  0.00    -0.248 A  
HETATM   19  C   UNL     1     -10.682   5.602  66.767  1.00  0.00    -0.358 A  
HETATM   20  C   UNL     1      -9.994   4.409  67.025  1.00  0.00    -0.197 A  
HETATM   21  C   UNL     1     -10.381   6.598  72.700  1.00  0.00    -0.219 A  
HETATM   22  C   UNL     1     -11.102   7.780  72.922  1.00  0.00    -0.457 A  
HETATM   23  C   UNL     1      -9.601   4.073  68.323  1.00  0.00    -0.188 A  
HETATM   24  C   UNL     1     -11.689   8.475  71.860  1.00  0.00    -0.409 A  
HETATM   25  C   UNL     1     -11.560   8.009  70.552  1.00  0.00    -0.141 A  
ENDBRANCH  10  13
ENDBRANCH   9  10
ENDBRANCH   8   9
ENDBRANCH   7   8
ENDBRANCH   6   7
ENDBRANCH   5   6
ENDBRANCH   4   5
ENDBRANCH   2   4
BRANCH   2  26
HETATM   26  C   UNL     1      -9.475  12.404  66.712  1.00  0.00    -0.228 C  
HETATM   27  C   UNL     1     -11.929  14.059  64.463  1.00  0.00    -0.470 A  
HETATM   28  C   UNL     1      -9.577  13.831  67.290  1.00  0.00    -0.237 A  
HETATM   29  C   UNL     1     -12.195  13.095  63.497  1.00  0.00    -0.552 A  
HETATM   30  C   UNL     1     -10.501  14.586  66.530  1.00  0.00    -0.285 A  
HETATM   31  C   UNL     1     -10.977  13.778  65.431  1.00  0.00    -0.309 A  
HETATM   32  C   UNL     1     -10.773  15.912  66.833  1.00  0.00    -0.289 A  
HETATM   33  C   UNL     1     -11.470  11.894  63.452  1.00  0.00    -0.470 A  
HETATM   34  C   UNL     1      -8.887  14.443  68.335  1.00  0.00    -0.182 A  
HETATM   35  C   UNL     1     -10.301  12.539  65.437  1.00  0.00    -0.305 A  
HETATM   36  C   UNL     1     -10.118  16.501  67.915  1.00  0.00    -0.256 A  
HETATM   37  C   UNL     1     -10.480  11.623  64.405  1.00  0.00    -0.374 A  
HETATM   38  C   UNL     1      -9.184  15.773  68.661  1.00  0.00    -0.207 A  
ENDBRANCH   2  26
TORSDOF 9
ENDMDL
MODEL      116
REMARK 921   NORMALIZED FREE ENERGY PREDICTED BY IDOCK:   -5.72 KCAL/MOL
REMARK 922        TOTAL FREE ENERGY PREDICTED BY IDOCK:  -10.49 KCAL/MOL
REMARK 923 INTER-LIGAND FREE ENERGY PREDICTED BY IDOCK:   -9.30 KCAL/MOL
REMARK 924 INTRA-LIGAND FREE ENERGY PREDICTED BY IDOCK:   -1.19 KCAL/MOL
REMARK 927      BINDING AFFINITY PREDICTED BY RF-SCORE:    0.00 PKD
ROOT
HETATM    1  C   UNL     1     -11.882  15.941  64.410  1.00  0.00    -0.101 C  
HETATM    2  N   UNL     1     -11.473  14.821  65.360  1.00  0.00    -0.347 N  
HETATM    3  C   UNL     1     -12.701  13.980  65.699  1.00  0.00    -0.481 C  
ENDROOT
BRANCH   2   4
HETATM    4  C   UNL     1     -10.392  13.986  64.706  1.00  0.00    -0.380 C  
BRANCH   4   5
HETATM    5  C   UNL     1     -10.855  12.720  63.985  1.00  0.00    -0.458 C  
BRANCH   5   6
HETATM    6  C   UNL     1      -9.949  11.549  64.389  1.00  0.00    -0.311 C  
BRANCH   6   7
HETATM    7  C   UNL     1     -10.479  10.725  65.576  1.00  0.00    -0.264 C  
BRANCH   7   8
HETATM    8  C   UNL     1      -9.500   9.654  66.081  1.00  0.00    -0.274 C  
BRANCH   8   9
HETATM    9  C   UNL     1     -10.302   8.429  66.519  1.00  0.00    -0.129 C  
BRANCH   9  10
HETATM   10  N   UNL     1      -9.658   7.577  67.601  1.00  0.00    -0.140 N  
HETATM   11  C   UNL     1     -10.634   6.536  68.140  1.00  0.00    -0.251 C  
HETATM   12  C   UNL     1      -8.452   6.810  67.079  1.00  0.00    -0.114 C  
BRANCH  10  13
HETATM   13  C   UNL     1      -9.207   8.575  68.774  1.00  0.00    -0.142 C  
HETATM   14  C   UNL     1      -8.479   7.885  69.944  1.00  0.00    -0.127 A  
HETATM   15  C   UNL     1      -9.207   8.062  71.142  1.00  0.00    -0.174 A  
HETATM   16  C   UNL     1     -10.344   8.915  70.889  1.00  0.00    -0.303 A  
HETATM   17  C   UNL     1      -8.791   7.486  72.333  1.00  0.00    -0.162 A  
HETATM   18  C   UNL     1     -10.374   9.264  69.519  1.00  0.00    -0.223 A  
HETATM   19  C   UNL     1      -7.623   6.724  72.332  1.00  0.00    -0.093 A  
HETATM   20  C   UNL     1      -6.875   6.574  71.157  1.00  0.00    -0.066 A  
HETATM   21  C   UNL     1     -11.342  10.151  69.059  1.00  0.00    -0.188 A  
HETATM   22  C   UNL     1     -12.300  10.637  69.960  1.00  0.00    -0.341 A  
HETATM   23  C   UNL     1      -7.286   7.172  69.962  1.00  0.00    -0.080 A  
HETATM   24  C   UNL     1     -12.266  10.276  71.311  1.00  0.00    -0.496 A  
HETATM   25  C   UNL     1     -11.277   9.416  71.788  1.00  0.00    -0.359 A  
ENDBRANCH  10  13
ENDBRANCH   9  10
ENDBRANCH   8   9
ENDBRANCH   7   8
ENDBRANCH   6   7
ENDBRANCH   5   6
ENDBRANCH   4   5
ENDBRANCH   2   4
BRANCH   2  26
HETATM   26  C   UNL     1     -10.850  15.433  66.716  1.00  0.00    -0.306 C  
HETATM   27  C   UNL     1      -7.314  14.605  67.509  1.00  0.00    -0.220 A  
HETATM   28  C   UNL     1     -10.123  16.783  66.536  1.00  0.00    -0.322 A  
HETATM   29  C   UNL     1      -7.367  13.271  67.899  1.00  0.00    -0.134 A  
HETATM   30  C   UNL     1      -8.742  16.615  66.796  1.00  0.00    -0.256 A  
HETATM   31  C   UNL     1      -8.503  15.252  67.210  1.00  0.00    -0.216 A  
HETATM   32  C   UNL     1      -7.858  17.681  66.715  1.00  0.00    -0.265 A  
HETATM   33  C   UNL     1      -8.594  12.610  68.060  1.00  0.00    -0.189 A  
HETATM   34  C   UNL     1     -10.616  18.052  66.238  1.00  0.00    -0.262 A  
HETATM   35  C   UNL     1      -9.736  14.569  67.294  1.00  0.00    -0.232 A  
HETATM   36  C   UNL     1      -8.352  18.937  66.363  1.00  0.00    -0.306 A  
HETATM   37  C   UNL     1      -9.800  13.273  67.797  1.00  0.00    -0.224 A  
HETATM   38  C   UNL     1      -9.719  19.122  66.126  1.00  0.00    -0.360 A  
ENDBRANCH   2  26
TORSDOF 9
ENDMDL
MODEL      117
REMARK 921   NORMALIZED FREE ENERGY PREDICTED BY IDOCK:   -5.72 KCAL/MOL
REMARK 922        TOTAL FREE ENERGY PREDICTED BY IDOCK:  -10.49 KCAL/MOL
REMARK 923 INTER-LIGAND FREE ENERGY PREDICTED BY IDOCK:   -8.13 KCAL/MOL
REMARK 924 INTRA-LIGAND FREE ENERGY PREDICTED BY IDOCK:   -2.36 KCAL/MOL
REMARK 927      BINDING AFFINITY PREDICTED BY RF-SCORE:    0.00 PKD
ROOT
HETATM    1  C   UNL     1     -11.236  11.183  65.217  1.00  0.00     0.089 C  
HETATM    2  N   UNL     1     -11.349  12.527  65.929  1.00  0.00    -0.323 N  
HETATM    3  C   UNL     1     -12.318  13.420  65.159  1.00  0.00    -0.456 C  
ENDROOT
BRANCH   2   4
HETATM    4  C   UNL     1     -11.818  12.296  67.351  1.00  0.00    -0.257 C  
BRANCH   4   5
HETATM    5  C   UNL     1     -11.509  10.925  67.952  1.00  0.00    -0.344 C  
BRANCH   5   6
HETATM    6  C   UNL     1     -11.471  11.043  69.482  1.00  0.00    -0.370 C  
BRANCH   6   7
HETATM    7  C   UNL     1     -10.473  10.086  70.161  1.00  0.00    -0.338 C  
BRANCH   7   8
HETATM    8  C   UNL     1     -10.967   9.515  71.499  1.00  0.00    -0.369 C  
BRANCH   8   9
HETATM    9  C   UNL     1     -11.520   8.111  71.255  1.00  0.00    -0.266 C  
BRANCH   9  10
HETATM   10  N   UNL     1     -10.831   6.994  72.022  1.00  0.00    -0.219 N  
HETATM   11  C   UNL     1     -10.094   7.534  73.243  1.00  0.00    -0.331 C  
HETATM   12  C   UNL     1     -11.822   5.960  72.537  1.00  0.00    -0.185 C  
BRANCH  10  13
HETATM   13  C   UNL     1      -9.794   6.302  71.009  1.00  0.00    -0.181 C  
HETATM   14  C   UNL     1      -8.345   6.808  71.148  1.00  0.00    -0.124 A  
HETATM   15  C   UNL     1      -7.921   7.402  69.938  1.00  0.00    -0.121 A  
HETATM   16  C   UNL     1      -8.954   7.251  68.942  1.00  0.00    -0.133 A  
HETATM   17  C   UNL     1      -6.669   7.989  69.821  1.00  0.00    -0.040 A  
HETATM   18  C   UNL     1     -10.065   6.589  69.514  1.00  0.00    -0.203 A  
HETATM   19  C   UNL     1      -5.822   7.977  70.928  1.00  0.00    -0.033 A  
HETATM   20  C   UNL     1      -6.220   7.357  72.120  1.00  0.00    -0.040 A  
HETATM   21  C   UNL     1     -11.154   6.261  68.713  1.00  0.00    -0.424 A  
HETATM   22  C   UNL     1     -11.144   6.644  67.365  1.00  0.00    -0.398 A  
HETATM   23  C   UNL     1      -7.475   6.750  72.230  1.00  0.00    -0.092 A  
HETATM   24  C   UNL     1     -10.043   7.307  66.813  1.00  0.00    -0.291 A  
HETATM   25  C   UNL     1      -8.932   7.608  67.600  1.00  0.00    -0.127 A  
ENDBRANCH  10  13
ENDBRANCH   9  10
ENDBRANCH   8   9
ENDBRANCH   7   8
ENDBRANCH   6   7
ENDBRANCH   5   6
ENDBRANCH   4   5
ENDBRANCH   2   4
BRANCH   2  26
HETATM   26  C   UNL     1      -9.907  13.244  66.010  1.00  0.00    -0.263 C  
HETATM   27  C   UNL     1      -9.173  15.288  69.027  1.00  0.00    -0.223 A  
HETATM   28  C   UNL     1      -8.822  12.422  66.738  1.00  0.00    -0.189 A  
HETATM   29  C   UNL     1      -9.952  16.427  68.852  1.00  0.00    -0.257 A  
HETATM   30  C   UNL     1      -8.448  13.083  67.932  1.00  0.00    -0.185 A  
HETATM   31  C   UNL     1      -9.162  14.336  68.020  1.00  0.00    -0.192 A  
HETATM   32  C   UNL     1      -7.478  12.559  68.774  1.00  0.00    -0.049 A  
HETATM   33  C   UNL     1     -10.654  16.649  67.658  1.00  0.00    -0.321 A  
HETATM   34  C   UNL     1      -8.171  11.246  66.371  1.00  0.00    -0.150 A  
HETATM   35  C   UNL     1      -9.929  14.517  66.849  1.00  0.00    -0.259 A  
HETATM   36  C   UNL     1      -6.869  11.353  68.426  1.00  0.00    -0.068 A  
HETATM   37  C   UNL     1     -10.614  15.707  66.622  1.00  0.00    -0.307 A  
HETATM   38  C   UNL     1      -7.212  10.701  67.236  1.00  0.00    -0.091 A  
ENDBRANCH   2  26
TORSDOF 9
ENDMDL
MODEL      118
REMARK 921   NORMALIZED FREE ENERGY PREDICTED BY IDOCK:   -5.71 KCAL/MOL
REMARK 922        TOTAL FREE ENERGY PREDICTED BY IDOCK:  -10.47 KCAL/MOL
REMARK 923 INTER-LIGAND FREE ENERGY PREDICTED BY IDOCK:   -8.24 KCAL/MOL
REMARK 924 INTRA-LIGAND FREE ENERGY PREDICTED BY IDOCK:   -2.23 KCAL/MOL
REMARK 927      BINDING AFFINITY PREDICTED BY RF-SCORE:    0.00 PKD
ROOT
HETATM    1  C   UNL     1     -11.116  12.885  69.306  1.00  0.00    -0.133 C  
HETATM    2  N   UNL     1     -10.215  12.471  68.147  1.00  0.00    -0.225 N  
HETATM    3  C   UNL     1      -9.731  13.722  67.419  1.00  0.00    -0.235 C  
ENDROOT
BRANCH   2   4
HETATM    4  C   UNL     1      -9.055  11.660  68.688  1.00  0.00    -0.100 C  
BRANCH   4   5
HETATM    5  C   UNL     1      -7.662  12.060  68.202  1.00  0.00    -0.135 C  
BRANCH   5   6
HETATM    6  C   UNL     1      -6.670  10.937  68.533  1.00  0.00    -0.057 C  
BRANCH   6   7
HETATM    7  C   UNL     1      -7.232   9.861  69.480  1.00  0.00    -0.095 C  
BRANCH   7   8
HETATM    8  C   UNL     1      -6.278   8.681  69.722  1.00  0.00    -0.035 C  
BRANCH   8   9
HETATM    9  C   UNL     1      -6.926   7.411  69.171  1.00  0.00    -0.076 C  
BRANCH   9  10
HETATM   10  N   UNL     1      -6.983   6.234  70.132  1.00  0.00    -0.064 N  
HETATM   11  C   UNL     1      -6.201   5.041  69.593  1.00  0.00    -0.026 C  
HETATM   12  C   UNL     1      -6.376   6.575  71.485  1.00  0.00    -0.042 C  
BRANCH  10  13
HETATM   13  C   UNL     1      -8.532   5.849  70.308  1.00  0.00    -0.127 C  
HETATM   14  C   UNL     1      -9.248   5.502  68.988  1.00  0.00    -0.143 A  
HETATM   15  C   UNL     1     -10.309   6.407  68.759  1.00  0.00    -0.232 A  
HETATM   16  C   UNL     1     -10.430   7.298  69.888  1.00  0.00    -0.236 A  
HETATM   17  C   UNL     1     -11.077   6.344  67.605  1.00  0.00    -0.388 A  
HETATM   18  C   UNL     1      -9.426   6.995  70.836  1.00  0.00    -0.160 A  
HETATM   19  C   UNL     1     -10.786   5.356  66.665  1.00  0.00    -0.309 A  
HETATM   20  C   UNL     1      -9.760   4.432  66.902  1.00  0.00    -0.233 A  
HETATM   21  C   UNL     1      -9.399   7.678  72.048  1.00  0.00    -0.182 A  
HETATM   22  C   UNL     1     -10.342   8.690  72.277  1.00  0.00    -0.376 A  
HETATM   23  C   UNL     1      -9.000   4.486  68.074  1.00  0.00    -0.136 A  
HETATM   24  C   UNL     1     -11.325   8.987  71.328  1.00  0.00    -0.389 A  
HETATM   25  C   UNL     1     -11.381   8.283  70.125  1.00  0.00    -0.060 A  
ENDBRANCH  10  13
ENDBRANCH   9  10
ENDBRANCH   8   9
ENDBRANCH   7   8
ENDBRANCH   6   7
ENDBRANCH   5   6
ENDBRANCH   4   5
ENDBRANCH   2   4
BRANCH   2  26
HETATM   26  C   UNL     1     -11.020  11.528  67.117  1.00  0.00    -0.286 C  
HETATM   27  C   UNL     1     -11.166  12.598  63.561  1.00  0.00    -0.489 A  
HETATM   28  C   UNL     1     -10.151  10.475  66.397  1.00  0.00    -0.285 A  
HETATM   29  C   UNL     1     -12.046  13.675  63.576  1.00  0.00    -0.341 A  
HETATM   30  C   UNL     1     -10.104  10.768  65.013  1.00  0.00    -0.377 A  
HETATM   31  C   UNL     1     -10.944  11.912  64.744  1.00  0.00    -0.366 A  
HETATM   32  C   UNL     1      -9.394   9.967  64.129  1.00  0.00    -0.335 A  
HETATM   33  C   UNL     1     -12.753  14.018  64.738  1.00  0.00    -0.236 A  
HETATM   34  C   UNL     1      -9.515   9.333  66.879  1.00  0.00    -0.211 A  
HETATM   35  C   UNL     1     -11.593  12.301  65.936  1.00  0.00    -0.450 A  
HETATM   36  C   UNL     1      -8.714   8.856  64.630  1.00  0.00    -0.138 A  
HETATM   37  C   UNL     1     -12.561  13.301  65.926  1.00  0.00    -0.349 A  
HETATM   38  C   UNL     1      -8.773   8.542  65.992  1.00  0.00    -0.188 A  
ENDBRANCH   2  26
TORSDOF 9
ENDMDL
MODEL      119
REMARK 921   NORMALIZED FREE ENERGY PREDICTED BY IDOCK:   -5.70 KCAL/MOL
REMARK 922        TOTAL FREE ENERGY PREDICTED BY IDOCK:  -10.47 KCAL/MOL
REMARK 923 INTER-LIGAND FREE ENERGY PREDICTED BY IDOCK:  -10.29 KCAL/MOL
REMARK 924 INTRA-LIGAND FREE ENERGY PREDICTED BY IDOCK:   -0.18 KCAL/MOL
REMARK 927      BINDING AFFINITY PREDICTED BY RF-SCORE:    0.00 PKD
ROOT
HETATM    1  C   UNL     1     -10.885   6.819  68.342  1.00  0.00    -0.223 C  
HETATM    2  N   UNL     1      -9.762   7.818  68.600  1.00  0.00    -0.154 N  
HETATM    3  C   UNL     1      -8.443   7.222  68.117  1.00  0.00    -0.123 C  
ENDROOT
BRANCH   2   4
HETATM    4  C   UNL     1     -10.080   9.115  67.884  1.00  0.00    -0.199 C  
BRANCH   4   5
HETATM    5  C   UNL     1     -10.406   9.006  66.395  1.00  0.00    -0.219 C  
BRANCH   5   6
HETATM    6  C   UNL     1      -9.562  10.025  65.618  1.00  0.00    -0.313 C  
BRANCH   6   7
HETATM    7  C   UNL     1     -10.352  10.819  64.561  1.00  0.00    -0.401 C  
BRANCH   7   8
HETATM    8  C   UNL     1     -11.155  11.996  65.134  1.00  0.00    -0.369 C  
BRANCH   8   9
HETATM    9  C   UNL     1     -10.196  13.156  65.403  1.00  0.00    -0.290 C  
BRANCH   9  10
HETATM   10  N   UNL     1     -10.832  14.413  65.975  1.00  0.00    -0.303 N  
HETATM   11  C   UNL     1     -10.647  15.602  65.038  1.00  0.00    -0.396 C  
HETATM   12  C   UNL     1     -12.331  14.251  66.179  1.00  0.00    -0.387 C  
BRANCH  10  13
HETATM   13  C   UNL     1     -10.116  14.699  67.383  1.00  0.00    -0.232 C  
HETATM   14  C   UNL     1      -9.859  16.192  67.667  1.00  0.00    -0.236 A  
HETATM   15  C   UNL     1      -8.473  16.429  67.804  1.00  0.00    -0.172 A  
HETATM   16  C   UNL     1      -7.763  15.174  67.729  1.00  0.00    -0.164 A  
HETATM   17  C   UNL     1      -7.974  17.708  68.008  1.00  0.00    -0.241 A  
HETATM   18  C   UNL     1      -8.685  14.125  67.508  1.00  0.00    -0.208 A  
HETATM   19  C   UNL     1      -8.875  18.769  68.083  1.00  0.00    -0.334 A  
HETATM   20  C   UNL     1     -10.253  18.538  67.985  1.00  0.00    -0.415 A  
HETATM   21  C   UNL     1      -8.233  12.810  67.481  1.00  0.00    -0.179 A  
HETATM   22  C   UNL     1      -6.861  12.561  67.622  1.00  0.00    -0.136 A  
HETATM   23  C   UNL     1     -10.754  17.247  67.799  1.00  0.00    -0.333 A  
HETATM   24  C   UNL     1      -5.957  13.608  67.831  1.00  0.00    -0.147 A  
HETATM   25  C   UNL     1      -6.406  14.927  67.895  1.00  0.00    -0.174 A  
ENDBRANCH  10  13
ENDBRANCH   9  10
ENDBRANCH   8   9
ENDBRANCH   7   8
ENDBRANCH   6   7
ENDBRANCH   5   6
ENDBRANCH   4   5
ENDBRANCH   2   4
BRANCH   2  26
HETATM   26  C   UNL     1      -9.657   8.152  70.173  1.00  0.00    -0.168 C  
HETATM   27  C   UNL     1     -12.805   8.982  71.967  1.00  0.00    -0.468 A  
HETATM   28  C   UNL     1      -9.864   6.937  71.103  1.00  0.00    -0.184 A  
HETATM   29  C   UNL     1     -13.117  10.259  71.513  1.00  0.00    -0.534 A  
HETATM   30  C   UNL     1     -11.053   7.111  71.851  1.00  0.00    -0.268 A  
HETATM   31  C   UNL     1     -11.623   8.400  71.536  1.00  0.00    -0.338 A  
HETATM   32  C   UNL     1     -11.469   6.163  72.775  1.00  0.00    -0.220 A  
HETATM   33  C   UNL     1     -12.229  10.976  70.697  1.00  0.00    -0.481 A  
HETATM   34  C   UNL     1      -9.067   5.817  71.330  1.00  0.00    -0.150 A  
HETATM   35  C   UNL     1     -10.763   9.086  70.652  1.00  0.00    -0.292 A  
HETATM   36  C   UNL     1     -10.693   5.018  72.957  1.00  0.00    -0.307 A  
HETATM   37  C   UNL     1     -11.016  10.406  70.292  1.00  0.00    -0.353 A  
HETATM   38  C   UNL     1      -9.503   4.845  72.240  1.00  0.00    -0.173 A  
ENDBRANCH   2  26
TORSDOF 9
ENDMDL
MODEL      120
REMARK 921   NORMALIZED FREE ENERGY PREDICTED BY IDOCK:   -5.70 KCAL/MOL
REMARK 922        TOTAL FREE ENERGY PREDICTED BY IDOCK:  -10.46 KCAL/MOL
REMARK 923 INTER-LIGAND FREE ENERGY PREDICTED BY IDOCK:   -9.56 KCAL/MOL
REMARK 924 INTRA-LIGAND FREE ENERGY PREDICTED BY IDOCK:   -0.90 KCAL/MOL
REMARK 927      BINDING AFFINITY PREDICTED BY RF-SCORE:    0.00 PKD
ROOT
HETATM    1  C   UNL     1     -11.085  10.314  67.071  1.00  0.00    -0.032 C  
HETATM    2  N   UNL     1     -10.555  11.630  67.631  1.00  0.00    -0.196 N  
HETATM    3  C   UNL     1     -11.722  12.444  68.181  1.00  0.00    -0.353 C  
ENDROOT
BRANCH   2   4
HETATM    4  C   UNL     1      -9.529  11.333  68.705  1.00  0.00    -0.175 C  
BRANCH   4   5
HETATM    5  C   UNL     1      -9.643   9.974  69.395  1.00  0.00    -0.237 C  
BRANCH   5   6
HETATM    6  C   UNL     1      -8.354   9.177  69.155  1.00  0.00    -0.123 C  
BRANCH   6   7
HETATM    7  C   UNL     1      -7.883   8.361  70.373  1.00  0.00    -0.090 C  
BRANCH   7   8
HETATM    8  C   UNL     1      -8.761   8.538  71.621  1.00  0.00    -0.262 C  
BRANCH   8   9
HETATM    9  C   UNL     1      -8.944   7.172  72.284  1.00  0.00    -0.131 C  
BRANCH   9  10
HETATM   10  N   UNL     1     -10.339   6.886  72.819  1.00  0.00    -0.200 N  
HETATM   11  C   UNL     1     -10.300   6.532  74.302  1.00  0.00    -0.287 C  
HETATM   12  C   UNL     1     -11.259   8.090  72.684  1.00  0.00    -0.397 C  
BRANCH  10  13
HETATM   13  C   UNL     1     -10.920   5.654  71.969  1.00  0.00    -0.243 C  
HETATM   14  C   UNL     1     -10.236   4.305  72.267  1.00  0.00    -0.244 A  
HETATM   15  C   UNL     1      -9.622   3.804  71.097  1.00  0.00    -0.246 A  
HETATM   16  C   UNL     1      -9.922   4.676  69.987  1.00  0.00    -0.302 A  
HETATM   17  C   UNL     1      -8.889   2.626  71.114  1.00  0.00    -0.134 A  
HETATM   18  C   UNL     1     -10.703   5.764  70.442  1.00  0.00    -0.372 A  
HETATM   19  C   UNL     1      -8.772   1.932  72.317  1.00  0.00    -0.082 A  
HETATM   20  C   UNL     1      -9.408   2.402  73.473  1.00  0.00    -0.098 A  
HETATM   21  C   UNL     1     -11.180   6.695  69.526  1.00  0.00    -0.383 A  
HETATM   22  C   UNL     1     -10.829   6.559  68.175  1.00  0.00    -0.370 A  
HETATM   23  C   UNL     1     -10.163   3.579  73.449  1.00  0.00    -0.222 A  
HETATM   24  C   UNL     1     -10.048   5.484  67.739  1.00  0.00    -0.214 A  
HETATM   25  C   UNL     1      -9.595   4.526  68.645  1.00  0.00    -0.222 A  
ENDBRANCH  10  13
ENDBRANCH   9  10
ENDBRANCH   8   9
ENDBRANCH   7   8
ENDBRANCH   6   7
ENDBRANCH   5   6
ENDBRANCH   4   5
ENDBRANCH   2   4
BRANCH   2  26
HETATM   26  C   UNL     1      -9.810  12.472  66.475  1.00  0.00    -0.246 C  
HETATM   27  C   UNL     1     -11.937  14.357  64.080  1.00  0.00    -0.373 A  
HETATM   28  C   UNL     1      -9.526  13.945  66.837  1.00  0.00    -0.263 A  
HETATM   29  C   UNL     1     -12.490  13.365  63.278  1.00  0.00    -0.137 A  
HETATM   30  C   UNL     1     -10.291  14.793  66.000  1.00  0.00    -0.318 A  
HETATM   31  C   UNL     1     -11.019  13.985  65.050  1.00  0.00    -0.379 A  
HETATM   32  C   UNL     1     -10.215  16.174  66.110  1.00  0.00    -0.351 A  
HETATM   33  C   UNL     1     -12.080  12.028  63.391  1.00  0.00    -0.597 A  
HETATM   34  C   UNL     1      -8.642  14.505  67.757  1.00  0.00    -0.176 A  
HETATM   35  C   UNL     1     -10.661  12.631  65.221  1.00  0.00    -0.317 A  
HETATM   36  C   UNL     1      -9.367  16.726  67.071  1.00  0.00    -0.244 A  
HETATM   37  C   UNL     1     -11.123  11.655  64.343  1.00  0.00    -0.382 A  
HETATM   38  C   UNL     1      -8.588  15.899  67.888  1.00  0.00    -0.164 A  
ENDBRANCH   2  26
TORSDOF 9
ENDMDL
MODEL      121
REMARK 921   NORMALIZED FREE ENERGY PREDICTED BY IDOCK:   -5.70 KCAL/MOL
REMARK 922        TOTAL FREE ENERGY PREDICTED BY IDOCK:  -10.46 KCAL/MOL
REMARK 923 INTER-LIGAND FREE ENERGY PREDICTED BY IDOCK:   -9.08 KCAL/MOL
REMARK 924 INTRA-LIGAND FREE ENERGY PREDICTED BY IDOCK:   -1.37 KCAL/MOL
REMARK 927      BINDING AFFINITY PREDICTED BY RF-SCORE:    0.00 PKD
ROOT
HETATM    1  C   UNL     1     -11.002   7.273  67.914  1.00  0.00    -0.040 C  
HETATM    2  N   UNL     1      -9.614   7.732  68.348  1.00  0.00    -0.151 N  
HETATM    3  C   UNL     1      -8.608   6.622  68.056  1.00  0.00    -0.118 C  
ENDROOT
BRANCH   2   4
HETATM    4  C   UNL     1      -9.262   9.009  67.613  1.00  0.00    -0.136 C  
BRANCH   4   5
HETATM    5  C   UNL     1      -7.984   8.979  66.776  1.00  0.00    -0.107 C  
BRANCH   5   6
HETATM    6  C   UNL     1      -7.121  10.198  67.129  1.00  0.00    -0.089 C  
BRANCH   6   7
HETATM    7  C   UNL     1      -7.436  10.814  68.504  1.00  0.00    -0.100 C  
BRANCH   7   8
HETATM    8  C   UNL     1      -6.654  12.101  68.807  1.00  0.00    -0.083 C  
BRANCH   8   9
HETATM    9  C   UNL     1      -6.752  13.027  67.594  1.00  0.00    -0.157 C  
BRANCH   9  10
HETATM   10  N   UNL     1      -6.943  14.502  67.910  1.00  0.00    -0.144 N  
HETATM   11  C   UNL     1      -7.357  14.707  69.364  1.00  0.00    -0.135 C  
HETATM   12  C   UNL     1      -5.663  15.299  67.708  1.00  0.00    -0.108 C  
BRANCH  10  13
HETATM   13  C   UNL     1      -8.089  15.046  66.925  1.00  0.00    -0.126 C  
HETATM   14  C   UNL     1      -8.663  16.419  67.324  1.00  0.00    -0.198 A  
HETATM   15  C   UNL     1     -10.045  16.307  67.596  1.00  0.00    -0.260 A  
HETATM   16  C   UNL     1     -10.480  14.960  67.316  1.00  0.00    -0.263 A  
HETATM   17  C   UNL     1     -10.786  17.396  68.033  1.00  0.00    -0.359 A  
HETATM   18  C   UNL     1      -9.375  14.187  66.894  1.00  0.00    -0.274 A  
HETATM   19  C   UNL     1     -10.139  18.620  68.195  1.00  0.00    -0.418 A  
HETATM   20  C   UNL     1      -8.777  18.748  67.892  1.00  0.00    -0.321 A  
HETATM   21  C   UNL     1      -9.573  12.870  66.491  1.00  0.00    -0.259 A  
HETATM   22  C   UNL     1     -10.863  12.326  66.563  1.00  0.00    -0.297 A  
HETATM   23  C   UNL     1      -8.037  17.655  67.433  1.00  0.00    -0.217 A  
HETATM   24  C   UNL     1     -11.947  13.098  66.991  1.00  0.00    -0.412 A  
HETATM   25  C   UNL     1     -11.764  14.430  67.363  1.00  0.00    -0.424 A  
ENDBRANCH  10  13
ENDBRANCH   9  10
ENDBRANCH   8   9
ENDBRANCH   7   8
ENDBRANCH   6   7
ENDBRANCH   5   6
ENDBRANCH   4   5
ENDBRANCH   2   4
BRANCH   2  26
HETATM   26  C   UNL     1      -9.601   8.068  69.925  1.00  0.00    -0.171 C  
HETATM   27  C   UNL     1     -12.794   9.172  71.474  1.00  0.00    -0.412 A  
HETATM   28  C   UNL     1      -9.979   6.881  70.837  1.00  0.00    -0.200 A  
HETATM   29  C   UNL     1     -12.963  10.467  70.996  1.00  0.00    -0.475 A  
HETATM   30  C   UNL     1     -11.202   7.159  71.493  1.00  0.00    -0.273 A  
HETATM   31  C   UNL     1     -11.637   8.489  71.134  1.00  0.00    -0.325 A  
HETATM   32  C   UNL     1     -11.766   6.256  72.382  1.00  0.00    -0.301 A  
HETATM   33  C   UNL     1     -11.958  11.101  70.249  1.00  0.00    -0.460 A  
HETATM   34  C   UNL     1      -9.299   5.699  71.126  1.00  0.00    -0.180 A  
HETATM   35  C   UNL     1     -10.657   9.094  70.317  1.00  0.00    -0.261 A  
HETATM   36  C   UNL     1     -11.106   5.051  72.624  1.00  0.00    -0.265 A  
HETATM   37  C   UNL     1     -10.769  10.428  69.938  1.00  0.00    -0.331 A  
HETATM   38  C   UNL     1      -9.884   4.774  72.001  1.00  0.00    -0.234 A  
ENDBRANCH   2  26
TORSDOF 9
ENDMDL
MODEL      122
REMARK 921   NORMALIZED FREE ENERGY PREDICTED BY IDOCK:   -5.70 KCAL/MOL
REMARK 922        TOTAL FREE ENERGY PREDICTED BY IDOCK:  -10.46 KCAL/MOL
REMARK 923 INTER-LIGAND FREE ENERGY PREDICTED BY IDOCK:   -9.49 KCAL/MOL
REMARK 924 INTRA-LIGAND FREE ENERGY PREDICTED BY IDOCK:   -0.97 KCAL/MOL
REMARK 927      BINDING AFFINITY PREDICTED BY RF-SCORE:    0.00 PKD
ROOT
HETATM    1  C   UNL     1     -11.538  16.012  64.418  1.00  0.00    -0.212 C  
HETATM    2  N   UNL     1     -10.755  15.210  65.453  1.00  0.00    -0.353 N  
HETATM    3  C   UNL     1     -11.646  14.960  66.667  1.00  0.00    -0.261 C  
ENDROOT
BRANCH   2   4
HETATM    4  C   UNL     1     -10.292  13.912  64.827  1.00  0.00    -0.394 C  
BRANCH   4   5
HETATM    5  C   UNL     1     -11.353  12.825  64.654  1.00  0.00    -0.362 C  
BRANCH   5   6
HETATM    6  C   UNL     1     -11.012  11.638  65.565  1.00  0.00    -0.327 C  
BRANCH   6   7
HETATM    7  C   UNL     1     -10.523  10.387  64.811  1.00  0.00    -0.087 C  
BRANCH   7   8
HETATM    8  C   UNL     1      -9.066  10.005  65.112  1.00  0.00    -0.247 C  
BRANCH   8   9
HETATM    9  C   UNL     1      -8.819  10.171  66.612  1.00  0.00    -0.132 C  
BRANCH   9  10
HETATM   10  N   UNL     1      -8.562   8.884  67.379  1.00  0.00    -0.119 N  
HETATM   11  C   UNL     1      -9.427   7.744  66.852  1.00  0.00    -0.187 C  
HETATM   12  C   UNL     1      -7.117   8.424  67.253  1.00  0.00    -0.079 C  
BRANCH  10  13
HETATM   13  C   UNL     1      -8.911   9.180  68.918  1.00  0.00    -0.139 C  
HETATM   14  C   UNL     1      -9.596   8.007  69.645  1.00  0.00    -0.168 A  
HETATM   15  C   UNL     1     -10.877   8.396  70.094  1.00  0.00    -0.238 A  
HETATM   16  C   UNL     1     -11.081   9.796  69.807  1.00  0.00    -0.272 A  
HETATM   17  C   UNL     1     -11.723   7.500  70.732  1.00  0.00    -0.281 A  
HETATM   18  C   UNL     1      -9.945  10.308  69.139  1.00  0.00    -0.235 A  
HETATM   19  C   UNL     1     -11.280   6.193  70.931  1.00  0.00    -0.365 A  
HETATM   20  C   UNL     1      -9.997   5.809  70.522  1.00  0.00    -0.252 A  
HETATM   21  C   UNL     1      -9.884  11.664  68.833  1.00  0.00    -0.057 A  
HETATM   22  C   UNL     1     -10.978  12.481  69.149  1.00  0.00    -0.198 A  
HETATM   23  C   UNL     1      -9.139   6.719  69.897  1.00  0.00    -0.144 A  
HETATM   24  C   UNL     1     -12.100  11.960  69.801  1.00  0.00    -0.321 A  
HETATM   25  C   UNL     1     -12.155  10.609  70.144  1.00  0.00    -0.414 A  
ENDBRANCH  10  13
ENDBRANCH   9  10
ENDBRANCH   8   9
ENDBRANCH   7   8
ENDBRANCH   6   7
ENDBRANCH   5   6
ENDBRANCH   4   5
ENDBRANCH   2   4
BRANCH   2  26
HETATM   26  C   UNL     1      -9.437  16.018  65.912  1.00  0.00    -0.316 C  
HETATM   27  C   UNL     1      -9.812  18.504  68.651  1.00  0.00    -0.419 A  
HETATM   28  C   UNL     1      -8.664  15.373  67.082  1.00  0.00    -0.243 A  
HETATM   29  C   UNL     1     -10.493  19.557  68.050  1.00  0.00    -0.528 A  
HETATM   30  C   UNL     1      -8.733  16.216  68.216  1.00  0.00    -0.180 A  
HETATM   31  C   UNL     1      -9.445  17.423  67.865  1.00  0.00    -0.265 A  
HETATM   32  C   UNL     1      -8.109  15.875  69.408  1.00  0.00    -0.178 A  
HETATM   33  C   UNL     1     -10.740  19.568  66.669  1.00  0.00    -0.552 A  
HETATM   34  C   UNL     1      -7.915  14.200  67.142  1.00  0.00    -0.100 A  
HETATM   35  C   UNL     1      -9.760  17.392  66.489  1.00  0.00    -0.302 A  
HETATM   36  C   UNL     1      -7.406  14.672  69.476  1.00  0.00    -0.107 A  
HETATM   37  C   UNL     1     -10.335  18.494  65.864  1.00  0.00    -0.344 A  
HETATM   38  C   UNL     1      -7.310  13.841  68.354  1.00  0.00    -0.117 A  
ENDBRANCH   2  26
TORSDOF 9
ENDMDL
MODEL      123
REMARK 921   NORMALIZED FREE ENERGY PREDICTED BY IDOCK:   -5.68 KCAL/MOL
REMARK 922        TOTAL FREE ENERGY PREDICTED BY IDOCK:  -10.43 KCAL/MOL
REMARK 923 INTER-LIGAND FREE ENERGY PREDICTED BY IDOCK:   -8.90 KCAL/MOL
REMARK 924 INTRA-LIGAND FREE ENERGY PREDICTED BY IDOCK:   -1.53 KCAL/MOL
REMARK 927      BINDING AFFINITY PREDICTED BY RF-SCORE:    0.00 PKD
ROOT
HETATM    1  C   UNL     1     -10.376   5.256  71.724  1.00  0.00    -0.214 C  
HETATM    2  N   UNL     1     -10.815   6.604  71.161  1.00  0.00    -0.234 N  
HETATM    3  C   UNL     1     -12.218   6.467  70.575  1.00  0.00    -0.039 C  
ENDROOT
BRANCH   2   4
HETATM    4  C   UNL     1     -10.772   7.639  72.266  1.00  0.00    -0.260 C  
BRANCH   4   5
HETATM    5  C   UNL     1     -11.740   8.814  72.132  1.00  0.00    -0.433 C  
BRANCH   5   6
HETATM    6  C   UNL     1     -11.091   9.906  71.270  1.00  0.00    -0.302 C  
BRANCH   6   7
HETATM    7  C   UNL     1     -12.096  10.883  70.632  1.00  0.00    -0.468 C  
BRANCH   7   8
HETATM    8  C   UNL     1     -11.813  11.195  69.154  1.00  0.00    -0.419 C  
BRANCH   8   9
HETATM    9  C   UNL     1     -10.582  12.097  69.074  1.00  0.00    -0.079 C  
BRANCH   9  10
HETATM   10  N   UNL     1      -9.668  11.854  67.884  1.00  0.00    -0.186 N  
HETATM   11  C   UNL     1      -9.246  13.168  67.234  1.00  0.00    -0.221 C  
HETATM   12  C   UNL     1      -8.388  11.138  68.285  1.00  0.00    -0.143 C  
BRANCH  10  13
HETATM   13  C   UNL     1     -10.493  10.958  66.838  1.00  0.00    -0.249 C  
HETATM   14  C   UNL     1      -9.630   9.954  66.050  1.00  0.00    -0.284 A  
HETATM   15  C   UNL     1      -9.700  10.233  64.667  1.00  0.00    -0.398 A  
HETATM   16  C   UNL     1     -10.636  11.308  64.443  1.00  0.00    -0.410 A  
HETATM   17  C   UNL     1      -8.964   9.505  63.744  1.00  0.00    -0.211 A  
HETATM   18  C   UNL     1     -11.149  11.752  65.684  1.00  0.00    -0.340 A  
HETATM   19  C   UNL     1      -8.147   8.475  64.207  1.00  0.00    -0.155 A  
HETATM   20  C   UNL     1      -8.100   8.167  65.573  1.00  0.00    -0.130 A  
HETATM   21  C   UNL     1     -12.134  12.733  65.707  1.00  0.00    -0.505 A  
HETATM   22  C   UNL     1     -12.558  13.298  64.496  1.00  0.00    -0.316 A  
HETATM   23  C   UNL     1      -8.857   8.889  66.499  1.00  0.00    -0.160 A  
HETATM   24  C   UNL     1     -12.037  12.858  63.275  1.00  0.00    -0.520 A  
HETATM   25  C   UNL     1     -11.074  11.849  63.240  1.00  0.00    -0.390 A  
ENDBRANCH  10  13
ENDBRANCH   9  10
ENDBRANCH   8   9
ENDBRANCH   7   8
ENDBRANCH   6   7
ENDBRANCH   5   6
ENDBRANCH   4   5
ENDBRANCH   2   4
BRANCH   2  26
HETATM   26  C   UNL     1      -9.797   7.090  70.009  1.00  0.00    -0.177 C  
HETATM   27  C   UNL     1      -6.542   5.317  69.733  1.00  0.00    -0.042 A  
HETATM   28  C   UNL     1      -9.924   6.325  68.675  1.00  0.00    -0.166 A  
HETATM   29  C   UNL     1      -5.825   5.768  70.836  1.00  0.00    -0.025 A  
HETATM   30  C   UNL     1      -8.743   5.582  68.441  1.00  0.00    -0.105 A  
HETATM   31  C   UNL     1      -7.798   5.853  69.499  1.00  0.00    -0.098 A  
HETATM   32  C   UNL     1      -8.591   4.808  67.299  1.00  0.00    -0.104 A  
HETATM   33  C   UNL     1      -6.322   6.793  71.655  1.00  0.00    -0.042 A  
HETATM   34  C   UNL     1     -10.938   6.322  67.719  1.00  0.00    -0.427 A  
HETATM   35  C   UNL     1      -8.338   6.829  70.365  1.00  0.00    -0.130 A  
HETATM   36  C   UNL     1      -9.634   4.768  66.373  1.00  0.00    -0.182 A  
HETATM   37  C   UNL     1      -7.575   7.365  71.398  1.00  0.00    -0.082 A  
HETATM   38  C   UNL     1     -10.798   5.517  66.581  1.00  0.00    -0.257 A  
ENDBRANCH   2  26
TORSDOF 9
ENDMDL
MODEL      124
REMARK 921   NORMALIZED FREE ENERGY PREDICTED BY IDOCK:   -5.68 KCAL/MOL
REMARK 922        TOTAL FREE ENERGY PREDICTED BY IDOCK:  -10.43 KCAL/MOL
REMARK 923 INTER-LIGAND FREE ENERGY PREDICTED BY IDOCK:   -9.38 KCAL/MOL
REMARK 924 INTRA-LIGAND FREE ENERGY PREDICTED BY IDOCK:   -1.05 KCAL/MOL
REMARK 927      BINDING AFFINITY PREDICTED BY RF-SCORE:    0.00 PKD
ROOT
HETATM    1  C   UNL     1     -12.063  15.121  64.078  1.00  0.00    -0.049 C  
HETATM    2  N   UNL     1     -11.720  13.971  65.019  1.00  0.00    -0.347 N  
HETATM    3  C   UNL     1     -12.938  13.062  65.160  1.00  0.00    -0.086 C  
ENDROOT
BRANCH   2   4
HETATM    4  C   UNL     1     -10.527  13.219  64.466  1.00  0.00    -0.415 C  
BRANCH   4   5
HETATM    5  C   UNL     1     -10.763  11.759  64.083  1.00  0.00    -0.410 C  
BRANCH   5   6
HETATM    6  C   UNL     1      -9.475  10.959  64.323  1.00  0.00    -0.289 C  
BRANCH   6   7
HETATM    7  C   UNL     1      -9.371  10.340  65.729  1.00  0.00    -0.233 C  
BRANCH   7   8
HETATM    8  C   UNL     1      -9.620   8.825  65.765  1.00  0.00    -0.190 C  
BRANCH   8   9
HETATM    9  C   UNL     1     -10.219   8.462  67.124  1.00  0.00    -0.292 C  
BRANCH   9  10
HETATM   10  N   UNL     1      -9.444   7.428  67.925  1.00  0.00    -0.140 N  
HETATM   11  C   UNL     1      -8.651   6.500  67.010  1.00  0.00    -0.113 C  
HETATM   12  C   UNL     1      -8.436   8.073  68.865  1.00  0.00    -0.131 C  
BRANCH  10  13
HETATM   13  C   UNL     1     -10.521   6.588  68.769  1.00  0.00    -0.213 C  
HETATM   14  C   UNL     1     -10.873   7.208  70.135  1.00  0.00    -0.279 A  
HETATM   15  C   UNL     1     -10.527   6.317  71.176  1.00  0.00    -0.271 A  
HETATM   16  C   UNL     1     -10.048   5.080  70.608  1.00  0.00    -0.313 A  
HETATM   17  C   UNL     1     -10.692   6.665  72.509  1.00  0.00    -0.259 A  
HETATM   18  C   UNL     1     -10.048   5.179  69.198  1.00  0.00    -0.274 A  
HETATM   19  C   UNL     1     -11.217   7.921  72.810  1.00  0.00    -0.466 A  
HETATM   20  C   UNL     1     -11.597   8.795  71.784  1.00  0.00    -0.416 A  
HETATM   21  C   UNL     1      -9.699   4.071  68.433  1.00  0.00    -0.135 A  
HETATM   22  C   UNL     1      -9.303   2.895  69.085  1.00  0.00    -0.211 A  
HETATM   23  C   UNL     1     -11.448   8.436  70.441  1.00  0.00    -0.129 A  
HETATM   24  C   UNL     1      -9.297   2.812  70.481  1.00  0.00    -0.216 A  
HETATM   25  C   UNL     1      -9.679   3.907  71.255  1.00  0.00    -0.247 A  
ENDBRANCH  10  13
ENDBRANCH   9  10
ENDBRANCH   8   9
ENDBRANCH   7   8
ENDBRANCH   6   7
ENDBRANCH   5   6
ENDBRANCH   4   5
ENDBRANCH   2   4
BRANCH   2  26
HETATM   26  C   UNL     1     -11.300  14.537  66.469  1.00  0.00    -0.352 C  
HETATM   27  C   UNL     1      -9.262  12.323  68.652  1.00  0.00    -0.005 A  
HETATM   28  C   UNL     1      -9.930  15.246  66.510  1.00  0.00    -0.278 A  
HETATM   29  C   UNL     1     -10.164  11.351  69.070  1.00  0.00    -0.137 A  
HETATM   30  C   UNL     1      -9.033  14.497  67.308  1.00  0.00    -0.220 A  
HETATM   31  C   UNL     1      -9.732  13.364  67.866  1.00  0.00    -0.226 A  
HETATM   32  C   UNL     1      -7.728  14.921  67.518  1.00  0.00    -0.214 A  
HETATM   33  C   UNL     1     -11.531  11.452  68.771  1.00  0.00    -0.354 A  
HETATM   34  C   UNL     1      -9.515  16.459  65.963  1.00  0.00    -0.345 A  
HETATM   35  C   UNL     1     -11.093  13.428  67.495  1.00  0.00    -0.294 A  
HETATM   36  C   UNL     1      -7.305  16.110  66.922  1.00  0.00    -0.255 A  
HETATM   37  C   UNL     1     -12.016  12.524  68.010  1.00  0.00    -0.281 A  
HETATM   38  C   UNL     1      -8.189  16.872  66.151  1.00  0.00    -0.295 A  
ENDBRANCH   2  26
TORSDOF 9
ENDMDL
MODEL      125
REMARK 921   NORMALIZED FREE ENERGY PREDICTED BY IDOCK:   -5.67 KCAL/MOL
REMARK 922        TOTAL FREE ENERGY PREDICTED BY IDOCK:  -10.42 KCAL/MOL
REMARK 923 INTER-LIGAND FREE ENERGY PREDICTED BY IDOCK:   -9.09 KCAL/MOL
REMARK 924 INTRA-LIGAND FREE ENERGY PREDICTED BY IDOCK:   -1.33 KCAL/MOL
REMARK 927      BINDING AFFINITY PREDICTED BY RF-SCORE:    0.00 PKD
ROOT
HETATM    1  C   UNL     1      -7.845   3.834  71.076  1.00  0.00    -0.062 C  
HETATM    2  N   UNL     1      -8.524   5.136  71.485  1.00  0.00    -0.122 N  
HETATM    3  C   UNL     1      -8.565   5.220  73.009  1.00  0.00    -0.118 C  
ENDROOT
BRANCH   2   4
HETATM    4  C   UNL     1      -7.763   6.301  70.885  1.00  0.00    -0.098 C  
BRANCH   4   5
HETATM    5  C   UNL     1      -7.453   7.465  71.826  1.00  0.00    -0.083 C  
BRANCH   5   6
HETATM    6  C   UNL     1      -7.758   8.787  71.110  1.00  0.00    -0.146 C  
BRANCH   6   7
HETATM    7  C   UNL     1      -7.582   8.730  69.581  1.00  0.00    -0.076 C  
BRANCH   7   8
HETATM    8  C   UNL     1      -7.481  10.109  68.911  1.00  0.00    -0.086 C  
BRANCH   8   9
HETATM    9  C   UNL     1      -8.890  10.686  68.771  1.00  0.00    -0.161 C  
BRANCH   9  10
HETATM   10  N   UNL     1      -9.206  11.322  67.427  1.00  0.00    -0.161 N  
HETATM   11  C   UNL     1      -7.960  11.414  66.552  1.00  0.00    -0.128 C  
HETATM   12  C   UNL     1     -10.228  10.516  66.641  1.00  0.00    -0.233 C  
BRANCH  10  13
HETATM   13  C   UNL     1      -9.781  12.790  67.729  1.00  0.00    -0.207 C  
HETATM   14  C   UNL     1     -10.731  13.331  66.642  1.00  0.00    -0.284 A  
HETATM   15  C   UNL     1     -10.198  14.511  66.075  1.00  0.00    -0.329 A  
HETATM   16  C   UNL     1      -8.987  14.871  66.772  1.00  0.00    -0.295 A  
HETATM   17  C   UNL     1     -10.838  15.164  65.031  1.00  0.00    -0.457 A  
HETATM   18  C   UNL     1      -8.712  13.907  67.768  1.00  0.00    -0.187 A  
HETATM   19  C   UNL     1     -12.033  14.634  64.547  1.00  0.00    -0.473 A  
HETATM   20  C   UNL     1     -12.587  13.486  65.128  1.00  0.00    -0.485 A  
HETATM   21  C   UNL     1      -7.630  14.093  68.623  1.00  0.00    -0.126 A  
HETATM   22  C   UNL     1      -6.805  15.211  68.439  1.00  0.00    -0.109 A  
HETATM   23  C   UNL     1     -11.951  12.841  66.193  1.00  0.00    -0.476 A  
HETATM   24  C   UNL     1      -7.081  16.153  67.443  1.00  0.00    -0.209 A  
HETATM   25  C   UNL     1      -8.184  15.993  66.605  1.00  0.00    -0.324 A  
ENDBRANCH  10  13
ENDBRANCH   9  10
ENDBRANCH   8   9
ENDBRANCH   7   8
ENDBRANCH   6   7
ENDBRANCH   5   6
ENDBRANCH   4   5
ENDBRANCH   2   4
BRANCH   2  26
HETATM   26  C   UNL     1     -10.026   5.195  70.903  1.00  0.00    -0.210 C  
HETATM   27  C   UNL     1     -11.523   8.552  70.348  1.00  0.00    -0.135 A  
HETATM   28  C   UNL     1     -10.115   5.291  69.365  1.00  0.00    -0.311 A  
HETATM   29  C   UNL     1     -11.790   9.011  71.633  1.00  0.00    -0.431 A  
HETATM   30  C   UNL     1     -10.664   6.544  69.000  1.00  0.00    -0.324 A  
HETATM   31  C   UNL     1     -11.017   7.270  70.198  1.00  0.00    -0.280 A  
HETATM   32  C   UNL     1     -10.863   6.885  67.670  1.00  0.00    -0.333 A  
HETATM   33  C   UNL     1     -11.622   8.179  72.750  1.00  0.00    -0.371 A  
HETATM   34  C   UNL     1      -9.812   4.360  68.374  1.00  0.00    -0.132 A  
HETATM   35  C   UNL     1     -10.772   6.456  71.325  1.00  0.00    -0.288 A  
HETATM   36  C   UNL     1     -10.506   5.967  66.682  1.00  0.00    -0.310 A  
HETATM   37  C   UNL     1     -11.148   6.870  72.599  1.00  0.00    -0.306 A  
HETATM   38  C   UNL     1      -9.984   4.716  67.030  1.00  0.00    -0.227 A  
ENDBRANCH   2  26
TORSDOF 9
ENDMDL
MODEL      126
REMARK 921   NORMALIZED FREE ENERGY PREDICTED BY IDOCK:   -5.67 KCAL/MOL
REMARK 922        TOTAL FREE ENERGY PREDICTED BY IDOCK:  -10.42 KCAL/MOL
REMARK 923 INTER-LIGAND FREE ENERGY PREDICTED BY IDOCK:   -5.97 KCAL/MOL
REMARK 924 INTRA-LIGAND FREE ENERGY PREDICTED BY IDOCK:   -4.45 KCAL/MOL
REMARK 927      BINDING AFFINITY PREDICTED BY RF-SCORE:    0.00 PKD
ROOT
HETATM    1  C   UNL     1     -11.524   6.347  69.482  1.00  0.00    -0.343 C  
HETATM    2  N   UNL     1     -10.255   6.029  68.699  1.00  0.00    -0.170 N  
HETATM    3  C   UNL     1      -9.584   4.803  69.313  1.00  0.00    -0.173 C  
ENDROOT
BRANCH   2   4
HETATM    4  C   UNL     1     -10.614   5.798  67.246  1.00  0.00    -0.279 C  
BRANCH   4   5
HETATM    5  C   UNL     1      -9.653   6.377  66.209  1.00  0.00    -0.106 C  
BRANCH   5   6
HETATM    6  C   UNL     1      -8.693   5.275  65.740  1.00  0.00    -0.143 C  
BRANCH   6   7
HETATM    7  C   UNL     1      -7.346   5.799  65.208  1.00  0.00    -0.075 C  
BRANCH   7   8
HETATM    8  C   UNL     1      -6.738   6.930  66.051  1.00  0.00    -0.052 C  
BRANCH   8   9
HETATM    9  C   UNL     1      -5.908   7.829  65.134  1.00  0.00    -0.038 C  
BRANCH   9  10
HETATM   10  N   UNL     1      -6.508   9.194  64.838  1.00  0.00    -0.066 N  
HETATM   11  C   UNL     1      -5.452  10.291  64.916  1.00  0.00    -0.120 C  
HETATM   12  C   UNL     1      -7.103   9.264  63.439  1.00  0.00    -0.090 C  
BRANCH  10  13
HETATM   13  C   UNL     1      -7.655   9.448  65.933  1.00  0.00    -0.099 C  
HETATM   14  C   UNL     1      -8.770  10.404  65.468  1.00  0.00    -0.190 A  
HETATM   15  C   UNL     1      -8.814  11.542  66.304  1.00  0.00    -0.186 A  
HETATM   16  C   UNL     1      -7.861  11.385  67.376  1.00  0.00    -0.135 A  
HETATM   17  C   UNL     1      -9.697  12.584  66.061  1.00  0.00    -0.247 A  
HETATM   18  C   UNL     1      -7.173  10.161  67.218  1.00  0.00    -0.089 A  
HETATM   19  C   UNL     1     -10.558  12.486  64.968  1.00  0.00    -0.329 A  
HETATM   20  C   UNL     1     -10.547  11.344  64.157  1.00  0.00    -0.430 A  
HETATM   21  C   UNL     1      -6.257   9.759  68.186  1.00  0.00    -0.055 A  
HETATM   22  C   UNL     1      -6.001  10.609  69.271  1.00  0.00    -0.042 A  
HETATM   23  C   UNL     1      -9.669  10.287  64.415  1.00  0.00    -0.381 A  
HETATM   24  C   UNL     1      -6.681  11.823  69.411  1.00  0.00    -0.098 A  
HETATM   25  C   UNL     1      -7.626  12.217  68.465  1.00  0.00    -0.124 A  
ENDBRANCH  10  13
ENDBRANCH   9  10
ENDBRANCH   8   9
ENDBRANCH   7   8
ENDBRANCH   6   7
ENDBRANCH   5   6
ENDBRANCH   4   5
ENDBRANCH   2   4
BRANCH   2  26
HETATM   26  C   UNL     1      -9.236   7.278  68.748  1.00  0.00    -0.137 C  
HETATM   27  C   UNL     1     -10.337  10.322  70.577  1.00  0.00     0.036 A  
HETATM   28  C   UNL     1      -8.309   7.303  69.981  1.00  0.00    -0.137 A  
HETATM   29  C   UNL     1     -11.298  10.880  69.741  1.00  0.00    -0.374 A  
HETATM   30  C   UNL     1      -8.627   8.420  70.790  1.00  0.00    -0.159 A  
HETATM   31  C   UNL     1      -9.664   9.190  70.143  1.00  0.00    -0.234 A  
HETATM   32  C   UNL     1      -7.933   8.683  71.962  1.00  0.00    -0.115 A  
HETATM   33  C   UNL     1     -11.534  10.361  68.458  1.00  0.00    -0.231 A  
HETATM   34  C   UNL     1      -7.246   6.476  70.340  1.00  0.00    -0.080 A  
HETATM   35  C   UNL     1      -9.953   8.617  68.886  1.00  0.00    -0.197 A  
HETATM   36  C   UNL     1      -6.905   7.819  72.342  1.00  0.00    -0.067 A  
HETATM   37  C   UNL     1     -10.827   9.241  68.002  1.00  0.00    -0.166 A  
HETATM   38  C   UNL     1      -6.565   6.725  71.539  1.00  0.00    -0.053 A  
ENDBRANCH   2  26
TORSDOF 9
ENDMDL
MODEL      127
REMARK 921   NORMALIZED FREE ENERGY PREDICTED BY IDOCK:   -5.65 KCAL/MOL
REMARK 922        TOTAL FREE ENERGY PREDICTED BY IDOCK:  -10.39 KCAL/MOL
REMARK 923 INTER-LIGAND FREE ENERGY PREDICTED BY IDOCK:  -10.35 KCAL/MOL
REMARK 924 INTRA-LIGAND FREE ENERGY PREDICTED BY IDOCK:   -0.04 KCAL/MOL
REMARK 927      BINDING AFFINITY PREDICTED BY RF-SCORE:    0.00 PKD
ROOT
HETATM    1  C   UNL     1      -9.615   7.637  67.188  1.00  0.00    -0.162 C  
HETATM    2  N   UNL     1      -9.293   7.028  68.549  1.00  0.00    -0.136 N  
HETATM    3  C   UNL     1      -7.859   6.507  68.536  1.00  0.00    -0.106 C  
ENDROOT
BRANCH   2   4
HETATM    4  C   UNL     1      -9.493   8.079  69.621  1.00  0.00    -0.163 C  
BRANCH   4   5
HETATM    5  C   UNL     1      -9.416   9.536  69.165  1.00  0.00    -0.163 C  
BRANCH   5   6
HETATM    6  C   UNL     1     -10.796  10.189  69.328  1.00  0.00    -0.269 C  
BRANCH   6   7
HETATM    7  C   UNL     1     -11.383  10.753  68.021  1.00  0.00    -0.378 C  
BRANCH   7   8
HETATM    8  C   UNL     1     -10.415  11.651  67.237  1.00  0.00    -0.247 C  
BRANCH   8   9
HETATM    9  C   UNL     1     -11.220  12.760  66.559  1.00  0.00    -0.307 C  
BRANCH   9  10
HETATM   10  N   UNL     1     -10.509  14.098  66.427  1.00  0.00    -0.279 N  
HETATM   11  C   UNL     1      -9.125  14.054  67.065  1.00  0.00    -0.246 C  
HETATM   12  C   UNL     1     -10.303  14.491  64.972  1.00  0.00    -0.413 C  
BRANCH  10  13
HETATM   13  C   UNL     1     -11.427  15.189  67.165  1.00  0.00    -0.250 C  
HETATM   14  C   UNL     1     -10.840  16.614  67.157  1.00  0.00    -0.126 A  
HETATM   15  C   UNL     1     -10.617  17.055  68.481  1.00  0.00    -0.370 A  
HETATM   16  C   UNL     1     -11.105  16.059  69.405  1.00  0.00    -0.331 A  
HETATM   17  C   UNL     1     -10.039  18.288  68.745  1.00  0.00    -0.393 A  
HETATM   18  C   UNL     1     -11.613  14.956  68.682  1.00  0.00    -0.342 A  
HETATM   19  C   UNL     1      -9.682  19.100  67.669  1.00  0.00    -0.391 A  
HETATM   20  C   UNL     1      -9.933  18.687  66.354  1.00  0.00    -0.415 A  
HETATM   21  C   UNL     1     -12.212  13.904  69.368  1.00  0.00    -0.338 A  
HETATM   22  C   UNL     1     -12.250  13.942  70.769  1.00  0.00    -0.441 A  
HETATM   23  C   UNL     1     -10.534  17.452  66.091  1.00  0.00    -0.284 A  
HETATM   24  C   UNL     1     -11.735  15.035  71.474  1.00  0.00    -0.426 A  
HETATM   25  C   UNL     1     -11.164  16.110  70.792  1.00  0.00    -0.356 A  
ENDBRANCH  10  13
ENDBRANCH   9  10
ENDBRANCH   8   9
ENDBRANCH   7   8
ENDBRANCH   6   7
ENDBRANCH   5   6
ENDBRANCH   4   5
ENDBRANCH   2   4
BRANCH   2  26
HETATM   26  C   UNL     1     -10.303   5.814  68.874  1.00  0.00    -0.227 C  
HETATM   27  C   UNL     1      -8.822   2.451  69.435  1.00  0.00    -0.148 A  
HETATM   28  C   UNL     1     -10.547   5.568  70.378  1.00  0.00    -0.350 A  
HETATM   29  C   UNL     1      -8.428   2.048  68.164  1.00  0.00    -0.089 A  
HETATM   30  C   UNL     1     -10.015   4.308  70.744  1.00  0.00    -0.224 A  
HETATM   31  C   UNL     1      -9.489   3.659  69.565  1.00  0.00    -0.246 A  
HETATM   32  C   UNL     1     -10.109   3.835  72.045  1.00  0.00    -0.209 A  
HETATM   33  C   UNL     1      -8.759   2.802  67.028  1.00  0.00    -0.132 A  
HETATM   34  C   UNL     1     -11.223   6.330  71.329  1.00  0.00    -0.355 A  
HETATM   35  C   UNL     1      -9.756   4.461  68.435  1.00  0.00    -0.172 A  
HETATM   36  C   UNL     1     -10.740   4.629  73.003  1.00  0.00    -0.302 A  
HETATM   37  C   UNL     1      -9.469   4.003  67.153  1.00  0.00    -0.224 A  
HETATM   38  C   UNL     1     -11.291   5.866  72.649  1.00  0.00    -0.337 A  
ENDBRANCH   2  26
TORSDOF 9
ENDMDL
MODEL      128
REMARK 921   NORMALIZED FREE ENERGY PREDICTED BY IDOCK:   -5.65 KCAL/MOL
REMARK 922        TOTAL FREE ENERGY PREDICTED BY IDOCK:  -10.39 KCAL/MOL
REMARK 923 INTER-LIGAND FREE ENERGY PREDICTED BY IDOCK:   -9.90 KCAL/MOL
REMARK 924 INTRA-LIGAND FREE ENERGY PREDICTED BY IDOCK:   -0.48 KCAL/MOL
REMARK 927      BINDING AFFINITY PREDICTED BY RF-SCORE:    0.00 PKD
ROOT
HETATM    1  C   UNL     1      -9.758   7.321  69.428  1.00  0.00    -0.161 C  
HETATM    2  N   UNL     1      -9.032   8.161  70.474  1.00  0.00    -0.143 N  
HETATM    3  C   UNL     1      -7.594   7.666  70.600  1.00  0.00    -0.080 C  
ENDROOT
BRANCH   2   4
HETATM    4  C   UNL     1      -9.085   9.618  70.064  1.00  0.00    -0.237 C  
BRANCH   4   5
HETATM    5  C   UNL     1      -7.955  10.109  69.160  1.00  0.00    -0.124 C  
BRANCH   5   6
HETATM    6  C   UNL     1      -8.276  11.531  68.679  1.00  0.00    -0.124 C  
BRANCH   6   7
HETATM    7  C   UNL     1      -9.714  11.709  68.157  1.00  0.00    -0.189 C  
BRANCH   7   8
HETATM    8  C   UNL     1     -10.670  12.358  69.170  1.00  0.00    -0.081 C  
BRANCH   8   9
HETATM    9  C   UNL     1     -10.300  13.835  69.310  1.00  0.00     0.128 C  
BRANCH   9  10
HETATM   10  N   UNL     1     -11.471  14.788  69.491  1.00  0.00    -0.282 N  
HETATM   11  C   UNL     1     -12.748  14.034  69.847  1.00  0.00    -0.009 C  
HETATM   12  C   UNL     1     -11.227  15.783  70.615  1.00  0.00    -0.372 C  
BRANCH  10  13
HETATM   13  C   UNL     1     -11.656  15.568  68.099  1.00  0.00    -0.304 C  
HETATM   14  C   UNL     1     -11.651  14.653  66.859  1.00  0.00    -0.374 A  
HETATM   15  C   UNL     1     -10.578  14.996  66.007  1.00  0.00    -0.329 A  
HETATM   16  C   UNL     1      -9.899  16.155  66.535  1.00  0.00    -0.283 A  
HETATM   17  C   UNL     1     -10.320  14.282  64.846  1.00  0.00    -0.429 A  
HETATM   18  C   UNL     1     -10.509  16.544  67.749  1.00  0.00    -0.308 A  
HETATM   19  C   UNL     1     -11.151  13.210  64.525  1.00  0.00    -0.380 A  
HETATM   20  C   UNL     1     -12.240  12.886  65.345  1.00  0.00    -0.528 A  
HETATM   21  C   UNL     1     -10.070  17.693  68.400  1.00  0.00    -0.368 A  
HETATM   22  C   UNL     1      -8.993  18.408  67.859  1.00  0.00    -0.296 A  
HETATM   23  C   UNL     1     -12.510  13.619  66.504  1.00  0.00    -0.337 A  
HETATM   24  C   UNL     1      -8.390  18.008  66.662  1.00  0.00    -0.284 A  
HETATM   25  C   UNL     1      -8.848  16.878  65.985  1.00  0.00    -0.194 A  
ENDBRANCH  10  13
ENDBRANCH   9  10
ENDBRANCH   8   9
ENDBRANCH   7   8
ENDBRANCH   6   7
ENDBRANCH   5   6
ENDBRANCH   4   5
ENDBRANCH   2   4
BRANCH   2  26
HETATM   26  C   UNL     1      -9.769   8.038  71.903  1.00  0.00    -0.190 C  
HETATM   27  C   UNL     1     -13.419   7.334  71.898  1.00  0.00    -0.295 A  
HETATM   28  C   UNL     1      -9.852   6.602  72.462  1.00  0.00    -0.176 A  
HETATM   29  C   UNL     1     -13.986   8.534  71.484  1.00  0.00    -0.410 A  
HETATM   30  C   UNL     1     -11.205   6.188  72.506  1.00  0.00    -0.327 A  
HETATM   31  C   UNL     1     -12.046   7.282  72.078  1.00  0.00    -0.327 A  
HETATM   32  C   UNL     1     -11.561   4.934  72.979  1.00  0.00    -0.284 A  
HETATM   33  C   UNL     1     -13.205   9.688  71.320  1.00  0.00    -0.429 A  
HETATM   34  C   UNL     1      -8.859   5.754  72.948  1.00  0.00    -0.124 A  
HETATM   35  C   UNL     1     -11.244   8.419  71.839  1.00  0.00    -0.379 A  
HETATM   36  C   UNL     1     -10.555   4.070  73.414  1.00  0.00    -0.275 A  
HETATM   37  C   UNL     1     -11.822   9.649  71.539  1.00  0.00    -0.483 A  
HETATM   38  C   UNL     1      -9.215   4.476  73.398  1.00  0.00    -0.119 A  
ENDBRANCH   2  26
TORSDOF 9
ENDMDL
MODEL      129
REMARK 921   NORMALIZED FREE ENERGY PREDICTED BY IDOCK:   -5.65 KCAL/MOL
REMARK 922        TOTAL FREE ENERGY PREDICTED BY IDOCK:  -10.39 KCAL/MOL
REMARK 923 INTER-LIGAND FREE ENERGY PREDICTED BY IDOCK:   -8.89 KCAL/MOL
REMARK 924 INTRA-LIGAND FREE ENERGY PREDICTED BY IDOCK:   -1.50 KCAL/MOL
REMARK 927      BINDING AFFINITY PREDICTED BY RF-SCORE:    0.00 PKD
ROOT
HETATM    1  C   UNL     1     -10.130   9.851  65.649  1.00  0.00    -0.237 C  
HETATM    2  N   UNL     1      -8.953  10.250  66.533  1.00  0.00    -0.143 N  
HETATM    3  C   UNL     1      -7.966  11.073  65.710  1.00  0.00    -0.013 C  
ENDROOT
BRANCH   2   4
HETATM    4  C   UNL     1      -9.471  11.031  67.723  1.00  0.00    -0.162 C  
BRANCH   4   5
HETATM    5  C   UNL     1     -10.917  10.757  68.137  1.00  0.00    -0.308 C  
BRANCH   5   6
HETATM    6  C   UNL     1     -11.036  10.876  69.663  1.00  0.00    -0.311 C  
BRANCH   6   7
HETATM    7  C   UNL     1     -12.355  11.509  70.143  1.00  0.00    -0.323 C  
BRANCH   7   8
HETATM    8  C   UNL     1     -12.199  12.931  70.703  1.00  0.00    -0.386 C  
BRANCH   8   9
HETATM    9  C   UNL     1     -12.381  13.927  69.557  1.00  0.00    -0.227 C  
BRANCH   9  10
HETATM   10  N   UNL     1     -11.466  15.141  69.594  1.00  0.00    -0.272 N  
HETATM   11  C   UNL     1     -11.820  16.066  70.754  1.00  0.00    -0.340 C  
HETATM   12  C   UNL     1     -10.008  14.750  69.782  1.00  0.00     0.130 C  
BRANCH  10  13
HETATM   13  C   UNL     1     -11.652  15.908  68.196  1.00  0.00    -0.223 C  
HETATM   14  C   UNL     1     -11.533  14.998  66.958  1.00  0.00    -0.288 A  
HETATM   15  C   UNL     1     -10.454  15.418  66.148  1.00  0.00    -0.325 A  
HETATM   16  C   UNL     1      -9.881  16.622  66.701  1.00  0.00    -0.285 A  
HETATM   17  C   UNL     1     -10.101  14.726  64.998  1.00  0.00    -0.308 A  
HETATM   18  C   UNL     1     -10.564  16.964  67.890  1.00  0.00    -0.361 A  
HETATM   19  C   UNL     1     -10.841  13.598  64.646  1.00  0.00    -0.416 A  
HETATM   20  C   UNL     1     -11.935  13.197  65.423  1.00  0.00    -0.448 A  
HETATM   21  C   UNL     1     -10.233  18.140  68.556  1.00  0.00    -0.399 A  
HETATM   22  C   UNL     1      -9.189  18.931  68.057  1.00  0.00    -0.346 A  
HETATM   23  C   UNL     1     -12.301  13.907  66.570  1.00  0.00    -0.447 A  
HETATM   24  C   UNL     1      -8.514  18.576  66.885  1.00  0.00    -0.277 A  
HETATM   25  C   UNL     1      -8.863  17.418  66.191  1.00  0.00    -0.180 A  
ENDBRANCH  10  13
ENDBRANCH   9  10
ENDBRANCH   8   9
ENDBRANCH   7   8
ENDBRANCH   6   7
ENDBRANCH   5   6
ENDBRANCH   4   5
ENDBRANCH   2   4
BRANCH   2  26
HETATM   26  C   UNL     1      -8.211   8.939  67.108  1.00  0.00    -0.103 C  
HETATM   27  C   UNL     1      -7.637   8.758  70.776  1.00  0.00    -0.097 A  
HETATM   28  C   UNL     1      -9.162   7.809  67.558  1.00  0.00    -0.147 A  
HETATM   29  C   UNL     1      -6.617   9.677  70.996  1.00  0.00    -0.035 A  
HETATM   30  C   UNL     1      -9.058   7.634  68.959  1.00  0.00    -0.144 A  
HETATM   31  C   UNL     1      -8.046   8.527  69.472  1.00  0.00    -0.111 A  
HETATM   32  C   UNL     1      -9.803   6.670  69.622  1.00  0.00    -0.168 A  
HETATM   33  C   UNL     1      -5.961  10.304  69.926  1.00  0.00    -0.056 A  
HETATM   34  C   UNL     1      -9.990   6.966  66.820  1.00  0.00    -0.248 A  
HETATM   35  C   UNL     1      -7.443   9.214  68.395  1.00  0.00    -0.082 A  
HETATM   36  C   UNL     1     -10.671   5.866  68.882  1.00  0.00    -0.370 A  
HETATM   37  C   UNL     1      -6.345  10.043  68.604  1.00  0.00    -0.048 A  
HETATM   38  C   UNL     1     -10.765   6.012  67.494  1.00  0.00    -0.383 A  
ENDBRANCH   2  26
TORSDOF 9
ENDMDL
MODEL      130
REMARK 921   NORMALIZED FREE ENERGY PREDICTED BY IDOCK:   -5.65 KCAL/MOL
REMARK 922        TOTAL FREE ENERGY PREDICTED BY IDOCK:  -10.39 KCAL/MOL
REMARK 923 INTER-LIGAND FREE ENERGY PREDICTED BY IDOCK:   -9.12 KCAL/MOL
REMARK 924 INTRA-LIGAND FREE ENERGY PREDICTED BY IDOCK:   -1.26 KCAL/MOL
REMARK 927      BINDING AFFINITY PREDICTED BY RF-SCORE:    0.00 PKD
ROOT
HETATM    1  C   UNL     1     -10.631   5.390  70.494  1.00  0.00    -0.242 C  
HETATM    2  N   UNL     1     -10.044   6.261  69.388  1.00  0.00    -0.168 N  
HETATM    3  C   UNL     1     -10.301   5.594  68.039  1.00  0.00    -0.202 C  
ENDROOT
BRANCH   2   4
HETATM    4  C   UNL     1     -10.672   7.637  69.456  1.00  0.00    -0.209 C  
BRANCH   4   5
HETATM    5  C   UNL     1     -11.368   8.002  70.767  1.00  0.00    -0.282 C  
BRANCH   5   6
HETATM    6  C   UNL     1     -10.843   9.358  71.257  1.00  0.00    -0.431 C  
BRANCH   6   7
HETATM    7  C   UNL     1     -11.484  10.570  70.556  1.00  0.00    -0.433 C  
BRANCH   7   8
HETATM    8  C   UNL     1     -10.780  10.984  69.255  1.00  0.00    -0.263 C  
BRANCH   8   9
HETATM    9  C   UNL     1     -11.701  11.931  68.484  1.00  0.00    -0.330 C  
BRANCH   9  10
HETATM   10  N   UNL     1     -11.008  13.084  67.775  1.00  0.00    -0.244 N  
HETATM   11  C   UNL     1      -9.542  13.185  68.185  1.00  0.00    -0.227 C  
HETATM   12  C   UNL     1     -11.024  12.916  66.263  1.00  0.00    -0.281 C  
BRANCH  10  13
HETATM   13  C   UNL     1     -11.793  14.423  68.186  1.00  0.00    -0.327 C  
HETATM   14  C   UNL     1     -11.078  15.724  67.770  1.00  0.00    -0.313 A  
HETATM   15  C   UNL     1     -10.766  16.493  68.914  1.00  0.00    -0.337 A  
HETATM   16  C   UNL     1     -11.307  15.849  70.086  1.00  0.00    -0.369 A  
HETATM   17  C   UNL     1     -10.067  17.688  68.813  1.00  0.00    -0.377 A  
HETATM   18  C   UNL     1     -11.941  14.643  69.710  1.00  0.00    -0.378 A  
HETATM   19  C   UNL     1      -9.679  18.128  67.548  1.00  0.00    -0.304 A  
HETATM   20  C   UNL     1     -10.017  17.390  66.406  1.00  0.00    -0.322 A  
HETATM   21  C   UNL     1     -12.607  13.890  70.671  1.00  0.00    -0.405 A  
HETATM   22  C   UNL     1     -12.588  14.321  72.004  1.00  0.00    -0.381 A  
HETATM   23  C   UNL     1     -10.738  16.196  66.508  1.00  0.00    -0.220 A  
HETATM   24  C   UNL     1     -11.948  15.511  72.366  1.00  0.00    -0.547 A  
HETATM   25  C   UNL     1     -11.308  16.291  71.404  1.00  0.00    -0.247 A  
ENDBRANCH  10  13
ENDBRANCH   9  10
ENDBRANCH   8   9
ENDBRANCH   7   8
ENDBRANCH   6   7
ENDBRANCH   5   6
ENDBRANCH   4   5
ENDBRANCH   2   4
BRANCH   2  26
HETATM   26  C   UNL     1      -8.457   6.447  69.602  1.00  0.00    -0.130 C  
HETATM   27  C   UNL     1      -7.124   9.917  69.634  1.00  0.00    -0.093 A  
HETATM   28  C   UNL     1      -8.026   6.645  71.070  1.00  0.00    -0.107 A  
HETATM   29  C   UNL     1      -7.193  10.310  68.302  1.00  0.00    -0.083 A  
HETATM   30  C   UNL     1      -7.502   7.949  71.238  1.00  0.00    -0.073 A  
HETATM   31  C   UNL     1      -7.487   8.619  69.958  1.00  0.00    -0.056 A  
HETATM   32  C   UNL     1      -7.030   8.385  72.468  1.00  0.00    -0.104 A  
HETATM   33  C   UNL     1      -7.550   9.400  67.295  1.00  0.00    -0.091 A  
HETATM   34  C   UNL     1      -8.024   5.762  72.148  1.00  0.00    -0.107 A  
HETATM   35  C   UNL     1      -7.922   7.722  68.959  1.00  0.00    -0.123 A  
HETATM   36  C   UNL     1      -7.082   7.512  73.554  1.00  0.00    -0.096 A  
HETATM   37  C   UNL     1      -7.879   8.076  67.614  1.00  0.00    -0.122 A  
HETATM   38  C   UNL     1      -7.576   6.212  73.397  1.00  0.00    -0.096 A  
ENDBRANCH   2  26
TORSDOF 9
ENDMDL
MODEL      131
REMARK 921   NORMALIZED FREE ENERGY PREDICTED BY IDOCK:   -5.64 KCAL/MOL
REMARK 922        TOTAL FREE ENERGY PREDICTED BY IDOCK:  -10.38 KCAL/MOL
REMARK 923 INTER-LIGAND FREE ENERGY PREDICTED BY IDOCK:  -10.24 KCAL/MOL
REMARK 924 INTRA-LIGAND FREE ENERGY PREDICTED BY IDOCK:   -0.14 KCAL/MOL
REMARK 927      BINDING AFFINITY PREDICTED BY RF-SCORE:    0.00 PKD
ROOT
HETATM    1  C   UNL     1      -9.900   7.019  69.196  1.00  0.00    -0.158 C  
HETATM    2  N   UNL     1      -9.204   8.376  69.187  1.00  0.00    -0.150 N  
HETATM    3  C   UNL     1      -7.730   8.178  68.845  1.00  0.00    -0.103 C  
ENDROOT
BRANCH   2   4
HETATM    4  C   UNL     1      -9.891   9.277  68.182  1.00  0.00    -0.162 C  
BRANCH   4   5
HETATM    5  C   UNL     1      -9.157   9.505  66.861  1.00  0.00    -0.158 C  
BRANCH   5   6
HETATM    6  C   UNL     1      -8.850  11.000  66.706  1.00  0.00    -0.158 C  
BRANCH   6   7
HETATM    7  C   UNL     1      -8.526  11.717  68.029  1.00  0.00    -0.151 C  
BRANCH   7   8
HETATM    8  C   UNL     1      -9.394  12.956  68.298  1.00  0.00    -0.194 C  
BRANCH   8   9
HETATM    9  C   UNL     1      -8.755  14.158  67.602  1.00  0.00    -0.187 C  
BRANCH   9  10
HETATM   10  N   UNL     1      -9.446  15.492  67.834  1.00  0.00    -0.200 N  
HETATM   11  C   UNL     1     -10.809  15.535  67.150  1.00  0.00    -0.316 C  
HETATM   12  C   UNL     1      -9.695  15.756  69.311  1.00  0.00    -0.263 C  
BRANCH  10  13
HETATM   13  C   UNL     1      -8.486  16.627  67.228  1.00  0.00    -0.194 C  
HETATM   14  C   UNL     1      -7.390  17.108  68.199  1.00  0.00    -0.202 A  
HETATM   15  C   UNL     1      -7.547  18.487  68.463  1.00  0.00    -0.328 A  
HETATM   16  C   UNL     1      -8.625  19.009  67.659  1.00  0.00    -0.317 A  
HETATM   17  C   UNL     1      -6.716  19.151  69.355  1.00  0.00    -0.317 A  
HETATM   18  C   UNL     1      -9.193  17.962  66.898  1.00  0.00    -0.267 A  
HETATM   19  C   UNL     1      -5.707  18.429  69.990  1.00  0.00    -0.241 A  
HETATM   20  C   UNL     1      -5.522  17.070  69.706  1.00  0.00    -0.190 A  
HETATM   21  C   UNL     1     -10.202  18.248  65.984  1.00  0.00    -0.334 A  
HETATM   22  C   UNL     1     -10.669  19.566  65.879  1.00  0.00    -0.518 A  
HETATM   23  C   UNL     1      -6.346  16.407  68.792  1.00  0.00    -0.135 A  
HETATM   24  C   UNL     1     -10.106  20.592  66.646  1.00  0.00    -0.322 A  
HETATM   25  C   UNL     1      -9.069  20.320  67.538  1.00  0.00    -0.462 A  
ENDBRANCH  10  13
ENDBRANCH   9  10
ENDBRANCH   8   9
ENDBRANCH   7   8
ENDBRANCH   6   7
ENDBRANCH   5   6
ENDBRANCH   4   5
ENDBRANCH   2   4
BRANCH   2  26
HETATM   26  C   UNL     1      -9.331   9.082  70.631  1.00  0.00    -0.234 C  
HETATM   27  C   UNL     1     -12.684   9.123  72.234  1.00  0.00    -0.447 A  
HETATM   28  C   UNL     1      -9.160   8.126  71.830  1.00  0.00    -0.230 A  
HETATM   29  C   UNL     1     -13.395  10.059  71.490  1.00  0.00    -0.451 A  
HETATM   30  C   UNL     1     -10.382   8.031  72.538  1.00  0.00    -0.374 A  
HETATM   31  C   UNL     1     -11.347   8.919  71.932  1.00  0.00    -0.446 A  
HETATM   32  C   UNL     1     -10.500   7.240  73.672  1.00  0.00    -0.391 A  
HETATM   33  C   UNL     1     -12.762  10.836  70.508  1.00  0.00    -0.388 A  
HETATM   34  C   UNL     1      -8.037   7.451  72.306  1.00  0.00    -0.113 A  
HETATM   35  C   UNL     1     -10.725   9.641  70.891  1.00  0.00    -0.402 A  
HETATM   36  C   UNL     1      -9.385   6.525  74.110  1.00  0.00    -0.212 A  
HETATM   37  C   UNL     1     -11.401  10.660  70.228  1.00  0.00    -0.401 A  
HETATM   38  C   UNL     1      -8.164   6.628  73.433  1.00  0.00    -0.124 A  
ENDBRANCH   2  26
TORSDOF 9
ENDMDL
MODEL      132
REMARK 921   NORMALIZED FREE ENERGY PREDICTED BY IDOCK:   -5.64 KCAL/MOL
REMARK 922        TOTAL FREE ENERGY PREDICTED BY IDOCK:  -10.37 KCAL/MOL
REMARK 923 INTER-LIGAND FREE ENERGY PREDICTED BY IDOCK:   -9.07 KCAL/MOL
REMARK 924 INTRA-LIGAND FREE ENERGY PREDICTED BY IDOCK:   -1.30 KCAL/MOL
REMARK 927      BINDING AFFINITY PREDICTED BY RF-SCORE:    0.00 PKD
ROOT
HETATM    1  C   UNL     1      -6.701   5.042  70.508  1.00  0.00    -0.040 C  
HETATM    2  N   UNL     1      -7.788   6.103  70.373  1.00  0.00    -0.104 N  
HETATM    3  C   UNL     1      -7.190   7.352  69.732  1.00  0.00    -0.081 C  
ENDROOT
BRANCH   2   4
HETATM    4  C   UNL     1      -8.926   5.543  69.544  1.00  0.00    -0.113 C  
BRANCH   4   5
HETATM    5  C   UNL     1      -9.182   6.223  68.199  1.00  0.00    -0.110 C  
BRANCH   5   6
HETATM    6  C   UNL     1     -10.572   6.872  68.219  1.00  0.00    -0.258 C  
BRANCH   6   7
HETATM    7  C   UNL     1     -10.638   8.239  67.513  1.00  0.00    -0.291 C  
BRANCH   7   8
HETATM    8  C   UNL     1      -9.391   9.112  67.723  1.00  0.00    -0.152 C  
BRANCH   8   9
HETATM    9  C   UNL     1      -9.720  10.542  67.293  1.00  0.00    -0.169 C  
BRANCH   9  10
HETATM   10  N   UNL     1      -8.557  11.336  66.719  1.00  0.00    -0.153 N  
HETATM   11  C   UNL     1      -7.515  11.643  67.790  1.00  0.00    -0.111 C  
HETATM   12  C   UNL     1      -7.835  10.575  65.618  1.00  0.00    -0.150 C  
BRANCH  10  13
HETATM   13  C   UNL     1      -9.168  12.700  66.133  1.00  0.00    -0.045 C  
HETATM   14  C   UNL     1      -9.869  13.580  67.186  1.00  0.00    -0.245 A  
HETATM   15  C   UNL     1     -11.232  13.746  66.851  1.00  0.00    -0.326 A  
HETATM   16  C   UNL     1     -11.493  13.114  65.580  1.00  0.00    -0.351 A  
HETATM   17  C   UNL     1     -12.098  14.453  67.674  1.00  0.00    -0.312 A  
HETATM   18  C   UNL     1     -10.308  12.508  65.105  1.00  0.00    -0.312 A  
HETATM   19  C   UNL     1     -11.594  15.011  68.848  1.00  0.00    -0.349 A  
HETATM   20  C   UNL     1     -10.236  14.883  69.168  1.00  0.00    -0.243 A  
HETATM   21  C   UNL     1     -10.302  11.905  63.851  1.00  0.00    -0.426 A  
HETATM   22  C   UNL     1     -11.491  11.867  63.111  1.00  0.00    -0.230 A  
HETATM   23  C   UNL     1      -9.362  14.187  68.329  1.00  0.00    -0.203 A  
HETATM   24  C   UNL     1     -12.660  12.462  63.596  1.00  0.00    -0.550 A  
HETATM   25  C   UNL     1     -12.666  13.100  64.836  1.00  0.00    -0.421 A  
ENDBRANCH  10  13
ENDBRANCH   9  10
ENDBRANCH   8   9
ENDBRANCH   7   8
ENDBRANCH   6   7
ENDBRANCH   5   6
ENDBRANCH   4   5
ENDBRANCH   2   4
BRANCH   2  26
HETATM   26  C   UNL     1      -8.390   6.478  71.821  1.00  0.00    -0.116 C  
HETATM   27  C   UNL     1     -11.914   7.652  71.964  1.00  0.00    -0.341 A  
HETATM   28  C   UNL     1      -9.120   5.318  72.533  1.00  0.00    -0.144 A  
HETATM   29  C   UNL     1     -11.857   8.936  71.434  1.00  0.00    -0.383 A  
HETATM   30  C   UNL     1     -10.497   5.625  72.647  1.00  0.00    -0.249 A  
HETATM   31  C   UNL     1     -10.730   6.949  72.121  1.00  0.00    -0.248 A  
HETATM   32  C   UNL     1     -11.382   4.750  73.260  1.00  0.00    -0.408 A  
HETATM   33  C   UNL     1     -10.627   9.542  71.132  1.00  0.00    -0.388 A  
HETATM   34  C   UNL     1      -8.631   4.137  73.088  1.00  0.00    -0.093 A  
HETATM   35  C   UNL     1      -9.497   7.524  71.745  1.00  0.00    -0.170 A  
HETATM   36  C   UNL     1     -10.893   3.545  73.766  1.00  0.00    -0.317 A  
HETATM   37  C   UNL     1      -9.425   8.849  71.327  1.00  0.00    -0.343 A  
HETATM   38  C   UNL     1      -9.530   3.240  73.680  1.00  0.00    -0.127 A  
ENDBRANCH   2  26
TORSDOF 9
ENDMDL
MODEL      133
REMARK 921   NORMALIZED FREE ENERGY PREDICTED BY IDOCK:   -5.63 KCAL/MOL
REMARK 922        TOTAL FREE ENERGY PREDICTED BY IDOCK:  -10.36 KCAL/MOL
REMARK 923 INTER-LIGAND FREE ENERGY PREDICTED BY IDOCK:   -9.57 KCAL/MOL
REMARK 924 INTRA-LIGAND FREE ENERGY PREDICTED BY IDOCK:   -0.79 KCAL/MOL
REMARK 927      BINDING AFFINITY PREDICTED BY RF-SCORE:    0.00 PKD
ROOT
HETATM    1  C   UNL     1     -11.325   8.800  72.143  1.00  0.00    -0.341 C  
HETATM    2  N   UNL     1     -11.164   7.883  70.935  1.00  0.00    -0.267 N  
HETATM    3  C   UNL     1     -12.405   7.003  70.808  1.00  0.00    -0.258 C  
ENDROOT
BRANCH   2   4
HETATM    4  C   UNL     1     -10.954   8.728  69.696  1.00  0.00    -0.105 C  
BRANCH   4   5
HETATM    5  C   UNL     1     -10.185  10.035  69.889  1.00  0.00    -0.304 C  
BRANCH   5   6
HETATM    6  C   UNL     1      -9.066  10.122  68.842  1.00  0.00    -0.165 C  
BRANCH   6   7
HETATM    7  C   UNL     1      -9.094  11.409  67.998  1.00  0.00    -0.171 C  
BRANCH   7   8
HETATM    8  C   UNL     1      -8.189  12.529  68.534  1.00  0.00    -0.079 C  
BRANCH   8   9
HETATM    9  C   UNL     1      -8.027  13.587  67.443  1.00  0.00    -0.156 C  
BRANCH   9  10
HETATM   10  N   UNL     1      -8.178  15.029  67.902  1.00  0.00    -0.135 N  
HETATM   11  C   UNL     1      -7.780  15.188  69.366  1.00  0.00    -0.213 C  
HETATM   12  C   UNL     1      -7.292  15.976  67.108  1.00  0.00    -0.222 C  
BRANCH  10  13
HETATM   13  C   UNL     1      -9.721  15.423  67.701  1.00  0.00    -0.211 C  
HETATM   14  C   UNL     1     -10.608  15.145  68.930  1.00  0.00    -0.242 A  
HETATM   15  C   UNL     1     -11.616  14.211  68.600  1.00  0.00    -0.352 A  
HETATM   16  C   UNL     1     -11.539  13.902  67.192  1.00  0.00    -0.391 A  
HETATM   17  C   UNL     1     -12.514  13.750  69.552  1.00  0.00    -0.123 A  
HETATM   18  C   UNL     1     -10.459  14.607  66.614  1.00  0.00    -0.278 A  
HETATM   19  C   UNL     1     -12.409  14.232  70.855  1.00  0.00    -0.429 A  
HETATM   20  C   UNL     1     -11.436  15.186  71.183  1.00  0.00    -0.387 A  
HETATM   21  C   UNL     1     -10.242  14.524  65.243  1.00  0.00    -0.431 A  
HETATM   22  C   UNL     1     -11.072  13.697  64.473  1.00  0.00    -0.396 A  
HETATM   23  C   UNL     1     -10.545  15.664  70.217  1.00  0.00    -0.329 A  
HETATM   24  C   UNL     1     -12.132  12.996  65.058  1.00  0.00    -0.470 A  
HETATM   25  C   UNL     1     -12.379  13.102  66.427  1.00  0.00    -0.300 A  
ENDBRANCH  10  13
ENDBRANCH   9  10
ENDBRANCH   8   9
ENDBRANCH   7   8
ENDBRANCH   6   7
ENDBRANCH   5   6
ENDBRANCH   4   5
ENDBRANCH   2   4
BRANCH   2  26
HETATM   26  C   UNL     1      -9.859   6.951  71.106  1.00  0.00    -0.177 C  
HETATM   27  C   UNL     1     -10.349   3.558  72.544  1.00  0.00    -0.196 A  
HETATM   28  C   UNL     1      -9.577   6.017  69.910  1.00  0.00    -0.188 A  
HETATM   29  C   UNL     1     -10.598   3.803  73.891  1.00  0.00    -0.292 A  
HETATM   30  C   UNL     1      -9.741   4.670  70.313  1.00  0.00    -0.295 A  
HETATM   31  C   UNL     1     -10.047   4.634  71.724  1.00  0.00    -0.261 A  
HETATM   32  C   UNL     1      -9.536   3.622  69.427  1.00  0.00    -0.249 A  
HETATM   33  C   UNL     1     -10.475   5.093  74.428  1.00  0.00    -0.294 A  
HETATM   34  C   UNL     1      -9.153   6.299  68.613  1.00  0.00    -0.126 A  
HETATM   35  C   UNL     1     -10.000   5.945  72.243  1.00  0.00    -0.193 A  
HETATM   36  C   UNL     1      -9.164   3.916  68.114  1.00  0.00    -0.207 A  
HETATM   37  C   UNL     1     -10.131   6.176  73.609  1.00  0.00    -0.227 A  
HETATM   38  C   UNL     1      -8.976   5.242  67.710  1.00  0.00    -0.110 A  
ENDBRANCH   2  26
TORSDOF 9
ENDMDL
MODEL      134
REMARK 921   NORMALIZED FREE ENERGY PREDICTED BY IDOCK:   -5.63 KCAL/MOL
REMARK 922        TOTAL FREE ENERGY PREDICTED BY IDOCK:  -10.36 KCAL/MOL
REMARK 923 INTER-LIGAND FREE ENERGY PREDICTED BY IDOCK:   -9.21 KCAL/MOL
REMARK 924 INTRA-LIGAND FREE ENERGY PREDICTED BY IDOCK:   -1.15 KCAL/MOL
REMARK 927      BINDING AFFINITY PREDICTED BY RF-SCORE:    0.00 PKD
ROOT
HETATM    1  C   UNL     1     -10.857   9.938  67.077  1.00  0.00    -0.116 C  
HETATM    2  N   UNL     1     -10.552  11.235  67.817  1.00  0.00    -0.192 N  
HETATM    3  C   UNL     1     -11.860  11.854  68.301  1.00  0.00    -0.277 C  
ENDROOT
BRANCH   2   4
HETATM    4  C   UNL     1      -9.618  10.938  68.972  1.00  0.00    -0.156 C  
BRANCH   4   5
HETATM    5  C   UNL     1      -9.560   9.484  69.441  1.00  0.00    -0.186 C  
BRANCH   5   6
HETATM    6  C   UNL     1     -10.553   9.287  70.595  1.00  0.00    -0.324 C  
BRANCH   6   7
HETATM    7  C   UNL     1     -11.118   7.859  70.701  1.00  0.00    -0.263 C  
BRANCH   7   8
HETATM    8  C   UNL     1     -10.854   6.988  69.463  1.00  0.00    -0.265 C  
BRANCH   8   9
HETATM    9  C   UNL     1     -10.647   5.544  69.918  1.00  0.00    -0.317 C  
BRANCH   9  10
HETATM   10  N   UNL     1      -9.265   4.967  69.657  1.00  0.00    -0.110 N  
HETATM   11  C   UNL     1      -9.348   3.672  68.856  1.00  0.00    -0.167 C  
HETATM   12  C   UNL     1      -8.393   5.919  68.853  1.00  0.00    -0.102 C  
BRANCH  10  13
HETATM   13  C   UNL     1      -8.596   4.690  71.091  1.00  0.00    -0.112 C  
HETATM   14  C   UNL     1      -9.433   3.779  72.010  1.00  0.00    -0.200 A  
HETATM   15  C   UNL     1      -9.791   4.475  73.187  1.00  0.00    -0.168 A  
HETATM   16  C   UNL     1      -9.171   5.779  73.180  1.00  0.00    -0.136 A  
HETATM   17  C   UNL     1     -10.596   3.892  74.155  1.00  0.00    -0.278 A  
HETATM   18  C   UNL     1      -8.439   5.944  71.982  1.00  0.00    -0.125 A  
HETATM   19  C   UNL     1     -11.046   2.589  73.950  1.00  0.00    -0.271 A  
HETATM   20  C   UNL     1     -10.665   1.879  72.803  1.00  0.00    -0.218 A  
HETATM   21  C   UNL     1      -7.689   7.100  71.792  1.00  0.00    -0.092 A  
HETATM   22  C   UNL     1      -7.721   8.099  72.775  1.00  0.00    -0.184 A  
HETATM   23  C   UNL     1      -9.838   2.461  71.839  1.00  0.00    -0.229 A  
HETATM   24  C   UNL     1      -8.458   7.928  73.951  1.00  0.00    -0.316 A  
HETATM   25  C   UNL     1      -9.184   6.757  74.166  1.00  0.00    -0.234 A  
ENDBRANCH  10  13
ENDBRANCH   9  10
ENDBRANCH   8   9
ENDBRANCH   7   8
ENDBRANCH   6   7
ENDBRANCH   5   6
ENDBRANCH   4   5
ENDBRANCH   2   4
BRANCH   2  26
HETATM   26  C   UNL     1      -9.794  12.273  66.844  1.00  0.00    -0.209 C  
HETATM   27  C   UNL     1     -11.879  14.246  64.481  1.00  0.00    -0.456 A  
HETATM   28  C   UNL     1      -9.688  13.711  67.396  1.00  0.00    -0.228 A  
HETATM   29  C   UNL     1     -12.262  13.315  63.522  1.00  0.00    -0.513 A  
HETATM   30  C   UNL     1     -10.456  14.585  66.590  1.00  0.00    -0.274 A  
HETATM   31  C   UNL     1     -11.017  13.839  65.487  1.00  0.00    -0.299 A  
HETATM   32  C   UNL     1     -10.526  15.944  66.863  1.00  0.00    -0.309 A  
HETATM   33  C   UNL     1     -11.734  12.015  63.521  1.00  0.00    -0.566 A  
HETATM   34  C   UNL     1      -8.946  14.228  68.455  1.00  0.00    -0.185 A  
HETATM   35  C   UNL     1     -10.545  12.510  65.538  1.00  0.00    -0.304 A  
HETATM   36  C   UNL     1      -9.822  16.445  67.959  1.00  0.00    -0.238 A  
HETATM   37  C   UNL     1     -10.832  11.612  64.515  1.00  0.00    -0.383 A  
HETATM   38  C   UNL     1      -9.040  15.595  68.749  1.00  0.00    -0.208 A  
ENDBRANCH   2  26
TORSDOF 9
ENDMDL
MODEL      135
REMARK 921   NORMALIZED FREE ENERGY PREDICTED BY IDOCK:   -5.63 KCAL/MOL
REMARK 922        TOTAL FREE ENERGY PREDICTED BY IDOCK:  -10.35 KCAL/MOL
REMARK 923 INTER-LIGAND FREE ENERGY PREDICTED BY IDOCK:   -8.90 KCAL/MOL
REMARK 924 INTRA-LIGAND FREE ENERGY PREDICTED BY IDOCK:   -1.45 KCAL/MOL
REMARK 927      BINDING AFFINITY PREDICTED BY RF-SCORE:    0.00 PKD
ROOT
HETATM    1  C   UNL     1      -8.049   3.431  71.058  1.00  0.00    -0.062 C  
HETATM    2  N   UNL     1      -8.748   4.747  70.735  1.00  0.00    -0.107 N  
HETATM    3  C   UNL     1      -7.702   5.783  70.332  1.00  0.00    -0.095 C  
ENDROOT
BRANCH   2   4
HETATM    4  C   UNL     1      -9.755   4.514  69.628  1.00  0.00    -0.218 C  
BRANCH   4   5
HETATM    5  C   UNL     1      -9.433   5.147  68.274  1.00  0.00    -0.164 C  
BRANCH   5   6
HETATM    6  C   UNL     1     -10.676   5.880  67.752  1.00  0.00    -0.346 C  
BRANCH   6   7
HETATM    7  C   UNL     1     -10.380   7.259  67.135  1.00  0.00    -0.367 C  
BRANCH   7   8
HETATM    8  C   UNL     1     -10.169   8.375  68.170  1.00  0.00    -0.253 C  
BRANCH   8   9
HETATM    9  C   UNL     1     -10.754   9.673  67.613  1.00  0.00    -0.262 C  
BRANCH   9  10
HETATM   10  N   UNL     1      -9.991  10.940  67.966  1.00  0.00    -0.167 N  
HETATM   11  C   UNL     1     -10.903  11.969  68.627  1.00  0.00    -0.237 C  
HETATM   12  C   UNL     1      -8.861  10.669  68.948  1.00  0.00    -0.157 C  
BRANCH  10  13
HETATM   13  C   UNL     1      -9.396  11.525  66.594  1.00  0.00    -0.189 C  
HETATM   14  C   UNL     1     -10.462  12.098  65.640  1.00  0.00    -0.290 A  
HETATM   15  C   UNL     1     -10.459  11.382  64.422  1.00  0.00    -0.388 A  
HETATM   16  C   UNL     1      -9.391  10.412  64.440  1.00  0.00    -0.321 A  
HETATM   17  C   UNL     1     -11.367  11.668  63.413  1.00  0.00    -0.380 A  
HETATM   18  C   UNL     1      -8.721  10.473  65.684  1.00  0.00    -0.191 A  
HETATM   19  C   UNL     1     -12.292  12.691  63.620  1.00  0.00    -0.584 A  
HETATM   20  C   UNL     1     -12.278  13.430  64.810  1.00  0.00    -0.454 A  
HETATM   21  C   UNL     1      -7.599   9.679  65.898  1.00  0.00    -0.103 A  
HETATM   22  C   UNL     1      -7.191   8.795  64.889  1.00  0.00    -0.084 A  
HETATM   23  C   UNL     1     -11.349  13.153  65.817  1.00  0.00    -0.331 A  
HETATM   24  C   UNL     1      -7.868   8.737  63.666  1.00  0.00    -0.145 A  
HETATM   25  C   UNL     1      -8.972   9.555  63.430  1.00  0.00    -0.205 A  
ENDBRANCH  10  13
ENDBRANCH   9  10
ENDBRANCH   8   9
ENDBRANCH   7   8
ENDBRANCH   6   7
ENDBRANCH   5   6
ENDBRANCH   4   5
ENDBRANCH   2   4
BRANCH   2  26
HETATM   26  C   UNL     1      -9.564   5.280  72.020  1.00  0.00    -0.153 C  
HETATM   27  C   UNL     1      -8.263   8.303  73.748  1.00  0.00    -0.264 A  
HETATM   28  C   UNL     1     -10.629   6.353  71.704  1.00  0.00    -0.261 A  
HETATM   29  C   UNL     1      -7.129   7.844  74.409  1.00  0.00    -0.170 A  
HETATM   30  C   UNL     1     -10.253   7.582  72.297  1.00  0.00    -0.252 A  
HETATM   31  C   UNL     1      -9.037   7.388  73.053  1.00  0.00    -0.200 A  
HETATM   32  C   UNL     1     -11.046   8.714  72.175  1.00  0.00    -0.434 A  
HETATM   33  C   UNL     1      -6.810   6.478  74.438  1.00  0.00    -0.088 A  
HETATM   34  C   UNL     1     -11.842   6.261  71.025  1.00  0.00    -0.222 A  
HETATM   35  C   UNL     1      -8.678   6.023  73.013  1.00  0.00    -0.122 A  
HETATM   36  C   UNL     1     -12.232   8.627  71.446  1.00  0.00    -0.348 A  
HETATM   37  C   UNL     1      -7.613   5.544  73.770  1.00  0.00    -0.094 A  
HETATM   38  C   UNL     1     -12.627   7.412  70.875  1.00  0.00    -0.187 A  
ENDBRANCH   2  26
TORSDOF 9
ENDMDL
MODEL      136
REMARK 921   NORMALIZED FREE ENERGY PREDICTED BY IDOCK:   -5.62 KCAL/MOL
REMARK 922        TOTAL FREE ENERGY PREDICTED BY IDOCK:  -10.34 KCAL/MOL
REMARK 923 INTER-LIGAND FREE ENERGY PREDICTED BY IDOCK:   -8.66 KCAL/MOL
REMARK 924 INTRA-LIGAND FREE ENERGY PREDICTED BY IDOCK:   -1.68 KCAL/MOL
REMARK 927      BINDING AFFINITY PREDICTED BY RF-SCORE:    0.00 PKD
ROOT
HETATM    1  C   UNL     1     -11.587  12.299  69.550  1.00  0.00    -0.298 C  
HETATM    2  N   UNL     1     -10.667  12.217  68.336  1.00  0.00    -0.220 N  
HETATM    3  C   UNL     1     -10.549  13.601  67.705  1.00  0.00    -0.241 C  
ENDROOT
BRANCH   2   4
HETATM    4  C   UNL     1      -9.317  11.688  68.774  1.00  0.00    -0.046 C  
BRANCH   4   5
HETATM    5  C   UNL     1      -8.092  12.381  68.177  1.00  0.00    -0.163 C  
BRANCH   5   6
HETATM    6  C   UNL     1      -6.853  11.508  68.416  1.00  0.00    -0.070 C  
BRANCH   6   7
HETATM    7  C   UNL     1      -6.685  11.039  69.873  1.00  0.00    -0.125 C  
BRANCH   7   8
HETATM    8  C   UNL     1      -6.492   9.523  70.023  1.00  0.00    -0.061 C  
BRANCH   8   9
HETATM    9  C   UNL     1      -6.518   9.174  71.512  1.00  0.00    -0.045 C  
BRANCH   9  10
HETATM   10  N   UNL     1      -7.375   7.977  71.889  1.00  0.00    -0.075 N  
HETATM   11  C   UNL     1      -6.522   6.730  72.098  1.00  0.00    -0.053 C  
HETATM   12  C   UNL     1      -8.133   8.205  73.188  1.00  0.00    -0.179 C  
BRANCH  10  13
HETATM   13  C   UNL     1      -8.410   7.746  70.684  1.00  0.00    -0.124 C  
HETATM   14  C   UNL     1      -9.873   8.074  71.039  1.00  0.00    -0.200 A  
HETATM   15  C   UNL     1     -10.676   6.919  70.909  1.00  0.00    -0.258 A  
HETATM   16  C   UNL     1      -9.874   5.835  70.392  1.00  0.00    -0.241 A  
HETATM   17  C   UNL     1     -12.026   6.937  71.227  1.00  0.00    -0.402 A  
HETATM   18  C   UNL     1      -8.543   6.277  70.220  1.00  0.00    -0.138 A  
HETATM   19  C   UNL     1     -12.589   8.131  71.676  1.00  0.00    -0.347 A  
HETATM   20  C   UNL     1     -11.809   9.290  71.772  1.00  0.00    -0.454 A  
HETATM   21  C   UNL     1      -7.605   5.419  69.654  1.00  0.00    -0.070 A  
HETATM   22  C   UNL     1      -7.994   4.116  69.317  1.00  0.00    -0.056 A  
HETATM   23  C   UNL     1     -10.453   9.275  71.433  1.00  0.00    -0.408 A  
HETATM   24  C   UNL     1      -9.312   3.687  69.502  1.00  0.00    -0.247 A  
HETATM   25  C   UNL     1     -10.268   4.551  70.035  1.00  0.00    -0.080 A  
ENDBRANCH  10  13
ENDBRANCH   9  10
ENDBRANCH   8   9
ENDBRANCH   7   8
ENDBRANCH   6   7
ENDBRANCH   5   6
ENDBRANCH   4   5
ENDBRANCH   2   4
BRANCH   2  26
HETATM   26  C   UNL     1     -11.259  11.181  67.252  1.00  0.00    -0.277 C  
HETATM   27  C   UNL     1     -10.492  11.817  63.671  1.00  0.00    -0.490 A  
HETATM   28  C   UNL     1     -10.307  10.023  66.884  1.00  0.00    -0.297 A  
HETATM   29  C   UNL     1     -11.286  12.914  63.353  1.00  0.00    -0.237 A  
HETATM   30  C   UNL     1      -9.914  10.145  65.530  1.00  0.00    -0.363 A  
HETATM   31  C   UNL     1     -10.599  11.272  64.941  1.00  0.00    -0.364 A  
HETATM   32  C   UNL     1      -9.063   9.222  64.939  1.00  0.00    -0.227 A  
HETATM   33  C   UNL     1     -12.228  13.416  64.263  1.00  0.00    -0.450 A  
HETATM   34  C   UNL     1      -9.871   8.929  67.629  1.00  0.00    -0.229 A  
HETATM   35  C   UNL     1     -11.488  11.823  65.889  1.00  0.00    -0.273 A  
HETATM   36  C   UNL     1      -8.588   8.159  65.709  1.00  0.00    -0.175 A  
HETATM   37  C   UNL     1     -12.366  12.842  65.534  1.00  0.00    -0.517 A  
HETATM   38  C   UNL     1      -8.987   8.014  67.042  1.00  0.00    -0.156 A  
ENDBRANCH   2  26
TORSDOF 9
ENDMDL
MODEL      137
REMARK 921   NORMALIZED FREE ENERGY PREDICTED BY IDOCK:   -5.61 KCAL/MOL
REMARK 922        TOTAL FREE ENERGY PREDICTED BY IDOCK:  -10.33 KCAL/MOL
REMARK 923 INTER-LIGAND FREE ENERGY PREDICTED BY IDOCK:   -8.45 KCAL/MOL
REMARK 924 INTRA-LIGAND FREE ENERGY PREDICTED BY IDOCK:   -1.88 KCAL/MOL
REMARK 927      BINDING AFFINITY PREDICTED BY RF-SCORE:    0.00 PKD
ROOT
HETATM    1  C   UNL     1      -7.882   4.296  70.176  1.00  0.00    -0.052 C  
HETATM    2  N   UNL     1      -7.376   5.653  70.654  1.00  0.00    -0.081 N  
HETATM    3  C   UNL     1      -7.328   5.659  72.179  1.00  0.00    -0.091 C  
ENDROOT
BRANCH   2   4
HETATM    4  C   UNL     1      -6.010   5.911  70.053  1.00  0.00    -0.025 C  
BRANCH   4   5
HETATM    5  C   UNL     1      -5.232   7.098  70.622  1.00  0.00    -0.023 C  
BRANCH   5   6
HETATM    6  C   UNL     1      -5.542   8.349  69.790  1.00  0.00    -0.029 C  
BRANCH   6   7
HETATM    7  C   UNL     1      -5.356   8.158  68.273  1.00  0.00    -0.033 C  
BRANCH   7   8
HETATM    8  C   UNL     1      -5.746   9.384  67.435  1.00  0.00    -0.041 C  
BRANCH   8   9
HETATM    9  C   UNL     1      -7.253   9.604  67.567  1.00  0.00    -0.090 C  
BRANCH   9  10
HETATM   10  N   UNL     1      -7.884  10.476  66.493  1.00  0.00    -0.127 N  
HETATM   11  C   UNL     1      -7.640  11.957  66.769  1.00  0.00    -0.034 C  
HETATM   12  C   UNL     1      -7.305  10.192  65.115  1.00  0.00    -0.141 C  
BRANCH  10  13
HETATM   13  C   UNL     1      -9.458  10.162  66.502  1.00  0.00    -0.169 C  
HETATM   14  C   UNL     1     -10.276  11.012  65.509  1.00  0.00    -0.327 A  
HETATM   15  C   UNL     1     -11.224  11.794  66.206  1.00  0.00    -0.370 A  
HETATM   16  C   UNL     1     -11.178  11.464  67.610  1.00  0.00    -0.346 A  
HETATM   17  C   UNL     1     -12.049  12.691  65.542  1.00  0.00    -0.515 A  
HETATM   18  C   UNL     1     -10.175  10.493  67.832  1.00  0.00    -0.213 A  
HETATM   19  C   UNL     1     -11.930  12.806  64.158  1.00  0.00    -0.499 A  
HETATM   20  C   UNL     1     -11.018  12.007  63.455  1.00  0.00    -0.514 A  
HETATM   21  C   UNL     1     -10.004   9.964  69.107  1.00  0.00    -0.205 A  
HETATM   22  C   UNL     1     -10.800  10.447  70.155  1.00  0.00    -0.333 A  
HETATM   23  C   UNL     1     -10.202  11.090  64.124  1.00  0.00    -0.419 A  
HETATM   24  C   UNL     1     -11.782  11.416  69.924  1.00  0.00    -0.424 A  
HETATM   25  C   UNL     1     -11.985  11.926  68.643  1.00  0.00    -0.291 A  
ENDBRANCH  10  13
ENDBRANCH   9  10
ENDBRANCH   8   9
ENDBRANCH   7   8
ENDBRANCH   6   7
ENDBRANCH   5   6
ENDBRANCH   4   5
ENDBRANCH   2   4
BRANCH   2  26
HETATM   26  C   UNL     1      -8.354   6.829  70.143  1.00  0.00    -0.135 C  
HETATM   27  C   UNL     1     -11.022   5.914  67.722  1.00  0.00    -0.245 A  
HETATM   28  C   UNL     1      -9.649   6.991  70.967  1.00  0.00    -0.170 A  
HETATM   29  C   UNL     1     -10.331   5.699  66.534  1.00  0.00    -0.287 A  
HETATM   30  C   UNL     1     -10.766   6.657  70.165  1.00  0.00    -0.287 A  
HETATM   31  C   UNL     1     -10.311   6.349  68.829  1.00  0.00    -0.232 A  
HETATM   32  C   UNL     1     -12.059   6.727  70.662  1.00  0.00    -0.371 A  
HETATM   33  C   UNL     1      -8.961   5.984  66.430  1.00  0.00    -0.150 A  
HETATM   34  C   UNL     1      -9.851   7.446  72.269  1.00  0.00    -0.203 A  
HETATM   35  C   UNL     1      -8.918   6.563  68.752  1.00  0.00    -0.124 A  
HETATM   36  C   UNL     1     -12.248   7.132  71.984  1.00  0.00    -0.314 A  
HETATM   37  C   UNL     1      -8.247   6.463  67.537  1.00  0.00    -0.117 A  
HETATM   38  C   UNL     1     -11.154   7.487  72.781  1.00  0.00    -0.416 A  
ENDBRANCH   2  26
TORSDOF 9
ENDMDL
MODEL      138
REMARK 921   NORMALIZED FREE ENERGY PREDICTED BY IDOCK:   -5.60 KCAL/MOL
REMARK 922        TOTAL FREE ENERGY PREDICTED BY IDOCK:  -10.31 KCAL/MOL
REMARK 923 INTER-LIGAND FREE ENERGY PREDICTED BY IDOCK:   -9.86 KCAL/MOL
REMARK 924 INTRA-LIGAND FREE ENERGY PREDICTED BY IDOCK:   -0.45 KCAL/MOL
REMARK 927      BINDING AFFINITY PREDICTED BY RF-SCORE:    0.00 PKD
ROOT
HETATM    1  C   UNL     1      -8.433  15.531  69.311  1.00  0.00    -0.265 C  
HETATM    2  N   UNL     1      -9.166  14.724  68.244  1.00  0.00    -0.181 N  
HETATM    3  C   UNL     1      -8.634  13.294  68.246  1.00  0.00    -0.169 C  
ENDROOT
BRANCH   2   4
HETATM    4  C   UNL     1     -10.654  14.764  68.529  1.00  0.00    -0.248 C  
BRANCH   4   5
HETATM    5  C   UNL     1     -11.063  14.737  70.002  1.00  0.00    -0.240 C  
BRANCH   5   6
HETATM    6  C   UNL     1     -12.424  14.041  70.134  1.00  0.00    -0.380 C  
BRANCH   6   7
HETATM    7  C   UNL     1     -12.351  12.625  70.735  1.00  0.00    -0.372 C  
BRANCH   7   8
HETATM    8  C   UNL     1     -11.802  11.564  69.770  1.00  0.00    -0.429 C  
BRANCH   8   9
HETATM    9  C   UNL     1     -11.953  10.189  70.421  1.00  0.00    -0.267 C  
BRANCH   9  10
HETATM   10  N   UNL     1     -10.738   9.281  70.323  1.00  0.00    -0.228 N  
HETATM   11  C   UNL     1      -9.464  10.086  70.085  1.00  0.00    -0.071 C  
HETATM   12  C   UNL     1     -10.515   8.488  71.602  1.00  0.00    -0.275 C  
BRANCH  10  13
HETATM   13  C   UNL     1     -11.000   8.280  69.096  1.00  0.00     0.088 C  
HETATM   14  C   UNL     1     -10.401   6.874  69.291  1.00  0.00    -0.212 A  
HETATM   15  C   UNL     1      -9.447   6.607  68.283  1.00  0.00    -0.123 A  
HETATM   16  C   UNL     1      -9.421   7.705  67.347  1.00  0.00    -0.175 A  
HETATM   17  C   UNL     1      -8.721   5.425  68.269  1.00  0.00    -0.101 A  
HETATM   18  C   UNL     1     -10.333   8.702  67.766  1.00  0.00    -0.303 A  
HETATM   19  C   UNL     1      -8.954   4.488  69.275  1.00  0.00    -0.142 A  
HETATM   20  C   UNL     1      -9.924   4.728  70.257  1.00  0.00    -0.320 A  
HETATM   21  C   UNL     1     -10.536   9.823  66.969  1.00  0.00    -0.295 A  
HETATM   22  C   UNL     1      -9.789   9.963  65.791  1.00  0.00    -0.356 A  
HETATM   23  C   UNL     1     -10.669   5.911  70.258  1.00  0.00    -0.383 A  
HETATM   24  C   UNL     1      -8.883   8.975  65.392  1.00  0.00    -0.237 A  
HETATM   25  C   UNL     1      -8.699   7.830  66.167  1.00  0.00    -0.177 A  
ENDBRANCH  10  13
ENDBRANCH   9  10
ENDBRANCH   8   9
ENDBRANCH   7   8
ENDBRANCH   6   7
ENDBRANCH   5   6
ENDBRANCH   4   5
ENDBRANCH   2   4
BRANCH   2  26
HETATM   26  C   UNL     1      -8.940  15.380  66.789  1.00  0.00    -0.259 C  
HETATM   27  C   UNL     1     -11.899  15.673  64.558  1.00  0.00    -0.172 A  
HETATM   28  C   UNL     1      -9.185  16.903  66.726  1.00  0.00    -0.266 A  
HETATM   29  C   UNL     1     -12.138  14.364  64.152  1.00  0.00    -0.405 A  
HETATM   30  C   UNL     1     -10.309  17.168  65.908  1.00  0.00    -0.294 A  
HETATM   31  C   UNL     1     -10.795  15.924  65.357  1.00  0.00    -0.361 A  
HETATM   32  C   UNL     1     -10.742  18.466  65.674  1.00  0.00    -0.066 A  
HETATM   33  C   UNL     1     -11.247  13.330  64.477  1.00  0.00    -0.387 A  
HETATM   34  C   UNL     1      -8.466  17.965  67.270  1.00  0.00    -0.242 A  
HETATM   35  C   UNL     1      -9.939  14.874  65.754  1.00  0.00    -0.376 A  
HETATM   36  C   UNL     1     -10.049  19.521  66.268  1.00  0.00    -0.560 A  
HETATM   37  C   UNL     1     -10.109  13.588  65.252  1.00  0.00    -0.277 A  
HETATM   38  C   UNL     1      -8.922  19.274  67.059  1.00  0.00    -0.331 A  
ENDBRANCH   2  26
TORSDOF 9
ENDMDL
MODEL      139
REMARK 921   NORMALIZED FREE ENERGY PREDICTED BY IDOCK:   -5.59 KCAL/MOL
REMARK 922        TOTAL FREE ENERGY PREDICTED BY IDOCK:  -10.30 KCAL/MOL
REMARK 923 INTER-LIGAND FREE ENERGY PREDICTED BY IDOCK:   -8.50 KCAL/MOL
REMARK 924 INTRA-LIGAND FREE ENERGY PREDICTED BY IDOCK:   -1.80 KCAL/MOL
REMARK 927      BINDING AFFINITY PREDICTED BY RF-SCORE:    0.00 PKD
ROOT
HETATM    1  C   UNL     1      -9.412   8.748  65.960  1.00  0.00    -0.233 C  
HETATM    2  N   UNL     1      -7.920   8.683  66.269  1.00  0.00    -0.101 N  
HETATM    3  C   UNL     1      -7.146   8.526  64.964  1.00  0.00    -0.079 C  
ENDROOT
BRANCH   2   4
HETATM    4  C   UNL     1      -7.513   9.942  67.008  1.00  0.00    -0.091 C  
BRANCH   4   5
HETATM    5  C   UNL     1      -8.244  11.225  66.615  1.00  0.00    -0.164 C  
BRANCH   5   6
HETATM    6  C   UNL     1      -7.370  12.434  66.977  1.00  0.00    -0.016 C  
BRANCH   6   7
HETATM    7  C   UNL     1      -7.819  13.176  68.249  1.00  0.00    -0.143 C  
BRANCH   7   8
HETATM    8  C   UNL     1      -8.542  14.504  67.976  1.00  0.00    -0.162 C  
BRANCH   8   9
HETATM    9  C   UNL     1      -9.652  14.676  69.013  1.00  0.00    -0.145 C  
BRANCH   9  10
HETATM   10  N   UNL     1     -10.849  15.498  68.561  1.00  0.00    -0.260 N  
HETATM   11  C   UNL     1     -11.374  16.378  69.690  1.00  0.00    -0.187 C  
HETATM   12  C   UNL     1     -10.498  16.431  67.412  1.00  0.00    -0.309 C  
BRANCH  10  13
HETATM   13  C   UNL     1     -11.980  14.458  68.096  1.00  0.00    -0.285 C  
HETATM   14  C   UNL     1     -12.017  13.157  68.921  1.00  0.00    -0.317 A  
HETATM   15  C   UNL     1     -11.761  12.045  68.087  1.00  0.00    -0.398 A  
HETATM   16  C   UNL     1     -11.645  12.490  66.719  1.00  0.00    -0.446 A  
HETATM   17  C   UNL     1     -11.683  10.759  68.602  1.00  0.00    -0.289 A  
HETATM   18  C   UNL     1     -11.791  13.895  66.668  1.00  0.00    -0.447 A  
HETATM   19  C   UNL     1     -11.871  10.576  69.971  1.00  0.00    -0.388 A  
HETATM   20  C   UNL     1     -12.162  11.668  70.799  1.00  0.00    -0.443 A  
HETATM   21  C   UNL     1     -11.795  14.539  65.434  1.00  0.00    -0.344 A  
HETATM   22  C   UNL     1     -11.601  13.779  64.272  1.00  0.00    -0.395 A  
HETATM   23  C   UNL     1     -12.259  12.961  70.276  1.00  0.00    -0.362 A  
HETATM   24  C   UNL     1     -11.448  12.391  64.337  1.00  0.00    -0.408 A  
HETATM   25  C   UNL     1     -11.478  11.733  65.566  1.00  0.00    -0.241 A  
ENDBRANCH  10  13
ENDBRANCH   9  10
ENDBRANCH   8   9
ENDBRANCH   7   8
ENDBRANCH   6   7
ENDBRANCH   5   6
ENDBRANCH   4   5
ENDBRANCH   2   4
BRANCH   2  26
HETATM   26  C   UNL     1      -7.600   7.434  67.238  1.00  0.00    -0.108 C  
HETATM   27  C   UNL     1     -10.125   6.577  69.827  1.00  0.00    -0.207 A  
HETATM   28  C   UNL     1      -8.162   6.083  66.748  1.00  0.00    -0.106 A  
HETATM   29  C   UNL     1      -9.995   7.595  70.766  1.00  0.00    -0.181 A  
HETATM   30  C   UNL     1      -9.160   5.633  67.645  1.00  0.00    -0.106 A  
HETATM   31  C   UNL     1      -9.257   6.562  68.747  1.00  0.00    -0.131 A  
HETATM   32  C   UNL     1      -9.824   4.431  67.442  1.00  0.00    -0.193 A  
HETATM   33  C   UNL     1      -8.966   8.544  70.668  1.00  0.00    -0.182 A  
HETATM   34  C   UNL     1      -7.800   5.283  65.666  1.00  0.00    -0.100 A  
HETATM   35  C   UNL     1      -8.270   7.560  68.601  1.00  0.00    -0.129 A  
HETATM   36  C   UNL     1      -9.493   3.662  66.326  1.00  0.00    -0.177 A  
HETATM   37  C   UNL     1      -8.062   8.508  69.598  1.00  0.00    -0.113 A  
HETATM   38  C   UNL     1      -8.491   4.084  65.445  1.00  0.00    -0.109 A  
ENDBRANCH   2  26
TORSDOF 9
ENDMDL
MODEL      140
REMARK 921   NORMALIZED FREE ENERGY PREDICTED BY IDOCK:   -5.57 KCAL/MOL
REMARK 922        TOTAL FREE ENERGY PREDICTED BY IDOCK:  -10.26 KCAL/MOL
REMARK 923 INTER-LIGAND FREE ENERGY PREDICTED BY IDOCK:   -9.16 KCAL/MOL
REMARK 924 INTRA-LIGAND FREE ENERGY PREDICTED BY IDOCK:   -1.10 KCAL/MOL
REMARK 927      BINDING AFFINITY PREDICTED BY RF-SCORE:    0.00 PKD
ROOT
HETATM    1  C   UNL     1     -11.026   6.474  67.004  1.00  0.00    -0.396 C  
HETATM    2  N   UNL     1      -9.507   6.509  67.134  1.00  0.00    -0.127 N  
HETATM    3  C   UNL     1      -8.931   5.197  66.608  1.00  0.00    -0.115 C  
ENDROOT
BRANCH   2   4
HETATM    4  C   UNL     1      -8.972   7.699  66.365  1.00  0.00    -0.167 C  
BRANCH   4   5
HETATM    5  C   UNL     1      -9.940   8.863  66.156  1.00  0.00    -0.290 C  
BRANCH   5   6
HETATM    6  C   UNL     1      -9.144  10.171  66.061  1.00  0.00    -0.185 C  
BRANCH   6   7
HETATM    7  C   UNL     1      -9.790  11.356  66.803  1.00  0.00    -0.232 C  
BRANCH   7   8
HETATM    8  C   UNL     1      -8.869  12.576  66.955  1.00  0.00    -0.212 C  
BRANCH   8   9
HETATM    9  C   UNL     1      -9.480  13.521  67.990  1.00  0.00    -0.220 C  
BRANCH   9  10
HETATM   10  N   UNL     1      -9.910  14.880  67.462  1.00  0.00    -0.217 N  
HETATM   11  C   UNL     1      -9.237  15.194  66.130  1.00  0.00    -0.283 C  
HETATM   12  C   UNL     1     -11.410  14.948  67.215  1.00  0.00    -0.349 C  
BRANCH  10  13
HETATM   13  C   UNL     1      -9.487  15.965  68.567  1.00  0.00    -0.209 C  
HETATM   14  C   UNL     1      -9.631  17.427  68.101  1.00  0.00    -0.287 A  
HETATM   15  C   UNL     1      -8.373  18.071  68.122  1.00  0.00    -0.273 A  
HETATM   16  C   UNL     1      -7.385  17.171  68.667  1.00  0.00    -0.238 A  
HETATM   17  C   UNL     1      -8.224  19.381  67.692  1.00  0.00    -0.329 A  
HETATM   18  C   UNL     1      -7.993  15.930  68.967  1.00  0.00    -0.222 A  
HETATM   19  C   UNL     1      -9.351  20.066  67.239  1.00  0.00    -0.496 A  
HETATM   20  C   UNL     1     -10.608  19.448  67.249  1.00  0.00    -0.599 A  
HETATM   21  C   UNL     1      -7.245  14.931  69.580  1.00  0.00    -0.184 A  
HETATM   22  C   UNL     1      -5.887  15.161  69.837  1.00  0.00    -0.130 A  
HETATM   23  C   UNL     1     -10.759  18.134  67.701  1.00  0.00    -0.364 A  
HETATM   24  C   UNL     1      -5.294  16.389  69.527  1.00  0.00    -0.133 A  
HETATM   25  C   UNL     1      -6.045  17.410  68.945  1.00  0.00    -0.189 A  
ENDBRANCH  10  13
ENDBRANCH   9  10
ENDBRANCH   8   9
ENDBRANCH   7   8
ENDBRANCH   6   7
ENDBRANCH   5   6
ENDBRANCH   4   5
ENDBRANCH   2   4
BRANCH   2  26
HETATM   26  C   UNL     1      -9.078   6.703  68.676  1.00  0.00    -0.126 C  
HETATM   27  C   UNL     1      -8.203  10.138  69.795  1.00  0.00    -0.161 A  
HETATM   28  C   UNL     1     -10.240   7.073  69.623  1.00  0.00    -0.212 A  
HETATM   29  C   UNL     1      -6.961  10.369  69.213  1.00  0.00    -0.080 A  
HETATM   30  C   UNL     1     -10.045   8.382  70.124  1.00  0.00    -0.193 A  
HETATM   31  C   UNL     1      -8.787   8.893  69.629  1.00  0.00    -0.142 A  
HETATM   32  C   UNL     1     -10.944   8.958  71.010  1.00  0.00    -0.341 A  
HETATM   33  C   UNL     1      -6.277   9.349  68.535  1.00  0.00    -0.048 A  
HETATM   34  C   UNL     1     -11.330   6.325  70.064  1.00  0.00    -0.486 A  
HETATM   35  C   UNL     1      -8.139   7.886  68.881  1.00  0.00    -0.125 A  
HETATM   36  C   UNL     1     -12.062   8.221  71.403  1.00  0.00    -0.331 A  
HETATM   37  C   UNL     1      -6.848   8.076  68.400  1.00  0.00    -0.068 A  
HETATM   38  C   UNL     1     -12.255   6.917  70.934  1.00  0.00    -0.404 A  
ENDBRANCH   2  26
TORSDOF 9
ENDMDL
MODEL      141
REMARK 921   NORMALIZED FREE ENERGY PREDICTED BY IDOCK:   -5.56 KCAL/MOL
REMARK 922        TOTAL FREE ENERGY PREDICTED BY IDOCK:  -10.25 KCAL/MOL
REMARK 923 INTER-LIGAND FREE ENERGY PREDICTED BY IDOCK:  -10.09 KCAL/MOL
REMARK 924 INTRA-LIGAND FREE ENERGY PREDICTED BY IDOCK:   -0.16 KCAL/MOL
REMARK 927      BINDING AFFINITY PREDICTED BY RF-SCORE:    0.00 PKD
ROOT
HETATM    1  C   UNL     1     -11.741  16.010  64.500  1.00  0.00    -0.127 C  
HETATM    2  N   UNL     1     -11.306  14.984  65.541  1.00  0.00    -0.338 N  
HETATM    3  C   UNL     1     -12.510  14.135  65.939  1.00  0.00    -0.453 C  
ENDROOT
BRANCH   2   4
HETATM    4  C   UNL     1     -10.193  14.135  64.962  1.00  0.00    -0.370 C  
BRANCH   4   5
HETATM    5  C   UNL     1     -10.613  12.810  64.325  1.00  0.00    -0.424 C  
BRANCH   5   6
HETATM    6  C   UNL     1      -9.952  11.653  65.085  1.00  0.00    -0.297 C  
BRANCH   6   7
HETATM    7  C   UNL     1     -10.729  11.195  66.334  1.00  0.00    -0.303 C  
BRANCH   7   8
HETATM    8  C   UNL     1     -10.000  10.131  67.169  1.00  0.00    -0.243 C  
BRANCH   8   9
HETATM    9  C   UNL     1     -11.036   9.369  67.996  1.00  0.00    -0.059 C  
BRANCH   9  10
HETATM   10  N   UNL     1     -10.554   8.869  69.348  1.00  0.00    -0.229 N  
HETATM   11  C   UNL     1      -9.032   8.765  69.389  1.00  0.00    -0.145 C  
HETATM   12  C   UNL     1     -10.954   9.805  70.478  1.00  0.00    -0.321 C  
BRANCH  10  13
HETATM   13  C   UNL     1     -11.215   7.423  69.574  1.00  0.00     0.008 C  
HETATM   14  C   UNL     1     -10.888   6.788  70.940  1.00  0.00    -0.289 A  
HETATM   15  C   UNL     1     -10.192   5.572  70.756  1.00  0.00    -0.302 A  
HETATM   16  C   UNL     1     -10.102   5.281  69.345  1.00  0.00    -0.311 A  
HETATM   17  C   UNL     1      -9.732   4.832  71.835  1.00  0.00    -0.219 A  
HETATM   18  C   UNL     1     -10.710   6.325  68.610  1.00  0.00    -0.357 A  
HETATM   19  C   UNL     1      -9.978   5.308  73.122  1.00  0.00    -0.189 A  
HETATM   20  C   UNL     1     -10.700   6.493  73.314  1.00  0.00    -0.300 A  
HETATM   21  C   UNL     1     -10.813   6.219  67.227  1.00  0.00    -0.457 A  
HETATM   22  C   UNL     1     -10.262   5.099  66.589  1.00  0.00    -0.297 A  
HETATM   23  C   UNL     1     -11.179   7.227  72.226  1.00  0.00    -0.305 A  
HETATM   24  C   UNL     1      -9.654   4.077  67.326  1.00  0.00    -0.229 A  
HETATM   25  C   UNL     1      -9.578   4.158  68.716  1.00  0.00    -0.210 A  
ENDBRANCH  10  13
ENDBRANCH   9  10
ENDBRANCH   8   9
ENDBRANCH   7   8
ENDBRANCH   6   7
ENDBRANCH   5   6
ENDBRANCH   4   5
ENDBRANCH   2   4
BRANCH   2  26
HETATM   26  C   UNL     1     -10.714  15.724  66.846  1.00  0.00    -0.299 C  
HETATM   27  C   UNL     1      -7.096  15.285  67.577  1.00  0.00    -0.224 A  
HETATM   28  C   UNL     1     -10.128  17.127  66.578  1.00  0.00    -0.313 A  
HETATM   29  C   UNL     1      -7.008  13.975  68.033  1.00  0.00    -0.147 A  
HETATM   30  C   UNL     1      -8.732  17.107  66.807  1.00  0.00    -0.270 A  
HETATM   31  C   UNL     1      -8.350  15.797  67.281  1.00  0.00    -0.213 A  
HETATM   32  C   UNL     1      -7.958  18.248  66.648  1.00  0.00    -0.273 A  
HETATM   33  C   UNL     1      -8.159  13.207  68.262  1.00  0.00    -0.152 A  
HETATM   34  C   UNL     1     -10.751  18.324  66.233  1.00  0.00    -0.182 A  
HETATM   35  C   UNL     1      -9.507  15.003  67.434  1.00  0.00    -0.202 A  
HETATM   36  C   UNL     1      -8.582  19.431  66.249  1.00  0.00    -0.360 A  
HETATM   37  C   UNL     1      -9.431  13.735  68.001  1.00  0.00    -0.207 A  
HETATM   38  C   UNL     1      -9.966  19.469  66.043  1.00  0.00    -0.477 A  
ENDBRANCH   2  26
TORSDOF 9
ENDMDL
MODEL      142
REMARK 921   NORMALIZED FREE ENERGY PREDICTED BY IDOCK:   -5.54 KCAL/MOL
REMARK 922        TOTAL FREE ENERGY PREDICTED BY IDOCK:  -10.22 KCAL/MOL
REMARK 923 INTER-LIGAND FREE ENERGY PREDICTED BY IDOCK:   -8.82 KCAL/MOL
REMARK 924 INTRA-LIGAND FREE ENERGY PREDICTED BY IDOCK:   -1.40 KCAL/MOL
REMARK 927      BINDING AFFINITY PREDICTED BY RF-SCORE:    0.00 PKD
ROOT
HETATM    1  C   UNL     1     -13.072   7.579  71.645  1.00  0.00    -0.358 C  
HETATM    2  N   UNL     1     -11.658   7.535  71.075  1.00  0.00    -0.279 N  
HETATM    3  C   UNL     1     -11.560   6.388  70.072  1.00  0.00    -0.377 C  
ENDROOT
BRANCH   2   4
HETATM    4  C   UNL     1     -11.344   8.868  70.428  1.00  0.00    -0.202 C  
BRANCH   4   5
HETATM    5  C   UNL     1     -12.052  10.089  71.013  1.00  0.00    -0.469 C  
BRANCH   5   6
HETATM    6  C   UNL     1     -11.995  11.239  69.998  1.00  0.00    -0.447 C  
BRANCH   6   7
HETATM    7  C   UNL     1     -12.263  12.628  70.606  1.00  0.00    -0.373 C  
BRANCH   7   8
HETATM    8  C   UNL     1     -11.898  13.798  69.679  1.00  0.00    -0.393 C  
BRANCH   8   9
HETATM    9  C   UNL     1     -11.894  13.292  68.236  1.00  0.00    -0.354 C  
BRANCH   9  10
HETATM   10  N   UNL     1     -11.332  14.259  67.205  1.00  0.00    -0.318 N  
HETATM   11  C   UNL     1     -12.211  14.312  65.960  1.00  0.00    -0.404 C  
HETATM   12  C   UNL     1     -11.253  15.680  67.741  1.00  0.00    -0.297 C  
BRANCH  10  13
HETATM   13  C   UNL     1      -9.863  13.734  66.825  1.00  0.00    -0.275 C  
HETATM   14  C   UNL     1      -9.642  12.232  67.091  1.00  0.00    -0.200 A  
HETATM   15  C   UNL     1      -8.608  12.053  68.037  1.00  0.00    -0.170 A  
HETATM   16  C   UNL     1      -8.035  13.336  68.368  1.00  0.00    -0.132 A  
HETATM   17  C   UNL     1      -8.254  10.791  68.491  1.00  0.00    -0.136 A  
HETATM   18  C   UNL     1      -8.720  14.352  67.664  1.00  0.00    -0.191 A  
HETATM   19  C   UNL     1      -8.938   9.686  67.988  1.00  0.00    -0.122 A  
HETATM   20  C   UNL     1      -9.940   9.851  67.022  1.00  0.00    -0.254 A  
HETATM   21  C   UNL     1      -8.285  15.670  67.766  1.00  0.00    -0.155 A  
HETATM   22  C   UNL     1      -7.206  15.964  68.611  1.00  0.00    -0.139 A  
HETATM   23  C   UNL     1     -10.282  11.122  66.552  1.00  0.00    -0.275 A  
HETATM   24  C   UNL     1      -6.542  14.951  69.310  1.00  0.00    -0.131 A  
HETATM   25  C   UNL     1      -6.949  13.623  69.186  1.00  0.00    -0.070 A  
ENDBRANCH  10  13
ENDBRANCH   9  10
ENDBRANCH   8   9
ENDBRANCH   7   8
ENDBRANCH   6   7
ENDBRANCH   5   6
ENDBRANCH   4   5
ENDBRANCH   2   4
BRANCH   2  26
HETATM   26  C   UNL     1     -10.583   7.309  72.255  1.00  0.00    -0.224 C  
HETATM   27  C   UNL     1      -8.922   3.990  72.455  1.00  0.00    -0.133 A  
HETATM   28  C   UNL     1      -9.123   7.621  71.862  1.00  0.00    -0.158 A  
HETATM   29  C   UNL     1      -9.922   3.148  72.932  1.00  0.00    -0.206 A  
HETATM   30  C   UNL     1      -8.363   6.428  71.882  1.00  0.00    -0.116 A  
HETATM   31  C   UNL     1      -9.202   5.342  72.333  1.00  0.00    -0.154 A  
HETATM   32  C   UNL     1      -7.009   6.429  71.575  1.00  0.00    -0.076 A  
HETATM   33  C   UNL     1     -11.160   3.658  73.352  1.00  0.00    -0.297 A  
HETATM   34  C   UNL     1      -8.495   8.832  71.577  1.00  0.00    -0.230 A  
HETATM   35  C   UNL     1     -10.472   5.849  72.679  1.00  0.00    -0.237 A  
HETATM   36  C   UNL     1      -6.400   7.638  71.238  1.00  0.00    -0.035 A  
HETATM   37  C   UNL     1     -11.431   5.030  73.267  1.00  0.00    -0.339 A  
HETATM   38  C   UNL     1      -7.135   8.829  71.238  1.00  0.00    -0.096 A  
ENDBRANCH   2  26
TORSDOF 9
ENDMDL
MODEL      143
REMARK 921   NORMALIZED FREE ENERGY PREDICTED BY IDOCK:   -5.54 KCAL/MOL
REMARK 922        TOTAL FREE ENERGY PREDICTED BY IDOCK:  -10.22 KCAL/MOL
REMARK 923 INTER-LIGAND FREE ENERGY PREDICTED BY IDOCK:   -8.49 KCAL/MOL
REMARK 924 INTRA-LIGAND FREE ENERGY PREDICTED BY IDOCK:   -1.73 KCAL/MOL
REMARK 927      BINDING AFFINITY PREDICTED BY RF-SCORE:    0.00 PKD
ROOT
HETATM    1  C   UNL     1     -11.789  11.532  67.638  1.00  0.00    -0.118 C  
HETATM    2  N   UNL     1     -10.401  10.934  67.837  1.00  0.00    -0.180 N  
HETATM    3  C   UNL     1     -10.411   9.481  67.368  1.00  0.00    -0.272 C  
ENDROOT
BRANCH   2   4
HETATM    4  C   UNL     1      -9.390  11.759  67.068  1.00  0.00    -0.184 C  
BRANCH   4   5
HETATM    5  C   UNL     1      -9.897  12.437  65.795  1.00  0.00    -0.253 C  
BRANCH   5   6
HETATM    6  C   UNL     1      -9.727  13.956  65.930  1.00  0.00    -0.237 C  
BRANCH   6   7
HETATM    7  C   UNL     1     -10.666  14.776  65.027  1.00  0.00    -0.452 C  
BRANCH   7   8
HETATM    8  C   UNL     1     -10.678  16.281  65.340  1.00  0.00    -0.342 C  
BRANCH   8   9
HETATM    9  C   UNL     1      -9.354  16.649  66.008  1.00  0.00    -0.235 C  
BRANCH   9  10
HETATM   10  N   UNL     1      -9.367  17.933  66.823  1.00  0.00    -0.267 N  
HETATM   11  C   UNL     1      -8.227  18.860  66.413  1.00  0.00    -0.294 C  
HETATM   12  C   UNL     1     -10.655  18.718  66.628  1.00  0.00    -0.383 C  
BRANCH  10  13
HETATM   13  C   UNL     1      -9.211  17.509  68.364  1.00  0.00    -0.279 C  
HETATM   14  C   UNL     1      -7.900  16.763  68.682  1.00  0.00    -0.241 A  
HETATM   15  C   UNL     1      -8.185  15.467  69.169  1.00  0.00    -0.247 A  
HETATM   16  C   UNL     1      -9.614  15.308  69.297  1.00  0.00    -0.249 A  
HETATM   17  C   UNL     1      -7.171  14.572  69.476  1.00  0.00    -0.095 A  
HETATM   18  C   UNL     1     -10.260  16.487  68.861  1.00  0.00    -0.268 A  
HETATM   19  C   UNL     1      -5.849  14.977  69.301  1.00  0.00    -0.103 A  
HETATM   20  C   UNL     1      -5.557  16.273  68.854  1.00  0.00    -0.117 A  
HETATM   21  C   UNL     1     -11.642  16.592  68.971  1.00  0.00    -0.027 A  
HETATM   22  C   UNL     1     -12.368  15.499  69.464  1.00  0.00    -0.184 A  
HETATM   23  C   UNL     1      -6.580  17.180  68.564  1.00  0.00    -0.167 A  
HETATM   24  C   UNL     1     -11.719  14.333  69.883  1.00  0.00    -0.373 A  
HETATM   25  C   UNL     1     -10.330  14.233  69.810  1.00  0.00     0.285 A  
ENDBRANCH  10  13
ENDBRANCH   9  10
ENDBRANCH   8   9
ENDBRANCH   7   8
ENDBRANCH   6   7
ENDBRANCH   5   6
ENDBRANCH   4   5
ENDBRANCH   2   4
BRANCH   2  26
HETATM   26  C   UNL     1      -9.982  10.992  69.393  1.00  0.00     0.011 C  
HETATM   27  C   UNL     1     -11.464   8.454  71.668  1.00  0.00    -0.349 A  
HETATM   28  C   UNL     1      -8.774  10.106  69.767  1.00  0.00    -0.148 A  
HETATM   29  C   UNL     1     -12.786   8.862  71.802  1.00  0.00    -0.419 A  
HETATM   30  C   UNL     1      -9.198   9.070  70.634  1.00  0.00    -0.279 A  
HETATM   31  C   UNL     1     -10.602   9.244  70.925  1.00  0.00    -0.366 A  
HETATM   32  C   UNL     1      -8.303   8.134  71.130  1.00  0.00    -0.134 A  
HETATM   33  C   UNL     1     -13.227  10.081  71.264  1.00  0.00    -0.469 A  
HETATM   34  C   UNL     1      -7.424  10.220  69.442  1.00  0.00    -0.128 A  
HETATM   35  C   UNL     1     -11.059  10.432  70.314  1.00  0.00    -0.379 A  
HETATM   36  C   UNL     1      -6.961   8.223  70.756  1.00  0.00    -0.043 A  
HETATM   37  C   UNL     1     -12.348  10.902  70.546  1.00  0.00    -0.463 A  
HETATM   38  C   UNL     1      -6.526   9.256  69.919  1.00  0.00    -0.044 A  
ENDBRANCH   2  26
TORSDOF 9
ENDMDL
MODEL      144
REMARK 921   NORMALIZED FREE ENERGY PREDICTED BY IDOCK:   -5.53 KCAL/MOL
REMARK 922        TOTAL FREE ENERGY PREDICTED BY IDOCK:  -10.20 KCAL/MOL
REMARK 923 INTER-LIGAND FREE ENERGY PREDICTED BY IDOCK:   -8.73 KCAL/MOL
REMARK 924 INTRA-LIGAND FREE ENERGY PREDICTED BY IDOCK:   -1.47 KCAL/MOL
REMARK 927      BINDING AFFINITY PREDICTED BY RF-SCORE:    0.00 PKD
ROOT
HETATM    1  C   UNL     1     -12.760   9.206  72.681  1.00  0.00    -0.184 C  
HETATM    2  N   UNL     1     -12.559   8.755  71.238  1.00  0.00    -0.284 N  
HETATM    3  C   UNL     1     -13.555   7.643  70.920  1.00  0.00     0.153 C  
ENDROOT
BRANCH   2   4
HETATM    4  C   UNL     1     -12.741   9.944  70.318  1.00  0.00     0.130 C  
BRANCH   4   5
HETATM    5  C   UNL     1     -11.641  11.004  70.355  1.00  0.00    -0.389 C  
BRANCH   5   6
HETATM    6  C   UNL     1     -12.283  12.398  70.370  1.00  0.00    -0.370 C  
BRANCH   6   7
HETATM    7  C   UNL     1     -11.479  13.469  69.610  1.00  0.00    -0.283 C  
BRANCH   7   8
HETATM    8  C   UNL     1     -12.109  13.893  68.274  1.00  0.00    -0.322 C  
BRANCH   8   9
HETATM    9  C   UNL     1     -11.904  12.767  67.260  1.00  0.00    -0.350 C  
BRANCH   9  10
HETATM   10  N   UNL     1     -11.496  13.209  65.864  1.00  0.00    -0.322 N  
HETATM   11  C   UNL     1     -11.963  12.212  64.809  1.00  0.00    -0.307 C  
HETATM   12  C   UNL     1     -12.105  14.552  65.491  1.00  0.00    -0.299 C  
BRANCH  10  13
HETATM   13  C   UNL     1      -9.894  13.314  65.858  1.00  0.00    -0.231 C  
HETATM   14  C   UNL     1      -9.184  12.157  66.587  1.00  0.00    -0.206 A  
HETATM   15  C   UNL     1      -8.429  12.656  67.672  1.00  0.00    -0.173 A  
HETATM   16  C   UNL     1      -8.496  14.098  67.678  1.00  0.00    -0.189 A  
HETATM   17  C   UNL     1      -7.739  11.807  68.525  1.00  0.00    -0.137 A  
HETATM   18  C   UNL     1      -9.323  14.534  66.617  1.00  0.00    -0.301 A  
HETATM   19  C   UNL     1      -7.798  10.434  68.289  1.00  0.00    -0.105 A  
HETATM   20  C   UNL     1      -8.513   9.933  67.193  1.00  0.00    -0.121 A  
HETATM   21  C   UNL     1      -9.470  15.897  66.379  1.00  0.00    -0.324 A  
HETATM   22  C   UNL     1      -8.833  16.808  67.233  1.00  0.00    -0.216 A  
HETATM   23  C   UNL     1      -9.192  10.792  66.324  1.00  0.00    -0.195 A  
HETATM   24  C   UNL     1      -8.025  16.364  68.285  1.00  0.00    -0.170 A  
HETATM   25  C   UNL     1      -7.844  14.999  68.509  1.00  0.00    -0.137 A  
ENDBRANCH  10  13
ENDBRANCH   9  10
ENDBRANCH   8   9
ENDBRANCH   7   8
ENDBRANCH   6   7
ENDBRANCH   5   6
ENDBRANCH   4   5
ENDBRANCH   2   4
BRANCH   2  26
HETATM   26  C   UNL     1     -11.058   8.208  71.024  1.00  0.00    -0.253 C  
HETATM   27  C   UNL     1     -10.309   4.751  72.166  1.00  0.00    -0.256 A  
HETATM   28  C   UNL     1     -10.837   7.440  69.703  1.00  0.00    -0.222 A  
HETATM   29  C   UNL     1     -10.286   4.858  73.552  1.00  0.00    -0.246 A  
HETATM   30  C   UNL     1     -10.551   6.084  69.986  1.00  0.00    -0.340 A  
HETATM   31  C   UNL     1     -10.495   5.903  71.418  1.00  0.00    -0.291 A  
HETATM   32  C   UNL     1     -10.300   5.171  68.971  1.00  0.00    -0.205 A  
HETATM   33  C   UNL     1     -10.374   6.108  74.185  1.00  0.00    -0.308 A  
HETATM   34  C   UNL     1     -10.818   7.885  68.382  1.00  0.00     0.025 A  
HETATM   35  C   UNL     1     -10.663   7.153  72.052  1.00  0.00    -0.243 A  
HETATM   36  C   UNL     1     -10.337   5.614  67.648  1.00  0.00    -0.266 A  
HETATM   37  C   UNL     1     -10.522   7.279  73.430  1.00  0.00    -0.423 A  
HETATM   38  C   UNL     1     -10.595   6.957  67.356  1.00  0.00    -0.373 A  
ENDBRANCH   2  26
TORSDOF 9
ENDMDL
MODEL      145
REMARK 921   NORMALIZED FREE ENERGY PREDICTED BY IDOCK:   -5.51 KCAL/MOL
REMARK 922        TOTAL FREE ENERGY PREDICTED BY IDOCK:  -10.17 KCAL/MOL
REMARK 923 INTER-LIGAND FREE ENERGY PREDICTED BY IDOCK:  -10.46 KCAL/MOL
REMARK 924 INTRA-LIGAND FREE ENERGY PREDICTED BY IDOCK:    0.29 KCAL/MOL
REMARK 927      BINDING AFFINITY PREDICTED BY RF-SCORE:    0.00 PKD
ROOT
HETATM    1  C   UNL     1      -9.027  15.158  69.294  1.00  0.00    -0.202 C  
HETATM    2  N   UNL     1      -9.433  14.214  68.167  1.00  0.00    -0.207 N  
HETATM    3  C   UNL     1      -8.650  12.911  68.300  1.00  0.00    -0.170 C  
ENDROOT
BRANCH   2   4
HETATM    4  C   UNL     1     -10.927  13.974  68.237  1.00  0.00    -0.255 C  
BRANCH   4   5
HETATM    5  C   UNL     1     -11.452  13.335  69.522  1.00  0.00    -0.299 C  
BRANCH   5   6
HETATM    6  C   UNL     1     -11.849  11.881  69.237  1.00  0.00    -0.379 C  
BRANCH   6   7
HETATM    7  C   UNL     1     -11.836  10.970  70.479  1.00  0.00    -0.464 C  
BRANCH   7   8
HETATM    8  C   UNL     1     -10.648   9.998  70.530  1.00  0.00    -0.313 C  
BRANCH   8   9
HETATM    9  C   UNL     1     -11.177   8.574  70.363  1.00  0.00    -0.211 C  
BRANCH   9  10
HETATM   10  N   UNL     1     -10.794   7.600  71.466  1.00  0.00    -0.226 N  
HETATM   11  C   UNL     1      -9.308   7.692  71.794  1.00  0.00    -0.145 C  
HETATM   12  C   UNL     1     -11.541   7.883  72.761  1.00  0.00    -0.329 C  
BRANCH  10  13
HETATM   13  C   UNL     1     -11.155   6.128  70.936  1.00  0.00    -0.307 C  
HETATM   14  C   UNL     1     -10.417   4.994  71.673  1.00  0.00    -0.232 A  
HETATM   15  C   UNL     1      -9.609   4.271  70.767  1.00  0.00    -0.256 A  
HETATM   16  C   UNL     1      -9.820   4.775  69.431  1.00  0.00    -0.282 A  
HETATM   17  C   UNL     1      -8.797   3.230  71.194  1.00  0.00    -0.139 A  
HETATM   18  C   UNL     1     -10.738   5.849  69.473  1.00  0.00    -0.414 A  
HETATM   19  C   UNL     1      -8.793   2.901  72.548  1.00  0.00    -0.101 A  
HETATM   20  C   UNL     1      -9.618   3.589  73.448  1.00  0.00    -0.140 A  
HETATM   21  C   UNL     1     -11.154   6.441  68.285  1.00  0.00    -0.359 A  
HETATM   22  C   UNL     1     -10.611   5.990  67.075  1.00  0.00    -0.385 A  
HETATM   23  C   UNL     1     -10.451   4.624  73.012  1.00  0.00    -0.258 A  
HETATM   24  C   UNL     1      -9.696   4.932  67.047  1.00  0.00    -0.193 A  
HETATM   25  C   UNL     1      -9.299   4.309  68.229  1.00  0.00    -0.207 A  
ENDBRANCH  10  13
ENDBRANCH   9  10
ENDBRANCH   8   9
ENDBRANCH   7   8
ENDBRANCH   6   7
ENDBRANCH   5   6
ENDBRANCH   4   5
ENDBRANCH   2   4
BRANCH   2  26
HETATM   26  C   UNL     1      -9.123  14.884  66.733  1.00  0.00    -0.270 C  
HETATM   27  C   UNL     1     -11.950  15.216  64.343  1.00  0.00    -0.321 A  
HETATM   28  C   UNL     1      -9.356  16.408  66.673  1.00  0.00    -0.282 A  
HETATM   29  C   UNL     1     -12.172  13.913  63.911  1.00  0.00    -0.375 A  
HETATM   30  C   UNL     1     -10.431  16.688  65.796  1.00  0.00    -0.324 A  
HETATM   31  C   UNL     1     -10.891  15.453  65.206  1.00  0.00    -0.423 A  
HETATM   32  C   UNL     1     -10.843  17.990  65.552  1.00  0.00     0.138 A  
HETATM   33  C   UNL     1     -11.306  12.870  64.275  1.00  0.00    -0.417 A  
HETATM   34  C   UNL     1      -8.663  17.461  67.268  1.00  0.00    -0.232 A  
HETATM   35  C   UNL     1     -10.064  14.394  65.639  1.00  0.00    -0.377 A  
HETATM   36  C   UNL     1     -10.179  19.036  66.195  1.00  0.00    -0.508 A  
HETATM   37  C   UNL     1     -10.212  13.114  65.115  1.00  0.00    -0.299 A  
HETATM   38  C   UNL     1      -9.099  18.774  67.046  1.00  0.00    -0.299 A  
ENDBRANCH   2  26
TORSDOF 9
ENDMDL
MODEL      146
REMARK 921   NORMALIZED FREE ENERGY PREDICTED BY IDOCK:   -5.49 KCAL/MOL
REMARK 922        TOTAL FREE ENERGY PREDICTED BY IDOCK:  -10.15 KCAL/MOL
REMARK 923 INTER-LIGAND FREE ENERGY PREDICTED BY IDOCK:   -8.93 KCAL/MOL
REMARK 924 INTRA-LIGAND FREE ENERGY PREDICTED BY IDOCK:   -1.22 KCAL/MOL
REMARK 927      BINDING AFFINITY PREDICTED BY RF-SCORE:    0.00 PKD
ROOT
HETATM    1  C   UNL     1      -5.519   7.550  71.094  1.00  0.00    -0.031 C  
HETATM    2  N   UNL     1      -6.799   7.167  71.829  1.00  0.00    -0.059 N  
HETATM    3  C   UNL     1      -6.577   7.321  73.332  1.00  0.00    -0.065 C  
ENDROOT
BRANCH   2   4
HETATM    4  C   UNL     1      -7.932   8.047  71.343  1.00  0.00    -0.102 C  
BRANCH   4   5
HETATM    5  C   UNL     1      -8.975   8.448  72.385  1.00  0.00    -0.309 C  
BRANCH   5   6
HETATM    6  C   UNL     1     -10.200   9.038  71.672  1.00  0.00    -0.418 C  
BRANCH   6   7
HETATM    7  C   UNL     1     -10.832   8.100  70.627  1.00  0.00    -0.246 C  
BRANCH   7   8
HETATM    8  C   UNL     1     -10.747   8.622  69.185  1.00  0.00    -0.136 C  
BRANCH   8   9
HETATM    9  C   UNL     1     -10.341  10.096  69.224  1.00  0.00    -0.223 C  
BRANCH   9  10
HETATM   10  N   UNL     1     -10.259  10.788  67.872  1.00  0.00    -0.170 N  
HETATM   11  C   UNL     1      -9.034  11.692  67.787  1.00  0.00    -0.170 C  
HETATM   12  C   UNL     1     -10.144   9.792  66.728  1.00  0.00    -0.231 C  
BRANCH  10  13
HETATM   13  C   UNL     1     -11.601  11.655  67.711  1.00  0.00    -0.289 C  
HETATM   14  C   UNL     1     -11.654  12.499  66.423  1.00  0.00    -0.449 A  
HETATM   15  C   UNL     1     -11.740  13.872  66.745  1.00  0.00    -0.423 A  
HETATM   16  C   UNL     1     -11.848  14.022  68.177  1.00  0.00    -0.402 A  
HETATM   17  C   UNL     1     -11.744  14.848  65.759  1.00  0.00    -0.179 A  
HETATM   18  C   UNL     1     -11.796  12.748  68.787  1.00  0.00    -0.346 A  
HETATM   19  C   UNL     1     -11.667  14.447  64.426  1.00  0.00    -0.390 A  
HETATM   20  C   UNL     1     -11.619  13.087  64.096  1.00  0.00    -0.462 A  
HETATM   21  C   UNL     1     -11.964  12.641  70.164  1.00  0.00    -0.375 A  
HETATM   22  C   UNL     1     -12.127  13.809  70.921  1.00  0.00    -0.366 A  
HETATM   23  C   UNL     1     -11.634  12.105  65.090  1.00  0.00    -0.372 A  
HETATM   24  C   UNL     1     -12.166  15.065  70.306  1.00  0.00    -0.390 A  
HETATM   25  C   UNL     1     -12.035  15.179  68.922  1.00  0.00    -0.284 A  
ENDBRANCH  10  13
ENDBRANCH   9  10
ENDBRANCH   8   9
ENDBRANCH   7   8
ENDBRANCH   6   7
ENDBRANCH   5   6
ENDBRANCH   4   5
ENDBRANCH   2   4
BRANCH   2  26
HETATM   26  C   UNL     1      -7.203   5.641  71.499  1.00  0.00    -0.081 C  
HETATM   27  C   UNL     1     -10.593   4.503  72.512  1.00  0.00    -0.225 A  
HETATM   28  C   UNL     1      -7.927   5.447  70.150  1.00  0.00    -0.085 A  
HETATM   29  C   UNL     1     -10.504   4.391  73.896  1.00  0.00    -0.296 A  
HETATM   30  C   UNL     1      -9.256   5.020  70.384  1.00  0.00    -0.198 A  
HETATM   31  C   UNL     1      -9.452   4.846  71.804  1.00  0.00    -0.199 A  
HETATM   32  C   UNL     1     -10.126   4.760  69.334  1.00  0.00    -0.241 A  
HETATM   33  C   UNL     1      -9.278   4.546  74.559  1.00  0.00    -0.120 A  
HETATM   34  C   UNL     1      -7.463   5.563  68.841  1.00  0.00    -0.082 A  
HETATM   35  C   UNL     1      -8.232   5.081  72.474  1.00  0.00    -0.116 A  
HETATM   36  C   UNL     1      -9.669   4.932  68.027  1.00  0.00    -0.202 A  
HETATM   37  C   UNL     1      -8.114   4.854  73.842  1.00  0.00    -0.105 A  
HETATM   38  C   UNL     1      -8.350   5.331  67.782  1.00  0.00    -0.098 A  
ENDBRANCH   2  26
TORSDOF 9
ENDMDL
MODEL      147
REMARK 921   NORMALIZED FREE ENERGY PREDICTED BY IDOCK:   -5.48 KCAL/MOL
REMARK 922        TOTAL FREE ENERGY PREDICTED BY IDOCK:  -10.13 KCAL/MOL
REMARK 923 INTER-LIGAND FREE ENERGY PREDICTED BY IDOCK:   -9.25 KCAL/MOL
REMARK 924 INTRA-LIGAND FREE ENERGY PREDICTED BY IDOCK:   -0.88 KCAL/MOL
REMARK 927      BINDING AFFINITY PREDICTED BY RF-SCORE:    0.00 PKD
ROOT
HETATM    1  C   UNL     1      -8.439  11.888  66.683  1.00  0.00    -0.143 C  
HETATM    2  N   UNL     1      -9.171  10.652  66.172  1.00  0.00    -0.167 N  
HETATM    3  C   UNL     1      -8.744  10.378  64.732  1.00  0.00    -0.186 C  
ENDROOT
BRANCH   2   4
HETATM    4  C   UNL     1      -8.854   9.479  67.077  1.00  0.00    -0.127 C  
BRANCH   4   5
HETATM    5  C   UNL     1      -7.803   9.723  68.160  1.00  0.00    -0.085 C  
BRANCH   5   6
HETATM    6  C   UNL     1      -6.955   8.455  68.334  1.00  0.00    -0.069 C  
BRANCH   6   7
HETATM    7  C   UNL     1      -7.326   7.314  67.370  1.00  0.00    -0.092 C  
BRANCH   7   8
HETATM    8  C   UNL     1      -7.552   5.960  68.061  1.00  0.00    -0.089 C  
BRANCH   8   9
HETATM    9  C   UNL     1      -7.192   6.103  69.540  1.00  0.00    -0.078 C  
BRANCH   9  10
HETATM   10  N   UNL     1      -7.595   4.935  70.427  1.00  0.00    -0.058 N  
HETATM   11  C   UNL     1      -7.089   3.612  69.863  1.00  0.00    -0.042 C  
HETATM   12  C   UNL     1      -7.017   5.059  71.829  1.00  0.00    -0.057 C  
BRANCH  10  13
HETATM   13  C   UNL     1      -9.199   4.932  70.494  1.00  0.00    -0.142 C  
HETATM   14  C   UNL     1      -9.812   6.257  70.989  1.00  0.00    -0.206 A  
HETATM   15  C   UNL     1     -10.543   6.040  72.178  1.00  0.00    -0.256 A  
HETATM   16  C   UNL     1     -10.555   4.629  72.482  1.00  0.00    -0.243 A  
HETATM   17  C   UNL     1     -11.147   7.088  72.857  1.00  0.00    -0.314 A  
HETATM   18  C   UNL     1      -9.801   3.933  71.509  1.00  0.00    -0.247 A  
HETATM   19  C   UNL     1     -11.025   8.376  72.338  1.00  0.00    -0.425 A  
HETATM   20  C   UNL     1     -10.332   8.595  71.140  1.00  0.00    -0.294 A  
HETATM   21  C   UNL     1      -9.739   2.544  71.555  1.00  0.00    -0.222 A  
HETATM   22  C   UNL     1     -10.386   1.870  72.600  1.00  0.00    -0.226 A  
HETATM   23  C   UNL     1      -9.741   7.535  70.447  1.00  0.00    -0.179 A  
HETATM   24  C   UNL     1     -11.121   2.571  73.562  1.00  0.00    -0.315 A  
HETATM   25  C   UNL     1     -11.218   3.961  73.504  1.00  0.00    -0.312 A  
ENDBRANCH  10  13
ENDBRANCH   9  10
ENDBRANCH   8   9
ENDBRANCH   7   8
ENDBRANCH   6   7
ENDBRANCH   5   6
ENDBRANCH   4   5
ENDBRANCH   2   4
BRANCH   2  26
HETATM   26  C   UNL     1     -10.766  10.881  66.224  1.00  0.00    -0.176 C  
HETATM   27  C   UNL     1     -12.038  13.617  68.395  1.00  0.00    -0.312 A  
HETATM   28  C   UNL     1     -11.300  11.916  65.211  1.00  0.00    -0.333 A  
HETATM   29  C   UNL     1     -11.865  13.124  69.684  1.00  0.00    -0.390 A  
HETATM   30  C   UNL     1     -11.812  13.037  65.905  1.00  0.00    -0.468 A  
HETATM   31  C   UNL     1     -11.722  12.793  67.326  1.00  0.00    -0.440 A  
HETATM   32  C   UNL     1     -12.364  14.115  65.228  1.00  0.00    -0.469 A  
HETATM   33  C   UNL     1     -11.452  11.802  69.905  1.00  0.00    -0.285 A  
HETATM   34  C   UNL     1     -11.394  11.866  63.821  1.00  0.00    -0.532 A  
HETATM   35  C   UNL     1     -11.230  11.488  67.543  1.00  0.00    -0.360 A  
HETATM   36  C   UNL     1     -12.406  14.081  63.833  1.00  0.00    -0.280 A  
HETATM   37  C   UNL     1     -11.169  10.953  68.826  1.00  0.00    -0.329 A  
HETATM   38  C   UNL     1     -11.925  12.967  63.136  1.00  0.00    -0.299 A  
ENDBRANCH   2  26
TORSDOF 9
ENDMDL
MODEL      148
REMARK 921   NORMALIZED FREE ENERGY PREDICTED BY IDOCK:   -5.41 KCAL/MOL
REMARK 922        TOTAL FREE ENERGY PREDICTED BY IDOCK:  -10.02 KCAL/MOL
REMARK 923 INTER-LIGAND FREE ENERGY PREDICTED BY IDOCK:   -9.34 KCAL/MOL
REMARK 924 INTRA-LIGAND FREE ENERGY PREDICTED BY IDOCK:   -0.68 KCAL/MOL
REMARK 927      BINDING AFFINITY PREDICTED BY RF-SCORE:    0.00 PKD
ROOT
HETATM    1  C   UNL     1      -7.678   7.128  69.807  1.00  0.00    -0.108 C  
HETATM    2  N   UNL     1      -8.528   8.350  70.138  1.00  0.00    -0.122 N  
HETATM    3  C   UNL     1      -8.311   8.728  71.601  1.00  0.00    -0.125 C  
ENDROOT
BRANCH   2   4
HETATM    4  C   UNL     1      -8.148   9.484  69.209  1.00  0.00    -0.103 C  
BRANCH   4   5
HETATM    5  C   UNL     1      -6.727   9.455  68.649  1.00  0.00    -0.053 C  
BRANCH   5   6
HETATM    6  C   UNL     1      -6.069  10.823  68.871  1.00  0.00    -0.040 C  
BRANCH   6   7
HETATM    7  C   UNL     1      -7.068  11.987  69.006  1.00  0.00    -0.077 C  
BRANCH   7   8
HETATM    8  C   UNL     1      -6.408  13.373  69.075  1.00  0.00    -0.097 C  
BRANCH   8   9
HETATM    9  C   UNL     1      -6.580  14.061  67.720  1.00  0.00    -0.176 C  
BRANCH   9  10
HETATM   10  N   UNL     1      -6.877  15.550  67.775  1.00  0.00    -0.145 N  
HETATM   11  C   UNL     1      -7.223  15.993  69.193  1.00  0.00    -0.208 C  
HETATM   12  C   UNL     1      -5.684  16.387  67.340  1.00  0.00    -0.153 C  
BRANCH  10  13
HETATM   13  C   UNL     1      -8.119  15.815  66.793  1.00  0.00    -0.262 C  
HETATM   14  C   UNL     1      -8.684  17.247  66.863  1.00  0.00    -0.261 A  
HETATM   15  C   UNL     1     -10.033  17.218  67.284  1.00  0.00    -0.283 A  
HETATM   16  C   UNL     1     -10.463  15.846  67.414  1.00  0.00    -0.306 A  
HETATM   17  C   UNL     1     -10.754  18.386  67.481  1.00  0.00    -0.399 A  
HETATM   18  C   UNL     1      -9.384  14.984  67.113  1.00  0.00    -0.225 A  
HETATM   19  C   UNL     1     -10.122  19.607  67.250  1.00  0.00    -0.534 A  
HETATM   20  C   UNL     1      -8.796  19.644  66.797  1.00  0.00    -0.396 A  
HETATM   21  C   UNL     1      -9.590  13.609  67.096  1.00  0.00    -0.241 A  
HETATM   22  C   UNL     1     -10.856  13.108  67.431  1.00  0.00    -0.269 A  
HETATM   23  C   UNL     1      -8.077  18.465  66.580  1.00  0.00    -0.291 A  
HETATM   24  C   UNL     1     -11.913  13.971  67.737  1.00  0.00    -0.392 A  
HETATM   25  C   UNL     1     -11.725  15.352  67.722  1.00  0.00    -0.159 A  
ENDBRANCH  10  13
ENDBRANCH   9  10
ENDBRANCH   8   9
ENDBRANCH   7   8
ENDBRANCH   6   7
ENDBRANCH   5   6
ENDBRANCH   4   5
ENDBRANCH   2   4
BRANCH   2  26
HETATM   26  C   UNL     1     -10.090   8.031  69.892  1.00  0.00    -0.198 C  
HETATM   27  C   UNL     1     -11.988   6.482  72.687  1.00  0.00     0.003 A  
HETATM   28  C   UNL     1     -11.051   9.156  70.331  1.00  0.00    -0.293 A  
HETATM   29  C   UNL     1     -11.520   5.173  72.719  1.00  0.00    -0.284 A  
HETATM   30  C   UNL     1     -11.842   8.707  71.415  1.00  0.00    -0.352 A  
HETATM   31  C   UNL     1     -11.523   7.325  71.690  1.00  0.00    -0.297 A  
HETATM   32  C   UNL     1     -12.800   9.524  71.998  1.00  0.00    -0.499 A  
HETATM   33  C   UNL     1     -10.656   4.688  71.726  1.00  0.00    -0.078 A  
HETATM   34  C   UNL     1     -11.270  10.427  69.802  1.00  0.00    -0.353 A  
HETATM   35  C   UNL     1     -10.592   6.864  70.734  1.00  0.00    -0.245 A  
HETATM   36  C   UNL     1     -12.975  10.814  71.496  1.00  0.00    -0.562 A  
HETATM   37  C   UNL     1     -10.215   5.526  70.694  1.00  0.00    -0.308 A  
HETATM   38  C   UNL     1     -12.217  11.263  70.409  1.00  0.00    -0.453 A  
ENDBRANCH   2  26
TORSDOF 9
ENDMDL
MODEL      149
REMARK 921   NORMALIZED FREE ENERGY PREDICTED BY IDOCK:   -5.41 KCAL/MOL
REMARK 922        TOTAL FREE ENERGY PREDICTED BY IDOCK:  -10.02 KCAL/MOL
REMARK 923 INTER-LIGAND FREE ENERGY PREDICTED BY IDOCK:   -8.86 KCAL/MOL
REMARK 924 INTRA-LIGAND FREE ENERGY PREDICTED BY IDOCK:   -1.16 KCAL/MOL
REMARK 927      BINDING AFFINITY PREDICTED BY RF-SCORE:    0.00 PKD
ROOT
HETATM    1  C   UNL     1      -7.989  16.041  68.903  1.00  0.00    -0.212 C  
HETATM    2  N   UNL     1      -8.537  15.681  67.526  1.00  0.00    -0.166 N  
HETATM    3  C   UNL     1      -7.932  16.621  66.486  1.00  0.00    -0.307 C  
ENDROOT
BRANCH   2   4
HETATM    4  C   UNL     1      -8.207  14.233  67.225  1.00  0.00    -0.192 C  
BRANCH   4   5
HETATM    5  C   UNL     1      -7.707  13.394  68.400  1.00  0.00    -0.138 C  
BRANCH   5   6
HETATM    6  C   UNL     1      -6.784  12.287  67.872  1.00  0.00    -0.093 C  
BRANCH   6   7
HETATM    7  C   UNL     1      -7.483  10.931  67.663  1.00  0.00    -0.095 C  
BRANCH   7   8
HETATM    8  C   UNL     1      -6.586   9.716  67.943  1.00  0.00    -0.062 C  
BRANCH   8   9
HETATM    9  C   UNL     1      -7.032   9.074  69.257  1.00  0.00    -0.057 C  
BRANCH   9  10
HETATM   10  N   UNL     1      -7.130   7.557  69.245  1.00  0.00    -0.075 N  
HETATM   11  C   UNL     1      -7.133   7.015  67.819  1.00  0.00    -0.085 C  
HETATM   12  C   UNL     1      -5.952   6.904  69.953  1.00  0.00    -0.023 C  
BRANCH  10  13
HETATM   13  C   UNL     1      -8.499   7.172  69.988  1.00  0.00    -0.140 C  
HETATM   14  C   UNL     1      -9.613   8.228  69.845  1.00  0.00    -0.171 A  
HETATM   15  C   UNL     1      -9.978   8.724  71.116  1.00  0.00    -0.317 A  
HETATM   16  C   UNL     1      -9.253   8.006  72.137  1.00  0.00    -0.232 A  
HETATM   17  C   UNL     1     -10.923   9.730  71.255  1.00  0.00    -0.331 A  
HETATM   18  C   UNL     1      -8.390   7.066  71.527  1.00  0.00    -0.112 A  
HETATM   19  C   UNL     1     -11.521  10.246  70.106  1.00  0.00    -0.383 A  
HETATM   20  C   UNL     1     -11.191   9.734  68.844  1.00  0.00    -0.076 A  
HETATM   21  C   UNL     1      -7.648   6.201  72.324  1.00  0.00    -0.096 A  
HETATM   22  C   UNL     1      -7.735   6.319  73.718  1.00  0.00    -0.093 A  
HETATM   23  C   UNL     1     -10.253   8.706  68.708  1.00  0.00    -0.224 A  
HETATM   24  C   UNL     1      -8.585   7.259  74.309  1.00  0.00    -0.240 A  
HETATM   25  C   UNL     1      -9.359   8.107  73.518  1.00  0.00    -0.210 A  
ENDBRANCH  10  13
ENDBRANCH   9  10
ENDBRANCH   8   9
ENDBRANCH   7   8
ENDBRANCH   6   7
ENDBRANCH   5   6
ENDBRANCH   4   5
ENDBRANCH   2   4
BRANCH   2  26
HETATM   26  C   UNL     1     -10.143  15.821  67.505  1.00  0.00    -0.245 C  
HETATM   27  C   UNL     1     -12.120  12.790  66.653  1.00  0.00    -0.316 A  
HETATM   28  C   UNL     1     -10.835  15.465  68.838  1.00  0.00    -0.251 A  
HETATM   29  C   UNL     1     -11.916  12.636  65.287  1.00  0.00    -0.487 A  
HETATM   30  C   UNL     1     -11.626  14.304  68.666  1.00  0.00    -0.352 A  
HETATM   31  C   UNL     1     -11.566  13.894  67.282  1.00  0.00    -0.393 A  
HETATM   32  C   UNL     1     -12.365  13.772  69.713  1.00  0.00    -0.311 A  
HETATM   33  C   UNL     1     -11.230  13.607  64.541  1.00  0.00    -0.395 A  
HETATM   34  C   UNL     1     -10.836  16.120  70.068  1.00  0.00    -0.349 A  
HETATM   35  C   UNL     1     -10.808  14.834  66.552  1.00  0.00    -0.319 A  
HETATM   36  C   UNL     1     -12.317  14.404  70.956  1.00  0.00    -0.427 A  
HETATM   37  C   UNL     1     -10.703  14.744  65.167  1.00  0.00    -0.433 A  
HETATM   38  C   UNL     1     -11.559  15.566  71.134  1.00  0.00    -0.446 A  
ENDBRANCH   2  26
TORSDOF 9
ENDMDL
MODEL      150
REMARK 921   NORMALIZED FREE ENERGY PREDICTED BY IDOCK:   -5.41 KCAL/MOL
REMARK 922        TOTAL FREE ENERGY PREDICTED BY IDOCK:  -10.02 KCAL/MOL
REMARK 923 INTER-LIGAND FREE ENERGY PREDICTED BY IDOCK:   -9.09 KCAL/MOL
REMARK 924 INTRA-LIGAND FREE ENERGY PREDICTED BY IDOCK:   -0.93 KCAL/MOL
REMARK 927      BINDING AFFINITY PREDICTED BY RF-SCORE:    0.00 PKD
ROOT
HETATM    1  C   UNL     1     -10.183   7.718  73.474  1.00  0.00    -0.164 C  
HETATM    2  N   UNL     1     -10.650   7.869  72.030  1.00  0.00    -0.224 N  
HETATM    3  C   UNL     1     -11.932   7.064  71.834  1.00  0.00    -0.320 C  
ENDROOT
BRANCH   2   4
HETATM    4  C   UNL     1     -10.865   9.338  71.730  1.00  0.00    -0.288 C  
BRANCH   4   5
HETATM    5  C   UNL     1     -12.280   9.746  71.320  1.00  0.00    -0.465 C  
BRANCH   5   6
HETATM    6  C   UNL     1     -12.282  11.229  70.923  1.00  0.00    -0.460 C  
BRANCH   6   7
HETATM    7  C   UNL     1     -12.243  11.473  69.403  1.00  0.00    -0.273 C  
BRANCH   7   8
HETATM    8  C   UNL     1     -10.825  11.564  68.820  1.00  0.00    -0.258 C  
BRANCH   8   9
HETATM    9  C   UNL     1     -10.497  13.036  68.565  1.00  0.00    -0.249 C  
BRANCH   9  10
HETATM   10  N   UNL     1      -9.020  13.361  68.414  1.00  0.00    -0.169 N  
HETATM   11  C   UNL     1      -8.645  14.611  69.204  1.00  0.00    -0.035 C  
HETATM   12  C   UNL     1      -8.133  12.239  68.932  1.00  0.00     0.160 C  
BRANCH  10  13
HETATM   13  C   UNL     1      -8.751  13.593  66.848  1.00  0.00    -0.146 C  
HETATM   14  C   UNL     1      -9.526  14.781  66.245  1.00  0.00    -0.332 A  
HETATM   15  C   UNL     1     -10.396  14.328  65.228  1.00  0.00    -0.417 A  
HETATM   16  C   UNL     1     -10.199  12.913  65.025  1.00  0.00    -0.289 A  
HETATM   17  C   UNL     1     -11.248  15.200  64.565  1.00  0.00    -0.283 A  
HETATM   18  C   UNL     1      -9.226  12.439  65.934  1.00  0.00     0.007 A  
HETATM   19  C   UNL     1     -11.229  16.548  64.918  1.00  0.00    -0.138 A  
HETATM   20  C   UNL     1     -10.343  17.011  65.900  1.00  0.00    -0.310 A  
HETATM   21  C   UNL     1      -8.814  11.112  65.866  1.00  0.00    -0.193 A  
HETATM   22  C   UNL     1      -9.416  10.262  64.928  1.00  0.00    -0.337 A  
HETATM   23  C   UNL     1      -9.471  16.136  66.553  1.00  0.00    -0.289 A  
HETATM   24  C   UNL     1     -10.384  10.741  64.040  1.00  0.00    -0.357 A  
HETATM   25  C   UNL     1     -10.778  12.078  64.078  1.00  0.00    -0.426 A  
ENDBRANCH  10  13
ENDBRANCH   9  10
ENDBRANCH   8   9
ENDBRANCH   7   8
ENDBRANCH   6   7
ENDBRANCH   5   6
ENDBRANCH   4   5
ENDBRANCH   2   4
BRANCH   2  26
HETATM   26  C   UNL     1      -9.519   7.333  71.013  1.00  0.00    -0.158 C  
HETATM   27  C   UNL     1      -9.506   3.702  70.218  1.00  0.00    -0.257 A  
HETATM   28  C   UNL     1      -9.953   7.295  69.532  1.00  0.00    -0.170 A  
HETATM   29  C   UNL     1      -9.025   3.111  71.381  1.00  0.00    -0.156 A  
HETATM   30  C   UNL     1     -10.006   5.952  69.089  1.00  0.00    -0.214 A  
HETATM   31  C   UNL     1      -9.566   5.085  70.158  1.00  0.00    -0.257 A  
HETATM   32  C   UNL     1     -10.361   5.635  67.786  1.00  0.00    -0.260 A  
HETATM   33  C   UNL     1      -8.541   3.888  72.444  1.00  0.00    -0.108 A  
HETATM   34  C   UNL     1     -10.215   8.326  68.632  1.00  0.00    -0.223 A  
HETATM   35  C   UNL     1      -9.155   5.872  71.255  1.00  0.00    -0.148 A  
HETATM   36  C   UNL     1     -10.674   6.672  66.905  1.00  0.00    -0.401 A  
HETATM   37  C   UNL     1      -8.564   5.288  72.371  1.00  0.00    -0.122 A  
HETATM   38  C   UNL     1     -10.603   8.005  67.324  1.00  0.00    -0.360 A  
ENDBRANCH   2  26
TORSDOF 9
ENDMDL
MODEL      151
REMARK 921   NORMALIZED FREE ENERGY PREDICTED BY IDOCK:   -5.40 KCAL/MOL
REMARK 922        TOTAL FREE ENERGY PREDICTED BY IDOCK:  -10.01 KCAL/MOL
REMARK 923 INTER-LIGAND FREE ENERGY PREDICTED BY IDOCK:   -9.09 KCAL/MOL
REMARK 924 INTRA-LIGAND FREE ENERGY PREDICTED BY IDOCK:   -0.92 KCAL/MOL
REMARK 927      BINDING AFFINITY PREDICTED BY RF-SCORE:    0.00 PKD
ROOT
HETATM    1  C   UNL     1      -7.248   4.831  68.373  1.00  0.00    -0.061 C  
HETATM    2  N   UNL     1      -8.015   5.871  69.182  1.00  0.00    -0.098 N  
HETATM    3  C   UNL     1      -7.333   6.054  70.535  1.00  0.00    -0.085 C  
ENDROOT
BRANCH   2   4
HETATM    4  C   UNL     1      -8.060   7.170  68.403  1.00  0.00    -0.124 C  
BRANCH   4   5
HETATM    5  C   UNL     1      -6.947   8.175  68.696  1.00  0.00    -0.068 C  
BRANCH   5   6
HETATM    6  C   UNL     1      -6.861   9.183  67.542  1.00  0.00    -0.077 C  
BRANCH   6   7
HETATM    7  C   UNL     1      -6.884  10.656  67.990  1.00  0.00    -0.072 C  
BRANCH   7   8
HETATM    8  C   UNL     1      -8.294  11.207  68.253  1.00  0.00    -0.143 C  
BRANCH   8   9
HETATM    9  C   UNL     1      -8.859  11.747  66.939  1.00  0.00    -0.191 C  
BRANCH   9  10
HETATM   10  N   UNL     1     -10.158  11.108  66.474  1.00  0.00    -0.216 N  
HETATM   11  C   UNL     1     -10.119  10.800  64.981  1.00  0.00    -0.313 C  
HETATM   12  C   UNL     1     -10.430   9.789  67.181  1.00  0.00    -0.250 C  
BRANCH  10  13
HETATM   13  C   UNL     1     -11.333  12.154  66.795  1.00  0.00    -0.342 C  
HETATM   14  C   UNL     1     -10.969  13.622  66.497  1.00  0.00    -0.295 A  
HETATM   15  C   UNL     1     -11.031  14.387  67.683  1.00  0.00    -0.294 A  
HETATM   16  C   UNL     1     -11.511  13.559  68.763  1.00  0.00    -0.349 A  
HETATM   17  C   UNL     1     -10.691  15.733  67.694  1.00  0.00    -0.310 A  
HETATM   18  C   UNL     1     -11.727  12.245  68.287  1.00  0.00    -0.392 A  
HETATM   19  C   UNL     1     -10.288  16.327  66.499  1.00  0.00    -0.310 A  
HETATM   20  C   UNL     1     -10.259  15.584  65.312  1.00  0.00    -0.380 A  
HETATM   21  C   UNL     1     -12.269  11.288  69.139  1.00  0.00    -0.251 A  
HETATM   22  C   UNL     1     -12.538  11.639  70.469  1.00  0.00    -0.264 A  
HETATM   23  C   UNL     1     -10.620  14.234  65.299  1.00  0.00    -0.396 A  
HETATM   24  C   UNL     1     -12.311  12.940  70.931  1.00  0.00    -0.365 A  
HETATM   25  C   UNL     1     -11.802  13.915  70.074  1.00  0.00    -0.384 A  
ENDBRANCH  10  13
ENDBRANCH   9  10
ENDBRANCH   8   9
ENDBRANCH   7   8
ENDBRANCH   6   7
ENDBRANCH   5   6
ENDBRANCH   4   5
ENDBRANCH   2   4
BRANCH   2  26
HETATM   26  C   UNL     1      -9.539   5.395  69.408  1.00  0.00    -0.149 C  
HETATM   27  C   UNL     1     -10.244   3.231  72.346  1.00  0.00    -0.196 A  
HETATM   28  C   UNL     1     -10.368   6.314  70.331  1.00  0.00    -0.260 A  
HETATM   29  C   UNL     1      -9.702   2.001  71.988  1.00  0.00    -0.199 A  
HETATM   30  C   UNL     1     -10.703   5.615  71.516  1.00  0.00    -0.306 A  
HETATM   31  C   UNL     1     -10.212   4.260  71.419  1.00  0.00    -0.121 A  
HETATM   32  C   UNL     1     -11.458   6.211  72.516  1.00  0.00    -0.318 A  
HETATM   33  C   UNL     1      -9.200   1.778  70.697  1.00  0.00    -0.161 A  
HETATM   34  C   UNL     1     -10.845   7.609  70.140  1.00  0.00    -0.255 A  
HETATM   35  C   UNL     1      -9.636   4.065  70.145  1.00  0.00    -0.270 A  
HETATM   36  C   UNL     1     -11.886   7.528  72.339  1.00  0.00    -0.305 A  
HETATM   37  C   UNL     1      -9.202   2.805  69.745  1.00  0.00    -0.206 A  
HETATM   38  C   UNL     1     -11.581   8.221  71.162  1.00  0.00    -0.310 A  
ENDBRANCH   2  26
TORSDOF 9
ENDMDL
MODEL      152
REMARK 921   NORMALIZED FREE ENERGY PREDICTED BY IDOCK:   -5.40 KCAL/MOL
REMARK 922        TOTAL FREE ENERGY PREDICTED BY IDOCK:  -10.00 KCAL/MOL
REMARK 923 INTER-LIGAND FREE ENERGY PREDICTED BY IDOCK:   -8.31 KCAL/MOL
REMARK 924 INTRA-LIGAND FREE ENERGY PREDICTED BY IDOCK:   -1.69 KCAL/MOL
REMARK 927      BINDING AFFINITY PREDICTED BY RF-SCORE:    0.00 PKD
ROOT
HETATM    1  C   UNL     1      -5.368   9.446  68.839  1.00  0.00    -0.037 C  
HETATM    2  N   UNL     1      -6.492   9.679  69.842  1.00  0.00    -0.051 N  
HETATM    3  C   UNL     1      -5.900   9.753  71.247  1.00  0.00    -0.052 C  
ENDROOT
BRANCH   2   4
HETATM    4  C   UNL     1      -7.223  10.955  69.479  1.00  0.00    -0.113 C  
BRANCH   4   5
HETATM    5  C   UNL     1      -7.095  11.421  68.030  1.00  0.00    -0.074 C  
BRANCH   5   6
HETATM    6  C   UNL     1      -7.599  12.866  67.918  1.00  0.00    -0.138 C  
BRANCH   6   7
HETATM    7  C   UNL     1      -6.740  13.893  68.678  1.00  0.00    -0.098 C  
BRANCH   7   8
HETATM    8  C   UNL     1      -7.138  15.354  68.422  1.00  0.00    -0.111 C  
BRANCH   8   9
HETATM    9  C   UNL     1      -8.649  15.487  68.612  1.00  0.00    -0.179 C  
BRANCH   9  10
HETATM   10  N   UNL     1      -9.405  16.094  67.441  1.00  0.00    -0.216 N  
HETATM   11  C   UNL     1      -9.664  17.581  67.660  1.00  0.00    -0.275 C  
HETATM   12  C   UNL     1      -8.628  15.978  66.138  1.00  0.00    -0.280 C  
BRANCH  10  13
HETATM   13  C   UNL     1     -10.796  15.301  67.322  1.00  0.00    -0.318 C  
HETATM   14  C   UNL     1     -11.481  15.024  68.674  1.00  0.00    -0.329 A  
HETATM   15  C   UNL     1     -11.606  13.632  68.879  1.00  0.00    -0.362 A  
HETATM   16  C   UNL     1     -11.138  12.932  67.707  1.00  0.00    -0.291 A  
HETATM   17  C   UNL     1     -12.141  13.119  70.052  1.00  0.00    -0.375 A  
HETATM   18  C   UNL     1     -10.675  13.868  66.754  1.00  0.00    -0.281 A  
HETATM   19  C   UNL     1     -12.565  14.011  71.036  1.00  0.00    -0.437 A  
HETATM   20  C   UNL     1     -12.478  15.393  70.826  1.00  0.00    -0.476 A  
HETATM   21  C   UNL     1     -10.249  13.422  65.507  1.00  0.00    -0.300 A  
HETATM   22  C   UNL     1     -10.240  12.045  65.245  1.00  0.00    -0.304 A  
HETATM   23  C   UNL     1     -11.957  15.908  69.635  1.00  0.00    -0.272 A  
HETATM   24  C   UNL     1     -10.691  11.128  66.200  1.00  0.00    -0.285 A  
HETATM   25  C   UNL     1     -11.153  11.569  67.440  1.00  0.00    -0.339 A  
ENDBRANCH  10  13
ENDBRANCH   9  10
ENDBRANCH   8   9
ENDBRANCH   7   8
ENDBRANCH   6   7
ENDBRANCH   5   6
ENDBRANCH   4   5
ENDBRANCH   2   4
BRANCH   2  26
HETATM   26  C   UNL     1      -7.564   8.476  69.774  1.00  0.00    -0.083 C  
HETATM   27  C   UNL     1      -7.728   6.156  72.673  1.00  0.00    -0.102 A  
HETATM   28  C   UNL     1      -8.933   8.801  70.409  1.00  0.00    -0.188 A  
HETATM   29  C   UNL     1      -6.569   5.396  72.555  1.00  0.00    -0.065 A  
HETATM   30  C   UNL     1      -9.130   7.989  71.551  1.00  0.00    -0.182 A  
HETATM   31  C   UNL     1      -8.011   7.086  71.686  1.00  0.00    -0.099 A  
HETATM   32  C   UNL     1     -10.292   8.073  72.305  1.00  0.00    -0.336 A  
HETATM   33  C   UNL     1      -5.739   5.510  71.429  1.00  0.00    -0.023 A  
HETATM   34  C   UNL     1      -9.944   9.669  70.002  1.00  0.00    -0.288 A  
HETATM   35  C   UNL     1      -7.138   7.261  70.590  1.00  0.00    -0.065 A  
HETATM   36  C   UNL     1     -11.276   8.984  71.921  1.00  0.00    -0.438 A  
HETATM   37  C   UNL     1      -6.043   6.422  70.409  1.00  0.00    -0.031 A  
HETATM   38  C   UNL     1     -11.104   9.777  70.780  1.00  0.00    -0.415 A  
ENDBRANCH   2  26
TORSDOF 9
ENDMDL
MODEL      153
REMARK 921   NORMALIZED FREE ENERGY PREDICTED BY IDOCK:   -5.37 KCAL/MOL
REMARK 922        TOTAL FREE ENERGY PREDICTED BY IDOCK:   -9.96 KCAL/MOL
REMARK 923 INTER-LIGAND FREE ENERGY PREDICTED BY IDOCK:   -7.55 KCAL/MOL
REMARK 924 INTRA-LIGAND FREE ENERGY PREDICTED BY IDOCK:   -2.42 KCAL/MOL
REMARK 927      BINDING AFFINITY PREDICTED BY RF-SCORE:    0.00 PKD
ROOT
HETATM    1  C   UNL     1      -8.912   3.818  64.608  1.00  0.00    -0.125 C  
HETATM    2  N   UNL     1      -8.839   4.829  65.748  1.00  0.00    -0.126 N  
HETATM    3  C   UNL     1      -8.408   6.182  65.188  1.00  0.00    -0.129 C  
ENDROOT
BRANCH   2   4
HETATM    4  C   UNL     1     -10.192   4.912  66.423  1.00  0.00    -0.278 C  
BRANCH   4   5
HETATM    5  C   UNL     1     -10.708   6.316  66.738  1.00  0.00    -0.364 C  
BRANCH   5   6
HETATM    6  C   UNL     1     -11.014   6.416  68.238  1.00  0.00    -0.396 C  
BRANCH   6   7
HETATM    7  C   UNL     1     -10.511   7.714  68.897  1.00  0.00    -0.211 C  
BRANCH   7   8
HETATM    8  C   UNL     1      -9.721   8.630  67.950  1.00  0.00    -0.192 C  
BRANCH   8   9
HETATM    9  C   UNL     1     -10.522   9.915  67.735  1.00  0.00    -0.242 C  
BRANCH   9  10
HETATM   10  N   UNL     1      -9.786  11.206  68.054  1.00  0.00    -0.171 N  
HETATM   11  C   UNL     1     -10.663  12.157  68.862  1.00  0.00    -0.175 C  
HETATM   12  C   UNL     1      -8.536  10.959  68.885  1.00  0.00    -0.141 C  
BRANCH  10  13
HETATM   13  C   UNL     1      -9.387  11.876  66.651  1.00  0.00    -0.205 C  
HETATM   14  C   UNL     1     -10.592  12.230  65.757  1.00  0.00    -0.289 A  
HETATM   15  C   UNL     1     -10.522  11.513  64.541  1.00  0.00    -0.369 A  
HETATM   16  C   UNL     1      -9.291  10.759  64.500  1.00  0.00    -0.273 A  
HETATM   17  C   UNL     1     -11.522  11.613  63.585  1.00  0.00    -0.458 A  
HETATM   18  C   UNL     1      -8.578  10.958  65.704  1.00  0.00    -0.163 A  
HETATM   19  C   UNL     1     -12.608  12.447  63.842  1.00  0.00    -0.528 A  
HETATM   20  C   UNL     1     -12.667  13.190  65.028  1.00  0.00    -0.456 A  
HETATM   21  C   UNL     1      -7.318  10.390  65.856  1.00  0.00    -0.135 A  
HETATM   22  C   UNL     1      -6.807   9.587  64.827  1.00  0.00    -0.103 A  
HETATM   23  C   UNL     1     -11.649  13.103  65.982  1.00  0.00    -0.393 A  
HETATM   24  C   UNL     1      -7.527   9.389  63.644  1.00  0.00    -0.111 A  
HETATM   25  C   UNL     1      -8.776   9.984  63.469  1.00  0.00    -0.229 A  
ENDBRANCH  10  13
ENDBRANCH   9  10
ENDBRANCH   8   9
ENDBRANCH   7   8
ENDBRANCH   6   7
ENDBRANCH   5   6
ENDBRANCH   4   5
ENDBRANCH   2   4
BRANCH   2  26
HETATM   26  C   UNL     1      -7.777   4.345  66.861  1.00  0.00    -0.093 C  
HETATM   27  C   UNL     1      -7.221   6.570  69.786  1.00  0.00    -0.078 A  
HETATM   28  C   UNL     1      -8.392   3.548  68.031  1.00  0.00    -0.095 A  
HETATM   29  C   UNL     1      -6.491   7.630  69.261  1.00  0.00    -0.039 A  
HETATM   30  C   UNL     1      -8.263   4.292  69.229  1.00  0.00    -0.077 A  
HETATM   31  C   UNL     1      -7.536   5.509  68.952  1.00  0.00    -0.082 A  
HETATM   32  C   UNL     1      -8.727   3.797  70.439  1.00  0.00    -0.129 A  
HETATM   33  C   UNL     1      -6.016   7.601  67.941  1.00  0.00    -0.040 A  
HETATM   34  C   UNL     1      -8.951   2.273  68.071  1.00  0.00    -0.193 A  
HETATM   35  C   UNL     1      -7.128   5.510  67.600  1.00  0.00    -0.071 A  
HETATM   36  C   UNL     1      -9.335   2.541  70.461  1.00  0.00    -0.209 A  
HETATM   37  C   UNL     1      -6.298   6.511  67.106  1.00  0.00    -0.041 A  
HETATM   38  C   UNL     1      -9.448   1.786  69.288  1.00  0.00    -0.137 A  
ENDBRANCH   2  26
TORSDOF 9
ENDMDL
MODEL      154
REMARK 921   NORMALIZED FREE ENERGY PREDICTED BY IDOCK:   -5.37 KCAL/MOL
REMARK 922        TOTAL FREE ENERGY PREDICTED BY IDOCK:   -9.96 KCAL/MOL
REMARK 923 INTER-LIGAND FREE ENERGY PREDICTED BY IDOCK:   -9.48 KCAL/MOL
REMARK 924 INTRA-LIGAND FREE ENERGY PREDICTED BY IDOCK:   -0.47 KCAL/MOL
REMARK 927      BINDING AFFINITY PREDICTED BY RF-SCORE:    0.00 PKD
ROOT
HETATM    1  C   UNL     1     -10.838  15.701  65.048  1.00  0.00    -0.450 C  
HETATM    2  N   UNL     1     -10.843  14.470  65.948  1.00  0.00    -0.299 N  
HETATM    3  C   UNL     1     -12.287  14.068  66.236  1.00  0.00    -0.448 C  
ENDROOT
BRANCH   2   4
HETATM    4  C   UNL     1     -10.082  13.353  65.263  1.00  0.00    -0.249 C  
BRANCH   4   5
HETATM    5  C   UNL     1      -8.987  12.675  66.086  1.00  0.00     0.103 C  
BRANCH   5   6
HETATM    6  C   UNL     1      -8.914  11.191  65.703  1.00  0.00    -0.195 C  
BRANCH   6   7
HETATM    7  C   UNL     1     -10.277  10.476  65.695  1.00  0.00    -0.315 C  
BRANCH   7   8
HETATM    8  C   UNL     1     -10.699   9.919  67.063  1.00  0.00    -0.237 C  
BRANCH   8   9
HETATM    9  C   UNL     1     -10.593   8.394  67.022  1.00  0.00    -0.246 C  
BRANCH   9  10
HETATM   10  N   UNL     1      -9.718   7.771  68.098  1.00  0.00    -0.151 N  
HETATM   11  C   UNL     1     -10.315   6.463  68.607  1.00  0.00    -0.199 C  
HETATM   12  C   UNL     1      -8.327   7.438  67.579  1.00  0.00    -0.113 C  
BRANCH  10  13
HETATM   13  C   UNL     1      -9.616   8.837  69.293  1.00  0.00    -0.162 C  
HETATM   14  C   UNL     1      -8.173   9.227  69.668  1.00  0.00    -0.126 A  
HETATM   15  C   UNL     1      -7.908   8.873  71.010  1.00  0.00    -0.164 A  
HETATM   16  C   UNL     1      -9.110   8.351  71.614  1.00  0.00    -0.268 A  
HETATM   17  C   UNL     1      -6.655   9.068  71.575  1.00  0.00    -0.065 A  
HETATM   18  C   UNL     1     -10.148   8.333  70.655  1.00  0.00    -0.212 A  
HETATM   19  C   UNL     1      -5.651   9.632  70.790  1.00  0.00    -0.061 A  
HETATM   20  C   UNL     1      -5.916  10.020  69.470  1.00  0.00    -0.041 A  
HETATM   21  C   UNL     1     -11.427   7.941  71.037  1.00  0.00    -0.298 A  
HETATM   22  C   UNL     1     -11.643   7.523  72.357  1.00  0.00    -0.356 A  
HETATM   23  C   UNL     1      -7.184   9.841  68.909  1.00  0.00    -0.072 A  
HETATM   24  C   UNL     1     -10.605   7.536  73.295  1.00  0.00    -0.438 A  
HETATM   25  C   UNL     1      -9.328   7.961  72.930  1.00  0.00    -0.309 A  
ENDBRANCH  10  13
ENDBRANCH   9  10
ENDBRANCH   8   9
ENDBRANCH   7   8
ENDBRANCH   6   7
ENDBRANCH   5   6
ENDBRANCH   4   5
ENDBRANCH   2   4
BRANCH   2  26
HETATM   26  C   UNL     1     -10.085  14.785  67.336  1.00  0.00    -0.231 C  
HETATM   27  C   UNL     1     -10.393  18.222  68.719  1.00  0.00    -0.246 A  
HETATM   28  C   UNL     1     -10.949  14.581  68.599  1.00  0.00    -0.263 A  
HETATM   29  C   UNL     1      -9.594  18.989  67.877  1.00  0.00    -0.373 A  
HETATM   30  C   UNL     1     -11.163  15.828  69.233  1.00  0.00    -0.324 A  
HETATM   31  C   UNL     1     -10.439  16.851  68.515  1.00  0.00    -0.361 A  
HETATM   32  C   UNL     1     -11.904  15.926  70.402  1.00  0.00    -0.358 A  
HETATM   33  C   UNL     1      -8.794  18.391  66.892  1.00  0.00    -0.281 A  
HETATM   34  C   UNL     1     -11.449  13.419  69.184  1.00  0.00    -0.351 A  
HETATM   35  C   UNL     1      -9.697  16.253  67.474  1.00  0.00    -0.234 A  
HETATM   36  C   UNL     1     -12.446  14.764  70.951  1.00  0.00    -0.396 A  
HETATM   37  C   UNL     1      -8.808  17.002  66.709  1.00  0.00    -0.267 A  
HETATM   38  C   UNL     1     -12.222  13.522  70.348  1.00  0.00    -0.426 A  
ENDBRANCH   2  26
TORSDOF 9
ENDMDL
MODEL      155
REMARK 921   NORMALIZED FREE ENERGY PREDICTED BY IDOCK:   -5.37 KCAL/MOL
REMARK 922        TOTAL FREE ENERGY PREDICTED BY IDOCK:   -9.96 KCAL/MOL
REMARK 923 INTER-LIGAND FREE ENERGY PREDICTED BY IDOCK:   -8.15 KCAL/MOL
REMARK 924 INTRA-LIGAND FREE ENERGY PREDICTED BY IDOCK:   -1.80 KCAL/MOL
REMARK 927      BINDING AFFINITY PREDICTED BY RF-SCORE:    0.00 PKD
ROOT
HETATM    1  C   UNL     1      -8.702  16.795  66.091  1.00  0.00    -0.264 C  
HETATM    2  N   UNL     1     -10.104  16.234  66.301  1.00  0.00    -0.306 N  
HETATM    3  C   UNL     1     -11.008  17.338  66.842  1.00  0.00     0.139 C  
ENDROOT
BRANCH   2   4
HETATM    4  C   UNL     1     -10.621  15.688  64.986  1.00  0.00    -0.396 C  
BRANCH   4   5
HETATM    5  C   UNL     1     -11.613  14.528  65.076  1.00  0.00    -0.382 C  
BRANCH   5   6
HETATM    6  C   UNL     1     -10.938  13.246  64.571  1.00  0.00    -0.398 C  
BRANCH   6   7
HETATM    7  C   UNL     1     -11.217  12.005  65.438  1.00  0.00    -0.374 C  
BRANCH   7   8
HETATM    8  C   UNL     1     -10.214  10.860  65.231  1.00  0.00    -0.351 C  
BRANCH   8   9
HETATM    9  C   UNL     1      -9.275  10.812  66.437  1.00  0.00    -0.170 C  
BRANCH   9  10
HETATM   10  N   UNL     1      -9.253   9.496  67.198  1.00  0.00    -0.133 N  
HETATM   11  C   UNL     1     -10.535   8.703  66.969  1.00  0.00    -0.284 C  
HETATM   12  C   UNL     1      -8.105   8.601  66.755  1.00  0.00    -0.101 C  
BRANCH  10  13
HETATM   13  C   UNL     1      -9.095   9.860  68.754  1.00  0.00    -0.147 C  
HETATM   14  C   UNL     1      -8.868   8.638  69.666  1.00  0.00    -0.137 A  
HETATM   15  C   UNL     1      -9.920   8.530  70.604  1.00  0.00    -0.222 A  
HETATM   16  C   UNL     1     -10.809   9.657  70.458  1.00  0.00    -0.371 A  
HETATM   17  C   UNL     1      -9.979   7.477  71.505  1.00  0.00    -0.197 A  
HETATM   18  C   UNL     1     -10.355  10.481  69.402  1.00  0.00    -0.258 A  
HETATM   19  C   UNL     1      -8.968   6.517  71.476  1.00  0.00    -0.140 A  
HETATM   20  C   UNL     1      -7.902   6.637  70.574  1.00  0.00    -0.106 A  
HETATM   21  C   UNL     1     -11.015  11.675  69.132  1.00  0.00    -0.270 A  
HETATM   22  C   UNL     1     -12.151  12.007  69.882  1.00  0.00    -0.334 A  
HETATM   23  C   UNL     1      -7.834   7.710  69.680  1.00  0.00    -0.108 A  
HETATM   24  C   UNL     1     -12.597  11.179  70.918  1.00  0.00    -0.483 A  
HETATM   25  C   UNL     1     -11.920   9.998  71.220  1.00  0.00    -0.483 A  
ENDBRANCH  10  13
ENDBRANCH   9  10
ENDBRANCH   8   9
ENDBRANCH   7   8
ENDBRANCH   6   7
ENDBRANCH   5   6
ENDBRANCH   4   5
ENDBRANCH   2   4
BRANCH   2  26
HETATM   26  C   UNL     1     -10.068  15.008  67.348  1.00  0.00    -0.228 C  
HETATM   27  C   UNL     1      -7.454  15.083  69.990  1.00  0.00     0.096 A  
HETATM   28  C   UNL     1     -10.879  15.244  68.640  1.00  0.00    -0.253 A  
HETATM   29  C   UNL     1      -6.281  14.792  69.302  1.00  0.00    -0.110 A  
HETATM   30  C   UNL     1      -9.999  15.309  69.746  1.00  0.00    -0.210 A  
HETATM   31  C   UNL     1      -8.650  15.061  69.291  1.00  0.00    -0.167 A  
HETATM   32  C   UNL     1     -10.473  15.504  71.036  1.00  0.00     0.272 A  
HETATM   33  C   UNL     1      -6.306  14.413  67.952  1.00  0.00    -0.173 A  
HETATM   34  C   UNL     1     -12.254  15.328  68.851  1.00  0.00    -0.132 A  
HETATM   35  C   UNL     1      -8.674  14.757  67.912  1.00  0.00    -0.167 A  
HETATM   36  C   UNL     1     -11.848  15.642  71.231  1.00  0.00    -0.473 A  
HETATM   37  C   UNL     1      -7.519  14.352  67.252  1.00  0.00    -0.103 A  
HETATM   38  C   UNL     1     -12.731  15.556  70.149  1.00  0.00    -0.232 A  
ENDBRANCH   2  26
TORSDOF 9
ENDMDL
MODEL      156
REMARK 921   NORMALIZED FREE ENERGY PREDICTED BY IDOCK:   -5.36 KCAL/MOL
REMARK 922        TOTAL FREE ENERGY PREDICTED BY IDOCK:   -9.95 KCAL/MOL
REMARK 923 INTER-LIGAND FREE ENERGY PREDICTED BY IDOCK:   -8.52 KCAL/MOL
REMARK 924 INTRA-LIGAND FREE ENERGY PREDICTED BY IDOCK:   -1.43 KCAL/MOL
REMARK 927      BINDING AFFINITY PREDICTED BY RF-SCORE:    0.00 PKD
ROOT
HETATM    1  C   UNL     1     -10.032   5.963  68.300  1.00  0.00    -0.146 C  
HETATM    2  N   UNL     1      -9.065   5.176  69.177  1.00  0.00    -0.099 N  
HETATM    3  C   UNL     1      -8.835   3.800  68.556  1.00  0.00    -0.112 C  
ENDROOT
BRANCH   2   4
HETATM    4  C   UNL     1      -7.770   5.951  69.305  1.00  0.00    -0.094 C  
BRANCH   4   5
HETATM    5  C   UNL     1      -7.833   7.438  68.958  1.00  0.00    -0.120 C  
BRANCH   5   6
HETATM    6  C   UNL     1      -7.189   8.248  70.092  1.00  0.00    -0.055 C  
BRANCH   6   7
HETATM    7  C   UNL     1      -8.016   9.467  70.542  1.00  0.00    -0.188 C  
BRANCH   7   8
HETATM    8  C   UNL     1      -9.255   9.737  69.675  1.00  0.00    -0.239 C  
BRANCH   8   9
HETATM    9  C   UNL     1      -8.960  10.928  68.762  1.00  0.00    -0.164 C  
BRANCH   9  10
HETATM   10  N   UNL     1     -10.151  11.467  67.985  1.00  0.00    -0.181 N  
HETATM   11  C   UNL     1     -11.128  10.353  67.627  1.00  0.00    -0.293 C  
HETATM   12  C   UNL     1     -10.938  12.492  68.788  1.00  0.00    -0.253 C  
BRANCH  10  13
HETATM   13  C   UNL     1      -9.569  12.146  66.651  1.00  0.00    -0.220 C  
HETATM   14  C   UNL     1      -8.643  13.350  66.910  1.00  0.00    -0.114 A  
HETATM   15  C   UNL     1      -9.188  14.516  66.325  1.00  0.00    -0.231 A  
HETATM   16  C   UNL     1     -10.385  14.170  65.595  1.00  0.00    -0.348 A  
HETATM   17  C   UNL     1      -8.571  15.751  66.464  1.00  0.00    -0.343 A  
HETATM   18  C   UNL     1     -10.637  12.786  65.735  1.00  0.00    -0.295 A  
HETATM   19  C   UNL     1      -7.386  15.825  67.194  1.00  0.00    -0.257 A  
HETATM   20  C   UNL     1      -6.820  14.668  67.746  1.00  0.00    -0.193 A  
HETATM   21  C   UNL     1     -11.701  12.211  65.047  1.00  0.00    -0.371 A  
HETATM   22  C   UNL     1     -12.530  13.032  64.270  1.00  0.00    -0.385 A  
HETATM   23  C   UNL     1      -7.433  13.422  67.588  1.00  0.00    -0.182 A  
HETATM   24  C   UNL     1     -12.276  14.402  64.148  1.00  0.00    -0.393 A  
HETATM   25  C   UNL     1     -11.191  14.981  64.805  1.00  0.00    -0.393 A  
ENDBRANCH  10  13
ENDBRANCH   9  10
ENDBRANCH   8   9
ENDBRANCH   7   8
ENDBRANCH   6   7
ENDBRANCH   5   6
ENDBRANCH   4   5
ENDBRANCH   2   4
BRANCH   2  26
HETATM   26  C   UNL     1      -9.667   5.000  70.662  1.00  0.00    -0.198 C  
HETATM   27  C   UNL     1      -7.810   6.584  73.466  1.00  0.00    -0.091 A  
HETATM   28  C   UNL     1     -10.609   6.138  71.111  1.00  0.00    -0.300 A  
HETATM   29  C   UNL     1      -6.684   5.780  73.612  1.00  0.00    -0.079 A  
HETATM   30  C   UNL     1     -10.017   6.848  72.182  1.00  0.00    -0.176 A  
HETATM   31  C   UNL     1      -8.765   6.216  72.531  1.00  0.00    -0.121 A  
HETATM   32  C   UNL     1     -10.662   7.920  72.782  1.00  0.00    -0.435 A  
HETATM   33  C   UNL     1      -6.546   4.587  72.888  1.00  0.00    -0.047 A  
HETATM   34  C   UNL     1     -11.887   6.488  70.679  1.00  0.00    -0.398 A  
HETATM   35  C   UNL     1      -8.594   5.058  71.743  1.00  0.00    -0.132 A  
HETATM   36  C   UNL     1     -11.918   8.297  72.307  1.00  0.00    -0.448 A  
HETATM   37  C   UNL     1      -7.529   4.192  71.970  1.00  0.00    -0.069 A  
HETATM   38  C   UNL     1     -12.525   7.589  71.264  1.00  0.00    -0.354 A  
ENDBRANCH   2  26
TORSDOF 9
ENDMDL
MODEL      157
REMARK 921   NORMALIZED FREE ENERGY PREDICTED BY IDOCK:   -5.36 KCAL/MOL
REMARK 922        TOTAL FREE ENERGY PREDICTED BY IDOCK:   -9.94 KCAL/MOL
REMARK 923 INTER-LIGAND FREE ENERGY PREDICTED BY IDOCK:   -8.70 KCAL/MOL
REMARK 924 INTRA-LIGAND FREE ENERGY PREDICTED BY IDOCK:   -1.24 KCAL/MOL
REMARK 927      BINDING AFFINITY PREDICTED BY RF-SCORE:    0.00 PKD
ROOT
HETATM    1  C   UNL     1      -9.706   9.002  68.801  1.00  0.00    -0.159 C  
HETATM    2  N   UNL     1      -9.763   8.620  67.326  1.00  0.00    -0.172 N  
HETATM    3  C   UNL     1     -10.657   7.394  67.162  1.00  0.00    -0.342 C  
ENDROOT
BRANCH   2   4
HETATM    4  C   UNL     1     -10.283   9.798  66.529  1.00  0.00    -0.219 C  
BRANCH   4   5
HETATM    5  C   UNL     1     -10.377  11.131  67.272  1.00  0.00    -0.243 C  
BRANCH   5   6
HETATM    6  C   UNL     1      -9.249  12.055  66.793  1.00  0.00    -0.201 C  
BRANCH   6   7
HETATM    7  C   UNL     1      -8.619  12.909  67.909  1.00  0.00    -0.185 C  
BRANCH   7   8
HETATM    8  C   UNL     1      -8.030  14.241  67.421  1.00  0.00    -0.211 C  
BRANCH   8   9
HETATM    9  C   UNL     1      -8.453  15.345  68.390  1.00  0.00    -0.160 C  
BRANCH   9  10
HETATM   10  N   UNL     1      -8.979  16.617  67.744  1.00  0.00    -0.209 N  
HETATM   11  C   UNL     1      -8.575  17.851  68.544  1.00  0.00    -0.293 C  
HETATM   12  C   UNL     1      -8.428  16.812  66.339  1.00  0.00    -0.303 C  
BRANCH  10  13
HETATM   13  C   UNL     1     -10.578  16.488  67.693  1.00  0.00    -0.321 C  
HETATM   14  C   UNL     1     -11.205  15.914  68.979  1.00  0.00    -0.327 A  
HETATM   15  C   UNL     1     -11.883  14.708  68.692  1.00  0.00    -0.346 A  
HETATM   16  C   UNL     1     -11.844  14.463  67.270  1.00  0.00    -0.434 A  
HETATM   17  C   UNL     1     -12.486  13.962  69.695  1.00  0.00    -0.192 A  
HETATM   18  C   UNL     1     -11.112  15.492  66.636  1.00  0.00    -0.193 A  
HETATM   19  C   UNL     1     -12.419  14.431  71.006  1.00  0.00    -0.425 A  
HETATM   20  C   UNL     1     -11.782  15.645  71.293  1.00  0.00    -0.478 A  
HETATM   21  C   UNL     1     -11.011  15.507  65.249  1.00  0.00    -0.391 A  
HETATM   22  C   UNL     1     -11.598  14.467  64.515  1.00  0.00    -0.393 A  
HETATM   23  C   UNL     1     -11.191  16.405  70.279  1.00  0.00    -0.259 A  
HETATM   24  C   UNL     1     -12.312  13.448  65.155  1.00  0.00    -0.501 A  
HETATM   25  C   UNL     1     -12.448  13.445  66.543  1.00  0.00    -0.255 A  
ENDBRANCH  10  13
ENDBRANCH   9  10
ENDBRANCH   8   9
ENDBRANCH   7   8
ENDBRANCH   6   7
ENDBRANCH   5   6
ENDBRANCH   4   5
ENDBRANCH   2   4
BRANCH   2  26
HETATM   26  C   UNL     1      -8.285   8.285  66.775  1.00  0.00    -0.103 C  
HETATM   27  C   UNL     1      -7.397   4.705  66.310  1.00  0.00    -0.081 A  
HETATM   28  C   UNL     1      -8.189   8.142  65.241  1.00  0.00    -0.150 A  
HETATM   29  C   UNL     1      -7.237   4.233  67.608  1.00  0.00    -0.068 A  
HETATM   30  C   UNL     1      -7.865   6.804  64.909  1.00  0.00    -0.119 A  
HETATM   31  C   UNL     1      -7.666   6.053  66.127  1.00  0.00    -0.102 A  
HETATM   32  C   UNL     1      -7.708   6.405  63.590  1.00  0.00    -0.114 A  
HETATM   33  C   UNL     1      -7.272   5.105  68.707  1.00  0.00    -0.062 A  
HETATM   34  C   UNL     1      -8.306   9.091  64.227  1.00  0.00    -0.179 A  
HETATM   35  C   UNL     1      -7.781   6.921  67.234  1.00  0.00    -0.109 A  
HETATM   36  C   UNL     1      -7.881   7.351  62.578  1.00  0.00    -0.131 A  
HETATM   37  C   UNL     1      -7.505   6.475  68.522  1.00  0.00    -0.088 A  
HETATM   38  C   UNL     1      -8.178   8.681  62.893  1.00  0.00    -0.184 A  
ENDBRANCH   2  26
TORSDOF 9
ENDMDL
MODEL      158
REMARK 921   NORMALIZED FREE ENERGY PREDICTED BY IDOCK:   -5.33 KCAL/MOL
REMARK 922        TOTAL FREE ENERGY PREDICTED BY IDOCK:   -9.89 KCAL/MOL
REMARK 923 INTER-LIGAND FREE ENERGY PREDICTED BY IDOCK:   -9.48 KCAL/MOL
REMARK 924 INTRA-LIGAND FREE ENERGY PREDICTED BY IDOCK:   -0.41 KCAL/MOL
REMARK 927      BINDING AFFINITY PREDICTED BY RF-SCORE:    0.00 PKD
ROOT
HETATM    1  C   UNL     1      -9.007  10.820  68.951  1.00  0.00    -0.153 C  
HETATM    2  N   UNL     1     -10.198  11.248  68.100  1.00  0.00    -0.174 N  
HETATM    3  C   UNL     1     -10.971  10.007  67.663  1.00  0.00    -0.234 C  
ENDROOT
BRANCH   2   4
HETATM    4  C   UNL     1     -11.069  12.190  68.905  1.00  0.00    -0.243 C  
BRANCH   4   5
HETATM    5  C   UNL     1     -10.546  13.616  69.077  1.00  0.00    -0.147 C  
BRANCH   5   6
HETATM    6  C   UNL     1     -11.622  14.608  68.615  1.00  0.00    -0.343 C  
BRANCH   6   7
HETATM    7  C   UNL     1     -11.140  15.606  67.546  1.00  0.00    -0.289 C  
BRANCH   7   8
HETATM    8  C   UNL     1     -10.655  16.947  68.116  1.00  0.00    -0.360 C  
BRANCH   8   9
HETATM    9  C   UNL     1      -9.808  17.649  67.055  1.00  0.00    -0.307 C  
BRANCH   9  10
HETATM   10  N   UNL     1      -9.433  19.090  67.364  1.00  0.00    -0.298 N  
HETATM   11  C   UNL     1      -9.877  20.029  66.247  1.00  0.00    -0.462 C  
HETATM   12  C   UNL     1     -10.096  19.590  68.639  1.00  0.00    -0.442 C  
BRANCH  10  13
HETATM   13  C   UNL     1      -7.836  19.133  67.524  1.00  0.00    -0.245 C  
HETATM   14  C   UNL     1      -7.079  19.403  66.209  1.00  0.00    -0.254 A  
HETATM   15  C   UNL     1      -6.234  18.313  65.902  1.00  0.00    -0.272 A  
HETATM   16  C   UNL     1      -6.288  17.349  66.975  1.00  0.00    -0.202 A  
HETATM   17  C   UNL     1      -5.484  18.286  64.735  1.00  0.00    -0.061 A  
HETATM   18  C   UNL     1      -7.196  17.796  67.963  1.00  0.00    -0.218 A  
HETATM   19  C   UNL     1      -5.573  19.368  63.861  1.00  0.00    -0.332 A  
HETATM   20  C   UNL     1      -6.380  20.469  64.175  1.00  0.00    -0.295 A  
HETATM   21  C   UNL     1      -7.350  17.061  69.134  1.00  0.00    -0.186 A  
HETATM   22  C   UNL     1      -6.637  15.863  69.282  1.00  0.00    -0.170 A  
HETATM   23  C   UNL     1      -7.120  20.503  65.361  1.00  0.00    -0.142 A  
HETATM   24  C   UNL     1      -5.750  15.426  68.293  1.00  0.00    -0.120 A  
HETATM   25  C   UNL     1      -5.562  16.175  67.132  1.00  0.00    -0.008 A  
ENDBRANCH  10  13
ENDBRANCH   9  10
ENDBRANCH   8   9
ENDBRANCH   7   8
ENDBRANCH   6   7
ENDBRANCH   5   6
ENDBRANCH   4   5
ENDBRANCH   2   4
BRANCH   2  26
HETATM   26  C   UNL     1      -9.697  12.055  66.797  1.00  0.00    -0.207 C  
HETATM   27  C   UNL     1      -8.267  10.073  63.995  1.00  0.00    -0.156 A  
HETATM   28  C   UNL     1     -10.758  12.200  65.685  1.00  0.00    -0.312 A  
HETATM   29  C   UNL     1      -7.023   9.675  64.474  1.00  0.00    -0.117 A  
HETATM   30  C   UNL     1     -10.347  11.474  64.541  1.00  0.00    -0.354 A  
HETATM   31  C   UNL     1      -9.042  10.906  64.787  1.00  0.00    -0.197 A  
HETATM   32  C   UNL     1     -11.119  11.445  63.388  1.00  0.00    -0.308 A  
HETATM   33  C   UNL     1      -6.526  10.159  65.693  1.00  0.00    -0.107 A  
HETATM   34  C   UNL     1     -11.936  12.942  65.640  1.00  0.00    -0.490 A  
HETATM   35  C   UNL     1      -8.580  11.333  66.051  1.00  0.00    -0.130 A  
HETATM   36  C   UNL     1     -12.324  12.148  63.371  1.00  0.00    -0.648 A  
HETATM   37  C   UNL     1      -7.290  11.032  66.478  1.00  0.00    -0.144 A  
HETATM   38  C   UNL     1     -12.730  12.889  64.487  1.00  0.00    -0.359 A  
ENDBRANCH   2  26
TORSDOF 9
ENDMDL
MODEL      159
REMARK 921   NORMALIZED FREE ENERGY PREDICTED BY IDOCK:   -5.32 KCAL/MOL
REMARK 922        TOTAL FREE ENERGY PREDICTED BY IDOCK:   -9.88 KCAL/MOL
REMARK 923 INTER-LIGAND FREE ENERGY PREDICTED BY IDOCK:   -8.19 KCAL/MOL
REMARK 924 INTRA-LIGAND FREE ENERGY PREDICTED BY IDOCK:   -1.69 KCAL/MOL
REMARK 927      BINDING AFFINITY PREDICTED BY RF-SCORE:    0.00 PKD
ROOT
HETATM    1  C   UNL     1     -12.285  13.821  67.538  1.00  0.00    -0.227 C  
HETATM    2  N   UNL     1     -11.159  12.845  67.862  1.00  0.00    -0.241 N  
HETATM    3  C   UNL     1     -11.506  11.474  67.288  1.00  0.00    -0.263 C  
ENDROOT
BRANCH   2   4
HETATM    4  C   UNL     1      -9.862  13.376  67.285  1.00  0.00    -0.233 C  
BRANCH   4   5
HETATM    5  C   UNL     1      -8.622  13.240  68.168  1.00  0.00    -0.177 C  
BRANCH   5   6
HETATM    6  C   UNL     1      -7.928  11.906  67.861  1.00  0.00    -0.144 C  
BRANCH   6   7
HETATM    7  C   UNL     1      -6.527  12.055  67.239  1.00  0.00    -0.149 C  
BRANCH   7   8
HETATM    8  C   UNL     1      -6.177  10.961  66.219  1.00  0.00    -0.134 C  
BRANCH   8   9
HETATM    9  C   UNL     1      -5.687   9.727  66.978  1.00  0.00    -0.050 C  
BRANCH   9  10
HETATM   10  N   UNL     1      -6.598   8.511  66.907  1.00  0.00    -0.057 N  
HETATM   11  C   UNL     1      -7.163   8.324  65.503  1.00  0.00    -0.071 C  
HETATM   12  C   UNL     1      -5.861   7.226  67.252  1.00  0.00    -0.030 C  
BRANCH  10  13
HETATM   13  C   UNL     1      -7.789   8.759  67.956  1.00  0.00    -0.102 C  
HETATM   14  C   UNL     1      -7.376   8.582  69.430  1.00  0.00    -0.069 A  
HETATM   15  C   UNL     1      -8.126   7.540  70.022  1.00  0.00    -0.127 A  
HETATM   16  C   UNL     1      -9.098   7.052  69.074  1.00  0.00    -0.135 A  
HETATM   17  C   UNL     1      -7.903   7.144  71.333  1.00  0.00    -0.097 A  
HETATM   18  C   UNL     1      -8.958   7.752  67.854  1.00  0.00    -0.125 A  
HETATM   19  C   UNL     1      -6.919   7.802  72.069  1.00  0.00    -0.067 A  
HETATM   20  C   UNL     1      -6.198   8.860  71.502  1.00  0.00    -0.069 A  
HETATM   21  C   UNL     1      -9.849   7.504  66.815  1.00  0.00    -0.295 A  
HETATM   22  C   UNL     1     -10.835   6.522  66.986  1.00  0.00    -0.465 A  
HETATM   23  C   UNL     1      -6.437   9.271  70.188  1.00  0.00    -0.049 A  
HETATM   24  C   UNL     1     -10.957   5.828  68.195  1.00  0.00    -0.150 A  
HETATM   25  C   UNL     1     -10.091   6.097  69.254  1.00  0.00    -0.218 A  
ENDBRANCH  10  13
ENDBRANCH   9  10
ENDBRANCH   8   9
ENDBRANCH   7   8
ENDBRANCH   6   7
ENDBRANCH   5   6
ENDBRANCH   4   5
ENDBRANCH   2   4
BRANCH   2  26
HETATM   26  C   UNL     1     -10.960  12.725  69.457  1.00  0.00     0.111 C  
HETATM   27  C   UNL     1     -13.746  13.888  71.627  1.00  0.00    -0.396 A  
HETATM   28  C   UNL     1     -11.497  11.416  70.074  1.00  0.00    -0.331 A  
HETATM   29  C   UNL     1     -13.690  15.273  71.522  1.00  0.00    -0.610 A  
HETATM   30  C   UNL     1     -12.588  11.707  70.928  1.00  0.00    -0.409 A  
HETATM   31  C   UNL     1     -12.776  13.138  70.980  1.00  0.00    -0.361 A  
HETATM   32  C   UNL     1     -13.251  10.703  71.619  1.00  0.00    -0.495 A  
HETATM   33  C   UNL     1     -12.638  15.908  70.844  1.00  0.00    -0.308 A  
HETATM   34  C   UNL     1     -11.045  10.102  69.961  1.00  0.00    -0.368 A  
HETATM   35  C   UNL     1     -11.760  13.768  70.230  1.00  0.00    -0.271 A  
HETATM   36  C   UNL     1     -12.826   9.384  71.458  1.00  0.00    -0.442 A  
HETATM   37  C   UNL     1     -11.634  15.154  70.223  1.00  0.00    -0.325 A  
HETATM   38  C   UNL     1     -11.733   9.085  70.636  1.00  0.00    -0.237 A  
ENDBRANCH   2  26
TORSDOF 9
ENDMDL
MODEL      160
REMARK 921   NORMALIZED FREE ENERGY PREDICTED BY IDOCK:   -5.31 KCAL/MOL
REMARK 922        TOTAL FREE ENERGY PREDICTED BY IDOCK:   -9.87 KCAL/MOL
REMARK 923 INTER-LIGAND FREE ENERGY PREDICTED BY IDOCK:   -9.65 KCAL/MOL
REMARK 924 INTRA-LIGAND FREE ENERGY PREDICTED BY IDOCK:   -0.23 KCAL/MOL
REMARK 927      BINDING AFFINITY PREDICTED BY RF-SCORE:    0.00 PKD
ROOT
HETATM    1  C   UNL     1     -10.383   8.232  67.743  1.00  0.00    -0.234 C  
HETATM    2  N   UNL     1      -9.185   8.840  68.464  1.00  0.00    -0.141 N  
HETATM    3  C   UNL     1      -8.195   9.369  67.430  1.00  0.00    -0.121 C  
ENDROOT
BRANCH   2   4
HETATM    4  C   UNL     1      -9.669   9.943  69.384  1.00  0.00    -0.214 C  
BRANCH   4   5
HETATM    5  C   UNL     1     -11.154  10.295  69.298  1.00  0.00    -0.293 C  
BRANCH   5   6
HETATM    6  C   UNL     1     -11.661  10.689  70.692  1.00  0.00    -0.432 C  
BRANCH   6   7
HETATM    7  C   UNL     1     -12.800  11.725  70.677  1.00  0.00    -0.093 C  
BRANCH   7   8
HETATM    8  C   UNL     1     -12.341  13.164  70.958  1.00  0.00    -0.355 C  
BRANCH   8   9
HETATM    9  C   UNL     1     -12.299  13.929  69.636  1.00  0.00    -0.249 C  
BRANCH   9  10
HETATM   10  N   UNL     1     -11.322  15.093  69.584  1.00  0.00    -0.264 N  
HETATM   11  C   UNL     1     -11.476  15.999  70.801  1.00  0.00    -0.414 C  
HETATM   12  C   UNL     1      -9.875  14.623  69.575  1.00  0.00     0.089 C  
BRANCH  10  13
HETATM   13  C   UNL     1     -11.641  15.911  68.239  1.00  0.00    -0.272 C  
HETATM   14  C   UNL     1     -11.587  15.059  66.956  1.00  0.00    -0.248 A  
HETATM   15  C   UNL     1     -10.588  15.553  66.087  1.00  0.00    -0.321 A  
HETATM   16  C   UNL     1     -10.016  16.753  66.649  1.00  0.00    -0.300 A  
HETATM   17  C   UNL     1     -10.301  14.923  64.884  1.00  0.00    -0.347 A  
HETATM   18  C   UNL     1     -10.617  17.019  67.900  1.00  0.00    -0.365 A  
HETATM   19  C   UNL     1     -11.026  13.784  64.539  1.00  0.00    -0.399 A  
HETATM   20  C   UNL     1     -12.043  13.309  65.377  1.00  0.00    -0.464 A  
HETATM   21  C   UNL     1     -10.276  18.177  68.591  1.00  0.00    -0.382 A  
HETATM   22  C   UNL     1      -9.302  19.028  68.051  1.00  0.00    -0.365 A  
HETATM   23  C   UNL     1     -12.344  13.956  66.579  1.00  0.00    -0.447 A  
HETATM   24  C   UNL     1      -8.706  18.748  66.817  1.00  0.00    -0.303 A  
HETATM   25  C   UNL     1      -9.068  17.608  66.100  1.00  0.00    -0.146 A  
ENDBRANCH  10  13
ENDBRANCH   9  10
ENDBRANCH   8   9
ENDBRANCH   7   8
ENDBRANCH   6   7
ENDBRANCH   5   6
ENDBRANCH   4   5
ENDBRANCH   2   4
BRANCH   2  26
HETATM   26  C   UNL     1      -8.461   7.732  69.385  1.00  0.00    -0.134 C  
HETATM   27  C   UNL     1     -10.395   6.335  72.234  1.00  0.00    -0.216 A  
HETATM   28  C   UNL     1      -8.718   6.273  68.954  1.00  0.00    -0.125 A  
HETATM   29  C   UNL     1     -10.421   7.374  73.158  1.00  0.00    -0.406 A  
HETATM   30  C   UNL     1      -9.469   5.609  69.954  1.00  0.00    -0.197 A  
HETATM   31  C   UNL     1      -9.674   6.510  71.064  1.00  0.00    -0.189 A  
HETATM   32  C   UNL     1      -9.830   4.276  69.820  1.00  0.00    -0.258 A  
HETATM   33  C   UNL     1      -9.678   8.547  72.951  1.00  0.00    -0.161 A  
HETATM   34  C   UNL     1      -8.288   5.563  67.834  1.00  0.00    -0.099 A  
HETATM   35  C   UNL     1      -8.988   7.719  70.815  1.00  0.00    -0.148 A  
HETATM   36  C   UNL     1      -9.441   3.588  68.670  1.00  0.00    -0.209 A  
HETATM   37  C   UNL     1      -8.916   8.711  71.787  1.00  0.00    -0.307 A  
HETATM   38  C   UNL     1      -8.678   4.226  67.685  1.00  0.00    -0.116 A  
ENDBRANCH   2  26
TORSDOF 9
ENDMDL
MODEL      161
REMARK 921   NORMALIZED FREE ENERGY PREDICTED BY IDOCK:   -5.31 KCAL/MOL
REMARK 922        TOTAL FREE ENERGY PREDICTED BY IDOCK:   -9.87 KCAL/MOL
REMARK 923 INTER-LIGAND FREE ENERGY PREDICTED BY IDOCK:   -8.50 KCAL/MOL
REMARK 924 INTRA-LIGAND FREE ENERGY PREDICTED BY IDOCK:   -1.37 KCAL/MOL
REMARK 927      BINDING AFFINITY PREDICTED BY RF-SCORE:    0.00 PKD
ROOT
HETATM    1  C   UNL     1      -9.808   9.634  69.246  1.00  0.00    -0.189 C  
HETATM    2  N   UNL     1      -9.257  10.120  67.909  1.00  0.00    -0.137 N  
HETATM    3  C   UNL     1      -8.404  11.363  68.143  1.00  0.00    -0.149 C  
ENDROOT
BRANCH   2   4
HETATM    4  C   UNL     1      -8.453   9.006  67.272  1.00  0.00    -0.114 C  
BRANCH   4   5
HETATM    5  C   UNL     1      -7.044   8.785  67.822  1.00  0.00    -0.083 C  
BRANCH   5   6
HETATM    6  C   UNL     1      -6.976   7.410  68.499  1.00  0.00    -0.079 C  
BRANCH   6   7
HETATM    7  C   UNL     1      -5.715   7.191  69.354  1.00  0.00    -0.015 C  
BRANCH   7   8
HETATM    8  C   UNL     1      -5.938   6.293  70.581  1.00  0.00    -0.026 C  
BRANCH   8   9
HETATM    9  C   UNL     1      -7.423   5.938  70.660  1.00  0.00    -0.087 C  
BRANCH   9  10
HETATM   10  N   UNL     1      -7.733   4.468  70.891  1.00  0.00    -0.063 N  
HETATM   11  C   UNL     1      -6.766   3.572  70.124  1.00  0.00    -0.033 C  
HETATM   12  C   UNL     1      -7.610   4.083  72.357  1.00  0.00    -0.072 C  
BRANCH  10  13
HETATM   13  C   UNL     1      -9.237   4.222  70.384  1.00  0.00    -0.120 C  
HETATM   14  C   UNL     1      -9.478   4.616  68.914  1.00  0.00    -0.218 A  
HETATM   15  C   UNL     1     -10.453   5.636  68.837  1.00  0.00    -0.310 A  
HETATM   16  C   UNL     1     -10.970   5.903  70.158  1.00  0.00    -0.412 A  
HETATM   17  C   UNL     1     -10.809   6.206  67.624  1.00  0.00    -0.421 A  
HETATM   18  C   UNL     1     -10.307   5.081  71.098  1.00  0.00    -0.254 A  
HETATM   19  C   UNL     1     -10.187   5.746  66.464  1.00  0.00    -0.241 A  
HETATM   20  C   UNL     1      -9.246   4.710  66.526  1.00  0.00    -0.132 A  
HETATM   21  C   UNL     1     -10.700   5.110  72.432  1.00  0.00    -0.276 A  
HETATM   22  C   UNL     1     -11.714   5.996  72.821  1.00  0.00    -0.145 A  
HETATM   23  C   UNL     1      -8.903   4.123  67.748  1.00  0.00    -0.130 A  
HETATM   24  C   UNL     1     -12.357   6.811  71.883  1.00  0.00    -0.369 A  
HETATM   25  C   UNL     1     -11.993   6.763  70.538  1.00  0.00    -0.385 A  
ENDBRANCH  10  13
ENDBRANCH   9  10
ENDBRANCH   8   9
ENDBRANCH   7   8
ENDBRANCH   6   7
ENDBRANCH   5   6
ENDBRANCH   4   5
ENDBRANCH   2   4
BRANCH   2  26
HETATM   26  C   UNL     1     -10.463  10.477  66.901  1.00  0.00    -0.246 C  
HETATM   27  C   UNL     1     -11.107  14.071  66.200  1.00  0.00    -0.302 A  
HETATM   28  C   UNL     1     -10.041  10.630  65.424  1.00  0.00    -0.356 A  
HETATM   29  C   UNL     1     -11.684  14.538  67.375  1.00  0.00    -0.425 A  
HETATM   30  C   UNL     1     -10.222  11.973  65.016  1.00  0.00    -0.308 A  
HETATM   31  C   UNL     1     -10.806  12.721  66.104  1.00  0.00    -0.303 A  
HETATM   32  C   UNL     1      -9.925  12.381  63.723  1.00  0.00    -0.241 A  
HETATM   33  C   UNL     1     -12.026  13.660  68.415  1.00  0.00    -0.391 A  
HETATM   34  C   UNL     1      -9.603   9.684  64.499  1.00  0.00    -0.094 A  
HETATM   35  C   UNL     1     -11.076  11.845  67.178  1.00  0.00    -0.347 A  
HETATM   36  C   UNL     1      -9.436  11.438  62.818  1.00  0.00    -0.314 A  
HETATM   37  C   UNL     1     -11.760  12.289  68.305  1.00  0.00    -0.392 A  
HETATM   38  C   UNL     1      -9.275  10.102  63.202  1.00  0.00    -0.316 A  
ENDBRANCH   2  26
TORSDOF 9
ENDMDL
MODEL      162
REMARK 921   NORMALIZED FREE ENERGY PREDICTED BY IDOCK:   -5.31 KCAL/MOL
REMARK 922        TOTAL FREE ENERGY PREDICTED BY IDOCK:   -9.86 KCAL/MOL
REMARK 923 INTER-LIGAND FREE ENERGY PREDICTED BY IDOCK:  -10.18 KCAL/MOL
REMARK 924 INTRA-LIGAND FREE ENERGY PREDICTED BY IDOCK:    0.32 KCAL/MOL
REMARK 927      BINDING AFFINITY PREDICTED BY RF-SCORE:    0.00 PKD
ROOT
HETATM    1  C   UNL     1      -9.115  13.952  68.813  1.00  0.00    -0.002 C  
HETATM    2  N   UNL     1     -10.369  13.121  68.561  1.00  0.00    -0.250 N  
HETATM    3  C   UNL     1     -10.003  11.912  67.706  1.00  0.00    -0.186 C  
ENDROOT
BRANCH   2   4
HETATM    4  C   UNL     1     -10.961  12.703  69.891  1.00  0.00     0.500 C  
BRANCH   4   5
HETATM    5  C   UNL     1     -12.092  11.676  69.837  1.00  0.00    -0.373 C  
BRANCH   5   6
HETATM    6  C   UNL     1     -12.812  11.647  71.192  1.00  0.00    -0.392 C  
BRANCH   6   7
HETATM    7  C   UNL     1     -12.985  10.234  71.781  1.00  0.00    -0.574 C  
BRANCH   7   8
HETATM    8  C   UNL     1     -11.849   9.264  71.424  1.00  0.00    -0.428 C  
BRANCH   8   9
HETATM    9  C   UNL     1     -11.947   8.043  72.339  1.00  0.00    -0.350 C  
BRANCH   9  10
HETATM   10  N   UNL     1     -10.708   7.163  72.390  1.00  0.00    -0.229 N  
HETATM   11  C   UNL     1      -9.545   7.801  71.638  1.00  0.00    -0.155 C  
HETATM   12  C   UNL     1     -10.229   6.936  73.816  1.00  0.00    -0.363 C  
BRANCH  10  13
HETATM   13  C   UNL     1     -11.103   5.761  71.715  1.00  0.00    -0.238 C  
HETATM   14  C   UNL     1     -10.293   4.559  72.239  1.00  0.00    -0.243 A  
HETATM   15  C   UNL     1      -9.564   3.967  71.183  1.00  0.00    -0.242 A  
HETATM   16  C   UNL     1      -9.896   4.628  69.943  1.00  0.00    -0.296 A  
HETATM   17  C   UNL     1      -8.708   2.898  71.406  1.00  0.00    -0.115 A  
HETATM   18  C   UNL     1     -10.815   5.671  70.198  1.00  0.00    -0.356 A  
HETATM   19  C   UNL     1      -8.582   2.405  72.703  1.00  0.00    -0.066 A  
HETATM   20  C   UNL     1      -9.329   2.962  73.749  1.00  0.00    -0.102 A  
HETATM   21  C   UNL     1     -11.340   6.397  69.134  1.00  0.00    -0.366 A  
HETATM   22  C   UNL     1     -10.902   6.108  67.834  1.00  0.00    -0.406 A  
HETATM   23  C   UNL     1     -10.206   4.026  73.520  1.00  0.00    -0.210 A  
HETATM   24  C   UNL     1      -9.985   5.079  67.596  1.00  0.00    -0.202 A  
HETATM   25  C   UNL     1      -9.481   4.323  68.653  1.00  0.00    -0.221 A  
ENDBRANCH  10  13
ENDBRANCH   9  10
ENDBRANCH   8   9
ENDBRANCH   7   8
ENDBRANCH   6   7
ENDBRANCH   5   6
ENDBRANCH   4   5
ENDBRANCH   2   4
BRANCH   2  26
HETATM   26  C   UNL     1     -11.483  14.002  67.796  1.00  0.00    -0.322 C  
HETATM   27  C   UNL     1     -10.319  17.003  65.936  1.00  0.00    -0.310 A  
HETATM   28  C   UNL     1     -11.708  13.611  66.320  1.00  0.00    -0.396 A  
HETATM   29  C   UNL     1     -10.001  17.911  66.940  1.00  0.00    -0.335 A  
HETATM   30  C   UNL     1     -11.290  14.671  65.481  1.00  0.00    -0.341 A  
HETATM   31  C   UNL     1     -10.863  15.781  66.301  1.00  0.00    -0.232 A  
HETATM   32  C   UNL     1     -11.393  14.582  64.100  1.00  0.00     0.009 A  
HETATM   33  C   UNL     1     -10.289  17.636  68.285  1.00  0.00    -0.384 A  
HETATM   34  C   UNL     1     -12.280  12.473  65.756  1.00  0.00    -0.361 A  
HETATM   35  C   UNL     1     -11.082  15.467  67.659  1.00  0.00    -0.316 A  
HETATM   36  C   UNL     1     -11.918  13.416  63.541  1.00  0.00    -0.467 A  
HETATM   37  C   UNL     1     -10.876  16.418  68.654  1.00  0.00    -0.331 A  
HETATM   38  C   UNL     1     -12.357  12.370  64.360  1.00  0.00    -0.532 A  
ENDBRANCH   2  26
TORSDOF 9
ENDMDL
MODEL      163
REMARK 921   NORMALIZED FREE ENERGY PREDICTED BY IDOCK:   -5.30 KCAL/MOL
REMARK 922        TOTAL FREE ENERGY PREDICTED BY IDOCK:   -9.86 KCAL/MOL
REMARK 923 INTER-LIGAND FREE ENERGY PREDICTED BY IDOCK:   -9.66 KCAL/MOL
REMARK 924 INTRA-LIGAND FREE ENERGY PREDICTED BY IDOCK:   -0.20 KCAL/MOL
REMARK 927      BINDING AFFINITY PREDICTED BY RF-SCORE:    0.00 PKD
ROOT
HETATM    1  C   UNL     1     -10.608  10.569  68.982  1.00  0.00    -0.222 C  
HETATM    2  N   UNL     1      -9.590   9.565  68.451  1.00  0.00    -0.141 N  
HETATM    3  C   UNL     1     -10.219   8.776  67.305  1.00  0.00    -0.263 C  
ENDROOT
BRANCH   2   4
HETATM    4  C   UNL     1      -8.351  10.308  67.999  1.00  0.00    -0.114 C  
BRANCH   4   5
HETATM    5  C   UNL     1      -7.416  10.802  69.102  1.00  0.00    -0.123 C  
BRANCH   5   6
HETATM    6  C   UNL     1      -7.203  12.314  68.944  1.00  0.00    -0.069 C  
BRANCH   6   7
HETATM    7  C   UNL     1      -6.152  12.904  69.902  1.00  0.00    -0.126 C  
BRANCH   7   8
HETATM    8  C   UNL     1      -5.860  14.395  69.668  1.00  0.00    -0.105 C  
BRANCH   8   9
HETATM    9  C   UNL     1      -7.181  15.163  69.718  1.00  0.00    -0.155 C  
BRANCH   9  10
HETATM   10  N   UNL     1      -7.386  16.184  68.610  1.00  0.00    -0.164 N  
HETATM   11  C   UNL     1      -6.758  17.526  68.971  1.00  0.00    -0.247 C  
HETATM   12  C   UNL     1      -6.744  15.743  67.303  1.00  0.00    -0.162 C  
BRANCH  10  13
HETATM   13  C   UNL     1      -8.971  16.348  68.414  1.00  0.00    -0.214 C  
HETATM   14  C   UNL     1      -9.569  15.436  67.325  1.00  0.00    -0.213 A  
HETATM   15  C   UNL     1     -10.153  16.218  66.304  1.00  0.00    -0.340 A  
HETATM   16  C   UNL     1     -10.081  17.612  66.669  1.00  0.00    -0.335 A  
HETATM   17  C   UNL     1     -10.712  15.634  65.176  1.00  0.00    -0.463 A  
HETATM   18  C   UNL     1      -9.419  17.740  67.911  1.00  0.00    -0.270 A  
HETATM   19  C   UNL     1     -10.693  14.244  65.067  1.00  0.00    -0.435 A  
HETATM   20  C   UNL     1     -10.149  13.460  66.092  1.00  0.00    -0.304 A  
HETATM   21  C   UNL     1      -9.305  18.994  68.501  1.00  0.00    -0.425 A  
HETATM   22  C   UNL     1      -9.806  20.112  67.821  1.00  0.00    -0.547 A  
HETATM   23  C   UNL     1      -9.605  14.049  67.237  1.00  0.00    -0.238 A  
HETATM   24  C   UNL     1     -10.450  19.975  66.587  1.00  0.00    -0.519 A  
HETATM   25  C   UNL     1     -10.601  18.717  66.005  1.00  0.00    -0.410 A  
ENDBRANCH  10  13
ENDBRANCH   9  10
ENDBRANCH   8   9
ENDBRANCH   7   8
ENDBRANCH   6   7
ENDBRANCH   5   6
ENDBRANCH   4   5
ENDBRANCH   2   4
BRANCH   2  26
HETATM   26  C   UNL     1      -9.141   8.549  69.619  1.00  0.00    -0.149 C  
HETATM   27  C   UNL     1     -11.795   6.517  71.244  1.00  0.00    -0.385 A  
HETATM   28  C   UNL     1      -8.831   7.115  69.139  1.00  0.00    -0.135 A  
HETATM   29  C   UNL     1     -12.479   7.436  72.032  1.00  0.00    -0.280 A  
HETATM   30  C   UNL     1      -9.784   6.219  69.677  1.00  0.00    -0.175 A  
HETATM   31  C   UNL     1     -10.677   6.948  70.548  1.00  0.00    -0.267 A  
HETATM   32  C   UNL     1      -9.729   4.859  69.409  1.00  0.00    -0.261 A  
HETATM   33  C   UNL     1     -12.014   8.751  72.183  1.00  0.00    -0.436 A  
HETATM   34  C   UNL     1      -7.785   6.619  68.363  1.00  0.00    -0.105 A  
HETATM   35  C   UNL     1     -10.249   8.291  70.633  1.00  0.00    -0.214 A  
HETATM   36  C   UNL     1      -8.710   4.378  68.586  1.00  0.00    -0.119 A  
HETATM   37  C   UNL     1     -10.861   9.180  71.511  1.00  0.00    -0.436 A  
HETATM   38  C   UNL     1      -7.746   5.250  68.067  1.00  0.00    -0.084 A  
ENDBRANCH   2  26
TORSDOF 9
ENDMDL
MODEL      164
REMARK 921   NORMALIZED FREE ENERGY PREDICTED BY IDOCK:   -5.29 KCAL/MOL
REMARK 922        TOTAL FREE ENERGY PREDICTED BY IDOCK:   -9.85 KCAL/MOL
REMARK 923 INTER-LIGAND FREE ENERGY PREDICTED BY IDOCK:   -8.68 KCAL/MOL
REMARK 924 INTRA-LIGAND FREE ENERGY PREDICTED BY IDOCK:   -1.16 KCAL/MOL
REMARK 927      BINDING AFFINITY PREDICTED BY RF-SCORE:    0.00 PKD
ROOT
HETATM    1  C   UNL     1      -9.096   6.533  69.057  1.00  0.00    -0.132 C  
HETATM    2  N   UNL     1      -9.274   7.877  69.756  1.00  0.00    -0.150 N  
HETATM    3  C   UNL     1      -7.967   8.661  69.670  1.00  0.00    -0.096 C  
ENDROOT
BRANCH   2   4
HETATM    4  C   UNL     1     -10.417   8.627  69.104  1.00  0.00    -0.211 C  
BRANCH   4   5
HETATM    5  C   UNL     1     -10.076   9.987  68.495  1.00  0.00    -0.187 C  
BRANCH   5   6
HETATM    6  C   UNL     1     -11.374  10.757  68.220  1.00  0.00    -0.376 C  
BRANCH   6   7
HETATM    7  C   UNL     1     -11.662  11.886  69.227  1.00  0.00    -0.389 C  
BRANCH   7   8
HETATM    8  C   UNL     1     -11.929  13.251  68.576  1.00  0.00    -0.340 C  
BRANCH   8   9
HETATM    9  C   UNL     1     -12.015  13.060  67.062  1.00  0.00    -0.347 C  
BRANCH   9  10
HETATM   10  N   UNL     1     -11.591  14.258  66.226  1.00  0.00    -0.360 N  
HETATM   11  C   UNL     1     -12.526  14.462  65.038  1.00  0.00    -0.359 C  
HETATM   12  C   UNL     1     -11.620  15.551  67.027  1.00  0.00     0.066 C  
BRANCH  10  13
HETATM   13  C   UNL     1     -10.098  13.964  65.713  1.00  0.00    -0.320 C  
HETATM   14  C   UNL     1      -9.940  12.624  64.970  1.00  0.00    -0.179 A  
HETATM   15  C   UNL     1      -9.027  11.792  65.657  1.00  0.00     0.045 A  
HETATM   16  C   UNL     1      -8.472  12.513  66.777  1.00  0.00    -0.073 A  
HETATM   17  C   UNL     1      -8.753  10.504  65.220  1.00  0.00    -0.200 A  
HETATM   18  C   UNL     1      -9.049  13.802  66.839  1.00  0.00    -0.253 A  
HETATM   19  C   UNL     1      -9.396  10.038  64.074  1.00  0.00    -0.324 A  
HETATM   20  C   UNL     1     -10.274  10.869  63.366  1.00  0.00    -0.356 A  
HETATM   21  C   UNL     1      -8.604  14.707  67.796  1.00  0.00    -0.175 A  
HETATM   22  C   UNL     1      -7.625  14.298  68.713  1.00  0.00    -0.130 A  
HETATM   23  C   UNL     1     -10.533  12.174  63.796  1.00  0.00    -0.470 A  
HETATM   24  C   UNL     1      -7.068  13.017  68.648  1.00  0.00    -0.103 A  
HETATM   25  C   UNL     1      -7.484  12.115  67.669  1.00  0.00    -0.129 A  
ENDBRANCH  10  13
ENDBRANCH   9  10
ENDBRANCH   8   9
ENDBRANCH   7   8
ENDBRANCH   6   7
ENDBRANCH   5   6
ENDBRANCH   4   5
ENDBRANCH   2   4
BRANCH   2  26
HETATM   26  C   UNL     1      -9.667   7.657  71.305  1.00  0.00    -0.160 C  
HETATM   27  C   UNL     1     -13.244   7.031  72.096  1.00  0.00    -0.036 A  
HETATM   28  C   UNL     1      -9.674   6.183  71.762  1.00  0.00    -0.171 A  
HETATM   29  C   UNL     1     -13.846   8.272  71.912  1.00  0.00    -0.438 A  
HETATM   30  C   UNL     1     -10.995   5.795  72.089  1.00  0.00    -0.311 A  
HETATM   31  C   UNL     1     -11.870   6.937  71.948  1.00  0.00    -0.351 A  
HETATM   32  C   UNL     1     -11.281   4.515  72.540  1.00  0.00     0.058 A  
HETATM   33  C   UNL     1     -13.079   9.419  71.655  1.00  0.00    -0.471 A  
HETATM   34  C   UNL     1      -8.629   5.280  71.943  1.00  0.00    -0.130 A  
HETATM   35  C   UNL     1     -11.101   8.072  71.612  1.00  0.00    -0.300 A  
HETATM   36  C   UNL     1     -10.235   3.600  72.667  1.00  0.00    -0.239 A  
HETATM   37  C   UNL     1     -11.685   9.333  71.544  1.00  0.00    -0.450 A  
HETATM   38  C   UNL     1      -8.921   3.977  72.370  1.00  0.00    -0.133 A  
ENDBRANCH   2  26
TORSDOF 9
ENDMDL
MODEL      165
REMARK 921   NORMALIZED FREE ENERGY PREDICTED BY IDOCK:   -5.27 KCAL/MOL
REMARK 922        TOTAL FREE ENERGY PREDICTED BY IDOCK:   -9.81 KCAL/MOL
REMARK 923 INTER-LIGAND FREE ENERGY PREDICTED BY IDOCK:   -7.80 KCAL/MOL
REMARK 924 INTRA-LIGAND FREE ENERGY PREDICTED BY IDOCK:   -2.01 KCAL/MOL
REMARK 927      BINDING AFFINITY PREDICTED BY RF-SCORE:    0.00 PKD
ROOT
HETATM    1  C   UNL     1      -6.975   6.773  71.048  1.00  0.00    -0.067 C  
HETATM    2  N   UNL     1      -7.667   7.973  70.410  1.00  0.00    -0.084 N  
HETATM    3  C   UNL     1      -7.681   9.129  71.407  1.00  0.00     0.044 C  
ENDROOT
BRANCH   2   4
HETATM    4  C   UNL     1      -6.936   8.346  69.137  1.00  0.00    -0.059 C  
BRANCH   4   5
HETATM    5  C   UNL     1      -6.835   9.839  68.825  1.00  0.00    -0.051 C  
BRANCH   5   6
HETATM    6  C   UNL     1      -6.615  10.026  67.318  1.00  0.00    -0.069 C  
BRANCH   6   7
HETATM    7  C   UNL     1      -7.394  11.206  66.711  1.00  0.00    -0.146 C  
BRANCH   7   8
HETATM    8  C   UNL     1      -7.656  12.356  67.695  1.00  0.00    -0.141 C  
BRANCH   8   9
HETATM    9  C   UNL     1      -8.241  13.537  66.920  1.00  0.00     0.067 C  
BRANCH   9  10
HETATM   10  N   UNL     1      -8.264  14.862  67.666  1.00  0.00    -0.159 N  
HETATM   11  C   UNL     1      -7.901  14.676  69.135  1.00  0.00    -0.107 C  
HETATM   12  C   UNL     1      -7.262  15.854  67.094  1.00  0.00    -0.219 C  
BRANCH  10  13
HETATM   13  C   UNL     1      -9.752  15.448  67.531  1.00  0.00    -0.208 C  
HETATM   14  C   UNL     1     -10.610  15.286  68.801  1.00  0.00    -0.240 A  
HETATM   15  C   UNL     1     -11.742  14.487  68.524  1.00  0.00    -0.353 A  
HETATM   16  C   UNL     1     -11.770  14.168  67.117  1.00  0.00    -0.430 A  
HETATM   17  C   UNL     1     -12.646  14.145  69.520  1.00  0.00    -0.011 A  
HETATM   18  C   UNL     1     -10.637  14.730  66.485  1.00  0.00    -0.299 A  
HETATM   19  C   UNL     1     -12.421  14.612  70.813  1.00  0.00    -0.407 A  
HETATM   20  C   UNL     1     -11.321  15.435  71.089  1.00  0.00    -0.427 A  
HETATM   21  C   UNL     1     -10.495  14.617  65.106  1.00  0.00    -0.440 A  
HETATM   22  C   UNL     1     -11.458  13.901  64.381  1.00  0.00    -0.376 A  
HETATM   23  C   UNL     1     -10.423  15.796  70.081  1.00  0.00    -0.288 A  
HETATM   24  C   UNL     1     -12.569  13.341  65.019  1.00  0.00    -0.483 A  
HETATM   25  C   UNL     1     -12.738  13.479  66.397  1.00  0.00    -0.068 A  
ENDBRANCH  10  13
ENDBRANCH   9  10
ENDBRANCH   8   9
ENDBRANCH   7   8
ENDBRANCH   6   7
ENDBRANCH   5   6
ENDBRANCH   4   5
ENDBRANCH   2   4
BRANCH   2  26
HETATM   26  C   UNL     1      -9.181   7.597  70.001  1.00  0.00    -0.151 C  
HETATM   27  C   UNL     1     -10.738   9.520  67.227  1.00  0.00    -0.269 A  
HETATM   28  C   UNL     1      -9.300   6.552  68.872  1.00  0.00    -0.131 A  
HETATM   29  C   UNL     1     -10.986  10.767  67.788  1.00  0.00    -0.354 A  
HETATM   30  C   UNL     1      -9.874   7.155  67.727  1.00  0.00    -0.175 A  
HETATM   31  C   UNL     1     -10.215   8.524  68.038  1.00  0.00    -0.264 A  
HETATM   32  C   UNL     1     -10.102   6.430  66.567  1.00  0.00    -0.155 A  
HETATM   33  C   UNL     1     -10.786  11.000  69.157  1.00  0.00    -0.274 A  
HETATM   34  C   UNL     1      -9.002   5.191  68.854  1.00  0.00    -0.122 A  
HETATM   35  C   UNL     1      -9.937   8.776  69.398  1.00  0.00    -0.196 A  
HETATM   36  C   UNL     1      -9.751   5.080  66.539  1.00  0.00    -0.193 A  
HETATM   37  C   UNL     1     -10.295   9.984  69.988  1.00  0.00    -0.323 A  
HETATM   38  C   UNL     1      -9.204   4.466  67.672  1.00  0.00    -0.169 A  
ENDBRANCH   2  26
TORSDOF 9
ENDMDL
MODEL      166
REMARK 921   NORMALIZED FREE ENERGY PREDICTED BY IDOCK:   -5.25 KCAL/MOL
REMARK 922        TOTAL FREE ENERGY PREDICTED BY IDOCK:   -9.78 KCAL/MOL
REMARK 923 INTER-LIGAND FREE ENERGY PREDICTED BY IDOCK:   -7.85 KCAL/MOL
REMARK 924 INTRA-LIGAND FREE ENERGY PREDICTED BY IDOCK:   -1.94 KCAL/MOL
REMARK 927      BINDING AFFINITY PREDICTED BY RF-SCORE:    0.00 PKD
ROOT
HETATM    1  C   UNL     1     -10.805  12.414  69.060  1.00  0.00    -0.148 C  
HETATM    2  N   UNL     1      -9.939  11.986  67.880  1.00  0.00    -0.192 N  
HETATM    3  C   UNL     1      -9.296  13.223  67.259  1.00  0.00    -0.226 C  
ENDROOT
BRANCH   2   4
HETATM    4  C   UNL     1      -8.895  11.002  68.365  1.00  0.00    -0.151 C  
BRANCH   4   5
HETATM    5  C   UNL     1      -7.440  11.464  68.291  1.00  0.00    -0.101 C  
BRANCH   5   6
HETATM    6  C   UNL     1      -6.539  10.255  68.006  1.00  0.00    -0.061 C  
BRANCH   6   7
HETATM    7  C   UNL     1      -6.019   9.547  69.270  1.00  0.00    -0.034 C  
BRANCH   7   8
HETATM    8  C   UNL     1      -5.193   8.283  68.985  1.00  0.00    -0.027 C  
BRANCH   8   9
HETATM    9  C   UNL     1      -5.812   7.113  69.750  1.00  0.00    -0.023 C  
BRANCH   9  10
HETATM   10  N   UNL     1      -6.476   6.048  68.892  1.00  0.00    -0.047 N  
HETATM   11  C   UNL     1      -5.513   5.506  67.841  1.00  0.00    -0.011 C  
HETATM   12  C   UNL     1      -6.933   4.855  69.717  1.00  0.00    -0.053 C  
BRANCH  10  13
HETATM   13  C   UNL     1      -7.739   6.740  68.183  1.00  0.00    -0.109 C  
HETATM   14  C   UNL     1      -8.938   6.975  69.122  1.00  0.00    -0.134 A  
HETATM   15  C   UNL     1     -10.064   6.258  68.660  1.00  0.00    -0.185 A  
HETATM   16  C   UNL     1      -9.744   5.620  67.406  1.00  0.00    -0.138 A  
HETATM   17  C   UNL     1     -11.260   6.258  69.364  1.00  0.00    -0.489 A  
HETATM   18  C   UNL     1      -8.399   5.893  67.070  1.00  0.00    -0.105 A  
HETATM   19  C   UNL     1     -11.336   6.992  70.547  1.00  0.00    -0.355 A  
HETATM   20  C   UNL     1     -10.235   7.735  70.993  1.00  0.00    -0.210 A  
HETATM   21  C   UNL     1      -7.891   5.444  65.855  1.00  0.00    -0.103 A  
HETATM   22  C   UNL     1      -8.716   4.683  65.015  1.00  0.00    -0.143 A  
HETATM   23  C   UNL     1      -9.038   7.750  70.272  1.00  0.00    -0.152 A  
HETATM   24  C   UNL     1     -10.043   4.410  65.363  1.00  0.00    -0.238 A  
HETATM   25  C   UNL     1     -10.570   4.887  66.563  1.00  0.00    -0.240 A  
ENDBRANCH  10  13
ENDBRANCH   9  10
ENDBRANCH   8   9
ENDBRANCH   7   8
ENDBRANCH   6   7
ENDBRANCH   5   6
ENDBRANCH   4   5
ENDBRANCH   2   4
BRANCH   2  26
HETATM   26  C   UNL     1     -10.832  11.230  66.771  1.00  0.00    -0.282 C  
HETATM   27  C   UNL     1     -11.378  12.966  63.530  1.00  0.00    -0.408 A  
HETATM   28  C   UNL     1     -10.025  10.373  65.772  1.00  0.00    -0.334 A  
HETATM   29  C   UNL     1     -12.272  13.983  63.847  1.00  0.00    -0.336 A  
HETATM   30  C   UNL     1     -10.132  10.932  64.476  1.00  0.00    -0.404 A  
HETATM   31  C   UNL     1     -11.018  12.071  64.526  1.00  0.00    -0.369 A  
HETATM   32  C   UNL     1      -9.505  10.348  63.385  1.00  0.00    -0.356 A  
HETATM   33  C   UNL     1     -12.857  14.065  65.119  1.00  0.00    -0.368 A  
HETATM   34  C   UNL     1      -9.319   9.186  65.952  1.00  0.00    -0.306 A  
HETATM   35  C   UNL     1     -11.543  12.196  65.830  1.00  0.00    -0.425 A  
HETATM   36  C   UNL     1      -8.755   9.188  63.584  1.00  0.00    -0.148 A  
HETATM   37  C   UNL     1     -12.526  13.138  66.117  1.00  0.00    -0.274 A  
HETATM   38  C   UNL     1      -8.661   8.613  64.856  1.00  0.00    -0.163 A  
ENDBRANCH   2  26
TORSDOF 9
ENDMDL
MODEL      167
REMARK 921   NORMALIZED FREE ENERGY PREDICTED BY IDOCK:   -5.25 KCAL/MOL
REMARK 922        TOTAL FREE ENERGY PREDICTED BY IDOCK:   -9.78 KCAL/MOL
REMARK 923 INTER-LIGAND FREE ENERGY PREDICTED BY IDOCK:   -8.80 KCAL/MOL
REMARK 924 INTRA-LIGAND FREE ENERGY PREDICTED BY IDOCK:   -0.98 KCAL/MOL
REMARK 927      BINDING AFFINITY PREDICTED BY RF-SCORE:    0.00 PKD
ROOT
HETATM    1  C   UNL     1     -10.531   7.513  68.403  1.00  0.00    -0.175 C  
HETATM    2  N   UNL     1      -9.315   8.397  68.659  1.00  0.00    -0.143 N  
HETATM    3  C   UNL     1      -8.047   7.585  68.413  1.00  0.00    -0.125 C  
ENDROOT
BRANCH   2   4
HETATM    4  C   UNL     1      -9.385   9.608  67.753  1.00  0.00    -0.127 C  
BRANCH   4   5
HETATM    5  C   UNL     1     -10.437   9.567  66.645  1.00  0.00    -0.241 C  
BRANCH   5   6
HETATM    6  C   UNL     1      -9.935  10.377  65.442  1.00  0.00    -0.362 C  
BRANCH   6   7
HETATM    7  C   UNL     1     -10.727  11.671  65.180  1.00  0.00    -0.351 C  
BRANCH   7   8
HETATM    8  C   UNL     1     -10.689  12.674  66.343  1.00  0.00    -0.278 C  
BRANCH   8   9
HETATM    9  C   UNL     1     -10.185  14.016  65.811  1.00  0.00    -0.328 C  
BRANCH   9  10
HETATM   10  N   UNL     1      -9.850  15.055  66.869  1.00  0.00    -0.233 N  
HETATM   11  C   UNL     1     -10.459  16.411  66.525  1.00  0.00    -0.282 C  
HETATM   12  C   UNL     1     -10.393  14.671  68.237  1.00  0.00    -0.230 C  
BRANCH  10  13
HETATM   13  C   UNL     1      -8.249  15.164  66.926  1.00  0.00    -0.199 C  
HETATM   14  C   UNL     1      -7.578  14.112  67.830  1.00  0.00    -0.175 A  
HETATM   15  C   UNL     1      -6.875  14.749  68.877  1.00  0.00    -0.105 A  
HETATM   16  C   UNL     1      -6.939  16.179  68.696  1.00  0.00    -0.141 A  
HETATM   17  C   UNL     1      -6.229  14.018  69.863  1.00  0.00    -0.142 A  
HETATM   18  C   UNL     1      -7.713  16.474  67.550  1.00  0.00    -0.171 A  
HETATM   19  C   UNL     1      -6.278  12.626  69.801  1.00  0.00    -0.111 A  
HETATM   20  C   UNL     1      -6.942  11.987  68.746  1.00  0.00    -0.101 A  
HETATM   21  C   UNL     1      -7.845  17.794  67.133  1.00  0.00    -0.229 A  
HETATM   22  C   UNL     1      -7.248  18.809  67.894  1.00  0.00    -0.256 A  
HETATM   23  C   UNL     1      -7.576  12.725  67.742  1.00  0.00    -0.141 A  
HETATM   24  C   UNL     1      -6.492  18.506  69.031  1.00  0.00    -0.265 A  
HETATM   25  C   UNL     1      -6.325  17.182  69.436  1.00  0.00    -0.238 A  
ENDBRANCH  10  13
ENDBRANCH   9  10
ENDBRANCH   8   9
ENDBRANCH   7   8
ENDBRANCH   6   7
ENDBRANCH   5   6
ENDBRANCH   4   5
ENDBRANCH   2   4
BRANCH   2  26
HETATM   26  C   UNL     1      -9.322   8.935  70.179  1.00  0.00    -0.180 C  
HETATM   27  C   UNL     1     -12.591   9.950  71.628  1.00  0.00    -0.519 A  
HETATM   28  C   UNL     1      -9.588   7.849  71.244  1.00  0.00    -0.186 A  
HETATM   29  C   UNL     1     -12.877  11.153  70.990  1.00  0.00    -0.424 A  
HETATM   30  C   UNL     1     -10.827   8.103  71.879  1.00  0.00    -0.333 A  
HETATM   31  C   UNL     1     -11.380   9.333  71.359  1.00  0.00    -0.434 A  
HETATM   32  C   UNL     1     -11.304   7.279  72.888  1.00  0.00    -0.290 A  
HETATM   33  C   UNL     1     -11.936  11.769  70.150  1.00  0.00    -0.421 A  
HETATM   34  C   UNL     1      -8.805   6.779  71.670  1.00  0.00    -0.129 A  
HETATM   35  C   UNL     1     -10.463   9.908  70.454  1.00  0.00    -0.347 A  
HETATM   36  C   UNL     1     -10.537   6.177  73.272  1.00  0.00    -0.278 A  
HETATM   37  C   UNL     1     -10.695  11.167  69.907  1.00  0.00     0.033 A  
HETATM   38  C   UNL     1      -9.300   5.929  72.668  1.00  0.00    -0.146 A  
ENDBRANCH   2  26
TORSDOF 9
ENDMDL
MODEL      168
REMARK 921   NORMALIZED FREE ENERGY PREDICTED BY IDOCK:   -5.25 KCAL/MOL
REMARK 922        TOTAL FREE ENERGY PREDICTED BY IDOCK:   -9.77 KCAL/MOL
REMARK 923 INTER-LIGAND FREE ENERGY PREDICTED BY IDOCK:   -9.75 KCAL/MOL
REMARK 924 INTRA-LIGAND FREE ENERGY PREDICTED BY IDOCK:   -0.02 KCAL/MOL
REMARK 927      BINDING AFFINITY PREDICTED BY RF-SCORE:    0.00 PKD
ROOT
HETATM    1  C   UNL     1     -10.164  11.491  68.497  1.00  0.00    -0.213 C  
HETATM    2  N   UNL     1      -9.342  11.347  67.220  1.00  0.00    -0.166 N  
HETATM    3  C   UNL     1      -7.966  10.789  67.573  1.00  0.00    -0.110 C  
ENDROOT
BRANCH   2   4
HETATM    4  C   UNL     1     -10.080  10.439  66.257  1.00  0.00    -0.231 C  
BRANCH   4   5
HETATM    5  C   UNL     1      -9.440   9.079  65.983  1.00  0.00    -0.323 C  
BRANCH   5   6
HETATM    6  C   UNL     1     -10.216   7.994  66.742  1.00  0.00    -0.367 C  
BRANCH   6   7
HETATM    7  C   UNL     1      -9.647   6.574  66.566  1.00  0.00    -0.184 C  
BRANCH   7   8
HETATM    8  C   UNL     1      -9.776   5.689  67.815  1.00  0.00    -0.140 C  
BRANCH   8   9
HETATM    9  C   UNL     1      -9.847   6.592  69.046  1.00  0.00    -0.144 C  
BRANCH   9  10
HETATM   10  N   UNL     1      -8.619   6.575  69.942  1.00  0.00    -0.138 N  
HETATM   11  C   UNL     1      -7.924   5.218  69.902  1.00  0.00    -0.083 C  
HETATM   12  C   UNL     1      -7.585   7.605  69.511  1.00  0.00    -0.098 C  
BRANCH  10  13
HETATM   13  C   UNL     1      -9.124   6.896  71.432  1.00  0.00    -0.148 C  
HETATM   14  C   UNL     1      -9.675   5.671  72.188  1.00  0.00    -0.178 A  
HETATM   15  C   UNL     1     -11.032   5.879  72.525  1.00  0.00    -0.307 A  
HETATM   16  C   UNL     1     -11.423   7.213  72.135  1.00  0.00    -0.306 A  
HETATM   17  C   UNL     1     -11.777   4.898  73.163  1.00  0.00    -0.221 A  
HETATM   18  C   UNL     1     -10.331   7.859  71.511  1.00  0.00    -0.243 A  
HETATM   19  C   UNL     1     -11.157   3.689  73.475  1.00  0.00    -0.320 A  
HETATM   20  C   UNL     1      -9.803   3.488  73.177  1.00  0.00    -0.185 A  
HETATM   21  C   UNL     1     -10.453   9.189  71.123  1.00  0.00    -0.385 A  
HETATM   22  C   UNL     1     -11.680   9.841  71.312  1.00  0.00    -0.472 A  
HETATM   23  C   UNL     1      -9.049   4.486  72.553  1.00  0.00    -0.140 A  
HETATM   24  C   UNL     1     -12.756   9.188  71.921  1.00  0.00    -0.464 A  
HETATM   25  C   UNL     1     -12.631   7.866  72.346  1.00  0.00    -0.160 A  
ENDBRANCH  10  13
ENDBRANCH   9  10
ENDBRANCH   8   9
ENDBRANCH   7   8
ENDBRANCH   6   7
ENDBRANCH   5   6
ENDBRANCH   4   5
ENDBRANCH   2   4
BRANCH   2  26
HETATM   26  C   UNL     1      -9.173  12.777  66.496  1.00  0.00    -0.189 C  
HETATM   27  C   UNL     1     -12.190  14.275  64.924  1.00  0.00    -0.449 A  
HETATM   28  C   UNL     1      -9.473  13.993  67.398  1.00  0.00    -0.225 A  
HETATM   29  C   UNL     1     -12.390  13.499  63.788  1.00  0.00    -0.392 A  
HETATM   30  C   UNL     1     -10.624  14.664  66.921  1.00  0.00    -0.281 A  
HETATM   31  C   UNL     1     -11.078  14.018  65.711  1.00  0.00    -0.305 A  
HETATM   32  C   UNL     1     -11.109  15.802  67.548  1.00  0.00    -0.258 A  
HETATM   33  C   UNL     1     -11.456  12.527  63.399  1.00  0.00    -0.523 A  
HETATM   34  C   UNL     1      -8.781  14.511  68.491  1.00  0.00    -0.177 A  
HETATM   35  C   UNL     1     -10.175  12.988  65.367  1.00  0.00    -0.301 A  
HETATM   36  C   UNL     1     -10.440  16.283  68.674  1.00  0.00    -0.282 A  
HETATM   37  C   UNL     1     -10.310  12.291  64.171  1.00  0.00    -0.396 A  
HETATM   38  C   UNL     1      -9.288  15.643  69.143  1.00  0.00    -0.252 A  
ENDBRANCH   2  26
TORSDOF 9
ENDMDL
MODEL      169
REMARK 921   NORMALIZED FREE ENERGY PREDICTED BY IDOCK:   -5.24 KCAL/MOL
REMARK 922        TOTAL FREE ENERGY PREDICTED BY IDOCK:   -9.77 KCAL/MOL
REMARK 923 INTER-LIGAND FREE ENERGY PREDICTED BY IDOCK:   -9.91 KCAL/MOL
REMARK 924 INTRA-LIGAND FREE ENERGY PREDICTED BY IDOCK:    0.14 KCAL/MOL
REMARK 927      BINDING AFFINITY PREDICTED BY RF-SCORE:    0.00 PKD
ROOT
HETATM    1  C   UNL     1      -8.478  13.380  68.608  1.00  0.00     0.001 C  
HETATM    2  N   UNL     1      -9.447  12.788  67.590  1.00  0.00    -0.184 N  
HETATM    3  C   UNL     1      -9.187  11.289  67.467  1.00  0.00    -0.158 C  
ENDROOT
BRANCH   2   4
HETATM    4  C   UNL     1     -10.867  13.071  68.035  1.00  0.00    -0.242 C  
BRANCH   4   5
HETATM    5  C   UNL     1     -11.239  12.615  69.445  1.00  0.00    -0.205 C  
BRANCH   5   6
HETATM    6  C   UNL     1     -12.147  11.381  69.354  1.00  0.00    -0.358 C  
BRANCH   6   7
HETATM    7  C   UNL     1     -12.386  10.674  70.701  1.00  0.00    -0.462 C  
BRANCH   7   8
HETATM    8  C   UNL     1     -11.205   9.813  71.173  1.00  0.00    -0.444 C  
BRANCH   8   9
HETATM    9  C   UNL     1     -11.568   8.341  70.980  1.00  0.00    -0.275 C  
BRANCH   9  10
HETATM   10  N   UNL     1     -10.792   7.357  71.842  1.00  0.00    -0.226 N  
HETATM   11  C   UNL     1     -10.173   8.050  73.051  1.00  0.00    -0.286 C  
HETATM   12  C   UNL     1     -11.683   6.250  72.385  1.00  0.00    -0.257 C  
BRANCH  10  13
HETATM   13  C   UNL     1      -9.642   6.729  70.913  1.00  0.00    -0.168 C  
HETATM   14  C   UNL     1      -9.950   6.788  69.404  1.00  0.00    -0.167 A  
HETATM   15  C   UNL     1     -10.004   5.481  68.869  1.00  0.00    -0.236 A  
HETATM   16  C   UNL     1      -9.658   4.528  69.896  1.00  0.00    -0.269 A  
HETATM   17  C   UNL     1     -10.323   5.258  67.537  1.00  0.00    -0.221 A  
HETATM   18  C   UNL     1      -9.412   5.213  71.108  1.00  0.00    -0.205 A  
HETATM   19  C   UNL     1     -10.585   6.358  66.722  1.00  0.00    -0.328 A  
HETATM   20  C   UNL     1     -10.497   7.659  67.235  1.00  0.00    -0.396 A  
HETATM   21  C   UNL     1      -8.980   4.500  72.222  1.00  0.00    -0.141 A  
HETATM   22  C   UNL     1      -8.851   3.107  72.128  1.00  0.00    -0.119 A  
HETATM   23  C   UNL     1     -10.157   7.882  68.573  1.00  0.00    -0.216 A  
HETATM   24  C   UNL     1      -9.107   2.440  70.926  1.00  0.00    -0.180 A  
HETATM   25  C   UNL     1      -9.505   3.151  69.794  1.00  0.00    -0.198 A  
ENDBRANCH  10  13
ENDBRANCH   9  10
ENDBRANCH   8   9
ENDBRANCH   7   8
ENDBRANCH   6   7
ENDBRANCH   5   6
ENDBRANCH   4   5
ENDBRANCH   2   4
BRANCH   2  26
HETATM   26  C   UNL     1      -9.247  13.487  66.151  1.00  0.00     0.029 C  
HETATM   27  C   UNL     1     -12.229  13.767  63.949  1.00  0.00    -0.402 A  
HETATM   28  C   UNL     1      -9.529  15.005  66.130  1.00  0.00    -0.347 A  
HETATM   29  C   UNL     1     -12.440  12.465  63.510  1.00  0.00    -0.605 A  
HETATM   30  C   UNL     1     -10.665  15.264  65.327  1.00  0.00    -0.433 A  
HETATM   31  C   UNL     1     -11.125  14.024  64.748  1.00  0.00    -0.391 A  
HETATM   32  C   UNL     1     -11.130  16.557  65.132  1.00  0.00    -0.134 A  
HETATM   33  C   UNL     1     -11.522  11.444  63.802  1.00  0.00    -0.246 A  
HETATM   34  C   UNL     1      -8.831  16.069  66.698  1.00  0.00    -0.307 A  
HETATM   35  C   UNL     1     -10.241  12.985  65.110  1.00  0.00    -0.289 A  
HETATM   36  C   UNL     1     -10.457  17.612  65.748  1.00  0.00    -0.208 A  
HETATM   37  C   UNL     1     -10.384  11.708  64.576  1.00  0.00    -0.349 A  
HETATM   38  C   UNL     1      -9.319  17.371  66.525  1.00  0.00    -0.288 A  
ENDBRANCH   2  26
TORSDOF 9
ENDMDL
MODEL      170
REMARK 921   NORMALIZED FREE ENERGY PREDICTED BY IDOCK:   -5.23 KCAL/MOL
REMARK 922        TOTAL FREE ENERGY PREDICTED BY IDOCK:   -9.75 KCAL/MOL
REMARK 923 INTER-LIGAND FREE ENERGY PREDICTED BY IDOCK:   -9.10 KCAL/MOL
REMARK 924 INTRA-LIGAND FREE ENERGY PREDICTED BY IDOCK:   -0.65 KCAL/MOL
REMARK 927      BINDING AFFINITY PREDICTED BY RF-SCORE:    0.00 PKD
ROOT
HETATM    1  C   UNL     1     -10.460   5.317  68.744  1.00  0.00    -0.095 C  
HETATM    2  N   UNL     1      -9.119   4.710  69.145  1.00  0.00    -0.109 N  
HETATM    3  C   UNL     1      -9.175   3.198  68.943  1.00  0.00    -0.161 C  
ENDROOT
BRANCH   2   4
HETATM    4  C   UNL     1      -8.022   5.341  68.313  1.00  0.00    -0.088 C  
BRANCH   4   5
HETATM    5  C   UNL     1      -8.431   5.868  66.938  1.00  0.00    -0.108 C  
BRANCH   5   6
HETATM    6  C   UNL     1      -8.066   7.355  66.837  1.00  0.00    -0.120 C  
BRANCH   6   7
HETATM    7  C   UNL     1      -9.237   8.264  66.423  1.00  0.00    -0.247 C  
BRANCH   7   8
HETATM    8  C   UNL     1      -8.980   9.761  66.656  1.00  0.00    -0.161 C  
BRANCH   8   9
HETATM    9  C   UNL     1     -10.166  10.551  66.101  1.00  0.00    -0.236 C  
BRANCH   9  10
HETATM   10  N   UNL     1      -9.883  12.006  65.765  1.00  0.00    -0.240 N  
HETATM   11  C   UNL     1      -8.615  12.497  66.456  1.00  0.00     0.028 C  
HETATM   12  C   UNL     1      -9.671  12.215  64.273  1.00  0.00    -0.050 C  
BRANCH  10  13
HETATM   13  C   UNL     1     -11.151  12.855  66.262  1.00  0.00    -0.288 C  
HETATM   14  C   UNL     1     -10.930  14.380  66.257  1.00  0.00    -0.318 A  
HETATM   15  C   UNL     1     -11.060  14.895  67.566  1.00  0.00    -0.319 A  
HETATM   16  C   UNL     1     -11.454  13.833  68.461  1.00  0.00    -0.342 A  
HETATM   17  C   UNL     1     -10.850  16.239  67.839  1.00  0.00    -0.330 A  
HETATM   18  C   UNL     1     -11.546  12.620  67.739  1.00  0.00    -0.403 A  
HETATM   19  C   UNL     1     -10.511  17.087  66.786  1.00  0.00    -0.257 A  
HETATM   20  C   UNL     1     -10.415  16.592  65.479  1.00  0.00    -0.285 A  
HETATM   21  C   UNL     1     -11.990  11.471  68.384  1.00  0.00    -0.268 A  
HETATM   22  C   UNL     1     -12.287  11.533  69.753  1.00  0.00    -0.220 A  
HETATM   23  C   UNL     1     -10.646  15.241  65.203  1.00  0.00    -0.453 A  
HETATM   24  C   UNL     1     -12.183  12.736  70.458  1.00  0.00    -0.389 A  
HETATM   25  C   UNL     1     -11.772  13.901  69.811  1.00  0.00    -0.372 A  
ENDBRANCH  10  13
ENDBRANCH   9  10
ENDBRANCH   8   9
ENDBRANCH   7   8
ENDBRANCH   6   7
ENDBRANCH   5   6
ENDBRANCH   4   5
ENDBRANCH   2   4
BRANCH   2  26
HETATM   26  C   UNL     1      -8.795   5.034  70.691  1.00  0.00    -0.126 C  
HETATM   27  C   UNL     1     -10.930   7.549  72.403  1.00  0.00    -0.333 A  
HETATM   28  C   UNL     1      -9.592   4.187  71.705  1.00  0.00    -0.223 A  
HETATM   29  C   UNL     1     -10.520   8.759  71.855  1.00  0.00    -0.423 A  
HETATM   30  C   UNL     1     -10.472   5.024  72.432  1.00  0.00    -0.275 A  
HETATM   31  C   UNL     1     -10.267   6.394  72.021  1.00  0.00    -0.216 A  
HETATM   32  C   UNL     1     -11.302   4.514  73.421  1.00  0.00    -0.376 A  
HETATM   33  C   UNL     1      -9.414   8.828  70.994  1.00  0.00    -0.287 A  
HETATM   34  C   UNL     1      -9.519   2.831  72.018  1.00  0.00    -0.197 A  
HETATM   35  C   UNL     1      -9.204   6.446  71.094  1.00  0.00    -0.159 A  
HETATM   36  C   UNL     1     -11.261   3.145  73.690  1.00  0.00    -0.288 A  
HETATM   37  C   UNL     1      -8.716   7.667  70.637  1.00  0.00    -0.140 A  
HETATM   38  C   UNL     1     -10.379   2.311  72.994  1.00  0.00    -0.229 A  
ENDBRANCH   2  26
TORSDOF 9
ENDMDL
MODEL      171
REMARK 921   NORMALIZED FREE ENERGY PREDICTED BY IDOCK:   -5.21 KCAL/MOL
REMARK 922        TOTAL FREE ENERGY PREDICTED BY IDOCK:   -9.72 KCAL/MOL
REMARK 923 INTER-LIGAND FREE ENERGY PREDICTED BY IDOCK:   -9.81 KCAL/MOL
REMARK 924 INTRA-LIGAND FREE ENERGY PREDICTED BY IDOCK:    0.09 KCAL/MOL
REMARK 927      BINDING AFFINITY PREDICTED BY RF-SCORE:    0.00 PKD
ROOT
HETATM    1  C   UNL     1      -8.720   8.123  70.237  1.00  0.00    -0.133 C  
HETATM    2  N   UNL     1     -10.188   8.388  70.552  1.00  0.00    -0.193 N  
HETATM    3  C   UNL     1     -10.307   8.896  71.986  1.00  0.00    -0.307 C  
ENDROOT
BRANCH   2   4
HETATM    4  C   UNL     1     -10.734   9.393  69.559  1.00  0.00    -0.222 C  
BRANCH   4   5
HETATM    5  C   UNL     1      -9.714  10.329  68.911  1.00  0.00    -0.193 C  
BRANCH   5   6
HETATM    6  C   UNL     1      -9.796  10.186  67.386  1.00  0.00    -0.225 C  
BRANCH   6   7
HETATM    7  C   UNL     1     -10.999  10.907  66.751  1.00  0.00    -0.248 C  
BRANCH   7   8
HETATM    8  C   UNL     1     -10.621  11.885  65.628  1.00  0.00    -0.311 C  
BRANCH   8   9
HETATM    9  C   UNL     1      -9.821  13.038  66.235  1.00  0.00    -0.278 C  
BRANCH   9  10
HETATM   10  N   UNL     1     -10.601  14.322  66.472  1.00  0.00    -0.283 N  
HETATM   11  C   UNL     1     -10.685  15.160  65.201  1.00  0.00    -0.422 C  
HETATM   12  C   UNL     1     -12.033  14.047  66.906  1.00  0.00    -0.447 C  
BRANCH  10  13
HETATM   13  C   UNL     1      -9.826  15.133  67.621  1.00  0.00    -0.219 C  
HETATM   14  C   UNL     1      -9.725  16.649  67.362  1.00  0.00    -0.251 A  
HETATM   15  C   UNL     1      -8.369  17.036  67.267  1.00  0.00    -0.204 A  
HETATM   16  C   UNL     1      -7.526  15.897  67.540  1.00  0.00    -0.194 A  
HETATM   17  C   UNL     1      -8.009  18.345  66.980  1.00  0.00    -0.238 A  
HETATM   18  C   UNL     1      -8.333  14.761  67.779  1.00  0.00    -0.166 A  
HETATM   19  C   UNL     1      -9.019  19.287  66.790  1.00  0.00    -0.360 A  
HETATM   20  C   UNL     1     -10.365  18.920  66.920  1.00  0.00    -0.469 A  
HETATM   21  C   UNL     1      -7.735  13.560  68.145  1.00  0.00    -0.139 A  
HETATM   22  C   UNL     1      -6.337  13.492  68.216  1.00  0.00    -0.104 A  
HETATM   23  C   UNL     1     -10.725  17.605  67.229  1.00  0.00    -0.234 A  
HETATM   24  C   UNL     1      -5.548  14.620  67.968  1.00  0.00    -0.134 A  
HETATM   25  C   UNL     1      -6.141  15.838  67.635  1.00  0.00    -0.179 A  
ENDBRANCH  10  13
ENDBRANCH   9  10
ENDBRANCH   8   9
ENDBRANCH   7   8
ENDBRANCH   6   7
ENDBRANCH   5   6
ENDBRANCH   4   5
ENDBRANCH   2   4
BRANCH   2  26
HETATM   26  C   UNL     1     -11.051   7.036  70.388  1.00  0.00    -0.287 C  
HETATM   27  C   UNL     1      -9.597   4.311  68.319  1.00  0.00    -0.197 A  
HETATM   28  C   UNL     1     -10.729   5.939  71.426  1.00  0.00    -0.319 A  
HETATM   29  C   UNL     1      -9.719   4.784  67.017  1.00  0.00    -0.205 A  
HETATM   30  C   UNL     1     -10.147   4.826  70.772  1.00  0.00    -0.286 A  
HETATM   31  C   UNL     1     -10.122   5.075  69.350  1.00  0.00    -0.288 A  
HETATM   32  C   UNL     1      -9.770   3.692  71.477  1.00  0.00    -0.238 A  
HETATM   33  C   UNL     1     -10.419   5.968  66.738  1.00  0.00    -0.329 A  
HETATM   34  C   UNL     1     -10.974   5.879  72.796  1.00  0.00    -0.303 A  
HETATM   35  C   UNL     1     -10.759   6.306  69.082  1.00  0.00    -0.362 A  
HETATM   36  C   UNL     1      -9.970   3.662  72.858  1.00  0.00    -0.210 A  
HETATM   37  C   UNL     1     -10.985   6.722  67.774  1.00  0.00    -0.321 A  
HETATM   38  C   UNL     1     -10.565   4.746  73.512  1.00  0.00    -0.305 A  
ENDBRANCH   2  26
TORSDOF 9
ENDMDL
MODEL      172
REMARK 921   NORMALIZED FREE ENERGY PREDICTED BY IDOCK:   -5.20 KCAL/MOL
REMARK 922        TOTAL FREE ENERGY PREDICTED BY IDOCK:   -9.70 KCAL/MOL
REMARK 923 INTER-LIGAND FREE ENERGY PREDICTED BY IDOCK:   -9.66 KCAL/MOL
REMARK 924 INTRA-LIGAND FREE ENERGY PREDICTED BY IDOCK:   -0.04 KCAL/MOL
REMARK 927      BINDING AFFINITY PREDICTED BY RF-SCORE:    0.00 PKD
ROOT
HETATM    1  C   UNL     1     -10.709  10.508  67.207  1.00  0.00    -0.277 C  
HETATM    2  N   UNL     1     -10.048  11.783  67.722  1.00  0.00    -0.185 N  
HETATM    3  C   UNL     1     -11.089  12.622  68.458  1.00  0.00    -0.266 C  
ENDROOT
BRANCH   2   4
HETATM    4  C   UNL     1      -8.893  11.410  68.628  1.00  0.00    -0.125 C  
BRANCH   4   5
HETATM    5  C   UNL     1      -8.625   9.916  68.806  1.00  0.00    -0.130 C  
BRANCH   5   6
HETATM    6  C   UNL     1      -7.446   9.725  69.769  1.00  0.00    -0.127 C  
BRANCH   6   7
HETATM    7  C   UNL     1      -7.703   8.692  70.881  1.00  0.00    -0.104 C  
BRANCH   7   8
HETATM    8  C   UNL     1      -7.272   7.263  70.519  1.00  0.00    -0.066 C  
BRANCH   8   9
HETATM    9  C   UNL     1      -8.305   6.672  69.559  1.00  0.00    -0.131 C  
BRANCH   9  10
HETATM   10  N   UNL     1      -8.608   5.195  69.753  1.00  0.00    -0.095 N  
HETATM   11  C   UNL     1      -8.588   4.447  68.424  1.00  0.00    -0.094 C  
HETATM   12  C   UNL     1      -7.583   4.515  70.648  1.00  0.00    -0.053 C  
BRANCH  10  13
HETATM   13  C   UNL     1     -10.066   5.101  70.421  1.00  0.00    -0.262 C  
HETATM   14  C   UNL     1     -10.668   6.465  70.812  1.00  0.00    -0.302 A  
HETATM   15  C   UNL     1     -10.893   6.514  72.206  1.00  0.00    -0.262 A  
HETATM   16  C   UNL     1     -10.574   5.233  72.788  1.00  0.00    -0.276 A  
HETATM   17  C   UNL     1     -11.379   7.660  72.819  1.00  0.00    -0.419 A  
HETATM   18  C   UNL     1     -10.108   4.361  71.778  1.00  0.00    -0.238 A  
HETATM   19  C   UNL     1     -11.652   8.775  72.028  1.00  0.00    -0.436 A  
HETATM   20  C   UNL     1     -11.467   8.722  70.640  1.00  0.00    -0.263 A  
HETATM   21  C   UNL     1      -9.815   3.039  72.095  1.00  0.00    -0.239 A  
HETATM   22  C   UNL     1      -9.940   2.617  73.426  1.00  0.00    -0.169 A  
HETATM   23  C   UNL     1     -10.995   7.560  70.021  1.00  0.00    -0.252 A  
HETATM   24  C   UNL     1     -10.393   3.492  74.419  1.00  0.00    -0.245 A  
HETATM   25  C   UNL     1     -10.723   4.809  74.103  1.00  0.00    -0.329 A  
ENDBRANCH  10  13
ENDBRANCH   9  10
ENDBRANCH   8   9
ENDBRANCH   7   8
ENDBRANCH   6   7
ENDBRANCH   5   6
ENDBRANCH   4   5
ENDBRANCH   2   4
BRANCH   2  26
HETATM   26  C   UNL     1      -9.440  12.636  66.496  1.00  0.00    -0.247 C  
HETATM   27  C   UNL     1     -11.844  14.206  64.137  1.00  0.00    -0.364 A  
HETATM   28  C   UNL     1      -9.279  14.144  66.781  1.00  0.00    -0.282 A  
HETATM   29  C   UNL     1     -12.339  13.132  63.405  1.00  0.00    -0.443 A  
HETATM   30  C   UNL     1     -10.158  14.879  65.951  1.00  0.00    -0.348 A  
HETATM   31  C   UNL     1     -10.851  13.965  65.073  1.00  0.00    -0.389 A  
HETATM   32  C   UNL     1     -10.208  16.265  65.999  1.00  0.00    -0.376 A  
HETATM   33  C   UNL     1     -11.801  11.845  63.552  1.00  0.00    -0.560 A  
HETATM   34  C   UNL     1      -8.409  14.824  67.631  1.00  0.00    -0.180 A  
HETATM   35  C   UNL     1     -10.360  12.658  65.281  1.00  0.00    -0.309 A  
HETATM   36  C   UNL     1      -9.371  16.935  66.892  1.00  0.00    -0.254 A  
HETATM   37  C   UNL     1     -10.769  11.605  64.469  1.00  0.00    -0.378 A  
HETATM   38  C   UNL     1      -8.480  16.222  67.702  1.00  0.00    -0.178 A  
ENDBRANCH   2  26
TORSDOF 9
ENDMDL
MODEL      173
REMARK 921   NORMALIZED FREE ENERGY PREDICTED BY IDOCK:   -5.17 KCAL/MOL
REMARK 922        TOTAL FREE ENERGY PREDICTED BY IDOCK:   -9.65 KCAL/MOL
REMARK 923 INTER-LIGAND FREE ENERGY PREDICTED BY IDOCK:   -7.81 KCAL/MOL
REMARK 924 INTRA-LIGAND FREE ENERGY PREDICTED BY IDOCK:   -1.84 KCAL/MOL
REMARK 927      BINDING AFFINITY PREDICTED BY RF-SCORE:    0.00 PKD
ROOT
HETATM    1  C   UNL     1     -11.211   8.685  72.377  1.00  0.00    -0.269 C  
HETATM    2  N   UNL     1     -11.208   7.981  71.024  1.00  0.00    -0.261 N  
HETATM    3  C   UNL     1     -12.492   7.167  70.882  1.00  0.00    -0.258 C  
ENDROOT
BRANCH   2   4
HETATM    4  C   UNL     1     -11.084   9.018  69.927  1.00  0.00    -0.142 C  
BRANCH   4   5
HETATM    5  C   UNL     1     -11.440  10.455  70.308  1.00  0.00    -0.406 C  
BRANCH   5   6
HETATM    6  C   UNL     1     -11.592  11.293  69.032  1.00  0.00    -0.386 C  
BRANCH   6   7
HETATM    7  C   UNL     1     -11.555  12.814  69.270  1.00  0.00    -0.372 C  
BRANCH   7   8
HETATM    8  C   UNL     1     -12.138  13.642  68.114  1.00  0.00    -0.310 C  
BRANCH   8   9
HETATM    9  C   UNL     1     -11.145  14.749  67.761  1.00  0.00    -0.299 C  
BRANCH   9  10
HETATM   10  N   UNL     1     -10.859  14.923  66.277  1.00  0.00    -0.325 N  
HETATM   11  C   UNL     1     -11.981  14.339  65.426  1.00  0.00    -0.383 C  
HETATM   12  C   UNL     1     -10.739  16.389  65.888  1.00  0.00    -0.214 C  
BRANCH  10  13
HETATM   13  C   UNL     1      -9.479  14.161  65.975  1.00  0.00    -0.160 C  
HETATM   14  C   UNL     1      -9.617  12.631  65.855  1.00  0.00    -0.158 A  
HETATM   15  C   UNL     1      -8.843  11.993  66.850  1.00  0.00    -0.197 A  
HETATM   16  C   UNL     1      -8.102  12.986  67.589  1.00  0.00    -0.172 A  
HETATM   17  C   UNL     1      -8.842  10.613  66.991  1.00  0.00    -0.141 A  
HETATM   18  C   UNL     1      -8.421  14.273  67.098  1.00  0.00    -0.220 A  
HETATM   19  C   UNL     1      -9.622   9.854  66.120  1.00  0.00    -0.275 A  
HETATM   20  C   UNL     1     -10.364  10.476  65.107  1.00  0.00    -0.310 A  
HETATM   21  C   UNL     1      -7.761  15.385  67.610  1.00  0.00    -0.180 A  
HETATM   22  C   UNL     1      -6.830  15.205  68.642  1.00  0.00    -0.105 A  
HETATM   23  C   UNL     1     -10.348  11.865  64.954  1.00  0.00    -0.328 A  
HETATM   24  C   UNL     1      -6.530  13.928  69.127  1.00  0.00    -0.111 A  
HETATM   25  C   UNL     1      -7.161  12.804  68.595  1.00  0.00    -0.100 A  
ENDBRANCH  10  13
ENDBRANCH   9  10
ENDBRANCH   8   9
ENDBRANCH   7   8
ENDBRANCH   6   7
ENDBRANCH   5   6
ENDBRANCH   4   5
ENDBRANCH   2   4
BRANCH   2  26
HETATM   26  C   UNL     1      -9.934   7.001  70.903  1.00  0.00    -0.193 C  
HETATM   27  C   UNL     1      -6.710   8.192  72.318  1.00  0.00    -0.081 A  
HETATM   28  C   UNL     1      -9.719   6.075  72.119  1.00  0.00    -0.171 A  
HETATM   29  C   UNL     1      -6.296   9.169  71.419  1.00  0.00    -0.077 A  
HETATM   30  C   UNL     1      -8.515   6.426  72.775  1.00  0.00    -0.121 A  
HETATM   31  C   UNL     1      -7.868   7.486  72.035  1.00  0.00    -0.097 A  
HETATM   32  C   UNL     1      -8.078   5.741  73.899  1.00  0.00    -0.109 A  
HETATM   33  C   UNL     1      -6.986   9.390  70.217  1.00  0.00    -0.087 A  
HETATM   34  C   UNL     1     -10.459   4.987  72.579  1.00  0.00    -0.270 A  
HETATM   35  C   UNL     1      -8.611   7.757  70.866  1.00  0.00    -0.128 A  
HETATM   36  C   UNL     1      -8.854   4.687  74.385  1.00  0.00    -0.108 A  
HETATM   37  C   UNL     1      -8.135   8.649  69.910  1.00  0.00    -0.111 A  
HETATM   38  C   UNL     1     -10.034   4.314  73.733  1.00  0.00    -0.174 A  
ENDBRANCH   2  26
TORSDOF 9
ENDMDL
MODEL      174
REMARK 921   NORMALIZED FREE ENERGY PREDICTED BY IDOCK:   -5.14 KCAL/MOL
REMARK 922        TOTAL FREE ENERGY PREDICTED BY IDOCK:   -9.60 KCAL/MOL
REMARK 923 INTER-LIGAND FREE ENERGY PREDICTED BY IDOCK:   -8.75 KCAL/MOL
REMARK 924 INTRA-LIGAND FREE ENERGY PREDICTED BY IDOCK:   -0.85 KCAL/MOL
REMARK 927      BINDING AFFINITY PREDICTED BY RF-SCORE:    0.00 PKD
ROOT
HETATM    1  C   UNL     1      -9.916  12.605  65.827  1.00  0.00    -0.256 C  
HETATM    2  N   UNL     1     -10.820  12.780  67.043  1.00  0.00    -0.253 N  
HETATM    3  C   UNL     1     -12.019  13.641  66.654  1.00  0.00    -0.415 C  
ENDROOT
BRANCH   2   4
HETATM    4  C   UNL     1     -11.252  11.416  67.538  1.00  0.00    -0.292 C  
BRANCH   4   5
HETATM    5  C   UNL     1     -10.508  10.215  66.954  1.00  0.00    -0.286 C  
BRANCH   5   6
HETATM    6  C   UNL     1     -10.730   8.995  67.859  1.00  0.00    -0.200 C  
BRANCH   6   7
HETATM    7  C   UNL     1      -9.826   7.794  67.528  1.00  0.00    -0.221 C  
BRANCH   7   8
HETATM    8  C   UNL     1      -8.611   7.651  68.459  1.00  0.00    -0.129 C  
BRANCH   8   9
HETATM    9  C   UNL     1      -9.108   7.249  69.848  1.00  0.00    -0.141 C  
BRANCH   9  10
HETATM   10  N   UNL     1      -8.486   8.007  71.010  1.00  0.00    -0.123 N  
HETATM   11  C   UNL     1      -7.196   7.339  71.478  1.00  0.00    -0.072 C  
HETATM   12  C   UNL     1      -8.121   9.434  70.630  1.00  0.00    -0.161 C  
BRANCH  10  13
HETATM   13  C   UNL     1      -9.569   8.015  72.195  1.00  0.00    -0.215 C  
HETATM   14  C   UNL     1      -9.899   6.617  72.755  1.00  0.00    -0.182 A  
HETATM   15  C   UNL     1     -11.269   6.329  72.564  1.00  0.00    -0.316 A  
HETATM   16  C   UNL     1     -11.925   7.481  71.993  1.00  0.00    -0.330 A  
HETATM   17  C   UNL     1     -11.809   5.105  72.932  1.00  0.00    -0.147 A  
HETATM   18  C   UNL     1     -10.975   8.506  71.781  1.00  0.00    -0.376 A  
HETATM   19  C   UNL     1     -10.969   4.153  73.507  1.00  0.00    -0.360 A  
HETATM   20  C   UNL     1      -9.618   4.444  73.734  1.00  0.00    -0.141 A  
HETATM   21  C   UNL     1     -11.397   9.745  71.310  1.00  0.00    -0.445 A  
HETATM   22  C   UNL     1     -12.753   9.930  71.007  1.00  0.00    -0.425 A  
HETATM   23  C   UNL     1      -9.080   5.685  73.381  1.00  0.00    -0.129 A  
HETATM   24  C   UNL     1     -13.682   8.905  71.211  1.00  0.00    -0.235 A  
HETATM   25  C   UNL     1     -13.274   7.671  71.717  1.00  0.00    -0.360 A  
ENDBRANCH  10  13
ENDBRANCH   9  10
ENDBRANCH   8   9
ENDBRANCH   7   8
ENDBRANCH   6   7
ENDBRANCH   5   6
ENDBRANCH   4   5
ENDBRANCH   2   4
BRANCH   2  26
HETATM   26  C   UNL     1     -10.015  13.493  68.244  1.00  0.00    -0.237 C  
HETATM   27  C   UNL     1      -6.448  14.354  67.647  1.00  0.00    -0.151 A  
HETATM   28  C   UNL     1     -10.027  15.036  68.198  1.00  0.00    -0.220 A  
HETATM   29  C   UNL     1      -5.802  13.123  67.677  1.00  0.00    -0.122 A  
HETATM   30  C   UNL     1      -8.716  15.513  67.960  1.00  0.00    -0.163 A  
HETATM   31  C   UNL     1      -7.808  14.391  67.913  1.00  0.00    -0.155 A  
HETATM   32  C   UNL     1      -8.445  16.872  67.881  1.00  0.00    -0.203 A  
HETATM   33  C   UNL     1      -6.486  11.953  68.039  1.00  0.00    -0.055 A  
HETATM   34  C   UNL     1     -11.061  15.946  68.407  1.00  0.00    -0.345 A  
HETATM   35  C   UNL     1      -8.518  13.206  68.201  1.00  0.00    -0.173 A  
HETATM   36  C   UNL     1      -9.497  17.775  68.038  1.00  0.00    -0.281 A  
HETATM   37  C   UNL     1      -7.852  11.993  68.347  1.00  0.00    -0.147 A  
HETATM   38  C   UNL     1     -10.794  17.318  68.298  1.00  0.00    -0.287 A  
ENDBRANCH   2  26
TORSDOF 9
ENDMDL
MODEL      175
REMARK 921   NORMALIZED FREE ENERGY PREDICTED BY IDOCK:   -5.11 KCAL/MOL
REMARK 922        TOTAL FREE ENERGY PREDICTED BY IDOCK:   -9.56 KCAL/MOL
REMARK 923 INTER-LIGAND FREE ENERGY PREDICTED BY IDOCK:   -8.88 KCAL/MOL
REMARK 924 INTRA-LIGAND FREE ENERGY PREDICTED BY IDOCK:   -0.69 KCAL/MOL
REMARK 927      BINDING AFFINITY PREDICTED BY RF-SCORE:    0.00 PKD
ROOT
HETATM    1  C   UNL     1      -6.539  13.673  69.506  1.00  0.00    -0.069 C  
HETATM    2  N   UNL     1      -7.187  14.427  68.350  1.00  0.00    -0.105 N  
HETATM    3  C   UNL     1      -6.263  15.561  67.914  1.00  0.00    -0.150 C  
ENDROOT
BRANCH   2   4
HETATM    4  C   UNL     1      -7.452  13.459  67.215  1.00  0.00    -0.046 C  
BRANCH   4   5
HETATM    5  C   UNL     1      -6.953  12.028  67.413  1.00  0.00    -0.139 C  
BRANCH   5   6
HETATM    6  C   UNL     1      -7.852  11.066  66.625  1.00  0.00    -0.153 C  
BRANCH   6   7
HETATM    7  C   UNL     1      -8.688  10.121  67.508  1.00  0.00    -0.125 C  
BRANCH   7   8
HETATM    8  C   UNL     1      -8.003   8.780  67.812  1.00  0.00    -0.106 C  
BRANCH   8   9
HETATM    9  C   UNL     1      -7.926   8.606  69.329  1.00  0.00    -0.103 C  
BRANCH   9  10
HETATM   10  N   UNL     1      -8.503   7.306  69.868  1.00  0.00    -0.138 N  
HETATM   11  C   UNL     1      -9.566   6.742  68.931  1.00  0.00    -0.137 C  
HETATM   12  C   UNL     1      -7.439   6.229  70.015  1.00  0.00    -0.087 C  
BRANCH  10  13
HETATM   13  C   UNL     1      -9.147   7.640  71.300  1.00  0.00    -0.137 C  
HETATM   14  C   UNL     1      -9.658   6.404  72.065  1.00  0.00    -0.157 A  
HETATM   15  C   UNL     1     -11.049   6.513  72.290  1.00  0.00    -0.297 A  
HETATM   16  C   UNL     1     -11.512   7.794  71.813  1.00  0.00    -0.307 A  
HETATM   17  C   UNL     1     -11.762   5.498  72.912  1.00  0.00    -0.216 A  
HETATM   18  C   UNL     1     -10.429   8.504  71.246  1.00  0.00    -0.289 A  
HETATM   19  C   UNL     1     -11.076   4.356  73.322  1.00  0.00    -0.368 A  
HETATM   20  C   UNL     1      -9.691   4.256  73.136  1.00  0.00    -0.159 A  
HETATM   21  C   UNL     1     -10.624   9.804  70.792  1.00  0.00    -0.371 A  
HETATM   22  C   UNL     1     -11.909  10.360  70.860  1.00  0.00    -0.475 A  
HETATM   23  C   UNL     1      -8.971   5.288  72.527  1.00  0.00    -0.134 A  
HETATM   24  C   UNL     1     -12.975   9.644  71.414  1.00  0.00    -0.474 A  
HETATM   25  C   UNL     1     -12.780   8.353  71.905  1.00  0.00    -0.390 A  
ENDBRANCH  10  13
ENDBRANCH   9  10
ENDBRANCH   8   9
ENDBRANCH   7   8
ENDBRANCH   6   7
ENDBRANCH   5   6
ENDBRANCH   4   5
ENDBRANCH   2   4
BRANCH   2  26
HETATM   26  C   UNL     1      -8.609  15.037  68.802  1.00  0.00    -0.182 C  
HETATM   27  C   UNL     1     -10.191  17.548  66.563  1.00  0.00    -0.342 A  
HETATM   28  C   UNL     1      -9.836  14.287  68.242  1.00  0.00    -0.235 A  
HETATM   29  C   UNL     1      -9.417  18.689  66.748  1.00  0.00    -0.324 A  
HETATM   30  C   UNL     1     -10.540  15.130  67.349  1.00  0.00    -0.271 A  
HETATM   31  C   UNL     1      -9.903  16.426  67.325  1.00  0.00    -0.245 A  
HETATM   32  C   UNL     1     -11.695  14.701  66.710  1.00  0.00    -0.355 A  
HETATM   33  C   UNL     1      -8.417  18.736  67.730  1.00  0.00    -0.298 A  
HETATM   34  C   UNL     1     -10.337  13.018  68.527  1.00  0.00    -0.247 A  
HETATM   35  C   UNL     1      -8.846  16.442  68.260  1.00  0.00    -0.202 A  
HETATM   36  C   UNL     1     -12.159  13.409  66.960  1.00  0.00    -0.390 A  
HETATM   37  C   UNL     1      -8.150  17.616  68.529  1.00  0.00    -0.283 A  
HETATM   38  C   UNL     1     -11.486  12.574  67.859  1.00  0.00    -0.369 A  
ENDBRANCH   2  26
TORSDOF 9
ENDMDL
MODEL      176
REMARK 921   NORMALIZED FREE ENERGY PREDICTED BY IDOCK:   -5.10 KCAL/MOL
REMARK 922        TOTAL FREE ENERGY PREDICTED BY IDOCK:   -9.55 KCAL/MOL
REMARK 923 INTER-LIGAND FREE ENERGY PREDICTED BY IDOCK:   -7.75 KCAL/MOL
REMARK 924 INTRA-LIGAND FREE ENERGY PREDICTED BY IDOCK:   -1.81 KCAL/MOL
REMARK 927      BINDING AFFINITY PREDICTED BY RF-SCORE:    0.00 PKD
ROOT
HETATM    1  C   UNL     1      -7.409   5.460  70.139  1.00  0.00    -0.068 C  
HETATM    2  N   UNL     1      -7.324   6.888  70.667  1.00  0.00    -0.073 N  
HETATM    3  C   UNL     1      -7.323   6.856  72.193  1.00  0.00    -0.087 C  
ENDROOT
BRANCH   2   4
HETATM    4  C   UNL     1      -6.071   7.543  70.124  1.00  0.00    -0.027 C  
BRANCH   4   5
HETATM    5  C   UNL     1      -5.255   8.371  71.116  1.00  0.00    -0.029 C  
BRANCH   5   6
HETATM    6  C   UNL     1      -5.595   9.856  70.934  1.00  0.00    -0.078 C  
BRANCH   6   7
HETATM    7  C   UNL     1      -6.019  10.233  69.502  1.00  0.00    -0.043 C  
BRANCH   7   8
HETATM    8  C   UNL     1      -6.649  11.629  69.384  1.00  0.00    -0.115 C  
BRANCH   8   9
HETATM    9  C   UNL     1      -8.097  11.472  68.921  1.00  0.00    -0.035 C  
BRANCH   9  10
HETATM   10  N   UNL     1      -8.395  11.976  67.517  1.00  0.00    -0.156 N  
HETATM   11  C   UNL     1      -7.486  13.143  67.145  1.00  0.00     0.038 C  
HETATM   12  C   UNL     1      -8.170  10.900  66.466  1.00  0.00    -0.157 C  
BRANCH  10  13
HETATM   13  C   UNL     1      -9.931  12.443  67.505  1.00  0.00    -0.196 C  
HETATM   14  C   UNL     1     -10.138  13.937  67.819  1.00  0.00    -0.241 A  
HETATM   15  C   UNL     1     -10.919  14.084  68.987  1.00  0.00    -0.287 A  
HETATM   16  C   UNL     1     -11.346  12.783  69.444  1.00  0.00    -0.267 A  
HETATM   17  C   UNL     1     -11.201  15.335  69.516  1.00  0.00    -0.289 A  
HETATM   18  C   UNL     1     -10.813  11.788  68.593  1.00  0.00    -0.259 A  
HETATM   19  C   UNL     1     -10.701  16.462  68.865  1.00  0.00    -0.319 A  
HETATM   20  C   UNL     1      -9.956  16.327  67.686  1.00  0.00    -0.247 A  
HETATM   21  C   UNL     1     -11.160  10.456  68.795  1.00  0.00    -0.298 A  
HETATM   22  C   UNL     1     -11.992  10.128  69.874  1.00  0.00    -0.156 A  
HETATM   23  C   UNL     1      -9.689  15.066  67.144  1.00  0.00    -0.228 A  
HETATM   24  C   UNL     1     -12.505  11.120  70.715  1.00  0.00    -0.479 A  
HETATM   25  C   UNL     1     -12.191  12.462  70.499  1.00  0.00    -0.382 A  
ENDBRANCH  10  13
ENDBRANCH   9  10
ENDBRANCH   8   9
ENDBRANCH   7   8
ENDBRANCH   6   7
ENDBRANCH   5   6
ENDBRANCH   4   5
ENDBRANCH   2   4
BRANCH   2  26
HETATM   26  C   UNL     1      -8.581   7.754  70.149  1.00  0.00    -0.139 C  
HETATM   27  C   UNL     1     -10.942   6.115  67.792  1.00  0.00    -0.400 A  
HETATM   28  C   UNL     1      -9.864   7.591  70.992  1.00  0.00    -0.182 A  
HETATM   29  C   UNL     1     -10.232   6.060  66.598  1.00  0.00    -0.246 A  
HETATM   30  C   UNL     1     -10.864   6.958  70.215  1.00  0.00    -0.294 A  
HETATM   31  C   UNL     1     -10.358   6.748  68.878  1.00  0.00    -0.208 A  
HETATM   32  C   UNL     1     -12.125   6.700  70.732  1.00  0.00    -0.364 A  
HETATM   33  C   UNL     1      -8.986   6.691  66.465  1.00  0.00    -0.155 A  
HETATM   34  C   UNL     1     -10.164   8.009  72.287  1.00  0.00    -0.325 A  
HETATM   35  C   UNL     1      -9.070   7.316  68.773  1.00  0.00    -0.127 A  
HETATM   36  C   UNL     1     -12.399   7.073  72.048  1.00  0.00    -0.302 A  
HETATM   37  C   UNL     1      -8.410   7.366  67.549  1.00  0.00    -0.113 A  
HETATM   38  C   UNL     1     -11.427   7.721  72.820  1.00  0.00    -0.415 A  
ENDBRANCH   2  26
TORSDOF 9
ENDMDL
MODEL      177
REMARK 921   NORMALIZED FREE ENERGY PREDICTED BY IDOCK:   -5.10 KCAL/MOL
REMARK 922        TOTAL FREE ENERGY PREDICTED BY IDOCK:   -9.54 KCAL/MOL
REMARK 923 INTER-LIGAND FREE ENERGY PREDICTED BY IDOCK:   -9.17 KCAL/MOL
REMARK 924 INTRA-LIGAND FREE ENERGY PREDICTED BY IDOCK:   -0.38 KCAL/MOL
REMARK 927      BINDING AFFINITY PREDICTED BY RF-SCORE:    0.00 PKD
ROOT
HETATM    1  C   UNL     1     -11.215  15.665  64.779  1.00  0.00    -0.382 C  
HETATM    2  N   UNL     1     -11.071  14.352  65.540  1.00  0.00    -0.314 N  
HETATM    3  C   UNL     1     -12.457  13.766  65.792  1.00  0.00    -0.485 C  
ENDROOT
BRANCH   2   4
HETATM    4  C   UNL     1     -10.205  13.405  64.734  1.00  0.00    -0.318 C  
BRANCH   4   5
HETATM    5  C   UNL     1     -10.897  12.160  64.179  1.00  0.00    -0.410 C  
BRANCH   5   6
HETATM    6  C   UNL     1     -10.283  10.911  64.827  1.00  0.00    -0.398 C  
BRANCH   6   7
HETATM    7  C   UNL     1      -9.132  11.211  65.804  1.00  0.00    -0.222 C  
BRANCH   7   8
HETATM    8  C   UNL     1      -9.498  11.013  67.283  1.00  0.00    -0.179 C  
BRANCH   8   9
HETATM    9  C   UNL     1      -8.469  10.078  67.918  1.00  0.00    -0.118 C  
BRANCH   9  10
HETATM   10  N   UNL     1      -9.030   9.051  68.889  1.00  0.00    -0.139 N  
HETATM   11  C   UNL     1      -8.994   9.567  70.323  1.00  0.00    -0.248 C  
HETATM   12  C   UNL     1     -10.483   8.715  68.586  1.00  0.00    -0.177 C  
BRANCH  10  13
HETATM   13  C   UNL     1      -8.123   7.734  68.750  1.00  0.00    -0.126 C  
HETATM   14  C   UNL     1      -7.980   7.216  67.305  1.00  0.00    -0.111 A  
HETATM   15  C   UNL     1      -8.510   5.910  67.203  1.00  0.00    -0.107 A  
HETATM   16  C   UNL     1      -8.920   5.456  68.510  1.00  0.00    -0.114 A  
HETATM   17  C   UNL     1      -8.553   5.241  65.988  1.00  0.00    -0.124 A  
HETATM   18  C   UNL     1      -8.691   6.481  69.456  1.00  0.00    -0.134 A  
HETATM   19  C   UNL     1      -8.054   5.883  64.856  1.00  0.00    -0.132 A  
HETATM   20  C   UNL     1      -7.494   7.163  64.955  1.00  0.00    -0.095 A  
HETATM   21  C   UNL     1      -8.938   6.237  70.803  1.00  0.00    -0.144 A  
HETATM   22  C   UNL     1      -9.462   4.993  71.183  1.00  0.00    -0.212 A  
HETATM   23  C   UNL     1      -7.433   7.828  66.183  1.00  0.00    -0.079 A  
HETATM   24  C   UNL     1      -9.694   3.991  70.235  1.00  0.00    -0.263 A  
HETATM   25  C   UNL     1      -9.415   4.214  68.887  1.00  0.00    -0.238 A  
ENDBRANCH  10  13
ENDBRANCH   9  10
ENDBRANCH   8   9
ENDBRANCH   7   8
ENDBRANCH   6   7
ENDBRANCH   5   6
ENDBRANCH   4   5
ENDBRANCH   2   4
BRANCH   2  26
HETATM   26  C   UNL     1     -10.327  14.597  66.950  1.00  0.00    -0.264 C  
HETATM   27  C   UNL     1     -10.477  18.017  68.398  1.00  0.00    -0.326 A  
HETATM   28  C   UNL     1     -11.228  14.415  68.191  1.00  0.00    -0.300 A  
HETATM   29  C   UNL     1      -9.620  18.756  67.590  1.00  0.00    -0.340 A  
HETATM   30  C   UNL     1     -11.387  15.660  68.846  1.00  0.00    -0.341 A  
HETATM   31  C   UNL     1     -10.593  16.656  68.165  1.00  0.00    -0.336 A  
HETATM   32  C   UNL     1     -12.147  15.775  70.001  1.00  0.00    -0.344 A  
HETATM   33  C   UNL     1      -8.833  18.135  66.609  1.00  0.00    -0.287 A  
HETATM   34  C   UNL     1     -11.803  13.271  68.740  1.00  0.00    -0.371 A  
HETATM   35  C   UNL     1      -9.862  16.038  67.127  1.00  0.00    -0.236 A  
HETATM   36  C   UNL     1     -12.764  14.634  70.515  1.00  0.00    -0.394 A  
HETATM   37  C   UNL     1      -8.918  16.752  66.397  1.00  0.00    -0.325 A  
HETATM   38  C   UNL     1     -12.595  13.393  69.890  1.00  0.00    -0.034 A  
ENDBRANCH   2  26
TORSDOF 9
ENDMDL
MODEL      178
REMARK 921   NORMALIZED FREE ENERGY PREDICTED BY IDOCK:   -5.10 KCAL/MOL
REMARK 922        TOTAL FREE ENERGY PREDICTED BY IDOCK:   -9.54 KCAL/MOL
REMARK 923 INTER-LIGAND FREE ENERGY PREDICTED BY IDOCK:   -9.05 KCAL/MOL
REMARK 924 INTRA-LIGAND FREE ENERGY PREDICTED BY IDOCK:   -0.49 KCAL/MOL
REMARK 927      BINDING AFFINITY PREDICTED BY RF-SCORE:    0.00 PKD
ROOT
HETATM    1  C   UNL     1      -8.013   6.644  68.058  1.00  0.00    -0.110 C  
HETATM    2  N   UNL     1      -8.558   7.853  68.812  1.00  0.00    -0.128 N  
HETATM    3  C   UNL     1      -7.791   8.011  70.122  1.00  0.00    -0.099 C  
ENDROOT
BRANCH   2   4
HETATM    4  C   UNL     1      -8.423   9.083  67.938  1.00  0.00    -0.121 C  
BRANCH   4   5
HETATM    5  C   UNL     1      -7.288  10.044  68.290  1.00  0.00    -0.078 C  
BRANCH   5   6
HETATM    6  C   UNL     1      -7.769  11.487  68.092  1.00  0.00    -0.120 C  
BRANCH   6   7
HETATM    7  C   UNL     1      -6.754  12.556  68.539  1.00  0.00    -0.078 C  
BRANCH   7   8
HETATM    8  C   UNL     1      -6.889  13.895  67.798  1.00  0.00    -0.184 C  
BRANCH   8   9
HETATM    9  C   UNL     1      -6.884  15.024  68.830  1.00  0.00    -0.105 C  
BRANCH   9  10
HETATM   10  N   UNL     1      -6.959  16.431  68.260  1.00  0.00    -0.134 N  
HETATM   11  C   UNL     1      -5.722  17.244  68.627  1.00  0.00    -0.152 C  
HETATM   12  C   UNL     1      -7.038  16.427  66.740  1.00  0.00    -0.198 C  
BRANCH  10  13
HETATM   13  C   UNL     1      -8.275  17.114  68.875  1.00  0.00    -0.192 C  
HETATM   14  C   UNL     1      -9.502  16.182  68.930  1.00  0.00    -0.244 A  
HETATM   15  C   UNL     1     -10.549  16.711  68.142  1.00  0.00    -0.336 A  
HETATM   16  C   UNL     1     -10.155  18.000  67.625  1.00  0.00    -0.352 A  
HETATM   17  C   UNL     1     -11.746  16.030  67.980  1.00  0.00    -0.004 A  
HETATM   18  C   UNL     1      -8.838  18.293  68.048  1.00  0.00    -0.290 A  
HETATM   19  C   UNL     1     -11.906  14.802  68.619  1.00  0.00    -0.334 A  
HETATM   20  C   UNL     1     -10.887  14.288  69.432  1.00  0.00    -0.197 A  
HETATM   21  C   UNL     1      -8.276  19.526  67.733  1.00  0.00    -0.333 A  
HETATM   22  C   UNL     1      -9.014  20.430  66.957  1.00  0.00    -0.423 A  
HETATM   23  C   UNL     1      -9.688  14.985  69.610  1.00  0.00    -0.067 A  
HETATM   24  C   UNL     1     -10.312  20.124  66.536  1.00  0.00    -0.508 A  
HETATM   25  C   UNL     1     -10.897  18.905  66.877  1.00  0.00    -0.347 A  
ENDBRANCH  10  13
ENDBRANCH   9  10
ENDBRANCH   8   9
ENDBRANCH   7   8
ENDBRANCH   6   7
ENDBRANCH   5   6
ENDBRANCH   4   5
ENDBRANCH   2   4
BRANCH   2  26
HETATM   26  C   UNL     1     -10.127   7.659  69.127  1.00  0.00    -0.194 C  
HETATM   27  C   UNL     1     -11.094   6.908  72.636  1.00  0.00    -0.306 A  
HETATM   28  C   UNL     1     -10.855   8.944  69.575  1.00  0.00    -0.163 A  
HETATM   29  C   UNL     1     -10.690   5.589  72.815  1.00  0.00    -0.290 A  
HETATM   30  C   UNL     1     -11.276   8.806  70.919  1.00  0.00    -0.320 A  
HETATM   31  C   UNL     1     -10.939   7.480  71.384  1.00  0.00    -0.254 A  
HETATM   32  C   UNL     1     -11.967   9.819  71.567  1.00  0.00    -0.488 A  
HETATM   33  C   UNL     1     -10.206   4.826  71.742  1.00  0.00    -0.258 A  
HETATM   34  C   UNL     1     -11.183  10.100  68.868  1.00  0.00    -0.220 A  
HETATM   35  C   UNL     1     -10.379   6.742  70.319  1.00  0.00    -0.224 A  
HETATM   36  C   UNL     1     -12.243  10.995  70.869  1.00  0.00    -0.471 A  
HETATM   37  C   UNL     1     -10.085   5.390  70.465  1.00  0.00    -0.306 A  
HETATM   38  C   UNL     1     -11.854  11.135  69.532  1.00  0.00    -0.423 A  
ENDBRANCH   2  26
TORSDOF 9
ENDMDL
MODEL      179
REMARK 921   NORMALIZED FREE ENERGY PREDICTED BY IDOCK:   -5.09 KCAL/MOL
REMARK 922        TOTAL FREE ENERGY PREDICTED BY IDOCK:   -9.54 KCAL/MOL
REMARK 923 INTER-LIGAND FREE ENERGY PREDICTED BY IDOCK:   -7.00 KCAL/MOL
REMARK 924 INTRA-LIGAND FREE ENERGY PREDICTED BY IDOCK:   -2.54 KCAL/MOL
REMARK 927      BINDING AFFINITY PREDICTED BY RF-SCORE:    0.00 PKD
ROOT
HETATM    1  C   UNL     1      -6.431   5.629  70.102  1.00  0.00    -0.035 C  
HETATM    2  N   UNL     1      -7.685   6.445  69.812  1.00  0.00    -0.106 N  
HETATM    3  C   UNL     1      -7.328   7.590  68.868  1.00  0.00    -0.094 C  
ENDROOT
BRANCH   2   4
HETATM    4  C   UNL     1      -8.739   5.538  69.211  1.00  0.00    -0.107 C  
BRANCH   4   5
HETATM    5  C   UNL     1      -9.208   5.886  67.798  1.00  0.00    -0.108 C  
BRANCH   5   6
HETATM    6  C   UNL     1     -10.622   6.479  67.868  1.00  0.00    -0.313 C  
BRANCH   6   7
HETATM    7  C   UNL     1     -10.764   7.849  67.180  1.00  0.00    -0.306 C  
BRANCH   7   8
HETATM    8  C   UNL     1      -9.571   8.227  66.288  1.00  0.00    -0.266 C  
BRANCH   8   9
HETATM    9  C   UNL     1      -9.219   9.693  66.544  1.00  0.00    -0.158 C  
BRANCH   9  10
HETATM   10  N   UNL     1      -9.025  10.546  65.301  1.00  0.00    -0.181 N  
HETATM   11  C   UNL     1      -7.826  10.072  64.486  1.00  0.00    -0.145 C  
HETATM   12  C   UNL     1     -10.230  10.484  64.374  1.00  0.00    -0.267 C  
BRANCH  10  13
HETATM   13  C   UNL     1      -8.795  12.054  65.801  1.00  0.00     0.190 C  
HETATM   14  C   UNL     1      -7.724  12.197  66.900  1.00  0.00    -0.049 A  
HETATM   15  C   UNL     1      -8.302  12.727  68.075  1.00  0.00    -0.173 A  
HETATM   16  C   UNL     1      -9.686  13.050  67.824  1.00  0.00    -0.218 A  
HETATM   17  C   UNL     1      -7.557  12.900  69.233  1.00  0.00     0.383 A  
HETATM   18  C   UNL     1     -10.018  12.697  66.496  1.00  0.00    -0.256 A  
HETATM   19  C   UNL     1      -6.209  12.544  69.216  1.00  0.00    -0.105 A  
HETATM   20  C   UNL     1      -5.619  12.053  68.044  1.00  0.00    -0.052 A  
HETATM   21  C   UNL     1     -11.285  12.993  66.005  1.00  0.00    -0.320 A  
HETATM   22  C   UNL     1     -12.223  13.588  66.860  1.00  0.00    -0.377 A  
HETATM   23  C   UNL     1      -6.367  11.898  66.873  1.00  0.00    -0.107 A  
HETATM   24  C   UNL     1     -11.886  13.924  68.176  1.00  0.00    -0.407 A  
HETATM   25  C   UNL     1     -10.606  13.663  68.666  1.00  0.00    -0.260 A  
ENDBRANCH  10  13
ENDBRANCH   9  10
ENDBRANCH   8   9
ENDBRANCH   7   8
ENDBRANCH   6   7
ENDBRANCH   5   6
ENDBRANCH   4   5
ENDBRANCH   2   4
BRANCH   2  26
HETATM   26  C   UNL     1      -8.294   7.046  71.178  1.00  0.00    -0.118 C  
HETATM   27  C   UNL     1     -11.681   8.571  71.026  1.00  0.00    -0.310 A  
HETATM   28  C   UNL     1      -9.162   6.056  71.984  1.00  0.00    -0.151 A  
HETATM   29  C   UNL     1     -11.473   9.771  70.356  1.00  0.00    -0.347 A  
HETATM   30  C   UNL     1     -10.504   6.509  72.000  1.00  0.00    -0.227 A  
HETATM   31  C   UNL     1     -10.581   7.779  71.316  1.00  0.00    -0.241 A  
HETATM   32  C   UNL     1     -11.495   5.804  72.668  1.00  0.00    -0.337 A  
HETATM   33  C   UNL     1     -10.178  10.213  70.043  1.00  0.00    -0.271 A  
HETATM   34  C   UNL     1      -8.817   4.907  72.692  1.00  0.00    -0.125 A  
HETATM   35  C   UNL     1      -9.283   8.180  70.934  1.00  0.00    -0.171 A  
HETATM   36  C   UNL     1     -11.149   4.625  73.330  1.00  0.00    -0.403 A  
HETATM   37  C   UNL     1      -9.061   9.433  70.370  1.00  0.00    -0.302 A  
HETATM   38  C   UNL     1      -9.823   4.179  73.341  1.00  0.00    -0.160 A  
ENDBRANCH   2  26
TORSDOF 9
ENDMDL
MODEL      180
REMARK 921   NORMALIZED FREE ENERGY PREDICTED BY IDOCK:   -5.09 KCAL/MOL
REMARK 922        TOTAL FREE ENERGY PREDICTED BY IDOCK:   -9.54 KCAL/MOL
REMARK 923 INTER-LIGAND FREE ENERGY PREDICTED BY IDOCK:   -7.86 KCAL/MOL
REMARK 924 INTRA-LIGAND FREE ENERGY PREDICTED BY IDOCK:   -1.68 KCAL/MOL
REMARK 927      BINDING AFFINITY PREDICTED BY RF-SCORE:    0.00 PKD
ROOT
HETATM    1  C   UNL     1      -9.696   4.002  68.814  1.00  0.00    -0.073 C  
HETATM    2  N   UNL     1      -9.077   5.395  68.786  1.00  0.00    -0.116 N  
HETATM    3  C   UNL     1      -7.675   5.306  68.189  1.00  0.00    -0.084 C  
ENDROOT
BRANCH   2   4
HETATM    4  C   UNL     1      -9.967   6.317  67.978  1.00  0.00    -0.137 C  
BRANCH   4   5
HETATM    5  C   UNL     1      -9.309   7.034  66.800  1.00  0.00    -0.191 C  
BRANCH   5   6
HETATM    6  C   UNL     1      -9.056   8.499  67.178  1.00  0.00    -0.164 C  
BRANCH   6   7
HETATM    7  C   UNL     1     -10.339   9.324  67.392  1.00  0.00    -0.327 C  
BRANCH   7   8
HETATM    8  C   UNL     1     -10.459  10.545  66.468  1.00  0.00    -0.276 C  
BRANCH   8   9
HETATM    9  C   UNL     1     -11.237  11.637  67.202  1.00  0.00    -0.309 C  
BRANCH   9  10
HETATM   10  N   UNL     1     -10.820  13.064  66.884  1.00  0.00    -0.262 N  
HETATM   11  C   UNL     1     -10.000  13.127  65.600  1.00  0.00    -0.227 C  
HETATM   12  C   UNL     1     -12.021  13.975  66.675  1.00  0.00    -0.445 C  
BRANCH  10  13
HETATM   13  C   UNL     1      -9.947  13.585  68.127  1.00  0.00    -0.240 C  
HETATM   14  C   UNL     1      -9.899  15.119  68.264  1.00  0.00    -0.223 A  
HETATM   15  C   UNL     1      -8.567  15.575  68.146  1.00  0.00    -0.152 A  
HETATM   16  C   UNL     1      -7.681  14.441  68.033  1.00  0.00    -0.140 A  
HETATM   17  C   UNL     1      -8.261  16.928  68.178  1.00  0.00    -0.207 A  
HETATM   18  C   UNL     1      -8.440  13.249  68.042  1.00  0.00    -0.170 A  
HETATM   19  C   UNL     1      -9.301  17.843  68.337  1.00  0.00    -0.290 A  
HETATM   20  C   UNL     1     -10.620  17.397  68.492  1.00  0.00    -0.340 A  
HETATM   21  C   UNL     1      -7.787  12.021  68.023  1.00  0.00    -0.145 A  
HETATM   22  C   UNL     1      -6.388  11.998  67.943  1.00  0.00    -0.073 A  
HETATM   23  C   UNL     1     -10.924  16.032  68.479  1.00  0.00    -0.326 A  
HETATM   24  C   UNL     1      -5.648  13.184  67.925  1.00  0.00    -0.126 A  
HETATM   25  C   UNL     1      -6.293  14.420  67.979  1.00  0.00    -0.163 A  
ENDBRANCH  10  13
ENDBRANCH   9  10
ENDBRANCH   8   9
ENDBRANCH   7   8
ENDBRANCH   6   7
ENDBRANCH   5   6
ENDBRANCH   4   5
ENDBRANCH   2   4
BRANCH   2  26
HETATM   26  C   UNL     1      -8.988   6.001  70.278  1.00  0.00    -0.148 C  
HETATM   27  C   UNL     1      -7.661   9.452  70.654  1.00  0.00    -0.163 A  
HETATM   28  C   UNL     1     -10.228   6.809  70.717  1.00  0.00    -0.215 A  
HETATM   29  C   UNL     1      -6.298   9.310  70.415  1.00  0.00    -0.060 A  
HETATM   30  C   UNL     1      -9.870   8.168  70.889  1.00  0.00    -0.203 A  
HETATM   31  C   UNL     1      -8.451   8.314  70.661  1.00  0.00    -0.131 A  
HETATM   32  C   UNL     1     -10.801   9.114  71.292  1.00  0.00    -0.402 A  
HETATM   33  C   UNL     1      -5.718   8.043  70.258  1.00  0.00    -0.022 A  
HETATM   34  C   UNL     1     -11.528   6.400  71.006  1.00  0.00    -0.394 A  
HETATM   35  C   UNL     1      -7.885   7.042  70.425  1.00  0.00    -0.108 A  
HETATM   36  C   UNL     1     -12.115   8.704  71.527  1.00  0.00    -0.369 A  
HETATM   37  C   UNL     1      -6.508   6.887  70.305  1.00  0.00    -0.043 A  
HETATM   38  C   UNL     1     -12.476   7.360  71.384  1.00  0.00    -0.402 A  
ENDBRANCH   2  26
TORSDOF 9
ENDMDL
MODEL      181
REMARK 921   NORMALIZED FREE ENERGY PREDICTED BY IDOCK:   -5.08 KCAL/MOL
REMARK 922        TOTAL FREE ENERGY PREDICTED BY IDOCK:   -9.52 KCAL/MOL
REMARK 923 INTER-LIGAND FREE ENERGY PREDICTED BY IDOCK:   -8.24 KCAL/MOL
REMARK 924 INTRA-LIGAND FREE ENERGY PREDICTED BY IDOCK:   -1.28 KCAL/MOL
REMARK 927      BINDING AFFINITY PREDICTED BY RF-SCORE:    0.00 PKD
ROOT
HETATM    1  C   UNL     1      -9.912  10.258  69.657  1.00  0.00    -0.207 C  
HETATM    2  N   UNL     1     -10.336  10.369  68.197  1.00  0.00    -0.163 N  
HETATM    3  C   UNL     1     -10.554   8.968  67.632  1.00  0.00    -0.231 C  
ENDROOT
BRANCH   2   4
HETATM    4  C   UNL     1     -11.596  11.206  68.111  1.00  0.00    -0.280 C  
BRANCH   4   5
HETATM    5  C   UNL     1     -11.537  12.591  68.754  1.00  0.00    -0.366 C  
BRANCH   5   6
HETATM    6  C   UNL     1     -11.869  13.653  67.698  1.00  0.00    -0.404 C  
BRANCH   6   7
HETATM    7  C   UNL     1     -10.636  14.357  67.103  1.00  0.00    -0.277 C  
BRANCH   7   8
HETATM    8  C   UNL     1     -10.971  15.577  66.233  1.00  0.00    -0.242 C  
BRANCH   8   9
HETATM    9  C   UNL     1      -9.755  16.503  66.204  1.00  0.00    -0.317 C  
BRANCH   9  10
HETATM   10  N   UNL     1      -9.847  17.733  67.092  1.00  0.00    -0.299 N  
HETATM   11  C   UNL     1     -10.284  18.959  66.297  1.00  0.00    -0.438 C  
HETATM   12  C   UNL     1     -10.866  17.555  68.208  1.00  0.00    -0.220 C  
BRANCH  10  13
HETATM   13  C   UNL     1      -8.386  17.968  67.717  1.00  0.00    -0.249 C  
HETATM   14  C   UNL     1      -7.347  18.493  66.707  1.00  0.00    -0.234 A  
HETATM   15  C   UNL     1      -6.285  17.570  66.580  1.00  0.00    -0.249 A  
HETATM   16  C   UNL     1      -6.479  16.485  67.511  1.00  0.00    -0.181 A  
HETATM   17  C   UNL     1      -5.245  17.784  65.686  1.00  0.00    -0.160 A  
HETATM   18  C   UNL     1      -7.686  16.685  68.220  1.00  0.00    -0.183 A  
HETATM   19  C   UNL     1      -5.261  18.942  64.910  1.00  0.00    -0.222 A  
HETATM   20  C   UNL     1      -6.291  19.880  65.057  1.00  0.00    -0.319 A  
HETATM   21  C   UNL     1      -8.039  15.801  69.234  1.00  0.00    -0.241 A  
HETATM   22  C   UNL     1      -7.212  14.699  69.492  1.00  0.00    -0.131 A  
HETATM   23  C   UNL     1      -7.327  19.672  65.972  1.00  0.00    -0.308 A  
HETATM   24  C   UNL     1      -6.025  14.507  68.777  1.00  0.00    -0.084 A  
HETATM   25  C   UNL     1      -5.645  15.408  67.783  1.00  0.00    -0.127 A  
ENDBRANCH  10  13
ENDBRANCH   9  10
ENDBRANCH   8   9
ENDBRANCH   7   8
ENDBRANCH   6   7
ENDBRANCH   5   6
ENDBRANCH   4   5
ENDBRANCH   2   4
BRANCH   2  26
HETATM   26  C   UNL     1      -9.200  11.124  67.337  1.00  0.00    -0.153 C  
HETATM   27  C   UNL     1      -6.095   9.235  66.560  1.00  0.00    -0.064 A  
HETATM   28  C   UNL     1      -9.295  10.902  65.813  1.00  0.00    -0.232 A  
HETATM   29  C   UNL     1      -5.424   9.187  67.778  1.00  0.00    -0.034 A  
HETATM   30  C   UNL     1      -8.167  10.171  65.370  1.00  0.00    -0.151 A  
HETATM   31  C   UNL     1      -7.282   9.948  66.489  1.00  0.00    -0.095 A  
HETATM   32  C   UNL     1      -7.999   9.842  64.032  1.00  0.00    -0.150 A  
HETATM   33  C   UNL     1      -5.891   9.900  68.892  1.00  0.00    -0.034 A  
HETATM   34  C   UNL     1     -10.234  11.345  64.883  1.00  0.00    -0.330 A  
HETATM   35  C   UNL     1      -7.798  10.602  67.628  1.00  0.00    -0.105 A  
HETATM   36  C   UNL     1      -8.972  10.243  63.116  1.00  0.00    -0.249 A  
HETATM   37  C   UNL     1      -7.070  10.654  68.813  1.00  0.00    -0.076 A  
HETATM   38  C   UNL     1     -10.080  10.987  63.537  1.00  0.00    -0.428 A  
ENDBRANCH   2  26
TORSDOF 9
ENDMDL
MODEL      182
REMARK 921   NORMALIZED FREE ENERGY PREDICTED BY IDOCK:   -5.07 KCAL/MOL
REMARK 922        TOTAL FREE ENERGY PREDICTED BY IDOCK:   -9.51 KCAL/MOL
REMARK 923 INTER-LIGAND FREE ENERGY PREDICTED BY IDOCK:   -8.91 KCAL/MOL
REMARK 924 INTRA-LIGAND FREE ENERGY PREDICTED BY IDOCK:   -0.59 KCAL/MOL
REMARK 927      BINDING AFFINITY PREDICTED BY RF-SCORE:    0.00 PKD
ROOT
HETATM    1  C   UNL     1      -9.984   4.713  69.569  1.00  0.00    -0.196 C  
HETATM    2  N   UNL     1      -9.788   6.065  68.890  1.00  0.00    -0.134 N  
HETATM    3  C   UNL     1     -10.797   6.202  67.753  1.00  0.00    -0.325 C  
ENDROOT
BRANCH   2   4
HETATM    4  C   UNL     1      -9.958   7.164  69.918  1.00  0.00    -0.182 C  
BRANCH   4   5
HETATM    5  C   UNL     1     -11.309   7.225  70.630  1.00  0.00    -0.311 C  
BRANCH   5   6
HETATM    6  C   UNL     1     -11.246   8.280  71.743  1.00  0.00    -0.346 C  
BRANCH   6   7
HETATM    7  C   UNL     1     -12.397   9.302  71.705  1.00  0.00    -0.454 C  
BRANCH   7   8
HETATM    8  C   UNL     1     -12.461  10.125  70.410  1.00  0.00    -0.243 C  
BRANCH   8   9
HETATM    9  C   UNL     1     -11.112  10.814  70.203  1.00  0.00    -0.223 C  
BRANCH   9  10
HETATM   10  N   UNL     1     -10.775  11.175  68.765  1.00  0.00    -0.188 N  
HETATM   11  C   UNL     1      -9.321  11.616  68.632  1.00  0.00    -0.114 C  
HETATM   12  C   UNL     1     -10.956   9.994  67.823  1.00  0.00    -0.249 C  
BRANCH  10  13
HETATM   13  C   UNL     1     -11.759  12.370  68.341  1.00  0.00    -0.336 C  
HETATM   14  C   UNL     1     -11.331  13.113  67.060  1.00  0.00    -0.349 A  
HETATM   15  C   UNL     1     -11.079  14.473  67.350  1.00  0.00    -0.320 A  
HETATM   16  C   UNL     1     -11.399  14.736  68.732  1.00  0.00    -0.301 A  
HETATM   17  C   UNL     1     -10.623  15.347  66.373  1.00  0.00    -0.307 A  
HETATM   18  C   UNL     1     -11.827  13.539  69.351  1.00  0.00    -0.389 A  
HETATM   19  C   UNL     1     -10.422  14.859  65.083  1.00  0.00    -0.442 A  
HETATM   20  C   UNL     1     -10.705  13.521  64.779  1.00  0.00    -0.412 A  
HETATM   21  C   UNL     1     -12.266  13.569  70.671  1.00  0.00    -0.434 A  
HETATM   22  C   UNL     1     -12.224  14.782  71.372  1.00  0.00    -0.400 A  
HETATM   23  C   UNL     1     -11.183  12.647  65.760  1.00  0.00    -0.347 A  
HETATM   24  C   UNL     1     -11.789  15.958  70.752  1.00  0.00    -0.423 A  
HETATM   25  C   UNL     1     -11.380  15.944  69.419  1.00  0.00    -0.349 A  
ENDBRANCH  10  13
ENDBRANCH   9  10
ENDBRANCH   8   9
ENDBRANCH   7   8
ENDBRANCH   6   7
ENDBRANCH   5   6
ENDBRANCH   4   5
ENDBRANCH   2   4
BRANCH   2  26
HETATM   26  C   UNL     1      -8.293   6.187  68.300  1.00  0.00    -0.114 C  
HETATM   27  C   UNL     1      -7.223   9.503  67.004  1.00  0.00    -0.087 A  
HETATM   28  C   UNL     1      -7.233   6.641  69.326  1.00  0.00    -0.090 A  
HETATM   29  C   UNL     1      -7.921   9.630  65.808  1.00  0.00    -0.109 A  
HETATM   30  C   UNL     1      -6.738   7.917  68.963  1.00  0.00    -0.049 A  
HETATM   31  C   UNL     1      -7.347   8.320  67.716  1.00  0.00    -0.093 A  
HETATM   32  C   UNL     1      -5.763   8.554  69.715  1.00  0.00    -0.029 A  
HETATM   33  C   UNL     1      -8.674   8.566  65.290  1.00  0.00    -0.175 A  
HETATM   34  C   UNL     1      -6.698   5.988  70.434  1.00  0.00    -0.052 A  
HETATM   35  C   UNL     1      -8.166   7.274  67.239  1.00  0.00    -0.115 A  
HETATM   36  C   UNL     1      -5.271   7.915  70.854  1.00  0.00    -0.026 A  
HETATM   37  C   UNL     1      -8.768   7.354  65.987  1.00  0.00    -0.171 A  
HETATM   38  C   UNL     1      -5.734   6.644  71.212  1.00  0.00    -0.028 A  
ENDBRANCH   2  26
TORSDOF 9
ENDMDL
MODEL      183
REMARK 921   NORMALIZED FREE ENERGY PREDICTED BY IDOCK:   -5.05 KCAL/MOL
REMARK 922        TOTAL FREE ENERGY PREDICTED BY IDOCK:   -9.47 KCAL/MOL
REMARK 923 INTER-LIGAND FREE ENERGY PREDICTED BY IDOCK:   -9.25 KCAL/MOL
REMARK 924 INTRA-LIGAND FREE ENERGY PREDICTED BY IDOCK:   -0.22 KCAL/MOL
REMARK 927      BINDING AFFINITY PREDICTED BY RF-SCORE:    0.00 PKD
ROOT
HETATM    1  C   UNL     1      -7.100   7.821  68.993  1.00  0.00    -0.074 C  
HETATM    2  N   UNL     1      -8.011   8.840  69.670  1.00  0.00    -0.093 N  
HETATM    3  C   UNL     1      -7.535   9.061  71.103  1.00  0.00    -0.095 C  
ENDROOT
BRANCH   2   4
HETATM    4  C   UNL     1      -7.991  10.128  68.873  1.00  0.00    -0.110 C  
BRANCH   4   5
HETATM    5  C   UNL     1      -6.654  10.865  68.808  1.00  0.00    -0.059 C  
BRANCH   5   6
HETATM    6  C   UNL     1      -6.848  12.307  69.294  1.00  0.00    -0.039 C  
BRANCH   6   7
HETATM    7  C   UNL     1      -6.825  13.358  68.169  1.00  0.00    -0.117 C  
BRANCH   7   8
HETATM    8  C   UNL     1      -8.043  13.302  67.235  1.00  0.00    -0.150 C  
BRANCH   8   9
HETATM    9  C   UNL     1      -9.308  13.213  68.090  1.00  0.00    -0.217 C  
BRANCH   9  10
HETATM   10  N   UNL     1     -10.592  12.917  67.330  1.00  0.00    -0.232 N  
HETATM   11  C   UNL     1     -10.342  12.852  65.827  1.00  0.00    -0.284 C  
HETATM   12  C   UNL     1     -11.194  11.578  67.728  1.00  0.00    -0.279 C  
BRANCH  10  13
HETATM   13  C   UNL     1     -11.619  14.102  67.671  1.00  0.00    -0.365 C  
HETATM   14  C   UNL     1     -11.090  15.511  67.337  1.00  0.00    -0.285 A  
HETATM   15  C   UNL     1     -11.018  16.293  68.512  1.00  0.00    -0.345 A  
HETATM   16  C   UNL     1     -11.557  15.543  69.621  1.00  0.00    -0.359 A  
HETATM   17  C   UNL     1     -10.517  17.587  68.488  1.00  0.00    -0.361 A  
HETATM   18  C   UNL     1     -11.947  14.260  69.175  1.00  0.00    -0.372 A  
HETATM   19  C   UNL     1     -10.086  18.113  67.271  1.00  0.00    -0.354 A  
HETATM   20  C   UNL     1     -10.188  17.357  66.096  1.00  0.00    -0.334 A  
HETATM   21  C   UNL     1     -12.571  13.387  70.060  1.00  0.00    -0.091 A  
HETATM   22  C   UNL     1     -12.750  13.785  71.392  1.00  0.00    -0.450 A  
HETATM   23  C   UNL     1     -10.711  16.060  66.118  1.00  0.00    -0.246 A  
HETATM   24  C   UNL     1     -12.351  15.054  71.824  1.00  0.00    -0.412 A  
HETATM   25  C   UNL     1     -11.757  15.949  70.934  1.00  0.00    -0.456 A  
ENDBRANCH  10  13
ENDBRANCH   9  10
ENDBRANCH   8   9
ENDBRANCH   7   8
ENDBRANCH   6   7
ENDBRANCH   5   6
ENDBRANCH   4   5
ENDBRANCH   2   4
BRANCH   2  26
HETATM   26  C   UNL     1      -9.533   8.309  69.685  1.00  0.00    -0.163 C  
HETATM   27  C   UNL     1     -10.122   4.753  68.777  1.00  0.00    -0.128 A  
HETATM   28  C   UNL     1      -9.978   7.674  71.020  1.00  0.00    -0.188 A  
HETATM   29  C   UNL     1      -9.915   4.724  67.403  1.00  0.00    -0.204 A  
HETATM   30  C   UNL     1     -10.228   6.294  70.827  1.00  0.00    -0.238 A  
HETATM   31  C   UNL     1     -10.049   5.974  69.430  1.00  0.00    -0.243 A  
HETATM   32  C   UNL     1     -10.653   5.485  71.870  1.00  0.00    -0.293 A  
HETATM   33  C   UNL     1      -9.710   5.906  66.675  1.00  0.00    -0.184 A  
HETATM   34  C   UNL     1     -10.209   8.245  72.269  1.00  0.00    -0.375 A  
HETATM   35  C   UNL     1      -9.765   7.157  68.714  1.00  0.00    -0.145 A  
HETATM   36  C   UNL     1     -10.830   6.054  73.132  1.00  0.00    -0.287 A  
HETATM   37  C   UNL     1      -9.675   7.146  67.326  1.00  0.00    -0.198 A  
HETATM   38  C   UNL     1     -10.608   7.422  73.331  1.00  0.00    -0.427 A  
ENDBRANCH   2  26
TORSDOF 9
ENDMDL
MODEL      184
REMARK 921   NORMALIZED FREE ENERGY PREDICTED BY IDOCK:   -5.02 KCAL/MOL
REMARK 922        TOTAL FREE ENERGY PREDICTED BY IDOCK:   -9.43 KCAL/MOL
REMARK 923 INTER-LIGAND FREE ENERGY PREDICTED BY IDOCK:   -8.58 KCAL/MOL
REMARK 924 INTRA-LIGAND FREE ENERGY PREDICTED BY IDOCK:   -0.85 KCAL/MOL
REMARK 927      BINDING AFFINITY PREDICTED BY RF-SCORE:    0.00 PKD
ROOT
HETATM    1  C   UNL     1     -10.292  10.002  66.151  1.00  0.00    -0.155 C  
HETATM    2  N   UNL     1      -9.103  10.420  67.008  1.00  0.00    -0.139 N  
HETATM    3  C   UNL     1      -8.302  11.486  66.266  1.00  0.00    -0.076 C  
ENDROOT
BRANCH   2   4
HETATM    4  C   UNL     1      -9.609  10.933  68.341  1.00  0.00    -0.177 C  
BRANCH   4   5
HETATM    5  C   UNL     1     -11.115  10.832  68.578  1.00  0.00    -0.317 C  
BRANCH   5   6
HETATM    6  C   UNL     1     -11.387  10.802  70.088  1.00  0.00    -0.390 C  
BRANCH   6   7
HETATM    7  C   UNL     1     -12.628  11.606  70.520  1.00  0.00    -0.264 C  
BRANCH   7   8
HETATM    8  C   UNL     1     -12.314  13.031  71.001  1.00  0.00    -0.335 C  
BRANCH   8   9
HETATM    9  C   UNL     1     -12.500  13.993  69.828  1.00  0.00    -0.203 C  
BRANCH   9  10
HETATM   10  N   UNL     1     -11.390  15.014  69.636  1.00  0.00    -0.269 N  
HETATM   11  C   UNL     1     -11.345  16.006  70.794  1.00  0.00    -0.398 C  
HETATM   12  C   UNL     1     -10.018  14.359  69.574  1.00  0.00     0.217 C  
BRANCH  10  13
HETATM   13  C   UNL     1     -11.694  15.781  68.259  1.00  0.00    -0.222 C  
HETATM   14  C   UNL     1     -11.610  14.886  67.007  1.00  0.00    -0.314 A  
HETATM   15  C   UNL     1     -10.602  15.359  66.138  1.00  0.00    -0.321 A  
HETATM   16  C   UNL     1     -10.050  16.583  66.667  1.00  0.00    -0.299 A  
HETATM   17  C   UNL     1     -10.289  14.691  64.963  1.00  0.00    -0.432 A  
HETATM   18  C   UNL     1     -10.675  16.887  67.898  1.00  0.00    -0.344 A  
HETATM   19  C   UNL     1     -10.998  13.534  64.645  1.00  0.00    -0.395 A  
HETATM   20  C   UNL     1     -12.024  13.078  65.483  1.00  0.00    -0.470 A  
HETATM   21  C   UNL     1     -10.356  18.072  68.554  1.00  0.00    -0.359 A  
HETATM   22  C   UNL     1      -9.380  18.912  68.001  1.00  0.00    -0.349 A  
HETATM   23  C   UNL     1     -12.352  13.764  66.657  1.00  0.00    -0.403 A  
HETATM   24  C   UNL     1      -8.762  18.596  66.787  1.00  0.00    -0.294 A  
HETATM   25  C   UNL     1      -9.101  17.428  66.104  1.00  0.00    -0.177 A  
ENDBRANCH  10  13
ENDBRANCH   9  10
ENDBRANCH   8   9
ENDBRANCH   7   8
ENDBRANCH   6   7
ENDBRANCH   5   6
ENDBRANCH   4   5
ENDBRANCH   2   4
BRANCH   2  26
HETATM   26  C   UNL     1      -8.156   9.151  67.312  1.00  0.00    -0.106 C  
HETATM   27  C   UNL     1      -9.270   5.836  66.052  1.00  0.00    -0.155 A  
HETATM   28  C   UNL     1      -7.132   8.833  66.201  1.00  0.00    -0.085 A  
HETATM   29  C   UNL     1     -10.327   5.501  66.892  1.00  0.00    -0.315 A  
HETATM   30  C   UNL     1      -7.444   7.585  65.613  1.00  0.00    -0.083 A  
HETATM   31  C   UNL     1      -8.572   7.007  66.305  1.00  0.00    -0.142 A  
HETATM   32  C   UNL     1      -6.670   7.056  64.589  1.00  0.00    -0.043 A  
HETATM   33  C   UNL     1     -10.639   6.285  68.012  1.00  0.00    -0.326 A  
HETATM   34  C   UNL     1      -5.998   9.526  65.782  1.00  0.00    -0.055 A  
HETATM   35  C   UNL     1      -8.932   7.841  67.385  1.00  0.00    -0.128 A  
HETATM   36  C   UNL     1      -5.568   7.782  64.138  1.00  0.00    -0.041 A  
HETATM   37  C   UNL     1      -9.910   7.449  68.293  1.00  0.00    -0.173 A  
HETATM   38  C   UNL     1      -5.234   9.007  64.728  1.00  0.00    -0.042 A  
ENDBRANCH   2  26
TORSDOF 9
ENDMDL
MODEL      185
REMARK 921   NORMALIZED FREE ENERGY PREDICTED BY IDOCK:   -5.02 KCAL/MOL
REMARK 922        TOTAL FREE ENERGY PREDICTED BY IDOCK:   -9.43 KCAL/MOL
REMARK 923 INTER-LIGAND FREE ENERGY PREDICTED BY IDOCK:   -8.55 KCAL/MOL
REMARK 924 INTRA-LIGAND FREE ENERGY PREDICTED BY IDOCK:   -0.88 KCAL/MOL
REMARK 927      BINDING AFFINITY PREDICTED BY RF-SCORE:    0.00 PKD
ROOT
HETATM    1  C   UNL     1      -9.393   8.765  72.295  1.00  0.00    -0.153 C  
HETATM    2  N   UNL     1      -9.609   7.836  71.106  1.00  0.00    -0.158 N  
HETATM    3  C   UNL     1     -11.083   7.447  71.038  1.00  0.00    -0.258 C  
ENDROOT
BRANCH   2   4
HETATM    4  C   UNL     1      -9.161   8.539  69.841  1.00  0.00    -0.154 C  
BRANCH   4   5
HETATM    5  C   UNL     1      -7.741   9.104  69.845  1.00  0.00    -0.087 C  
BRANCH   5   6
HETATM    6  C   UNL     1      -7.766  10.537  69.296  1.00  0.00    -0.144 C  
BRANCH   6   7
HETATM    7  C   UNL     1      -6.754  10.795  68.165  1.00  0.00    -0.063 C  
BRANCH   7   8
HETATM    8  C   UNL     1      -7.384  10.866  66.766  1.00  0.00    -0.134 C  
BRANCH   8   9
HETATM    9  C   UNL     1      -8.735  11.574  66.876  1.00  0.00    -0.181 C  
BRANCH   9  10
HETATM   10  N   UNL     1      -9.815  11.073  65.931  1.00  0.00    -0.221 N  
HETATM   11  C   UNL     1      -9.454  11.359  64.477  1.00  0.00    -0.138 C  
HETATM   12  C   UNL     1     -10.015   9.569  66.040  1.00  0.00    -0.278 C  
BRANCH  10  13
HETATM   13  C   UNL     1     -11.172  11.836  66.327  1.00  0.00    -0.312 C  
HETATM   14  C   UNL     1     -11.129  13.359  66.092  1.00  0.00    -0.299 A  
HETATM   15  C   UNL     1     -11.312  14.044  67.315  1.00  0.00    -0.350 A  
HETATM   16  C   UNL     1     -11.575  13.088  68.364  1.00  0.00    -0.370 A  
HETATM   17  C   UNL     1     -11.258  15.429  67.382  1.00  0.00    -0.287 A  
HETATM   18  C   UNL     1     -11.529  11.780  67.830  1.00  0.00    -0.387 A  
HETATM   19  C   UNL     1     -11.025  16.144  66.209  1.00  0.00    -0.031 A  
HETATM   20  C   UNL     1     -10.879  15.475  64.987  1.00  0.00    -0.468 A  
HETATM   21  C   UNL     1     -11.833  10.696  68.647  1.00  0.00    -0.135 A  
HETATM   22  C   UNL     1     -12.129  10.926  69.998  1.00  0.00    -0.433 A  
HETATM   23  C   UNL     1     -10.953  14.081  64.918  1.00  0.00    -0.398 A  
HETATM   24  C   UNL     1     -12.162  12.225  70.516  1.00  0.00    -0.387 A  
HETATM   25  C   UNL     1     -11.893  13.320  69.696  1.00  0.00    -0.391 A  
ENDBRANCH  10  13
ENDBRANCH   9  10
ENDBRANCH   8   9
ENDBRANCH   7   8
ENDBRANCH   6   7
ENDBRANCH   5   6
ENDBRANCH   4   5
ENDBRANCH   2   4
BRANCH   2  26
HETATM   26  C   UNL     1      -8.709   6.507  71.259  1.00  0.00    -0.130 C  
HETATM   27  C   UNL     1     -10.364   3.458  72.594  1.00  0.00    -0.217 A  
HETATM   28  C   UNL     1      -8.746   5.563  70.039  1.00  0.00    -0.132 A  
HETATM   29  C   UNL     1     -10.535   3.740  73.945  1.00  0.00    -0.262 A  
HETATM   30  C   UNL     1      -9.371   4.346  70.401  1.00  0.00    -0.219 A  
HETATM   31  C   UNL     1      -9.696   4.383  71.808  1.00  0.00    -0.236 A  
HETATM   32  C   UNL     1      -9.525   3.313  69.486  1.00  0.00    -0.205 A  
HETATM   33  C   UNL     1      -9.984   4.894  74.521  1.00  0.00    -0.244 A  
HETATM   34  C   UNL     1      -8.229   5.713  68.754  1.00  0.00    -0.103 A  
HETATM   35  C   UNL     1      -9.207   5.584  72.366  1.00  0.00    -0.153 A  
HETATM   36  C   UNL     1      -9.053   3.494  68.186  1.00  0.00    -0.200 A  
HETATM   37  C   UNL     1      -9.274   5.812  73.736  1.00  0.00    -0.126 A  
HETATM   38  C   UNL     1      -8.412   4.683  67.821  1.00  0.00    -0.103 A  
ENDBRANCH   2  26
TORSDOF 9
ENDMDL
MODEL      186
REMARK 921   NORMALIZED FREE ENERGY PREDICTED BY IDOCK:   -5.00 KCAL/MOL
REMARK 922        TOTAL FREE ENERGY PREDICTED BY IDOCK:   -9.40 KCAL/MOL
REMARK 923 INTER-LIGAND FREE ENERGY PREDICTED BY IDOCK:   -9.54 KCAL/MOL
REMARK 924 INTRA-LIGAND FREE ENERGY PREDICTED BY IDOCK:    0.14 KCAL/MOL
REMARK 927      BINDING AFFINITY PREDICTED BY RF-SCORE:    0.00 PKD
ROOT
HETATM    1  C   UNL     1      -7.119  17.619  68.990  1.00  0.00    -0.227 C  
HETATM    2  N   UNL     1      -7.628  16.288  68.448  1.00  0.00    -0.159 N  
HETATM    3  C   UNL     1      -6.981  16.021  67.091  1.00  0.00    -0.207 C  
ENDROOT
BRANCH   2   4
HETATM    4  C   UNL     1      -7.304  15.192  69.443  1.00  0.00    -0.203 C  
BRANCH   4   5
HETATM    5  C   UNL     1      -6.130  14.279  69.089  1.00  0.00    -0.095 C  
BRANCH   5   6
HETATM    6  C   UNL     1      -6.612  12.822  69.073  1.00  0.00    -0.099 C  
BRANCH   6   7
HETATM    7  C   UNL     1      -5.916  11.919  70.108  1.00  0.00    -0.159 C  
BRANCH   7   8
HETATM    8  C   UNL     1      -5.980  10.421  69.774  1.00  0.00    -0.053 C  
BRANCH   8   9
HETATM    9  C   UNL     1      -6.350   9.655  71.045  1.00  0.00    -0.063 C  
BRANCH   9  10
HETATM   10  N   UNL     1      -7.199   8.411  70.835  1.00  0.00    -0.053 N  
HETATM   11  C   UNL     1      -6.622   7.526  69.736  1.00  0.00    -0.039 C  
HETATM   12  C   UNL     1      -7.272   7.553  72.089  1.00  0.00    -0.068 C  
BRANCH  10  13
HETATM   13  C   UNL     1      -8.669   8.913  70.429  1.00  0.00    -0.180 C  
HETATM   14  C   UNL     1      -9.811   8.161  71.141  1.00  0.00    -0.207 A  
HETATM   15  C   UNL     1     -10.626   7.504  70.191  1.00  0.00    -0.241 A  
HETATM   16  C   UNL     1     -10.174   7.836  68.862  1.00  0.00    -0.220 A  
HETATM   17  C   UNL     1     -11.693   6.708  70.582  1.00  0.00    -0.452 A  
HETATM   18  C   UNL     1      -9.043   8.680  68.946  1.00  0.00    -0.145 A  
HETATM   19  C   UNL     1     -11.957   6.570  71.944  1.00  0.00    -0.389 A  
HETATM   20  C   UNL     1     -11.177   7.248  72.890  1.00  0.00    -0.336 A  
HETATM   21  C   UNL     1      -8.484   9.195  67.781  1.00  0.00    -0.117 A  
HETATM   22  C   UNL     1      -9.025   8.818  66.545  1.00  0.00    -0.180 A  
HETATM   23  C   UNL     1     -10.114   8.064  72.493  1.00  0.00    -0.346 A  
HETATM   24  C   UNL     1     -10.138   7.974  66.473  1.00  0.00    -0.270 A  
HETATM   25  C   UNL     1     -10.728   7.482  67.637  1.00  0.00    -0.266 A  
ENDBRANCH  10  13
ENDBRANCH   9  10
ENDBRANCH   8   9
ENDBRANCH   7   8
ENDBRANCH   6   7
ENDBRANCH   5   6
ENDBRANCH   4   5
ENDBRANCH   2   4
BRANCH   2  26
HETATM   26  C   UNL     1      -9.231  16.324  68.280  1.00  0.00    -0.197 C  
HETATM   27  C   UNL     1     -10.651  18.780  65.878  1.00  0.00    -0.405 A  
HETATM   28  C   UNL     1      -9.778  15.432  67.146  1.00  0.00    -0.219 A  
HETATM   29  C   UNL     1     -10.490  20.002  66.521  1.00  0.00    -0.525 A  
HETATM   30  C   UNL     1     -10.347  16.245  66.136  1.00  0.00    -0.352 A  
HETATM   31  C   UNL     1     -10.281  17.627  66.552  1.00  0.00    -0.355 A  
HETATM   32  C   UNL     1     -10.922  15.690  65.002  1.00  0.00    -0.445 A  
HETATM   33  C   UNL     1     -10.034  20.070  67.846  1.00  0.00    -0.558 A  
HETATM   34  C   UNL     1      -9.839  14.045  67.025  1.00  0.00    -0.260 A  
HETATM   35  C   UNL     1      -9.747  17.695  67.857  1.00  0.00    -0.295 A  
HETATM   36  C   UNL     1     -10.930  14.302  64.864  1.00  0.00    -0.413 A  
HETATM   37  C   UNL     1      -9.696  18.903  68.544  1.00  0.00    -0.441 A  
HETATM   38  C   UNL     1     -10.393  13.486  65.866  1.00  0.00    -0.301 A  
ENDBRANCH   2  26
TORSDOF 9
ENDMDL
MODEL      187
REMARK 921   NORMALIZED FREE ENERGY PREDICTED BY IDOCK:   -4.98 KCAL/MOL
REMARK 922        TOTAL FREE ENERGY PREDICTED BY IDOCK:   -9.37 KCAL/MOL
REMARK 923 INTER-LIGAND FREE ENERGY PREDICTED BY IDOCK:   -9.16 KCAL/MOL
REMARK 924 INTRA-LIGAND FREE ENERGY PREDICTED BY IDOCK:   -0.21 KCAL/MOL
REMARK 927      BINDING AFFINITY PREDICTED BY RF-SCORE:    0.00 PKD
ROOT
HETATM    1  C   UNL     1     -11.605  15.888  68.097  1.00  0.00    -0.223 C  
HETATM    2  N   UNL     1     -10.725  14.648  68.204  1.00  0.00    -0.239 N  
HETATM    3  C   UNL     1      -9.703  14.855  69.319  1.00  0.00    -0.143 C  
ENDROOT
BRANCH   2   4
HETATM    4  C   UNL     1     -11.601  13.441  68.470  1.00  0.00    -0.333 C  
BRANCH   4   5
HETATM    5  C   UNL     1     -11.058  12.415  69.464  1.00  0.00    -0.083 C  
BRANCH   5   6
HETATM    6  C   UNL     1     -12.122  11.337  69.708  1.00  0.00    -0.394 C  
BRANCH   6   7
HETATM    7  C   UNL     1     -12.349  11.001  71.194  1.00  0.00    -0.465 C  
BRANCH   7   8
HETATM    8  C   UNL     1     -12.492   9.499  71.481  1.00  0.00    -0.463 C  
BRANCH   8   9
HETATM    9  C   UNL     1     -11.099   8.913  71.715  1.00  0.00    -0.363 C  
BRANCH   9  10
HETATM   10  N   UNL     1     -11.009   7.397  71.659  1.00  0.00    -0.224 N  
HETATM   11  C   UNL     1     -12.344   6.778  71.256  1.00  0.00    -0.344 C  
HETATM   12  C   UNL     1      -9.987   6.924  70.636  1.00  0.00    -0.186 C  
BRANCH  10  13
HETATM   13  C   UNL     1     -10.586   6.899  73.125  1.00  0.00    -0.302 C  
HETATM   14  C   UNL     1      -9.118   7.193  73.491  1.00  0.00    -0.206 A  
HETATM   15  C   UNL     1      -8.428   5.984  73.738  1.00  0.00    -0.117 A  
HETATM   16  C   UNL     1      -9.354   4.880  73.659  1.00  0.00    -0.126 A  
HETATM   17  C   UNL     1      -7.073   5.973  74.033  1.00  0.00    -0.084 A  
HETATM   18  C   UNL     1     -10.639   5.367  73.327  1.00  0.00    -0.288 A  
HETATM   19  C   UNL     1      -6.393   7.189  74.089  1.00  0.00    -0.077 A  
HETATM   20  C   UNL     1      -7.078   8.394  73.883  1.00  0.00    -0.156 A  
HETATM   21  C   UNL     1     -11.714   4.485  73.275  1.00  0.00    -0.164 A  
HETATM   22  C   UNL     1     -11.483   3.121  73.503  1.00  0.00    -0.163 A  
HETATM   23  C   UNL     1      -8.448   8.405  73.605  1.00  0.00    -0.166 A  
HETATM   24  C   UNL     1     -10.205   2.650  73.821  1.00  0.00    -0.192 A  
HETATM   25  C   UNL     1      -9.129   3.532  73.910  1.00  0.00    -0.094 A  
ENDBRANCH  10  13
ENDBRANCH   9  10
ENDBRANCH   8   9
ENDBRANCH   7   8
ENDBRANCH   6   7
ENDBRANCH   5   6
ENDBRANCH   4   5
ENDBRANCH   2   4
BRANCH   2  26
HETATM   26  C   UNL     1      -9.955  14.383  66.812  1.00  0.00    -0.263 C  
HETATM   27  C   UNL     1      -8.631  10.963  66.205  1.00  0.00    -0.170 A  
HETATM   28  C   UNL     1     -10.852  13.855  65.672  1.00  0.00    -0.292 A  
HETATM   29  C   UNL     1      -7.536  10.876  67.058  1.00  0.00    -0.122 A  
HETATM   30  C   UNL     1     -10.466  12.535  65.339  1.00  0.00    -0.308 A  
HETATM   31  C   UNL     1      -9.318  12.165  66.134  1.00  0.00    -0.198 A  
HETATM   32  C   UNL     1     -11.108  11.827  64.333  1.00  0.00    -0.396 A  
HETATM   33  C   UNL     1      -7.087  11.994  67.777  1.00  0.00    -0.108 A  
HETATM   34  C   UNL     1     -11.864  14.479  64.946  1.00  0.00    -0.417 A  
HETATM   35  C   UNL     1      -8.918  13.270  66.916  1.00  0.00    -0.212 A  
HETATM   36  C   UNL     1     -12.157  12.440  63.647  1.00  0.00    -0.648 A  
HETATM   37  C   UNL     1      -7.755  13.221  67.678  1.00  0.00    -0.171 A  
HETATM   38  C   UNL     1     -12.533  13.754  63.950  1.00  0.00    -0.260 A  
ENDBRANCH   2  26
TORSDOF 9
ENDMDL
MODEL      188
REMARK 921   NORMALIZED FREE ENERGY PREDICTED BY IDOCK:   -4.98 KCAL/MOL
REMARK 922        TOTAL FREE ENERGY PREDICTED BY IDOCK:   -9.37 KCAL/MOL
REMARK 923 INTER-LIGAND FREE ENERGY PREDICTED BY IDOCK:   -9.41 KCAL/MOL
REMARK 924 INTRA-LIGAND FREE ENERGY PREDICTED BY IDOCK:    0.04 KCAL/MOL
REMARK 927      BINDING AFFINITY PREDICTED BY RF-SCORE:    0.00 PKD
ROOT
HETATM    1  C   UNL     1      -9.438  11.221  68.471  1.00  0.00    -0.191 C  
HETATM    2  N   UNL     1      -8.942  11.285  67.030  1.00  0.00    -0.151 N  
HETATM    3  C   UNL     1      -7.436  11.036  67.008  1.00  0.00    -0.127 C  
ENDROOT
BRANCH   2   4
HETATM    4  C   UNL     1      -9.687  10.256  66.204  1.00  0.00    -0.211 C  
BRANCH   4   5
HETATM    5  C   UNL     1      -8.836   9.174  65.541  1.00  0.00    -0.229 C  
BRANCH   5   6
HETATM    6  C   UNL     1      -8.879   7.902  66.398  1.00  0.00    -0.184 C  
BRANCH   6   7
HETATM    7  C   UNL     1      -7.634   7.007  66.259  1.00  0.00    -0.092 C  
BRANCH   7   8
HETATM    8  C   UNL     1      -7.680   5.734  67.118  1.00  0.00    -0.101 C  
BRANCH   8   9
HETATM    9  C   UNL     1      -8.883   5.823  68.057  1.00  0.00    -0.109 C  
BRANCH   9  10
HETATM   10  N   UNL     1      -8.643   5.334  69.477  1.00  0.00    -0.097 N  
HETATM   11  C   UNL     1      -7.956   3.972  69.483  1.00  0.00    -0.055 C  
HETATM   12  C   UNL     1      -7.743   6.276  70.260  1.00  0.00    -0.098 C  
BRANCH  10  13
HETATM   13  C   UNL     1     -10.080   5.234  70.185  1.00  0.00    -0.263 C  
HETATM   14  C   UNL     1     -10.638   6.585  70.673  1.00  0.00    -0.280 A  
HETATM   15  C   UNL     1     -10.818   6.559  72.074  1.00  0.00    -0.267 A  
HETATM   16  C   UNL     1     -10.511   5.239  72.571  1.00  0.00    -0.266 A  
HETATM   17  C   UNL     1     -11.257   7.678  72.767  1.00  0.00    -0.431 A  
HETATM   18  C   UNL     1     -10.097   4.417  71.498  1.00  0.00    -0.221 A  
HETATM   19  C   UNL     1     -11.528   8.842  72.050  1.00  0.00    -0.441 A  
HETATM   20  C   UNL     1     -11.388   8.865  70.656  1.00  0.00    -0.299 A  
HETATM   21  C   UNL     1      -9.826   3.073  71.730  1.00  0.00    -0.230 A  
HETATM   22  C   UNL     1      -9.919   2.578  73.038  1.00  0.00    -0.189 A  
HETATM   23  C   UNL     1     -10.964   7.731  69.957  1.00  0.00    -0.218 A  
HETATM   24  C   UNL     1     -10.320   3.404  74.094  1.00  0.00    -0.241 A  
HETATM   25  C   UNL     1     -10.628   4.744  73.864  1.00  0.00    -0.342 A  
ENDBRANCH  10  13
ENDBRANCH   9  10
ENDBRANCH   8   9
ENDBRANCH   7   8
ENDBRANCH   6   7
ENDBRANCH   5   6
ENDBRANCH   4   5
ENDBRANCH   2   4
BRANCH   2  26
HETATM   26  C   UNL     1      -9.257  12.732  66.391  1.00  0.00    -0.145 C  
HETATM   27  C   UNL     1     -12.783  13.477  65.482  1.00  0.00    -0.493 A  
HETATM   28  C   UNL     1      -9.665  13.811  67.416  1.00  0.00    -0.235 A  
HETATM   29  C   UNL     1     -13.002  12.706  64.346  1.00  0.00    -0.232 A  
HETATM   30  C   UNL     1     -11.011  14.188  67.196  1.00  0.00    -0.304 A  
HETATM   31  C   UNL     1     -11.515  13.482  66.041  1.00  0.00    -0.345 A  
HETATM   32  C   UNL     1     -11.627  15.155  67.978  1.00  0.00    -0.345 A  
HETATM   33  C   UNL     1     -11.953  12.006  63.731  1.00  0.00    -0.588 A  
HETATM   34  C   UNL     1      -8.924  14.455  68.405  1.00  0.00    -0.188 A  
HETATM   35  C   UNL     1     -10.474  12.717  65.473  1.00  0.00    -0.306 A  
HETATM   36  C   UNL     1     -10.893  15.757  69.002  1.00  0.00    -0.248 A  
HETATM   37  C   UNL     1     -10.660  12.041  64.272  1.00  0.00    -0.377 A  
HETATM   38  C   UNL     1      -9.554  15.410  69.215  1.00  0.00    -0.268 A  
ENDBRANCH   2  26
TORSDOF 9
ENDMDL
MODEL      189
REMARK 921   NORMALIZED FREE ENERGY PREDICTED BY IDOCK:   -4.97 KCAL/MOL
REMARK 922        TOTAL FREE ENERGY PREDICTED BY IDOCK:   -9.36 KCAL/MOL
REMARK 923 INTER-LIGAND FREE ENERGY PREDICTED BY IDOCK:   -7.41 KCAL/MOL
REMARK 924 INTRA-LIGAND FREE ENERGY PREDICTED BY IDOCK:   -1.95 KCAL/MOL
REMARK 927      BINDING AFFINITY PREDICTED BY RF-SCORE:    0.00 PKD
ROOT
HETATM    1  C   UNL     1     -10.062  10.887  68.874  1.00  0.00    -0.198 C  
HETATM    2  N   UNL     1     -10.316  10.716  67.380  1.00  0.00    -0.207 N  
HETATM    3  C   UNL     1     -10.452   9.229  67.064  1.00  0.00    -0.233 C  
ENDROOT
BRANCH   2   4
HETATM    4  C   UNL     1     -11.566  11.482  67.000  1.00  0.00    -0.122 C  
BRANCH   4   5
HETATM    5  C   UNL     1     -11.589  12.966  67.365  1.00  0.00    -0.414 C  
BRANCH   5   6
HETATM    6  C   UNL     1     -11.538  13.803  66.079  1.00  0.00    -0.361 C  
BRANCH   6   7
HETATM    7  C   UNL     1     -10.186  14.497  65.835  1.00  0.00    -0.339 C  
BRANCH   7   8
HETATM    8  C   UNL     1     -10.298  16.003  65.551  1.00  0.00    -0.415 C  
BRANCH   8   9
HETATM    9  C   UNL     1      -8.989  16.676  65.966  1.00  0.00    -0.213 C  
BRANCH   9  10
HETATM   10  N   UNL     1      -9.136  18.015  66.670  1.00  0.00    -0.274 N  
HETATM   11  C   UNL     1      -8.101  19.018  66.172  1.00  0.00    -0.244 C  
HETATM   12  C   UNL     1     -10.500  18.642  66.424  1.00  0.00    -0.418 C  
BRANCH  10  13
HETATM   13  C   UNL     1      -8.933  17.742  68.239  1.00  0.00    -0.277 C  
HETATM   14  C   UNL     1      -7.599  17.056  68.592  1.00  0.00    -0.238 A  
HETATM   15  C   UNL     1      -7.842  15.807  69.205  1.00  0.00    -0.233 A  
HETATM   16  C   UNL     1      -9.264  15.631  69.386  1.00  0.00    -0.279 A  
HETATM   17  C   UNL     1      -6.801  14.964  69.568  1.00  0.00    -0.172 A  
HETATM   18  C   UNL     1      -9.946  16.750  68.858  1.00  0.00    -0.271 A  
HETATM   19  C   UNL     1      -5.493  15.378  69.321  1.00  0.00    -0.096 A  
HETATM   20  C   UNL     1      -5.242  16.631  68.748  1.00  0.00    -0.122 A  
HETATM   21  C   UNL     1     -11.328  16.837  68.994  1.00  0.00     0.031 A  
HETATM   22  C   UNL     1     -12.017  15.781  69.606  1.00  0.00    -0.332 A  
HETATM   23  C   UNL     1      -6.292  17.487  68.401  1.00  0.00    -0.177 A  
HETATM   24  C   UNL     1     -11.331  14.674  70.116  1.00  0.00    -0.273 A  
HETATM   25  C   UNL     1      -9.942  14.595  70.016  1.00  0.00     0.406 A  
ENDBRANCH  10  13
ENDBRANCH   9  10
ENDBRANCH   8   9
ENDBRANCH   7   8
ENDBRANCH   6   7
ENDBRANCH   5   6
ENDBRANCH   4   5
ENDBRANCH   2   4
BRANCH   2  26
HETATM   26  C   UNL     1      -9.096  11.337  66.528  1.00  0.00    -0.184 C  
HETATM   27  C   UNL     1      -5.807   9.617  66.736  1.00  0.00    -0.055 A  
HETATM   28  C   UNL     1      -8.925  10.732  65.118  1.00  0.00    -0.215 A  
HETATM   29  C   UNL     1      -5.345   9.939  68.007  1.00  0.00    -0.039 A  
HETATM   30  C   UNL     1      -7.701  10.024  65.052  1.00  0.00    -0.138 A  
HETATM   31  C   UNL     1      -7.002  10.173  66.308  1.00  0.00    -0.109 A  
HETATM   32  C   UNL     1      -7.296   9.389  63.887  1.00  0.00    -0.105 A  
HETATM   33  C   UNL     1      -6.029  10.860  68.816  1.00  0.00    -0.039 A  
HETATM   34  C   UNL     1      -9.719  10.837  63.979  1.00  0.00    -0.367 A  
HETATM   35  C   UNL     1      -7.735  11.040  67.148  1.00  0.00    -0.131 A  
HETATM   36  C   UNL     1      -8.124   9.454  62.766  1.00  0.00    -0.142 A  
HETATM   37  C   UNL     1      -7.217  11.454  68.370  1.00  0.00    -0.087 A  
HETATM   38  C   UNL     1      -9.325  10.170  62.811  1.00  0.00    -0.323 A  
ENDBRANCH   2  26
TORSDOF 9
ENDMDL
MODEL      190
REMARK 921   NORMALIZED FREE ENERGY PREDICTED BY IDOCK:   -4.96 KCAL/MOL
REMARK 922        TOTAL FREE ENERGY PREDICTED BY IDOCK:   -9.34 KCAL/MOL
REMARK 923 INTER-LIGAND FREE ENERGY PREDICTED BY IDOCK:   -8.66 KCAL/MOL
REMARK 924 INTRA-LIGAND FREE ENERGY PREDICTED BY IDOCK:   -0.69 KCAL/MOL
REMARK 927      BINDING AFFINITY PREDICTED BY RF-SCORE:    0.00 PKD
ROOT
HETATM    1  C   UNL     1     -10.792   9.918  67.331  1.00  0.00    -0.227 C  
HETATM    2  N   UNL     1     -10.426  11.357  67.682  1.00  0.00    -0.188 N  
HETATM    3  C   UNL     1     -11.704  12.139  67.973  1.00  0.00    -0.344 C  
ENDROOT
BRANCH   2   4
HETATM    4  C   UNL     1      -9.493  11.352  68.875  1.00  0.00    -0.050 C  
BRANCH   4   5
HETATM    5  C   UNL     1      -9.355  10.027  69.623  1.00  0.00    -0.242 C  
BRANCH   5   6
HETATM    6  C   UNL     1     -10.410   9.962  70.736  1.00  0.00    -0.198 C  
BRANCH   6   7
HETATM    7  C   UNL     1     -10.023   9.056  71.918  1.00  0.00    -0.304 C  
BRANCH   7   8
HETATM    8  C   UNL     1     -11.218   8.372  72.600  1.00  0.00    -0.339 C  
BRANCH   8   9
HETATM    9  C   UNL     1     -11.335   6.946  72.061  1.00  0.00    -0.265 C  
BRANCH   9  10
HETATM   10  N   UNL     1     -10.681   5.869  72.911  1.00  0.00    -0.233 N  
HETATM   11  C   UNL     1     -10.148   6.444  74.219  1.00  0.00    -0.347 C  
HETATM   12  C   UNL     1     -11.660   4.768  73.289  1.00  0.00    -0.194 C  
BRANCH  10  13
HETATM   13  C   UNL     1      -9.476   5.257  72.043  1.00  0.00    -0.145 C  
HETATM   14  C   UNL     1      -8.089   5.819  72.407  1.00  0.00    -0.107 A  
HETATM   15  C   UNL     1      -7.521   6.471  71.289  1.00  0.00    -0.089 A  
HETATM   16  C   UNL     1      -8.390   6.310  70.148  1.00  0.00    -0.129 A  
HETATM   17  C   UNL     1      -6.294   7.114  71.374  1.00  0.00    -0.037 A  
HETATM   18  C   UNL     1      -9.539   5.582  70.532  1.00  0.00    -0.225 A  
HETATM   19  C   UNL     1      -5.617   7.100  72.592  1.00  0.00    -0.038 A  
HETATM   20  C   UNL     1      -6.156   6.424  73.695  1.00  0.00    -0.063 A  
HETATM   21  C   UNL     1     -10.484   5.236  69.572  1.00  0.00    -0.304 A  
HETATM   22  C   UNL     1     -10.296   5.665  68.250  1.00  0.00    -0.253 A  
HETATM   23  C   UNL     1      -7.383   5.761  73.603  1.00  0.00    -0.086 A  
HETATM   24  C   UNL     1      -9.159   6.392  67.884  1.00  0.00    -0.112 A  
HETATM   25  C   UNL     1      -8.190   6.714  68.834  1.00  0.00    -0.120 A  
ENDBRANCH  10  13
ENDBRANCH   9  10
ENDBRANCH   8   9
ENDBRANCH   7   8
ENDBRANCH   6   7
ENDBRANCH   5   6
ENDBRANCH   4   5
ENDBRANCH   2   4
BRANCH   2  26
HETATM   26  C   UNL     1      -9.637  12.051  66.460  1.00  0.00    -0.224 C  
HETATM   27  C   UNL     1     -11.529  14.443  64.333  1.00  0.00    -0.299 A  
HETATM   28  C   UNL     1      -8.994  13.412  66.802  1.00  0.00    -0.190 A  
HETATM   29  C   UNL     1     -12.372  13.626  63.588  1.00  0.00    -0.328 A  
HETATM   30  C   UNL     1      -9.633  14.437  66.063  1.00  0.00    -0.292 A  
HETATM   31  C   UNL     1     -10.620  13.843  65.191  1.00  0.00    -0.391 A  
HETATM   32  C   UNL     1      -9.239  15.762  66.177  1.00  0.00    -0.385 A  
HETATM   33  C   UNL     1     -12.263  12.228  63.641  1.00  0.00    -0.665 A  
HETATM   34  C   UNL     1      -7.915  13.730  67.624  1.00  0.00    -0.179 A  
HETATM   35  C   UNL     1     -10.559  12.438  65.309  1.00  0.00    -0.322 A  
HETATM   36  C   UNL     1      -8.192  16.078  67.044  1.00  0.00    -0.255 A  
HETATM   37  C   UNL     1     -11.318  11.619  64.478  1.00  0.00    -0.310 A  
HETATM   38  C   UNL     1      -7.536  15.072  67.762  1.00  0.00    -0.175 A  
ENDBRANCH   2  26
TORSDOF 9
ENDMDL
MODEL      191
REMARK 921   NORMALIZED FREE ENERGY PREDICTED BY IDOCK:   -4.96 KCAL/MOL
REMARK 922        TOTAL FREE ENERGY PREDICTED BY IDOCK:   -9.34 KCAL/MOL
REMARK 923 INTER-LIGAND FREE ENERGY PREDICTED BY IDOCK:   -4.76 KCAL/MOL
REMARK 924 INTRA-LIGAND FREE ENERGY PREDICTED BY IDOCK:   -4.58 KCAL/MOL
REMARK 927      BINDING AFFINITY PREDICTED BY RF-SCORE:    0.00 PKD
ROOT
HETATM    1  C   UNL     1     -10.351   4.742  71.149  1.00  0.00    -0.118 C  
HETATM    2  N   UNL     1      -9.044   4.736  70.363  1.00  0.00    -0.114 N  
HETATM    3  C   UNL     1      -8.021   3.880  71.103  1.00  0.00    -0.063 C  
ENDROOT
BRANCH   2   4
HETATM    4  C   UNL     1      -9.308   4.205  68.969  1.00  0.00    -0.165 C  
BRANCH   4   5
HETATM    5  C   UNL     1      -9.158   5.204  67.822  1.00  0.00    -0.119 C  
BRANCH   5   6
HETATM    6  C   UNL     1      -7.931   4.828  66.981  1.00  0.00    -0.103 C  
BRANCH   6   7
HETATM    7  C   UNL     1      -7.996   5.314  65.522  1.00  0.00    -0.107 C  
BRANCH   7   8
HETATM    8  C   UNL     1      -7.164   6.576  65.246  1.00  0.00    -0.073 C  
BRANCH   8   9
HETATM    9  C   UNL     1      -8.102   7.680  64.757  1.00  0.00    -0.121 C  
BRANCH   9  10
HETATM   10  N   UNL     1      -7.962   9.018  65.465  1.00  0.00    -0.102 N  
HETATM   11  C   UNL     1      -6.525   9.526  65.411  1.00  0.00    -0.073 C  
HETATM   12  C   UNL     1      -8.826  10.095  64.825  1.00  0.00    -0.195 C  
BRANCH  10  13
HETATM   13  C   UNL     1      -8.413   8.789  66.989  1.00  0.00    -0.109 C  
HETATM   14  C   UNL     1      -9.502   9.764  67.477  1.00  0.00    -0.170 A  
HETATM   15  C   UNL     1      -9.017  10.532  68.559  1.00  0.00    -0.147 A  
HETATM   16  C   UNL     1      -7.693  10.080  68.911  1.00  0.00    -0.089 A  
HETATM   17  C   UNL     1      -9.789  11.526  69.144  1.00  0.00     0.085 A  
HETATM   18  C   UNL     1      -7.302   9.041  68.036  1.00  0.00    -0.084 A  
HETATM   19  C   UNL     1     -11.071  11.754  68.645  1.00  0.00    -0.289 A  
HETATM   20  C   UNL     1     -11.573  10.972  67.597  1.00  0.00    -0.228 A  
HETATM   21  C   UNL     1      -6.087   8.395  68.238  1.00  0.00    -0.046 A  
HETATM   22  C   UNL     1      -5.254   8.828  69.278  1.00  0.00    -0.035 A  
HETATM   23  C   UNL     1     -10.801   9.958  67.022  1.00  0.00    -0.186 A  
HETATM   24  C   UNL     1      -5.646   9.863  70.132  1.00  0.00    -0.044 A  
HETATM   25  C   UNL     1      -6.878  10.493  69.959  1.00  0.00    -0.154 A  
ENDBRANCH  10  13
ENDBRANCH   9  10
ENDBRANCH   8   9
ENDBRANCH   7   8
ENDBRANCH   6   7
ENDBRANCH   5   6
ENDBRANCH   4   5
ENDBRANCH   2   4
BRANCH   2  26
HETATM   26  C   UNL     1      -8.476   6.236  70.204  1.00  0.00    -0.134 C  
HETATM   27  C   UNL     1     -10.101   8.910  72.212  1.00  0.00    -0.190 A  
HETATM   28  C   UNL     1      -7.386   6.621  71.227  1.00  0.00    -0.083 A  
HETATM   29  C   UNL     1     -11.328   9.094  71.585  1.00  0.00    -0.446 A  
HETATM   30  C   UNL     1      -7.876   7.637  72.081  1.00  0.00    -0.116 A  
HETATM   31  C   UNL     1      -9.204   8.012  71.654  1.00  0.00    -0.196 A  
HETATM   32  C   UNL     1      -7.089   8.174  73.090  1.00  0.00    -0.147 A  
HETATM   33  C   UNL     1     -11.630   8.447  70.377  1.00  0.00    -0.066 A  
HETATM   34  C   UNL     1      -6.071   6.182  71.366  1.00  0.00    -0.036 A  
HETATM   35  C   UNL     1      -9.534   7.298  70.482  1.00  0.00    -0.165 A  
HETATM   36  C   UNL     1      -5.791   7.690  73.257  1.00  0.00    -0.048 A  
HETATM   37  C   UNL     1     -10.710   7.569  69.789  1.00  0.00    -0.249 A  
HETATM   38  C   UNL     1      -5.286   6.702  72.404  1.00  0.00    -0.032 A  
ENDBRANCH   2  26
TORSDOF 9
ENDMDL
MODEL      192
REMARK 921   NORMALIZED FREE ENERGY PREDICTED BY IDOCK:   -4.96 KCAL/MOL
REMARK 922        TOTAL FREE ENERGY PREDICTED BY IDOCK:   -9.34 KCAL/MOL
REMARK 923 INTER-LIGAND FREE ENERGY PREDICTED BY IDOCK:   -9.63 KCAL/MOL
REMARK 924 INTRA-LIGAND FREE ENERGY PREDICTED BY IDOCK:    0.29 KCAL/MOL
REMARK 927      BINDING AFFINITY PREDICTED BY RF-SCORE:    0.00 PKD
ROOT
HETATM    1  C   UNL     1     -11.482  16.172  68.465  1.00  0.00    -0.324 C  
HETATM    2  N   UNL     1     -10.563  15.203  67.728  1.00  0.00    -0.259 N  
HETATM    3  C   UNL     1     -10.051  14.155  68.712  1.00  0.00    -0.198 C  
ENDROOT
BRANCH   2   4
HETATM    4  C   UNL     1     -11.327  14.567  66.586  1.00  0.00    -0.356 C  
BRANCH   4   5
HETATM    5  C   UNL     1     -11.618  13.072  66.713  1.00  0.00    -0.420 C  
BRANCH   5   6
HETATM    6  C   UNL     1     -10.465  12.279  66.083  1.00  0.00    -0.270 C  
BRANCH   6   7
HETATM    7  C   UNL     1     -10.761  10.779  65.897  1.00  0.00    -0.143 C  
BRANCH   7   8
HETATM    8  C   UNL     1      -9.564   9.863  66.194  1.00  0.00    -0.275 C  
BRANCH   8   9
HETATM    9  C   UNL     1      -9.450   9.687  67.708  1.00  0.00    -0.127 C  
BRANCH   9  10
HETATM   10  N   UNL     1      -8.959   8.325  68.173  1.00  0.00    -0.139 N  
HETATM   11  C   UNL     1      -8.232   7.588  67.053  1.00  0.00    -0.124 C  
HETATM   12  C   UNL     1      -7.974   8.438  69.327  1.00  0.00    -0.113 C  
BRANCH  10  13
HETATM   13  C   UNL     1     -10.253   7.495  68.636  1.00  0.00    -0.197 C  
HETATM   14  C   UNL     1     -10.998   8.108  69.837  1.00  0.00    -0.168 A  
HETATM   15  C   UNL     1     -10.998   7.203  70.922  1.00  0.00    -0.276 A  
HETATM   16  C   UNL     1     -10.383   5.963  70.511  1.00  0.00    -0.297 A  
HETATM   17  C   UNL     1     -11.559   7.541  72.145  1.00  0.00    -0.340 A  
HETATM   18  C   UNL     1      -9.951   6.075  69.170  1.00  0.00    -0.205 A  
HETATM   19  C   UNL     1     -12.135   8.802  72.288  1.00  0.00    -0.423 A  
HETATM   20  C   UNL     1     -12.172   9.691  71.207  1.00  0.00    -0.452 A  
HETATM   21  C   UNL     1      -9.399   4.969  68.533  1.00  0.00    -0.167 A  
HETATM   22  C   UNL     1      -9.235   3.780  69.259  1.00  0.00    -0.228 A  
HETATM   23  C   UNL     1     -11.624   9.342  69.969  1.00  0.00    -0.005 A  
HETATM   24  C   UNL     1      -9.657   3.685  70.589  1.00  0.00    -0.254 A  
HETATM   25  C   UNL     1     -10.245   4.779  71.224  1.00  0.00    -0.229 A  
ENDBRANCH  10  13
ENDBRANCH   9  10
ENDBRANCH   8   9
ENDBRANCH   7   8
ENDBRANCH   6   7
ENDBRANCH   5   6
ENDBRANCH   4   5
ENDBRANCH   2   4
BRANCH   2  26
HETATM   26  C   UNL     1      -9.312  15.994  67.086  1.00  0.00    -0.211 C  
HETATM   27  C   UNL     1      -9.001  19.619  67.843  1.00  0.00    -0.385 A  
HETATM   28  C   UNL     1      -8.062  16.059  67.990  1.00  0.00    -0.148 A  
HETATM   29  C   UNL     1     -10.013  20.203  67.089  1.00  0.00    -0.595 A  
HETATM   30  C   UNL     1      -7.825  17.400  68.374  1.00  0.00    -0.257 A  
HETATM   31  C   UNL     1      -8.796  18.254  67.728  1.00  0.00    -0.270 A  
HETATM   32  C   UNL     1      -6.751  17.741  69.183  1.00  0.00    -0.239 A  
HETATM   33  C   UNL     1     -10.765  19.447  66.176  1.00  0.00    -0.506 A  
HETATM   34  C   UNL     1      -7.174  15.063  68.391  1.00  0.00    -0.111 A  
HETATM   35  C   UNL     1      -9.601  17.474  66.869  1.00  0.00    -0.279 A  
HETATM   36  C   UNL     1      -5.897  16.729  69.624  1.00  0.00    -0.207 A  
HETATM   37  C   UNL     1     -10.533  18.073  66.028  1.00  0.00    -0.317 A  
HETATM   38  C   UNL     1      -6.107  15.402  69.233  1.00  0.00    -0.113 A  
ENDBRANCH   2  26
TORSDOF 9
ENDMDL
MODEL      193
REMARK 921   NORMALIZED FREE ENERGY PREDICTED BY IDOCK:   -4.96 KCAL/MOL
REMARK 922        TOTAL FREE ENERGY PREDICTED BY IDOCK:   -9.34 KCAL/MOL
REMARK 923 INTER-LIGAND FREE ENERGY PREDICTED BY IDOCK:   -9.11 KCAL/MOL
REMARK 924 INTRA-LIGAND FREE ENERGY PREDICTED BY IDOCK:   -0.23 KCAL/MOL
REMARK 927      BINDING AFFINITY PREDICTED BY RF-SCORE:    0.00 PKD
ROOT
HETATM    1  C   UNL     1      -7.627   7.196  68.601  1.00  0.00    -0.111 C  
HETATM    2  N   UNL     1      -8.000   6.497  69.904  1.00  0.00    -0.114 N  
HETATM    3  C   UNL     1      -7.341   7.229  71.070  1.00  0.00    -0.074 C  
ENDROOT
BRANCH   2   4
HETATM    4  C   UNL     1      -9.508   6.479  70.041  1.00  0.00    -0.156 C  
BRANCH   4   5
HETATM    5  C   UNL     1     -10.087   7.193  71.262  1.00  0.00    -0.196 C  
BRANCH   5   6
HETATM    6  C   UNL     1     -11.154   8.195  70.801  1.00  0.00    -0.275 C  
BRANCH   6   7
HETATM    7  C   UNL     1     -10.729   9.058  69.599  1.00  0.00    -0.228 C  
BRANCH   7   8
HETATM    8  C   UNL     1     -10.787  10.571  69.863  1.00  0.00    -0.334 C  
BRANCH   8   9
HETATM    9  C   UNL     1     -11.724  11.208  68.837  1.00  0.00    -0.337 C  
BRANCH   9  10
HETATM   10  N   UNL     1     -11.082  12.229  67.911  1.00  0.00    -0.228 N  
HETATM   11  C   UNL     1      -9.636  12.506  68.310  1.00  0.00    -0.209 C  
HETATM   12  C   UNL     1     -11.049  11.748  66.468  1.00  0.00    -0.310 C  
BRANCH  10  13
HETATM   13  C   UNL     1     -11.955  13.572  68.021  1.00  0.00    -0.337 C  
HETATM   14  C   UNL     1     -11.410  14.748  67.186  1.00  0.00    -0.363 A  
HETATM   15  C   UNL     1     -11.076  15.830  68.031  1.00  0.00    -0.337 A  
HETATM   16  C   UNL     1     -11.448  15.509  69.388  1.00  0.00    -0.345 A  
HETATM   17  C   UNL     1     -10.509  16.992  67.527  1.00  0.00    -0.334 A  
HETATM   18  C   UNL     1     -11.991  14.205  69.431  1.00  0.00    -0.382 A  
HETATM   19  C   UNL     1     -10.277  17.080  66.156  1.00  0.00    -0.346 A  
HETATM   20  C   UNL     1     -10.640  16.026  65.306  1.00  0.00    -0.424 A  
HETATM   21  C   UNL     1     -12.495  13.712  70.630  1.00  0.00    -0.417 A  
HETATM   22  C   UNL     1     -12.402  14.505  71.782  1.00  0.00    -0.408 A  
HETATM   23  C   UNL     1     -11.229  14.864  65.813  1.00  0.00    -0.334 A  
HETATM   24  C   UNL     1     -11.853  15.790  71.729  1.00  0.00    -0.549 A  
HETATM   25  C   UNL     1     -11.378  16.306  70.524  1.00  0.00    -0.318 A  
ENDBRANCH  10  13
ENDBRANCH   9  10
ENDBRANCH   8   9
ENDBRANCH   7   8
ENDBRANCH   6   7
ENDBRANCH   5   6
ENDBRANCH   4   5
ENDBRANCH   2   4
BRANCH   2  26
HETATM   26  C   UNL     1      -7.502   4.963  69.882  1.00  0.00    -0.056 C  
HETATM   27  C   UNL     1      -9.779   2.398  71.316  1.00  0.00    -0.201 A  
HETATM   28  C   UNL     1      -7.953   4.160  68.644  1.00  0.00    -0.072 A  
HETATM   29  C   UNL     1      -9.698   2.615  72.688  1.00  0.00    -0.190 A  
HETATM   30  C   UNL     1      -8.849   3.139  69.042  1.00  0.00    -0.161 A  
HETATM   31  C   UNL     1      -8.976   3.159  70.481  1.00  0.00    -0.169 A  
HETATM   32  C   UNL     1      -9.399   2.261  68.119  1.00  0.00    -0.263 A  
HETATM   33  C   UNL     1      -8.777   3.526  73.226  1.00  0.00    -0.089 A  
HETATM   34  C   UNL     1      -7.574   4.258  67.306  1.00  0.00    -0.077 A  
HETATM   35  C   UNL     1      -8.103   4.134  71.011  1.00  0.00    -0.071 A  
HETATM   36  C   UNL     1      -9.057   2.401  66.774  1.00  0.00    -0.118 A  
HETATM   37  C   UNL     1      -7.936   4.268  72.386  1.00  0.00    -0.088 A  
HETATM   38  C   UNL     1      -8.153   3.391  66.370  1.00  0.00    -0.092 A  
ENDBRANCH   2  26
TORSDOF 9
ENDMDL
MODEL      194
REMARK 921   NORMALIZED FREE ENERGY PREDICTED BY IDOCK:   -4.96 KCAL/MOL
REMARK 922        TOTAL FREE ENERGY PREDICTED BY IDOCK:   -9.34 KCAL/MOL
REMARK 923 INTER-LIGAND FREE ENERGY PREDICTED BY IDOCK:   -8.00 KCAL/MOL
REMARK 924 INTRA-LIGAND FREE ENERGY PREDICTED BY IDOCK:   -1.33 KCAL/MOL
REMARK 927      BINDING AFFINITY PREDICTED BY RF-SCORE:    0.00 PKD
ROOT
HETATM    1  C   UNL     1      -7.371   8.425  71.109  1.00  0.00    -0.074 C  
HETATM    2  N   UNL     1      -8.763   8.581  70.506  1.00  0.00    -0.143 N  
HETATM    3  C   UNL     1      -9.710   9.127  71.571  1.00  0.00    -0.243 C  
ENDROOT
BRANCH   2   4
HETATM    4  C   UNL     1      -8.683   9.503  69.307  1.00  0.00    -0.151 C  
BRANCH   4   5
HETATM    5  C   UNL     1      -7.967  10.836  69.524  1.00  0.00    -0.022 C  
BRANCH   5   6
HETATM    6  C   UNL     1      -8.415  11.831  68.445  1.00  0.00    -0.155 C  
BRANCH   6   7
HETATM    7  C   UNL     1      -7.353  12.884  68.080  1.00  0.00    -0.119 C  
BRANCH   7   8
HETATM    8  C   UNL     1      -7.937  14.218  67.591  1.00  0.00    -0.191 C  
BRANCH   8   9
HETATM    9  C   UNL     1      -9.182  14.537  68.419  1.00  0.00    -0.196 C  
BRANCH   9  10
HETATM   10  N   UNL     1     -10.198  15.450  67.750  1.00  0.00    -0.238 N  
HETATM   11  C   UNL     1     -10.601  16.597  68.670  1.00  0.00    -0.337 C  
HETATM   12  C   UNL     1      -9.645  16.085  66.483  1.00  0.00    -0.261 C  
BRANCH  10  13
HETATM   13  C   UNL     1     -11.476  14.545  67.397  1.00  0.00    -0.368 C  
HETATM   14  C   UNL     1     -11.791  13.462  68.447  1.00  0.00    -0.401 A  
HETATM   15  C   UNL     1     -11.703  12.179  67.862  1.00  0.00    -0.403 A  
HETATM   16  C   UNL     1     -11.442  12.314  66.449  1.00  0.00    -0.434 A  
HETATM   17  C   UNL     1     -11.887  11.027  68.614  1.00  0.00    -0.318 A  
HETATM   18  C   UNL     1     -11.325  13.684  66.121  1.00  0.00    -0.324 A  
HETATM   19  C   UNL     1     -12.170  11.157  69.972  1.00  0.00    -0.402 A  
HETATM   20  C   UNL     1     -12.296  12.426  70.552  1.00  0.00    -0.346 A  
HETATM   21  C   UNL     1     -11.152  14.059  64.793  1.00  0.00    -0.391 A  
HETATM   22  C   UNL     1     -11.045  13.060  63.815  1.00  0.00    -0.353 A  
HETATM   23  C   UNL     1     -12.129  13.585  69.789  1.00  0.00    -0.381 A  
HETATM   24  C   UNL     1     -11.151  11.707  64.152  1.00  0.00    -0.435 A  
HETATM   25  C   UNL     1     -11.361  11.324  65.477  1.00  0.00     0.026 A  
ENDBRANCH  10  13
ENDBRANCH   9  10
ENDBRANCH   8   9
ENDBRANCH   7   8
ENDBRANCH   6   7
ENDBRANCH   5   6
ENDBRANCH   4   5
ENDBRANCH   2   4
BRANCH   2  26
HETATM   26  C   UNL     1      -9.309   7.158  69.980  1.00  0.00    -0.154 C  
HETATM   27  C   UNL     1      -8.220   6.040  66.606  1.00  0.00    -0.106 A  
HETATM   28  C   UNL     1      -8.384   5.961  70.287  1.00  0.00    -0.122 A  
HETATM   29  C   UNL     1      -8.934   6.861  65.740  1.00  0.00    -0.038 A  
HETATM   30  C   UNL     1      -7.875   5.433  69.076  1.00  0.00    -0.090 A  
HETATM   31  C   UNL     1      -8.456   6.154  67.967  1.00  0.00    -0.116 A  
HETATM   32  C   UNL     1      -7.021   4.340  69.067  1.00  0.00    -0.050 A  
HETATM   33  C   UNL     1      -9.924   7.733  66.217  1.00  0.00    -0.047 A  
HETATM   34  C   UNL     1      -8.061   5.344  71.494  1.00  0.00    -0.117 A  
HETATM   35  C   UNL     1      -9.395   7.086  68.459  1.00  0.00    -0.135 A  
HETATM   36  C   UNL     1      -6.660   3.762  70.285  1.00  0.00    -0.033 A  
HETATM   37  C   UNL     1     -10.194   7.822  67.589  1.00  0.00    -0.282 A  
HETATM   38  C   UNL     1      -7.174   4.259  71.488  1.00  0.00    -0.051 A  
ENDBRANCH   2  26
TORSDOF 9
ENDMDL
MODEL      195
REMARK 921   NORMALIZED FREE ENERGY PREDICTED BY IDOCK:   -4.95 KCAL/MOL
REMARK 922        TOTAL FREE ENERGY PREDICTED BY IDOCK:   -9.33 KCAL/MOL
REMARK 923 INTER-LIGAND FREE ENERGY PREDICTED BY IDOCK:   -8.89 KCAL/MOL
REMARK 924 INTRA-LIGAND FREE ENERGY PREDICTED BY IDOCK:   -0.43 KCAL/MOL
REMARK 927      BINDING AFFINITY PREDICTED BY RF-SCORE:    0.00 PKD
ROOT
HETATM    1  C   UNL     1     -10.370   4.971  70.701  1.00  0.00    -0.208 C  
HETATM    2  N   UNL     1      -9.835   5.890  69.608  1.00  0.00    -0.159 N  
HETATM    3  C   UNL     1     -10.074   5.239  68.248  1.00  0.00    -0.155 C  
ENDROOT
BRANCH   2   4
HETATM    4  C   UNL     1     -10.527   7.234  69.709  1.00  0.00    -0.227 C  
BRANCH   4   5
HETATM    5  C   UNL     1     -11.272   7.516  71.013  1.00  0.00    -0.281 C  
BRANCH   5   6
HETATM    6  C   UNL     1     -10.883   8.910  71.525  1.00  0.00    -0.396 C  
BRANCH   6   7
HETATM    7  C   UNL     1     -11.598  10.067  70.804  1.00  0.00    -0.444 C  
BRANCH   7   8
HETATM    8  C   UNL     1     -10.830  10.620  69.594  1.00  0.00    -0.318 C  
BRANCH   8   9
HETATM    9  C   UNL     1     -11.821  11.330  68.671  1.00  0.00    -0.300 C  
BRANCH   9  10
HETATM   10  N   UNL     1     -11.208  12.312  67.685  1.00  0.00    -0.271 N  
HETATM   11  C   UNL     1      -9.721  12.514  67.957  1.00  0.00    -0.215 C  
HETATM   12  C   UNL     1     -11.324  11.824  66.249  1.00  0.00    -0.287 C  
BRANCH  10  13
HETATM   13  C   UNL     1     -11.997  13.700  67.858  1.00  0.00    -0.347 C  
HETATM   14  C   UNL     1     -11.387  14.874  67.066  1.00  0.00    -0.345 A  
HETATM   15  C   UNL     1     -10.982  15.898  67.951  1.00  0.00    -0.327 A  
HETATM   16  C   UNL     1     -11.363  15.545  69.298  1.00  0.00    -0.330 A  
HETATM   17  C   UNL     1     -10.349  17.043  67.490  1.00  0.00    -0.329 A  
HETATM   18  C   UNL     1     -11.985  14.275  69.293  1.00  0.00    -0.375 A  
HETATM   19  C   UNL     1     -10.121  17.173  66.121  1.00  0.00    -0.317 A  
HETATM   20  C   UNL     1     -10.553  16.179  65.233  1.00  0.00    -0.390 A  
HETATM   21  C   UNL     1     -12.509  13.765  70.476  1.00  0.00    -0.409 A  
HETATM   22  C   UNL     1     -12.360  14.502  71.658  1.00  0.00    -0.420 A  
HETATM   23  C   UNL     1     -11.208  15.035  65.698  1.00  0.00    -0.327 A  
HETATM   24  C   UNL     1     -11.734  15.753  71.652  1.00  0.00    -0.542 A  
HETATM   25  C   UNL     1     -11.237  16.289  70.465  1.00  0.00    -0.327 A  
ENDBRANCH  10  13
ENDBRANCH   9  10
ENDBRANCH   8   9
ENDBRANCH   7   8
ENDBRANCH   6   7
ENDBRANCH   5   6
ENDBRANCH   4   5
ENDBRANCH   2   4
BRANCH   2  26
HETATM   26  C   UNL     1      -8.257   6.147  69.811  1.00  0.00    -0.123 C  
HETATM   27  C   UNL     1      -5.939   4.658  67.315  1.00  0.00    -0.023 A  
HETATM   28  C   UNL     1      -7.705   7.379  69.063  1.00  0.00    -0.118 A  
HETATM   29  C   UNL     1      -5.960   3.300  67.614  1.00  0.00    -0.027 A  
HETATM   30  C   UNL     1      -6.804   6.958  68.057  1.00  0.00    -0.078 A  
HETATM   31  C   UNL     1      -6.658   5.522  68.126  1.00  0.00    -0.049 A  
HETATM   32  C   UNL     1      -6.155   7.872  67.240  1.00  0.00    -0.053 A  
HETATM   33  C   UNL     1      -6.630   2.817  68.748  1.00  0.00    -0.029 A  
HETATM   34  C   UNL     1      -7.911   8.741  69.273  1.00  0.00    -0.108 A  
HETATM   35  C   UNL     1      -7.399   5.032  69.223  1.00  0.00    -0.057 A  
HETATM   36  C   UNL     1      -6.409   9.232  67.422  1.00  0.00    -0.062 A  
HETATM   37  C   UNL     1      -7.325   3.693  69.592  1.00  0.00    -0.045 A  
HETATM   38  C   UNL     1      -7.280   9.663  68.428  1.00  0.00    -0.074 A  
ENDBRANCH   2  26
TORSDOF 9
ENDMDL
MODEL      196
REMARK 921   NORMALIZED FREE ENERGY PREDICTED BY IDOCK:   -4.93 KCAL/MOL
REMARK 922        TOTAL FREE ENERGY PREDICTED BY IDOCK:   -9.28 KCAL/MOL
REMARK 923 INTER-LIGAND FREE ENERGY PREDICTED BY IDOCK:   -9.31 KCAL/MOL
REMARK 924 INTRA-LIGAND FREE ENERGY PREDICTED BY IDOCK:    0.02 KCAL/MOL
REMARK 927      BINDING AFFINITY PREDICTED BY RF-SCORE:    0.00 PKD
ROOT
HETATM    1  C   UNL     1      -9.762   8.336  69.490  1.00  0.00    -0.174 C  
HETATM    2  N   UNL     1     -10.053   7.114  68.625  1.00  0.00    -0.167 N  
HETATM    3  C   UNL     1     -11.334   6.447  69.118  1.00  0.00    -0.296 C  
ENDROOT
BRANCH   2   4
HETATM    4  C   UNL     1     -10.175   7.549  67.179  1.00  0.00    -0.280 C  
BRANCH   4   5
HETATM    5  C   UNL     1     -10.587   9.001  66.940  1.00  0.00    -0.243 C  
BRANCH   5   6
HETATM    6  C   UNL     1      -9.671   9.617  65.874  1.00  0.00    -0.343 C  
BRANCH   6   7
HETATM    7  C   UNL     1     -10.328  10.743  65.054  1.00  0.00    -0.357 C  
BRANCH   7   8
HETATM    8  C   UNL     1     -10.329  12.109  65.757  1.00  0.00    -0.289 C  
BRANCH   8   9
HETATM    9  C   UNL     1     -11.562  12.193  66.657  1.00  0.00    -0.350 C  
BRANCH   9  10
HETATM   10  N   UNL     1     -11.288  12.527  68.114  1.00  0.00    -0.272 N  
HETATM   11  C   UNL     1     -11.765  11.411  69.037  1.00  0.00    -0.343 C  
HETATM   12  C   UNL     1      -9.802  12.708  68.387  1.00  0.00    -0.200 C  
BRANCH  10  13
HETATM   13  C   UNL     1     -12.074  13.889  68.437  1.00  0.00    -0.291 C  
HETATM   14  C   UNL     1     -11.356  15.162  67.949  1.00  0.00    -0.346 A  
HETATM   15  C   UNL     1     -11.052  15.999  69.047  1.00  0.00    -0.320 A  
HETATM   16  C   UNL     1     -11.602  15.426  70.252  1.00  0.00    -0.346 A  
HETATM   17  C   UNL     1     -10.352  17.185  68.879  1.00  0.00    -0.348 A  
HETATM   18  C   UNL     1     -12.234  14.200  69.944  1.00  0.00    -0.416 A  
HETATM   19  C   UNL     1      -9.954  17.547  67.593  1.00  0.00    -0.309 A  
HETATM   20  C   UNL     1     -10.283  16.742  66.495  1.00  0.00    -0.319 A  
HETATM   21  C   UNL     1     -12.909  13.506  70.943  1.00  0.00    -0.298 A  
HETATM   22  C   UNL     1     -12.899  14.018  72.248  1.00  0.00    -0.403 A  
HETATM   23  C   UNL     1     -11.006  15.557  66.664  1.00  0.00    -0.248 A  
HETATM   24  C   UNL     1     -12.262  15.227  72.543  1.00  0.00    -0.485 A  
HETATM   25  C   UNL     1     -11.614  15.947  71.540  1.00  0.00    -0.537 A  
ENDBRANCH  10  13
ENDBRANCH   9  10
ENDBRANCH   8   9
ENDBRANCH   7   8
ENDBRANCH   6   7
ENDBRANCH   5   6
ENDBRANCH   4   5
ENDBRANCH   2   4
BRANCH   2  26
HETATM   26  C   UNL     1      -8.834   6.063  68.708  1.00  0.00    -0.116 C  
HETATM   27  C   UNL     1      -5.869   7.028  70.732  1.00  0.00    -0.027 A  
HETATM   28  C   UNL     1      -8.899   5.098  69.911  1.00  0.00    -0.127 A  
HETATM   29  C   UNL     1      -5.243   7.999  69.958  1.00  0.00    -0.023 A  
HETATM   30  C   UNL     1      -7.821   5.362  70.789  1.00  0.00    -0.095 A  
HETATM   31  C   UNL     1      -6.991   6.398  70.217  1.00  0.00    -0.063 A  
HETATM   32  C   UNL     1      -7.639   4.626  71.951  1.00  0.00    -0.088 A  
HETATM   33  C   UNL     1      -5.685   8.287  68.658  1.00  0.00    -0.037 A  
HETATM   34  C   UNL     1      -9.770   4.046  70.190  1.00  0.00    -0.265 A  
HETATM   35  C   UNL     1      -7.488   6.740  68.941  1.00  0.00    -0.096 A  
HETATM   36  C   UNL     1      -8.547   3.610  72.250  1.00  0.00    -0.095 A  
HETATM   37  C   UNL     1      -6.795   7.624  68.119  1.00  0.00    -0.064 A  
HETATM   38  C   UNL     1      -9.604   3.323  71.379  1.00  0.00    -0.230 A  
ENDBRANCH   2  26
TORSDOF 9
ENDMDL
MODEL      197
REMARK 921   NORMALIZED FREE ENERGY PREDICTED BY IDOCK:   -4.92 KCAL/MOL
REMARK 922        TOTAL FREE ENERGY PREDICTED BY IDOCK:   -9.27 KCAL/MOL
REMARK 923 INTER-LIGAND FREE ENERGY PREDICTED BY IDOCK:   -9.72 KCAL/MOL
REMARK 924 INTRA-LIGAND FREE ENERGY PREDICTED BY IDOCK:    0.45 KCAL/MOL
REMARK 927      BINDING AFFINITY PREDICTED BY RF-SCORE:    0.00 PKD
ROOT
HETATM    1  C   UNL     1     -11.318  16.134  70.523  1.00  0.00    -0.373 C  
HETATM    2  N   UNL     1     -11.349  15.046  69.455  1.00  0.00    -0.270 N  
HETATM    3  C   UNL     1      -9.977  14.382  69.379  1.00  0.00     0.110 C  
ENDROOT
BRANCH   2   4
HETATM    4  C   UNL     1     -12.432  14.045  69.800  1.00  0.00    -0.203 C  
BRANCH   4   5
HETATM    5  C   UNL     1     -11.961  12.647  70.202  1.00  0.00    -0.375 C  
BRANCH   5   6
HETATM    6  C   UNL     1     -13.033  11.987  71.081  1.00  0.00    -0.252 C  
BRANCH   6   7
HETATM    7  C   UNL     1     -12.885  10.460  71.211  1.00  0.00    -0.533 C  
BRANCH   7   8
HETATM    8  C   UNL     1     -11.447   9.952  71.026  1.00  0.00    -0.466 C  
BRANCH   8   9
HETATM    9  C   UNL     1     -11.500   8.496  70.564  1.00  0.00    -0.182 C  
BRANCH   9  10
HETATM   10  N   UNL     1     -10.801   7.496  71.470  1.00  0.00    -0.226 N  
HETATM   11  C   UNL     1     -10.453   8.119  72.818  1.00  0.00    -0.315 C  
HETATM   12  C   UNL     1     -11.674   6.286  71.765  1.00  0.00    -0.299 C  
BRANCH  10  13
HETATM   13  C   UNL     1      -9.463   7.034  70.711  1.00  0.00    -0.161 C  
HETATM   14  C   UNL     1      -9.225   7.747  69.365  1.00  0.00    -0.149 A  
HETATM   15  C   UNL     1      -9.210   6.805  68.312  1.00  0.00    -0.122 A  
HETATM   16  C   UNL     1      -9.326   5.475  68.859  1.00  0.00    -0.154 A  
HETATM   17  C   UNL     1      -9.068   7.201  66.990  1.00  0.00    -0.149 A  
HETATM   18  C   UNL     1      -9.453   5.553  70.265  1.00  0.00    -0.211 A  
HETATM   19  C   UNL     1      -8.932   8.560  66.713  1.00  0.00    -0.173 A  
HETATM   20  C   UNL     1      -8.909   9.498  67.754  1.00  0.00    -0.119 A  
HETATM   21  C   UNL     1      -9.499   4.383  71.015  1.00  0.00    -0.232 A  
HETATM   22  C   UNL     1      -9.471   3.149  70.351  1.00  0.00    -0.227 A  
HETATM   23  C   UNL     1      -9.032   9.095  69.087  1.00  0.00    -0.144 A  
HETATM   24  C   UNL     1      -9.356   3.084  68.958  1.00  0.00    -0.226 A  
HETATM   25  C   UNL     1      -9.274   4.252  68.201  1.00  0.00    -0.186 A  
ENDBRANCH  10  13
ENDBRANCH   9  10
ENDBRANCH   8   9
ENDBRANCH   7   8
ENDBRANCH   6   7
ENDBRANCH   5   6
ENDBRANCH   4   5
ENDBRANCH   2   4
BRANCH   2  26
HETATM   26  C   UNL     1     -11.721  15.677  68.019  1.00  0.00    -0.153 C  
HETATM   27  C   UNL     1      -8.913  16.814  65.865  1.00  0.00    -0.103 A  
HETATM   28  C   UNL     1     -11.735  14.663  66.856  1.00  0.00    -0.366 A  
HETATM   29  C   UNL     1      -8.470  17.977  66.485  1.00  0.00    -0.285 A  
HETATM   30  C   UNL     1     -10.694  14.968  65.948  1.00  0.00    -0.337 A  
HETATM   31  C   UNL     1     -10.021  16.168  66.389  1.00  0.00    -0.315 A  
HETATM   32  C   UNL     1     -10.490  14.213  64.802  1.00  0.00    -0.432 A  
HETATM   33  C   UNL     1      -9.166  18.531  67.570  1.00  0.00    -0.288 A  
HETATM   34  C   UNL     1     -12.607  13.613  66.573  1.00  0.00    -0.225 A  
HETATM   35  C   UNL     1     -10.680  16.678  67.529  1.00  0.00    -0.278 A  
HETATM   36  C   UNL     1     -11.334  13.130  64.554  1.00  0.00    -0.383 A  
HETATM   37  C   UNL     1     -10.311  17.902  68.078  1.00  0.00    -0.394 A  
HETATM   38  C   UNL     1     -12.383  12.831  65.432  1.00  0.00    -0.528 A  
ENDBRANCH   2  26
TORSDOF 9
ENDMDL
MODEL      198
REMARK 921   NORMALIZED FREE ENERGY PREDICTED BY IDOCK:   -4.92 KCAL/MOL
REMARK 922        TOTAL FREE ENERGY PREDICTED BY IDOCK:   -9.27 KCAL/MOL
REMARK 923 INTER-LIGAND FREE ENERGY PREDICTED BY IDOCK:   -8.42 KCAL/MOL
REMARK 924 INTRA-LIGAND FREE ENERGY PREDICTED BY IDOCK:   -0.86 KCAL/MOL
REMARK 927      BINDING AFFINITY PREDICTED BY RF-SCORE:    0.00 PKD
ROOT
HETATM    1  C   UNL     1      -6.571   7.269  71.249  1.00  0.00    -0.043 C  
HETATM    2  N   UNL     1      -7.697   6.240  71.251  1.00  0.00    -0.101 N  
HETATM    3  C   UNL     1      -8.116   5.961  72.692  1.00  0.00    -0.105 C  
ENDROOT
BRANCH   2   4
HETATM    4  C   UNL     1      -8.853   6.770  70.429  1.00  0.00    -0.152 C  
BRANCH   4   5
HETATM    5  C   UNL     1     -10.252   6.337  70.867  1.00  0.00    -0.236 C  
BRANCH   5   6
HETATM    6  C   UNL     1     -11.281   6.859  69.856  1.00  0.00    -0.334 C  
BRANCH   6   7
HETATM    7  C   UNL     1     -10.912   6.589  68.386  1.00  0.00    -0.358 C  
BRANCH   7   8
HETATM    8  C   UNL     1     -10.645   7.860  67.565  1.00  0.00    -0.312 C  
BRANCH   8   9
HETATM    9  C   UNL     1     -10.553   9.048  68.522  1.00  0.00    -0.155 C  
BRANCH   9  10
HETATM   10  N   UNL     1     -10.178  10.376  67.884  1.00  0.00    -0.170 N  
HETATM   11  C   UNL     1      -9.011  11.032  68.615  1.00  0.00    -0.167 C  
HETATM   12  C   UNL     1      -9.743  10.210  66.436  1.00  0.00    -0.205 C  
BRANCH  10  13
HETATM   13  C   UNL     1     -11.479  11.315  67.961  1.00  0.00    -0.298 C  
HETATM   14  C   UNL     1     -11.233  12.769  67.514  1.00  0.00    -0.332 A  
HETATM   15  C   UNL     1     -11.494  13.656  68.582  1.00  0.00    -0.342 A  
HETATM   16  C   UNL     1     -11.998  12.911  69.711  1.00  0.00    -0.365 A  
HETATM   17  C   UNL     1     -11.293  15.023  68.453  1.00  0.00    -0.323 A  
HETATM   18  C   UNL     1     -12.032  11.535  69.388  1.00  0.00    -0.392 A  
HETATM   19  C   UNL     1     -10.829  15.515  67.234  1.00  0.00    -0.313 A  
HETATM   20  C   UNL     1     -10.603  14.647  66.158  1.00  0.00    -0.314 A  
HETATM   21  C   UNL     1     -12.561  10.629  70.302  1.00  0.00    -0.333 A  
HETATM   22  C   UNL     1     -13.001  11.101  71.547  1.00  0.00    -0.542 A  
HETATM   23  C   UNL     1     -10.825  13.272  66.285  1.00  0.00    -0.293 A  
HETATM   24  C   UNL     1     -12.954  12.463  71.858  1.00  0.00    -0.407 A  
HETATM   25  C   UNL     1     -12.458  13.382  70.934  1.00  0.00    -0.439 A  
ENDBRANCH  10  13
ENDBRANCH   9  10
ENDBRANCH   8   9
ENDBRANCH   7   8
ENDBRANCH   6   7
ENDBRANCH   5   6
ENDBRANCH   4   5
ENDBRANCH   2   4
BRANCH   2  26
HETATM   26  C   UNL     1      -7.206   4.868  70.559  1.00  0.00    -0.053 C  
HETATM   27  C   UNL     1      -9.491   1.942  70.738  1.00  0.00    -0.188 A  
HETATM   28  C   UNL     1      -7.664   4.688  69.096  1.00  0.00    -0.067 A  
HETATM   29  C   UNL     1      -9.406   1.537  72.066  1.00  0.00    -0.139 A  
HETATM   30  C   UNL     1      -8.563   3.599  69.012  1.00  0.00    -0.120 A  
HETATM   31  C   UNL     1      -8.687   2.988  70.316  1.00  0.00    -0.131 A  
HETATM   32  C   UNL     1      -9.120   3.214  67.801  1.00  0.00    -0.219 A  
HETATM   33  C   UNL     1      -8.479   2.119  72.944  1.00  0.00    -0.062 A  
HETATM   34  C   UNL     1      -7.288   5.359  67.934  1.00  0.00    -0.073 A  
HETATM   35  C   UNL     1      -7.808   3.631  71.215  1.00  0.00    -0.059 A  
HETATM   36  C   UNL     1      -8.780   3.926  66.650  1.00  0.00    -0.115 A  
HETATM   37  C   UNL     1      -7.636   3.151  72.509  1.00  0.00    -0.057 A  
HETATM   38  C   UNL     1      -7.873   4.990  66.716  1.00  0.00    -0.100 A  
ENDBRANCH   2  26
TORSDOF 9
ENDMDL
MODEL      199
REMARK 921   NORMALIZED FREE ENERGY PREDICTED BY IDOCK:   -4.89 KCAL/MOL
REMARK 922        TOTAL FREE ENERGY PREDICTED BY IDOCK:   -9.23 KCAL/MOL
REMARK 923 INTER-LIGAND FREE ENERGY PREDICTED BY IDOCK:   -7.39 KCAL/MOL
REMARK 924 INTRA-LIGAND FREE ENERGY PREDICTED BY IDOCK:   -1.84 KCAL/MOL
REMARK 927      BINDING AFFINITY PREDICTED BY RF-SCORE:    0.00 PKD
ROOT
HETATM    1  C   UNL     1      -8.823   6.259  66.145  1.00  0.00    -0.153 C  
HETATM    2  N   UNL     1      -9.525   7.057  67.239  1.00  0.00    -0.134 N  
HETATM    3  C   UNL     1     -11.033   7.000  67.009  1.00  0.00    -0.287 C  
ENDROOT
BRANCH   2   4
HETATM    4  C   UNL     1      -9.147   6.484  68.589  1.00  0.00    -0.128 C  
BRANCH   4   5
HETATM    5  C   UNL     1      -7.798   6.923  69.159  1.00  0.00    -0.111 C  
BRANCH   5   6
HETATM    6  C   UNL     1      -6.873   5.703  69.264  1.00  0.00    -0.062 C  
BRANCH   6   7
HETATM    7  C   UNL     1      -6.599   5.244  70.708  1.00  0.00    -0.039 C  
BRANCH   7   8
HETATM    8  C   UNL     1      -7.109   3.830  71.023  1.00  0.00    -0.033 C  
BRANCH   8   9
HETATM    9  C   UNL     1      -8.572   3.925  71.456  1.00  0.00    -0.096 C  
BRANCH   9  10
HETATM   10  N   UNL     1      -8.870   3.447  72.868  1.00  0.00    -0.085 N  
HETATM   11  C   UNL     1     -10.036   2.463  72.884  1.00  0.00    -0.127 C  
HETATM   12  C   UNL     1      -7.684   2.722  73.486  1.00  0.00    -0.052 C  
BRANCH  10  13
HETATM   13  C   UNL     1      -9.230   4.749  73.736  1.00  0.00    -0.114 C  
HETATM   14  C   UNL     1     -10.308   5.649  73.102  1.00  0.00    -0.227 A  
HETATM   15  C   UNL     1      -9.778   6.933  72.842  1.00  0.00    -0.183 A  
HETATM   16  C   UNL     1      -8.427   7.003  73.347  1.00  0.00    -0.150 A  
HETATM   17  C   UNL     1     -10.534   7.915  72.220  1.00  0.00    -0.322 A  
HETATM   18  C   UNL     1      -8.067   5.755  73.903  1.00  0.00    -0.109 A  
HETATM   19  C   UNL     1     -11.846   7.615  71.855  1.00  0.00    -0.332 A  
HETATM   20  C   UNL     1     -12.391   6.357  72.142  1.00  0.00    -0.231 A  
HETATM   21  C   UNL     1      -6.831   5.612  74.525  1.00  0.00    -0.080 A  
HETATM   22  C   UNL     1      -5.948   6.701  74.537  1.00  0.00    -0.071 A  
HETATM   23  C   UNL     1     -11.634   5.375  72.788  1.00  0.00    -0.293 A  
HETATM   24  C   UNL     1      -6.312   7.929  73.974  1.00  0.00    -0.101 A  
HETATM   25  C   UNL     1      -7.563   8.091  73.381  1.00  0.00    -0.201 A  
ENDBRANCH  10  13
ENDBRANCH   9  10
ENDBRANCH   8   9
ENDBRANCH   7   8
ENDBRANCH   6   7
ENDBRANCH   5   6
ENDBRANCH   4   5
ENDBRANCH   2   4
BRANCH   2  26
HETATM   26  C   UNL     1      -9.036   8.593  67.217  1.00  0.00    -0.133 C  
HETATM   27  C   UNL     1     -10.243  10.740  64.432  1.00  0.00    -0.432 A  
HETATM   28  C   UNL     1      -9.990   9.581  67.921  1.00  0.00    -0.209 A  
HETATM   29  C   UNL     1      -9.525  10.286  63.331  1.00  0.00    -0.340 A  
HETATM   30  C   UNL     1     -10.544  10.466  66.966  1.00  0.00    -0.305 A  
HETATM   31  C   UNL     1      -9.969  10.183  65.672  1.00  0.00    -0.348 A  
HETATM   32  C   UNL     1     -11.432  11.466  67.338  1.00  0.00    -0.328 A  
HETATM   33  C   UNL     1      -8.497   9.342  63.473  1.00  0.00    -0.202 A  
HETATM   34  C   UNL     1     -10.301   9.743  69.270  1.00  0.00    -0.230 A  
HETATM   35  C   UNL     1      -8.990   9.176  65.809  1.00  0.00    -0.237 A  
HETATM   36  C   UNL     1     -11.780  11.587  68.684  1.00  0.00    -0.389 A  
HETATM   37  C   UNL     1      -8.191   8.806  64.731  1.00  0.00    -0.163 A  
HETATM   38  C   UNL     1     -11.221  10.733  69.641  1.00  0.00    -0.355 A  
ENDBRANCH   2  26
TORSDOF 9
ENDMDL
MODEL      200
REMARK 921   NORMALIZED FREE ENERGY PREDICTED BY IDOCK:   -4.88 KCAL/MOL
REMARK 922        TOTAL FREE ENERGY PREDICTED BY IDOCK:   -9.21 KCAL/MOL
REMARK 923 INTER-LIGAND FREE ENERGY PREDICTED BY IDOCK:   -7.59 KCAL/MOL
REMARK 924 INTRA-LIGAND FREE ENERGY PREDICTED BY IDOCK:   -1.62 KCAL/MOL
REMARK 927      BINDING AFFINITY PREDICTED BY RF-SCORE:    0.00 PKD
ROOT
HETATM    1  C   UNL     1     -10.618  11.896  68.699  1.00  0.00    -0.234 C  
HETATM    2  N   UNL     1      -9.661  11.253  67.701  1.00  0.00    -0.170 N  
HETATM    3  C   UNL     1      -8.779  12.335  67.085  1.00  0.00    -0.193 C  
ENDROOT
BRANCH   2   4
HETATM    4  C   UNL     1      -8.835  10.202  68.414  1.00  0.00    -0.123 C  
BRANCH   4   5
HETATM    5  C   UNL     1      -7.417  10.610  68.813  1.00  0.00    -0.104 C  
BRANCH   5   6
HETATM    6  C   UNL     1      -6.441   9.492  68.423  1.00  0.00    -0.053 C  
BRANCH   6   7
HETATM    7  C   UNL     1      -6.991   8.071  68.648  1.00  0.00    -0.071 C  
BRANCH   7   8
HETATM    8  C   UNL     1      -6.261   6.984  67.845  1.00  0.00    -0.038 C  
BRANCH   8   9
HETATM    9  C   UNL     1      -6.467   5.641  68.546  1.00  0.00    -0.043 C  
BRANCH   9  10
HETATM   10  N   UNL     1      -6.675   4.448  67.626  1.00  0.00    -0.047 N  
HETATM   11  C   UNL     1      -6.394   4.815  66.173  1.00  0.00    -0.036 C  
HETATM   12  C   UNL     1      -5.745   3.294  67.969  1.00  0.00    -0.019 C  
BRANCH  10  13
HETATM   13  C   UNL     1      -8.204   3.989  67.796  1.00  0.00    -0.093 C  
HETATM   14  C   UNL     1      -8.940   3.742  66.465  1.00  0.00    -0.143 A  
HETATM   15  C   UNL     1     -10.038   4.624  66.346  1.00  0.00    -0.289 A  
HETATM   16  C   UNL     1     -10.164   5.397  67.558  1.00  0.00    -0.243 A  
HETATM   17  C   UNL     1     -10.831   4.641  65.208  1.00  0.00    -0.059 A  
HETATM   18  C   UNL     1      -9.126   5.044  68.451  1.00  0.00    -0.137 A  
HETATM   19  C   UNL     1     -10.528   3.760  64.171  1.00  0.00    -0.267 A  
HETATM   20  C   UNL     1      -9.464   2.858  64.296  1.00  0.00    -0.143 A  
HETATM   21  C   UNL     1      -9.094   5.608  69.722  1.00  0.00    -0.157 A  
HETATM   22  C   UNL     1     -10.067   6.556  70.068  1.00  0.00    -0.203 A  
HETATM   23  C   UNL     1      -8.678   2.828  65.451  1.00  0.00    -0.122 A  
HETATM   24  C   UNL     1     -11.083   6.904  69.173  1.00  0.00    -0.205 A  
HETATM   25  C   UNL     1     -11.143   6.318  67.909  1.00  0.00    -0.360 A  
ENDBRANCH  10  13
ENDBRANCH   9  10
ENDBRANCH   8   9
ENDBRANCH   7   8
ENDBRANCH   6   7
ENDBRANCH   5   6
ENDBRANCH   4   5
ENDBRANCH   2   4
BRANCH   2  26
HETATM   26  C   UNL     1     -10.485  10.504  66.535  1.00  0.00    -0.212 C  
HETATM   27  C   UNL     1     -10.972  12.327  63.332  1.00  0.00    -0.467 A  
HETATM   28  C   UNL     1      -9.612   9.709  65.540  1.00  0.00    -0.351 A  
HETATM   29  C   UNL     1     -11.913  13.302  63.647  1.00  0.00    -0.547 A  
HETATM   30  C   UNL     1      -9.690  10.306  64.260  1.00  0.00    -0.373 A  
HETATM   31  C   UNL     1     -10.618  11.412  64.312  1.00  0.00    -0.416 A  
HETATM   32  C   UNL     1      -9.004   9.780  63.175  1.00  0.00    -0.270 A  
HETATM   33  C   UNL     1     -12.547  13.321  64.898  1.00  0.00    -0.444 A  
HETATM   34  C   UNL     1      -8.871   8.541  65.709  1.00  0.00    -0.229 A  
HETATM   35  C   UNL     1     -11.195  11.475  65.598  1.00  0.00    -0.212 A  
HETATM   36  C   UNL     1      -8.220   8.641  63.365  1.00  0.00    -0.155 A  
HETATM   37  C   UNL     1     -12.220  12.373  65.877  1.00  0.00    -0.220 A  
HETATM   38  C   UNL     1      -8.153   8.027  64.621  1.00  0.00    -0.140 A  
ENDBRANCH   2  26
TORSDOF 9
ENDMDL
MODEL      201
REMARK 921   NORMALIZED FREE ENERGY PREDICTED BY IDOCK:   -4.87 KCAL/MOL
REMARK 922        TOTAL FREE ENERGY PREDICTED BY IDOCK:   -9.20 KCAL/MOL
REMARK 923 INTER-LIGAND FREE ENERGY PREDICTED BY IDOCK:   -8.24 KCAL/MOL
REMARK 924 INTRA-LIGAND FREE ENERGY PREDICTED BY IDOCK:   -0.96 KCAL/MOL
REMARK 927      BINDING AFFINITY PREDICTED BY RF-SCORE:    0.00 PKD
ROOT
HETATM    1  C   UNL     1     -11.391  16.202  67.992  1.00  0.00    -0.234 C  
HETATM    2  N   UNL     1     -10.784  14.841  68.314  1.00  0.00    -0.238 N  
HETATM    3  C   UNL     1      -9.854  14.981  69.515  1.00  0.00    -0.126 C  
ENDROOT
BRANCH   2   4
HETATM    4  C   UNL     1     -11.900  13.854  68.587  1.00  0.00    -0.372 C  
BRANCH   4   5
HETATM    5  C   UNL     1     -11.844  13.121  69.927  1.00  0.00    -0.378 C  
BRANCH   5   6
HETATM    6  C   UNL     1     -11.628  11.623  69.674  1.00  0.00    -0.401 C  
BRANCH   6   7
HETATM    7  C   UNL     1     -11.812  10.741  70.924  1.00  0.00    -0.400 C  
BRANCH   7   8
HETATM    8  C   UNL     1     -11.743   9.233  70.640  1.00  0.00    -0.276 C  
BRANCH   8   9
HETATM    9  C   UNL     1     -10.623   8.629  71.486  1.00  0.00    -0.282 C  
BRANCH   9  10
HETATM   10  N   UNL     1     -10.881   7.224  72.008  1.00  0.00    -0.228 N  
HETATM   11  C   UNL     1     -10.822   7.180  73.531  1.00  0.00    -0.255 C  
HETATM   12  C   UNL     1     -12.258   6.713  71.613  1.00  0.00    -0.352 C  
BRANCH  10  13
HETATM   13  C   UNL     1      -9.745   6.278  71.381  1.00  0.00    -0.173 C  
HETATM   14  C   UNL     1      -9.525   4.962  72.153  1.00  0.00    -0.182 A  
HETATM   15  C   UNL     1      -8.200   4.902  72.642  1.00  0.00    -0.115 A  
HETATM   16  C   UNL     1      -7.464   6.051  72.172  1.00  0.00    -0.095 A  
HETATM   17  C   UNL     1      -7.765   3.840  73.421  1.00  0.00    -0.078 A  
HETATM   18  C   UNL     1      -8.319   6.876  71.407  1.00  0.00    -0.115 A  
HETATM   19  C   UNL     1      -8.664   2.815  73.713  1.00  0.00    -0.072 A  
HETATM   20  C   UNL     1      -9.968   2.849  73.202  1.00  0.00    -0.185 A  
HETATM   21  C   UNL     1      -7.802   8.007  70.782  1.00  0.00    -0.091 A  
HETATM   22  C   UNL     1      -6.451   8.329  70.972  1.00  0.00    -0.039 A  
HETATM   23  C   UNL     1     -10.399   3.910  72.400  1.00  0.00    -0.194 A  
HETATM   24  C   UNL     1      -5.617   7.509  71.740  1.00  0.00    -0.036 A  
HETATM   25  C   UNL     1      -6.119   6.355  72.341  1.00  0.00    -0.039 A  
ENDBRANCH  10  13
ENDBRANCH   9  10
ENDBRANCH   8   9
ENDBRANCH   7   8
ENDBRANCH   6   7
ENDBRANCH   5   6
ENDBRANCH   4   5
ENDBRANCH   2   4
BRANCH   2  26
HETATM   26  C   UNL     1      -9.951  14.284  67.051  1.00  0.00    -0.258 C  
HETATM   27  C   UNL     1      -8.973  10.698  67.085  1.00  0.00    -0.143 A  
HETATM   28  C   UNL     1     -10.818  13.671  65.930  1.00  0.00    -0.276 A  
HETATM   29  C   UNL     1      -7.958  10.641  68.034  1.00  0.00    -0.107 A  
HETATM   30  C   UNL     1     -10.557  12.283  65.835  1.00  0.00    -0.290 A  
HETATM   31  C   UNL     1      -9.516  11.934  66.774  1.00  0.00    -0.207 A  
HETATM   32  C   UNL     1     -11.200  11.490  64.895  1.00  0.00    -0.242 A  
HETATM   33  C   UNL     1      -7.440  11.810  68.613  1.00  0.00    -0.120 A  
HETATM   34  C   UNL     1     -11.701  14.266  65.031  1.00  0.00    -0.383 A  
HETATM   35  C   UNL     1      -9.054  13.105  67.411  1.00  0.00    -0.208 A  
HETATM   36  C   UNL     1     -12.124  12.086  64.035  1.00  0.00    -0.506 A  
HETATM   37  C   UNL     1      -7.960  13.065  68.271  1.00  0.00    -0.151 A  
HETATM   38  C   UNL     1     -12.373  13.461  64.102  1.00  0.00    -0.395 A  
ENDBRANCH   2  26
TORSDOF 9
ENDMDL
MODEL      202
REMARK 921   NORMALIZED FREE ENERGY PREDICTED BY IDOCK:   -4.86 KCAL/MOL
REMARK 922        TOTAL FREE ENERGY PREDICTED BY IDOCK:   -9.18 KCAL/MOL
REMARK 923 INTER-LIGAND FREE ENERGY PREDICTED BY IDOCK:   -7.85 KCAL/MOL
REMARK 924 INTRA-LIGAND FREE ENERGY PREDICTED BY IDOCK:   -1.34 KCAL/MOL
REMARK 927      BINDING AFFINITY PREDICTED BY RF-SCORE:    0.00 PKD
ROOT
HETATM    1  C   UNL     1      -9.362  15.142  68.515  1.00  0.00    -0.192 C  
HETATM    2  N   UNL     1      -9.345  13.647  68.211  1.00  0.00    -0.204 N  
HETATM    3  C   UNL     1      -8.216  12.990  69.000  1.00  0.00     0.384 C  
ENDROOT
BRANCH   2   4
HETATM    4  C   UNL     1     -10.692  13.054  68.569  1.00  0.00    -0.255 C  
BRANCH   4   5
HETATM    5  C   UNL     1     -10.675  11.654  69.182  1.00  0.00    -0.188 C  
BRANCH   5   6
HETATM    6  C   UNL     1     -12.115  11.215  69.478  1.00  0.00    -0.396 C  
BRANCH   6   7
HETATM    7  C   UNL     1     -12.392  10.925  70.964  1.00  0.00    -0.498 C  
BRANCH   7   8
HETATM    8  C   UNL     1     -12.627   9.440  71.278  1.00  0.00    -0.403 C  
BRANCH   8   9
HETATM    9  C   UNL     1     -11.281   8.790  71.598  1.00  0.00    -0.324 C  
BRANCH   9  10
HETATM   10  N   UNL     1     -11.117   7.355  71.123  1.00  0.00    -0.248 N  
HETATM   11  C   UNL     1     -12.159   6.441  71.760  1.00  0.00    -0.296 C  
HETATM   12  C   UNL     1     -11.293   7.229  69.617  1.00  0.00    -0.011 C  
BRANCH  10  13
HETATM   13  C   UNL     1      -9.639   6.890  71.544  1.00  0.00    -0.162 C  
HETATM   14  C   UNL     1      -8.511   7.627  70.797  1.00  0.00    -0.125 A  
HETATM   15  C   UNL     1      -7.740   6.707  70.052  1.00  0.00    -0.102 A  
HETATM   16  C   UNL     1      -8.207   5.367  70.315  1.00  0.00    -0.101 A  
HETATM   17  C   UNL     1      -6.693   7.129  69.244  1.00  0.00    -0.049 A  
HETATM   18  C   UNL     1      -9.305   5.419  71.204  1.00  0.00    -0.186 A  
HETATM   19  C   UNL     1      -6.406   8.491  69.183  1.00  0.00    -0.043 A  
HETATM   20  C   UNL     1      -7.142   9.406  69.948  1.00  0.00    -0.075 A  
HETATM   21  C   UNL     1      -9.870   4.234  71.664  1.00  0.00    -0.257 A  
HETATM   22  C   UNL     1      -9.368   3.014  71.190  1.00  0.00    -0.212 A  
HETATM   23  C   UNL     1      -8.183   8.978  70.776  1.00  0.00    -0.213 A  
HETATM   24  C   UNL     1      -8.288   2.976  70.302  1.00  0.00    -0.080 A  
HETATM   25  C   UNL     1      -7.692   4.158  69.864  1.00  0.00    -0.052 A  
ENDBRANCH  10  13
ENDBRANCH   9  10
ENDBRANCH   8   9
ENDBRANCH   7   8
ENDBRANCH   6   7
ENDBRANCH   5   6
ENDBRANCH   4   5
ENDBRANCH   2   4
BRANCH   2  26
HETATM   26  C   UNL     1      -9.115  13.397  66.635  1.00  0.00    -0.169 C  
HETATM   27  C   UNL     1     -10.210  10.132  65.236  1.00  0.00    -0.261 A  
HETATM   28  C   UNL     1     -10.314  13.781  65.742  1.00  0.00    -0.315 A  
HETATM   29  C   UNL     1      -9.266   9.232  65.720  1.00  0.00    -0.283 A  
HETATM   30  C   UNL     1     -10.851  12.616  65.144  1.00  0.00    -0.321 A  
HETATM   31  C   UNL     1     -10.044  11.478  65.522  1.00  0.00    -0.286 A  
HETATM   32  C   UNL     1     -11.936  12.681  64.282  1.00  0.00    -0.480 A  
HETATM   33  C   UNL     1      -8.133   9.675  66.418  1.00  0.00    -0.112 A  
HETATM   34  C   UNL     1     -10.852  15.026  65.424  1.00  0.00    -0.376 A  
HETATM   35  C   UNL     1      -8.947  11.922  66.291  1.00  0.00    -0.157 A  
HETATM   36  C   UNL     1     -12.503  13.927  64.011  1.00  0.00    -0.263 A  
HETATM   37  C   UNL     1      -7.942  11.039  66.675  1.00  0.00    -0.156 A  
HETATM   38  C   UNL     1     -11.967  15.089  64.577  1.00  0.00    -0.379 A  
ENDBRANCH   2  26
TORSDOF 9
ENDMDL
MODEL      203
REMARK 921   NORMALIZED FREE ENERGY PREDICTED BY IDOCK:   -4.86 KCAL/MOL
REMARK 922        TOTAL FREE ENERGY PREDICTED BY IDOCK:   -9.18 KCAL/MOL
REMARK 923 INTER-LIGAND FREE ENERGY PREDICTED BY IDOCK:   -9.17 KCAL/MOL
REMARK 924 INTRA-LIGAND FREE ENERGY PREDICTED BY IDOCK:   -0.01 KCAL/MOL
REMARK 927      BINDING AFFINITY PREDICTED BY RF-SCORE:    0.00 PKD
ROOT
HETATM    1  C   UNL     1     -10.569   7.389  73.386  1.00  0.00    -0.377 C  
HETATM    2  N   UNL     1     -10.936   7.532  71.912  1.00  0.00    -0.230 N  
HETATM    3  C   UNL     1     -12.209   6.736  71.635  1.00  0.00    -0.365 C  
ENDROOT
BRANCH   2   4
HETATM    4  C   UNL     1     -11.119   9.001  71.588  1.00  0.00    -0.363 C  
BRANCH   4   5
HETATM    5  C   UNL     1     -12.490   9.599  71.900  1.00  0.00    -0.459 C  
BRANCH   5   6
HETATM    6  C   UNL     1     -12.657  10.911  71.122  1.00  0.00    -0.532 C  
BRANCH   6   7
HETATM    7  C   UNL     1     -12.103  10.866  69.686  1.00  0.00    -0.400 C  
BRANCH   7   8
HETATM    8  C   UNL     1     -11.709  12.240  69.123  1.00  0.00    -0.377 C  
BRANCH   8   9
HETATM    9  C   UNL     1     -10.990  12.032  67.790  1.00  0.00    -0.232 C  
BRANCH   9  10
HETATM   10  N   UNL     1     -11.263  13.086  66.729  1.00  0.00    -0.287 N  
HETATM   11  C   UNL     1     -11.958  12.481  65.514  1.00  0.00    -0.442 C  
HETATM   12  C   UNL     1     -12.173  14.191  67.243  1.00  0.00    -0.279 C  
BRANCH  10  13
HETATM   13  C   UNL     1      -9.841  13.701  66.306  1.00  0.00    -0.301 C  
HETATM   14  C   UNL     1      -8.665  13.230  67.184  1.00  0.00    -0.215 A  
HETATM   15  C   UNL     1      -8.069  14.336  67.831  1.00  0.00    -0.152 A  
HETATM   16  C   UNL     1      -8.699  15.552  67.377  1.00  0.00    -0.194 A  
HETATM   17  C   UNL     1      -7.020  14.171  68.725  1.00  0.00    -0.104 A  
HETATM   18  C   UNL     1      -9.729  15.236  66.463  1.00  0.00    -0.287 A  
HETATM   19  C   UNL     1      -6.554  12.881  68.974  1.00  0.00    -0.102 A  
HETATM   20  C   UNL     1      -7.115  11.783  68.309  1.00  0.00    -0.079 A  
HETATM   21  C   UNL     1     -10.424  16.262  65.831  1.00  0.00    -0.359 A  
HETATM   22  C   UNL     1     -10.120  17.590  66.160  1.00  0.00    -0.317 A  
HETATM   23  C   UNL     1      -8.158  11.953  67.394  1.00  0.00    -0.165 A  
HETATM   24  C   UNL     1      -9.105  17.891  67.074  1.00  0.00    -0.256 A  
HETATM   25  C   UNL     1      -8.379  16.869  67.685  1.00  0.00    -0.192 A  
ENDBRANCH  10  13
ENDBRANCH   9  10
ENDBRANCH   8   9
ENDBRANCH   7   8
ENDBRANCH   6   7
ENDBRANCH   5   6
ENDBRANCH   4   5
ENDBRANCH   2   4
BRANCH   2  26
HETATM   26  C   UNL     1      -9.743   6.980  70.979  1.00  0.00    -0.173 C  
HETATM   27  C   UNL     1      -9.565   8.248  67.489  1.00  0.00    -0.194 A  
HETATM   28  C   UNL     1      -8.468   7.851  70.985  1.00  0.00    -0.125 A  
HETATM   29  C   UNL     1     -10.626   7.613  66.853  1.00  0.00    -0.359 A  
HETATM   30  C   UNL     1      -8.278   8.419  69.703  1.00  0.00    -0.117 A  
HETATM   31  C   UNL     1      -9.305   7.930  68.813  1.00  0.00    -0.146 A  
HETATM   32  C   UNL     1      -7.194   9.242  69.432  1.00  0.00    -0.068 A  
HETATM   33  C   UNL     1     -11.373   6.619  67.504  1.00  0.00    -0.092 A  
HETATM   34  C   UNL     1      -7.525   8.080  71.985  1.00  0.00    -0.102 A  
HETATM   35  C   UNL     1     -10.103   6.988  69.498  1.00  0.00    -0.179 A  
HETATM   36  C   UNL     1      -6.282   9.509  70.454  1.00  0.00    -0.064 A  
HETATM   37  C   UNL     1     -11.087   6.267  68.829  1.00  0.00    -0.424 A  
HETATM   38  C   UNL     1      -6.447   8.935  71.720  1.00  0.00    -0.065 A  
ENDBRANCH   2  26
TORSDOF 9
ENDMDL
MODEL      204
REMARK 921   NORMALIZED FREE ENERGY PREDICTED BY IDOCK:   -4.85 KCAL/MOL
REMARK 922        TOTAL FREE ENERGY PREDICTED BY IDOCK:   -9.17 KCAL/MOL
REMARK 923 INTER-LIGAND FREE ENERGY PREDICTED BY IDOCK:   -8.23 KCAL/MOL
REMARK 924 INTRA-LIGAND FREE ENERGY PREDICTED BY IDOCK:   -0.94 KCAL/MOL
REMARK 927      BINDING AFFINITY PREDICTED BY RF-SCORE:    0.00 PKD
ROOT
HETATM    1  C   UNL     1     -11.516   8.117  72.090  1.00  0.00    -0.350 C  
HETATM    2  N   UNL     1     -10.761   7.240  71.097  1.00  0.00    -0.227 N  
HETATM    3  C   UNL     1     -11.756   6.624  70.117  1.00  0.00    -0.351 C  
ENDROOT
BRANCH   2   4
HETATM    4  C   UNL     1      -9.725   8.082  70.381  1.00  0.00    -0.178 C  
BRANCH   4   5
HETATM    5  C   UNL     1      -9.710   9.572  70.721  1.00  0.00    -0.289 C  
BRANCH   5   6
HETATM    6  C   UNL     1     -10.169  10.373  69.495  1.00  0.00    -0.258 C  
BRANCH   6   7
HETATM    7  C   UNL     1     -11.426  11.229  69.739  1.00  0.00    -0.386 C  
BRANCH   7   8
HETATM    8  C   UNL     1     -11.342  12.646  69.152  1.00  0.00    -0.339 C  
BRANCH   8   9
HETATM    9  C   UNL     1     -11.900  12.618  67.729  1.00  0.00    -0.323 C  
BRANCH   9  10
HETATM   10  N   UNL     1     -11.651  13.870  66.903  1.00  0.00    -0.357 N  
HETATM   11  C   UNL     1     -12.710  14.036  65.818  1.00  0.00    -0.450 C  
HETATM   12  C   UNL     1     -11.700  15.131  67.753  1.00  0.00    -0.232 C  
BRANCH  10  13
HETATM   13  C   UNL     1     -10.197  13.712  66.241  1.00  0.00    -0.296 C  
HETATM   14  C   UNL     1      -9.854  12.272  65.812  1.00  0.00    -0.260 A  
HETATM   15  C   UNL     1      -8.720  11.812  66.518  1.00  0.00    -0.173 A  
HETATM   16  C   UNL     1      -8.201  12.881  67.338  1.00  0.00    -0.187 A  
HETATM   17  C   UNL     1      -8.241  10.520  66.353  1.00  0.00    -0.140 A  
HETATM   18  C   UNL     1      -9.018  14.025  67.191  1.00  0.00    -0.241 A  
HETATM   19  C   UNL     1      -8.900   9.674  65.463  1.00  0.00    -0.204 A  
HETATM   20  C   UNL     1     -10.003  10.134  64.732  1.00  0.00    -0.334 A  
HETATM   21  C   UNL     1      -8.661  15.208  67.830  1.00  0.00    -0.157 A  
HETATM   22  C   UNL     1      -7.523  15.221  68.648  1.00  0.00    -0.126 A  
HETATM   23  C   UNL     1     -10.472  11.441  64.885  1.00  0.00    -0.363 A  
HETATM   24  C   UNL     1      -6.728  14.079  68.793  1.00  0.00    -0.100 A  
HETATM   25  C   UNL     1      -7.058  12.899  68.128  1.00  0.00    -0.108 A  
ENDBRANCH  10  13
ENDBRANCH   9  10
ENDBRANCH   8   9
ENDBRANCH   7   8
ENDBRANCH   6   7
ENDBRANCH   5   6
ENDBRANCH   4   5
ENDBRANCH   2   4
BRANCH   2  26
HETATM   26  C   UNL     1      -9.972   6.065  71.870  1.00  0.00    -0.169 C  
HETATM   27  C   UNL     1      -6.979   4.621  70.206  1.00  0.00    -0.045 A  
HETATM   28  C   UNL     1      -8.807   6.551  72.758  1.00  0.00    -0.127 A  
HETATM   29  C   UNL     1      -7.511   3.857  69.173  1.00  0.00    -0.054 A  
HETATM   30  C   UNL     1      -7.581   6.080  72.229  1.00  0.00    -0.100 A  
HETATM   31  C   UNL     1      -7.853   5.248  71.080  1.00  0.00    -0.103 A  
HETATM   32  C   UNL     1      -6.372   6.368  72.845  1.00  0.00    -0.059 A  
HETATM   33  C   UNL     1      -8.895   3.660  69.056  1.00  0.00    -0.156 A  
HETATM   34  C   UNL     1      -8.808   7.277  73.947  1.00  0.00    -0.245 A  
HETATM   35  C   UNL     1      -9.249   5.118  70.920  1.00  0.00    -0.188 A  
HETATM   36  C   UNL     1      -6.377   7.141  74.007  1.00  0.00    -0.073 A  
HETATM   37  C   UNL     1      -9.780   4.260  69.962  1.00  0.00    -0.287 A  
HETATM   38  C   UNL     1      -7.584   7.593  74.553  1.00  0.00    -0.196 A  
ENDBRANCH   2  26
TORSDOF 9
ENDMDL
MODEL      205
REMARK 921   NORMALIZED FREE ENERGY PREDICTED BY IDOCK:   -4.83 KCAL/MOL
REMARK 922        TOTAL FREE ENERGY PREDICTED BY IDOCK:   -9.13 KCAL/MOL
REMARK 923 INTER-LIGAND FREE ENERGY PREDICTED BY IDOCK:   -9.45 KCAL/MOL
REMARK 924 INTRA-LIGAND FREE ENERGY PREDICTED BY IDOCK:    0.32 KCAL/MOL
REMARK 927      BINDING AFFINITY PREDICTED BY RF-SCORE:    0.00 PKD
ROOT
HETATM    1  C   UNL     1     -11.673   7.589  70.666  1.00  0.00    -0.215 C  
HETATM    2  N   UNL     1     -10.652   7.304  69.571  1.00  0.00    -0.231 N  
HETATM    3  C   UNL     1     -11.282   6.385  68.528  1.00  0.00    -0.228 C  
ENDROOT
BRANCH   2   4
HETATM    4  C   UNL     1     -10.204   8.615  68.958  1.00  0.00    -0.207 C  
BRANCH   4   5
HETATM    5  C   UNL     1     -10.078   8.643  67.435  1.00  0.00    -0.292 C  
BRANCH   5   6
HETATM    6  C   UNL     1      -9.428   9.966  67.007  1.00  0.00    -0.196 C  
BRANCH   6   7
HETATM    7  C   UNL     1     -10.358  10.891  66.200  1.00  0.00    -0.305 C  
BRANCH   7   8
HETATM    8  C   UNL     1     -10.617  12.252  66.865  1.00  0.00    -0.249 C  
BRANCH   8   9
HETATM    9  C   UNL     1     -10.012  13.347  65.987  1.00  0.00    -0.293 C  
BRANCH   9  10
HETATM   10  N   UNL     1     -10.623  14.729  66.150  1.00  0.00    -0.301 N  
HETATM   11  C   UNL     1     -11.542  15.069  64.982  1.00  0.00    -0.332 C  
HETATM   12  C   UNL     1     -11.468  14.833  67.411  1.00  0.00    -0.363 C  
BRANCH  10  13
HETATM   13  C   UNL     1      -9.405  15.773  66.220  1.00  0.00    -0.325 C  
HETATM   14  C   UNL     1      -8.326  15.413  67.259  1.00  0.00    -0.224 A  
HETATM   15  C   UNL     1      -8.227  16.434  68.230  1.00  0.00    -0.177 A  
HETATM   16  C   UNL     1      -9.103  17.523  67.870  1.00  0.00    -0.261 A  
HETATM   17  C   UNL     1      -7.364  16.323  69.311  1.00  0.00    -0.221 A  
HETATM   18  C   UNL     1      -9.798  17.194  66.684  1.00  0.00    -0.295 A  
HETATM   19  C   UNL     1      -6.580  15.176  69.423  1.00  0.00    -0.151 A  
HETATM   20  C   UNL     1      -6.645  14.175  68.445  1.00  0.00    -0.106 A  
HETATM   21  C   UNL     1     -10.644  18.133  66.103  1.00  0.00    -0.289 A  
HETATM   22  C   UNL     1     -10.827  19.368  66.740  1.00  0.00    -0.490 A  
HETATM   23  C   UNL     1      -7.501  14.297  67.346  1.00  0.00    -0.172 A  
HETATM   24  C   UNL     1     -10.141  19.678  67.919  1.00  0.00    -0.543 A  
HETATM   25  C   UNL     1      -9.264  18.756  68.490  1.00  0.00    -0.386 A  
ENDBRANCH  10  13
ENDBRANCH   9  10
ENDBRANCH   8   9
ENDBRANCH   7   8
ENDBRANCH   6   7
ENDBRANCH   5   6
ENDBRANCH   4   5
ENDBRANCH   2   4
BRANCH   2  26
HETATM   26  C   UNL     1      -9.344   6.595  70.192  1.00  0.00    -0.158 C  
HETATM   27  C   UNL     1      -9.522   5.461  73.728  1.00  0.00    -0.138 A  
HETATM   28  C   UNL     1      -9.329   5.056  70.070  1.00  0.00    -0.208 A  
HETATM   29  C   UNL     1      -9.472   6.644  74.457  1.00  0.00    -0.278 A  
HETATM   30  C   UNL     1      -9.407   4.478  71.360  1.00  0.00    -0.206 A  
HETATM   31  C   UNL     1      -9.401   5.531  72.349  1.00  0.00    -0.156 A  
HETATM   32  C   UNL     1      -9.401   3.102  71.536  1.00  0.00    -0.202 A  
HETATM   33  C   UNL     1      -9.232   7.875  73.828  1.00  0.00    -0.267 A  
HETATM   34  C   UNL     1      -9.195   4.231  68.955  1.00  0.00    -0.207 A  
HETATM   35  C   UNL     1      -9.238   6.775  71.702  1.00  0.00    -0.144 A  
HETATM   36  C   UNL     1      -9.321   2.282  70.409  1.00  0.00    -0.190 A  
HETATM   37  C   UNL     1      -9.070   7.944  72.438  1.00  0.00    -0.229 A  
HETATM   38  C   UNL     1      -9.221   2.841  69.130  1.00  0.00    -0.215 A  
ENDBRANCH   2  26
TORSDOF 9
ENDMDL
MODEL      206
REMARK 921   NORMALIZED FREE ENERGY PREDICTED BY IDOCK:   -4.82 KCAL/MOL
REMARK 922        TOTAL FREE ENERGY PREDICTED BY IDOCK:   -9.12 KCAL/MOL
REMARK 923 INTER-LIGAND FREE ENERGY PREDICTED BY IDOCK:   -8.54 KCAL/MOL
REMARK 924 INTRA-LIGAND FREE ENERGY PREDICTED BY IDOCK:   -0.58 KCAL/MOL
REMARK 927      BINDING AFFINITY PREDICTED BY RF-SCORE:    0.00 PKD
ROOT
HETATM    1  C   UNL     1     -11.558  15.968  64.679  1.00  0.00    -0.169 C  
HETATM    2  N   UNL     1     -10.676  15.335  65.749  1.00  0.00    -0.331 N  
HETATM    3  C   UNL     1     -11.472  15.214  67.046  1.00  0.00    -0.228 C  
ENDROOT
BRANCH   2   4
HETATM    4  C   UNL     1     -10.200  13.982  65.261  1.00  0.00    -0.360 C  
BRANCH   4   5
HETATM    5  C   UNL     1     -11.064  12.781  65.643  1.00  0.00    -0.311 C  
BRANCH   5   6
HETATM    6  C   UNL     1     -10.168  11.681  66.228  1.00  0.00    -0.262 C  
BRANCH   6   7
HETATM    7  C   UNL     1      -9.691  11.957  67.666  1.00  0.00    -0.186 C  
BRANCH   7   8
HETATM    8  C   UNL     1     -10.761  11.707  68.739  1.00  0.00    -0.254 C  
BRANCH   8   9
HETATM    9  C   UNL     1     -11.199  10.245  68.659  1.00  0.00    -0.208 C  
BRANCH   9  10
HETATM   10  N   UNL     1     -11.064   9.449  69.947  1.00  0.00    -0.228 N  
HETATM   11  C   UNL     1      -9.731   9.731  70.634  1.00  0.00    -0.065 C  
HETATM   12  C   UNL     1     -12.151   9.800  70.951  1.00  0.00    -0.321 C  
BRANCH  10  13
HETATM   13  C   UNL     1     -11.165   7.897  69.550  1.00  0.00     0.136 C  
HETATM   14  C   UNL     1     -10.623   6.935  70.625  1.00  0.00    -0.248 A  
HETATM   15  C   UNL     1      -9.540   6.189  70.107  1.00  0.00    -0.187 A  
HETATM   16  C   UNL     1      -9.365   6.507  68.710  1.00  0.00    -0.130 A  
HETATM   17  C   UNL     1      -8.838   5.290  70.897  1.00  0.00    -0.151 A  
HETATM   18  C   UNL     1     -10.310   7.486  68.329  1.00  0.00    -0.233 A  
HETATM   19  C   UNL     1      -9.226   5.126  72.226  1.00  0.00    -0.155 A  
HETATM   20  C   UNL     1     -10.321   5.835  72.737  1.00  0.00    -0.221 A  
HETATM   21  C   UNL     1     -10.381   7.889  66.999  1.00  0.00    -0.411 A  
HETATM   22  C   UNL     1      -9.472   7.350  66.078  1.00  0.00     0.010 A  
HETATM   23  C   UNL     1     -11.040   6.726  71.934  1.00  0.00    -0.279 A  
HETATM   24  C   UNL     1      -8.534   6.389  66.469  1.00  0.00    -0.118 A  
HETATM   25  C   UNL     1      -8.480   5.953  67.793  1.00  0.00    -0.107 A  
ENDBRANCH  10  13
ENDBRANCH   9  10
ENDBRANCH   8   9
ENDBRANCH   7   8
ENDBRANCH   6   7
ENDBRANCH   5   6
ENDBRANCH   4   5
ENDBRANCH   2   4
BRANCH   2  26
HETATM   26  C   UNL     1      -9.366  16.240  66.006  1.00  0.00    -0.326 C  
HETATM   27  C   UNL     1      -9.632  18.977  68.506  1.00  0.00    -0.442 A  
HETATM   28  C   UNL     1      -8.465  15.752  67.160  1.00  0.00    -0.235 A  
HETATM   29  C   UNL     1     -10.413  19.934  67.866  1.00  0.00    -0.505 A  
HETATM   30  C   UNL     1      -8.480  16.704  68.207  1.00  0.00    -0.203 A  
HETATM   31  C   UNL     1      -9.279  17.837  67.802  1.00  0.00    -0.256 A  
HETATM   32  C   UNL     1      -7.741  16.514  69.366  1.00  0.00    -0.037 A  
HETATM   33  C   UNL     1     -10.776  19.791  66.518  1.00  0.00    -0.508 A  
HETATM   34  C   UNL     1      -7.655  14.623  67.270  1.00  0.00    -0.173 A  
HETATM   35  C   UNL     1      -9.707  17.651  66.470  1.00  0.00    -0.310 A  
HETATM   36  C   UNL     1      -6.975  15.354  69.491  1.00  0.00    -0.188 A  
HETATM   37  C   UNL     1     -10.387  18.658  65.792  1.00  0.00    -0.232 A  
HETATM   38  C   UNL     1      -6.933  14.416  68.453  1.00  0.00    -0.109 A  
ENDBRANCH   2  26
TORSDOF 9
ENDMDL
MODEL      207
REMARK 921   NORMALIZED FREE ENERGY PREDICTED BY IDOCK:   -4.80 KCAL/MOL
REMARK 922        TOTAL FREE ENERGY PREDICTED BY IDOCK:   -9.09 KCAL/MOL
REMARK 923 INTER-LIGAND FREE ENERGY PREDICTED BY IDOCK:   -8.44 KCAL/MOL
REMARK 924 INTRA-LIGAND FREE ENERGY PREDICTED BY IDOCK:   -0.66 KCAL/MOL
REMARK 927      BINDING AFFINITY PREDICTED BY RF-SCORE:    0.00 PKD
ROOT
HETATM    1  C   UNL     1     -10.700  13.054  67.877  1.00  0.00    -0.235 C  
HETATM    2  N   UNL     1     -10.247  11.607  68.038  1.00  0.00    -0.185 N  
HETATM    3  C   UNL     1      -8.723  11.549  67.960  1.00  0.00    -0.151 C  
ENDROOT
BRANCH   2   4
HETATM    4  C   UNL     1     -10.755  11.073  69.361  1.00  0.00    -0.205 C  
BRANCH   4   5
HETATM    5  C   UNL     1     -11.551  12.050  70.226  1.00  0.00    -0.135 C  
BRANCH   5   6
HETATM    6  C   UNL     1     -12.968  11.499  70.437  1.00  0.00     0.114 C  
BRANCH   6   7
HETATM    7  C   UNL     1     -13.224  10.949  71.852  1.00  0.00    -0.508 C  
BRANCH   7   8
HETATM    8  C   UNL     1     -13.379   9.422  71.910  1.00  0.00    -0.508 C  
BRANCH   8   9
HETATM    9  C   UNL     1     -11.987   8.790  71.915  1.00  0.00    -0.365 C  
BRANCH   9  10
HETATM   10  N   UNL     1     -11.950   7.285  71.704  1.00  0.00    -0.292 N  
HETATM   11  C   UNL     1     -13.105   6.597  72.424  1.00  0.00     0.323 C  
HETATM   12  C   UNL     1     -12.073   6.913  70.234  1.00  0.00    -0.127 C  
BRANCH  10  13
HETATM   13  C   UNL     1     -10.546   6.767  72.285  1.00  0.00    -0.213 C  
HETATM   14  C   UNL     1      -9.343   7.037  71.361  1.00  0.00    -0.155 A  
HETATM   15  C   UNL     1      -8.741   5.818  70.977  1.00  0.00    -0.135 A  
HETATM   16  C   UNL     1      -9.395   4.726  71.658  1.00  0.00    -0.194 A  
HETATM   17  C   UNL     1      -7.668   5.786  70.098  1.00  0.00    -0.087 A  
HETATM   18  C   UNL     1     -10.446   5.233  72.457  1.00  0.00    -0.266 A  
HETATM   19  C   UNL     1      -7.183   6.993  69.596  1.00  0.00    -0.080 A  
HETATM   20  C   UNL     1      -7.750   8.209  70.000  1.00  0.00    -0.086 A  
HETATM   21  C   UNL     1     -11.168   4.366  73.270  1.00  0.00    -0.364 A  
HETATM   22  C   UNL     1     -10.868   2.997  73.236  1.00  0.00    -0.284 A  
HETATM   23  C   UNL     1      -8.818   8.239  70.902  1.00  0.00    -0.171 A  
HETATM   24  C   UNL     1      -9.833   2.506  72.434  1.00  0.00    -0.219 A  
HETATM   25  C   UNL     1      -9.081   3.373  71.642  1.00  0.00    -0.171 A  
ENDBRANCH  10  13
ENDBRANCH   9  10
ENDBRANCH   8   9
ENDBRANCH   7   8
ENDBRANCH   6   7
ENDBRANCH   5   6
ENDBRANCH   4   5
ENDBRANCH   2   4
BRANCH   2  26
HETATM   26  C   UNL     1     -10.879  10.687  66.875  1.00  0.00    -0.205 C  
HETATM   27  C   UNL     1     -10.513  11.860  63.367  1.00  0.00    -0.487 A  
HETATM   28  C   UNL     1      -9.900   9.664  66.262  1.00  0.00    -0.323 A  
HETATM   29  C   UNL     1     -11.400  12.928  63.282  1.00  0.00    -0.146 A  
HETATM   30  C   UNL     1      -9.653   9.998  64.909  1.00  0.00    -0.375 A  
HETATM   31  C   UNL     1     -10.460  11.141  64.551  1.00  0.00    -0.415 A  
HETATM   32  C   UNL     1      -8.810   9.230  64.118  1.00  0.00    -0.178 A  
HETATM   33  C   UNL     1     -12.276  13.230  64.336  1.00  0.00    -0.449 A  
HETATM   34  C   UNL     1      -9.326   8.514  66.801  1.00  0.00    -0.232 A  
HETATM   35  C   UNL     1     -11.282  11.490  65.644  1.00  0.00    -0.212 A  
HETATM   36  C   UNL     1      -8.196   8.111  64.682  1.00  0.00    -0.128 A  
HETATM   37  C   UNL     1     -12.252  12.480  65.519  1.00  0.00    -0.442 A  
HETATM   38  C   UNL     1      -8.450   7.756  66.012  1.00  0.00    -0.146 A  
ENDBRANCH   2  26
TORSDOF 9
ENDMDL
MODEL      208
REMARK 921   NORMALIZED FREE ENERGY PREDICTED BY IDOCK:   -4.79 KCAL/MOL
REMARK 922        TOTAL FREE ENERGY PREDICTED BY IDOCK:   -9.07 KCAL/MOL
REMARK 923 INTER-LIGAND FREE ENERGY PREDICTED BY IDOCK:   -8.87 KCAL/MOL
REMARK 924 INTRA-LIGAND FREE ENERGY PREDICTED BY IDOCK:   -0.20 KCAL/MOL
REMARK 927      BINDING AFFINITY PREDICTED BY RF-SCORE:    0.00 PKD
ROOT
HETATM    1  C   UNL     1     -10.214   8.226  70.215  1.00  0.00    -0.196 C  
HETATM    2  N   UNL     1     -10.094   6.908  69.458  1.00  0.00    -0.170 N  
HETATM    3  C   UNL     1     -11.474   6.264  69.353  1.00  0.00    -0.278 C  
ENDROOT
BRANCH   2   4
HETATM    4  C   UNL     1      -9.500   7.175  68.091  1.00  0.00    -0.132 C  
BRANCH   4   5
HETATM    5  C   UNL     1     -10.335   8.039  67.146  1.00  0.00    -0.395 C  
BRANCH   5   6
HETATM    6  C   UNL     1      -9.423   9.070  66.467  1.00  0.00    -0.266 C  
BRANCH   6   7
HETATM    7  C   UNL     1     -10.121   9.904  65.376  1.00  0.00    -0.270 C  
BRANCH   7   8
HETATM    8  C   UNL     1     -10.212  11.404  65.698  1.00  0.00    -0.298 C  
BRANCH   8   9
HETATM    9  C   UNL     1     -11.422  11.634  66.604  1.00  0.00    -0.206 C  
BRANCH   9  10
HETATM   10  N   UNL     1     -11.116  12.244  67.963  1.00  0.00    -0.224 N  
HETATM   11  C   UNL     1     -11.518  11.303  69.094  1.00  0.00    -0.297 C  
HETATM   12  C   UNL     1      -9.631  12.524  68.140  1.00  0.00    -0.215 C  
BRANCH  10  13
HETATM   13  C   UNL     1     -11.948  13.614  68.058  1.00  0.00    -0.350 C  
HETATM   14  C   UNL     1     -11.340  14.777  67.250  1.00  0.00    -0.366 A  
HETATM   15  C   UNL     1     -10.996  15.841  68.114  1.00  0.00    -0.330 A  
HETATM   16  C   UNL     1     -11.419  15.522  69.457  1.00  0.00    -0.341 A  
HETATM   17  C   UNL     1     -10.377  16.987  67.638  1.00  0.00    -0.332 A  
HETATM   18  C   UNL     1     -12.006  14.236  69.472  1.00  0.00    -0.384 A  
HETATM   19  C   UNL     1     -10.101  17.078  66.275  1.00  0.00    -0.330 A  
HETATM   20  C   UNL     1     -10.471  16.044  65.406  1.00  0.00    -0.415 A  
HETATM   21  C   UNL     1     -12.561  13.751  70.651  1.00  0.00    -0.386 A  
HETATM   22  C   UNL     1     -12.478  14.531  71.813  1.00  0.00    -0.420 A  
HETATM   23  C   UNL     1     -11.113  14.898  65.884  1.00  0.00    -0.338 A  
HETATM   24  C   UNL     1     -11.886  15.798  71.787  1.00  0.00    -0.549 A  
HETATM   25  C   UNL     1     -11.358  16.308  70.601  1.00  0.00    -0.321 A  
ENDBRANCH  10  13
ENDBRANCH   9  10
ENDBRANCH   8   9
ENDBRANCH   7   8
ENDBRANCH   6   7
ENDBRANCH   5   6
ENDBRANCH   4   5
ENDBRANCH   2   4
BRANCH   2  26
HETATM   26  C   UNL     1      -9.092   5.907  70.228  1.00  0.00    -0.147 C  
HETATM   27  C   UNL     1      -6.548   4.119  68.190  1.00  0.00    -0.042 A  
HETATM   28  C   UNL     1      -7.763   6.550  70.679  1.00  0.00    -0.105 A  
HETATM   29  C   UNL     1      -7.288   3.167  67.499  1.00  0.00    -0.058 A  
HETATM   30  C   UNL     1      -6.689   5.967  69.966  1.00  0.00    -0.052 A  
HETATM   31  C   UNL     1      -7.202   4.921  69.112  1.00  0.00    -0.053 A  
HETATM   32  C   UNL     1      -5.377   6.361  70.188  1.00  0.00    -0.014 A  
HETATM   33  C   UNL     1      -8.649   2.966  67.774  1.00  0.00    -0.115 A  
HETATM   34  C   UNL     1      -7.499   7.503  71.661  1.00  0.00    -0.083 A  
HETATM   35  C   UNL     1      -8.589   4.777  69.337  1.00  0.00    -0.099 A  
HETATM   36  C   UNL     1      -5.126   7.354  71.135  1.00  0.00    -0.027 A  
HETATM   37  C   UNL     1      -9.305   3.748  68.734  1.00  0.00    -0.230 A  
HETATM   38  C   UNL     1      -6.177   7.922  71.864  1.00  0.00    -0.041 A  
ENDBRANCH   2  26
TORSDOF 9
ENDMDL
MODEL      209
REMARK 921   NORMALIZED FREE ENERGY PREDICTED BY IDOCK:   -4.79 KCAL/MOL
REMARK 922        TOTAL FREE ENERGY PREDICTED BY IDOCK:   -9.07 KCAL/MOL
REMARK 923 INTER-LIGAND FREE ENERGY PREDICTED BY IDOCK:   -8.97 KCAL/MOL
REMARK 924 INTRA-LIGAND FREE ENERGY PREDICTED BY IDOCK:   -0.10 KCAL/MOL
REMARK 927      BINDING AFFINITY PREDICTED BY RF-SCORE:    0.00 PKD
ROOT
HETATM    1  C   UNL     1     -11.588   6.421  69.463  1.00  0.00    -0.233 C  
HETATM    2  N   UNL     1     -10.354   6.515  68.572  1.00  0.00    -0.175 N  
HETATM    3  C   UNL     1     -10.543   5.604  67.362  1.00  0.00    -0.237 C  
ENDROOT
BRANCH   2   4
HETATM    4  C   UNL     1     -10.152   7.957  68.156  1.00  0.00    -0.191 C  
BRANCH   4   5
HETATM    5  C   UNL     1     -10.050   8.222  66.654  1.00  0.00    -0.351 C  
BRANCH   5   6
HETATM    6  C   UNL     1      -9.229   9.498  66.422  1.00  0.00    -0.210 C  
BRANCH   6   7
HETATM    7  C   UNL     1      -9.865  10.481  65.422  1.00  0.00    -0.335 C  
BRANCH   7   8
HETATM    8  C   UNL     1     -10.664  11.615  66.082  1.00  0.00    -0.325 C  
BRANCH   8   9
HETATM    9  C   UNL     1     -10.466  12.891  65.262  1.00  0.00    -0.296 C  
BRANCH   9  10
HETATM   10  N   UNL     1     -11.069  14.152  65.859  1.00  0.00    -0.302 N  
HETATM   11  C   UNL     1     -11.027  15.309  64.866  1.00  0.00    -0.430 C  
HETATM   12  C   UNL     1     -12.529  13.961  66.239  1.00  0.00    -0.409 C  
BRANCH  10  13
HETATM   13  C   UNL     1     -10.205  14.510  67.165  1.00  0.00    -0.260 C  
HETATM   14  C   UNL     1     -10.996  14.428  68.485  1.00  0.00    -0.264 A  
HETATM   15  C   UNL     1     -11.021  15.692  69.116  1.00  0.00    -0.259 A  
HETATM   16  C   UNL     1     -10.213  16.619  68.361  1.00  0.00    -0.284 A  
HETATM   17  C   UNL     1     -11.720  15.896  70.297  1.00  0.00    -0.352 A  
HETATM   18  C   UNL     1      -9.692  15.968  67.219  1.00  0.00    -0.232 A  
HETATM   19  C   UNL     1     -12.401  14.820  70.863  1.00  0.00    -0.388 A  
HETATM   20  C   UNL     1     -12.351  13.555  70.263  1.00  0.00    -0.370 A  
HETATM   21  C   UNL     1      -8.815  16.649  66.382  1.00  0.00    -0.337 A  
HETATM   22  C   UNL     1      -8.510  17.988  66.664  1.00  0.00    -0.283 A  
HETATM   23  C   UNL     1     -11.630  13.346  69.084  1.00  0.00    -0.365 A  
HETATM   24  C   UNL     1      -9.040  18.625  67.791  1.00  0.00    -0.303 A  
HETATM   25  C   UNL     1      -9.892  17.939  68.656  1.00  0.00    -0.375 A  
ENDBRANCH  10  13
ENDBRANCH   9  10
ENDBRANCH   8   9
ENDBRANCH   7   8
ENDBRANCH   6   7
ENDBRANCH   5   6
ENDBRANCH   4   5
ENDBRANCH   2   4
BRANCH   2  26
HETATM   26  C   UNL     1      -9.037   6.062  69.385  1.00  0.00    -0.133 C  
HETATM   27  C   UNL     1      -6.049   8.262  69.177  1.00  0.00    -0.039 A  
HETATM   28  C   UNL     1      -8.930   6.646  70.810  1.00  0.00    -0.151 A  
HETATM   29  C   UNL     1      -5.571   8.049  67.888  1.00  0.00    -0.034 A  
HETATM   30  C   UNL     1      -7.825   7.528  70.877  1.00  0.00    -0.094 A  
HETATM   31  C   UNL     1      -7.138   7.521  69.606  1.00  0.00    -0.064 A  
HETATM   32  C   UNL     1      -7.496   8.184  72.055  1.00  0.00    -0.115 A  
HETATM   33  C   UNL     1      -6.124   7.058  67.064  1.00  0.00    -0.036 A  
HETATM   34  C   UNL     1      -9.676   6.391  71.958  1.00  0.00    -0.160 A  
HETATM   35  C   UNL     1      -7.750   6.577  68.753  1.00  0.00    -0.109 A  
HETATM   36  C   UNL     1      -8.282   7.965  73.187  1.00  0.00    -0.221 A  
HETATM   37  C   UNL     1      -7.200   6.279  67.510  1.00  0.00    -0.079 A  
HETATM   38  C   UNL     1      -9.363   7.077  73.139  1.00  0.00    -0.176 A  
ENDBRANCH   2  26
TORSDOF 9
ENDMDL
MODEL      210
REMARK 921   NORMALIZED FREE ENERGY PREDICTED BY IDOCK:   -4.79 KCAL/MOL
REMARK 922        TOTAL FREE ENERGY PREDICTED BY IDOCK:   -9.07 KCAL/MOL
REMARK 923 INTER-LIGAND FREE ENERGY PREDICTED BY IDOCK:   -8.84 KCAL/MOL
REMARK 924 INTRA-LIGAND FREE ENERGY PREDICTED BY IDOCK:   -0.22 KCAL/MOL
REMARK 927      BINDING AFFINITY PREDICTED BY RF-SCORE:    0.00 PKD
ROOT
HETATM    1  C   UNL     1     -10.298  18.997  66.164  1.00  0.00    -0.468 C  
HETATM    2  N   UNL     1      -9.807  17.613  66.576  1.00  0.00    -0.306 N  
HETATM    3  C   UNL     1     -10.244  17.335  68.012  1.00  0.00    -0.332 C  
ENDROOT
BRANCH   2   4
HETATM    4  C   UNL     1     -10.366  16.583  65.616  1.00  0.00    -0.322 C  
BRANCH   4   5
HETATM    5  C   UNL     1     -10.916  15.301  66.241  1.00  0.00    -0.300 C  
BRANCH   5   6
HETATM    6  C   UNL     1     -11.259  14.304  65.126  1.00  0.00    -0.345 C  
BRANCH   6   7
HETATM    7  C   UNL     1     -10.260  13.139  64.996  1.00  0.00    -0.296 C  
BRANCH   7   8
HETATM    8  C   UNL     1      -9.723  12.622  66.340  1.00  0.00    -0.259 C  
BRANCH   8   9
HETATM    9  C   UNL     1     -10.654  11.518  66.844  1.00  0.00    -0.247 C  
BRANCH   9  10
HETATM   10  N   UNL     1     -10.602  11.252  68.340  1.00  0.00    -0.187 N  
HETATM   11  C   UNL     1     -10.249   9.796  68.630  1.00  0.00    -0.190 C  
HETATM   12  C   UNL     1      -9.547  12.099  69.034  1.00  0.00     0.291 C  
BRANCH  10  13
HETATM   13  C   UNL     1     -12.056  11.598  68.926  1.00  0.00    -0.190 C  
HETATM   14  C   UNL     1     -12.152  12.984  69.594  1.00  0.00    -0.304 A  
HETATM   15  C   UNL     1     -12.498  12.844  70.956  1.00  0.00    -0.374 A  
HETATM   16  C   UNL     1     -12.742  11.451  71.247  1.00  0.00    -0.498 A  
HETATM   17  C   UNL     1     -12.593  13.945  71.795  1.00  0.00    -0.345 A  
HETATM   18  C   UNL     1     -12.520  10.682  70.082  1.00  0.00    -0.342 A  
HETATM   19  C   UNL     1     -12.344  15.210  71.264  1.00  0.00    -0.401 A  
HETATM   20  C   UNL     1     -12.036  15.361  69.906  1.00  0.00    -0.382 A  
HETATM   21  C   UNL     1     -12.774   9.314  70.106  1.00  0.00     0.798 A  
HETATM   22  C   UNL     1     -13.195   8.723  71.305  1.00  0.00    -0.203 A  
HETATM   23  C   UNL     1     -11.961  14.252  69.058  1.00  0.00    -0.360 A  
HETATM   24  C   UNL     1     -13.401   9.493  72.454  1.00  0.00    -0.469 A  
HETATM   25  C   UNL     1     -13.184  10.870  72.430  1.00  0.00     0.134 A  
ENDBRANCH  10  13
ENDBRANCH   9  10
ENDBRANCH   8   9
ENDBRANCH   7   8
ENDBRANCH   6   7
ENDBRANCH   5   6
ENDBRANCH   4   5
ENDBRANCH   2   4
BRANCH   2  26
HETATM   26  C   UNL     1      -8.199  17.535  66.480  1.00  0.00    -0.276 C  
HETATM   27  C   UNL     1      -6.234  19.647  68.823  1.00  0.00    -0.292 A  
HETATM   28  C   UNL     1      -7.549  16.502  67.424  1.00  0.00    -0.175 A  
HETATM   29  C   UNL     1      -6.401  20.935  68.327  1.00  0.00    -0.311 A  
HETATM   30  C   UNL     1      -6.767  17.173  68.394  1.00  0.00    -0.170 A  
HETATM   31  C   UNL     1      -6.793  18.591  68.120  1.00  0.00    -0.238 A  
HETATM   32  C   UNL     1      -6.063  16.474  69.364  1.00  0.00    -0.182 A  
HETATM   33  C   UNL     1      -7.054  21.163  67.106  1.00  0.00    -0.319 A  
HETATM   34  C   UNL     1      -7.575  15.109  67.409  1.00  0.00    -0.232 A  
HETATM   35  C   UNL     1      -7.520  18.822  66.932  1.00  0.00    -0.231 A  
HETATM   36  C   UNL     1      -6.139  15.081  69.375  1.00  0.00    -0.110 A  
HETATM   37  C   UNL     1      -7.586  20.094  66.373  1.00  0.00    -0.309 A  
HETATM   38  C   UNL     1      -6.889  14.404  68.407  1.00  0.00    -0.106 A  
ENDBRANCH   2  26
TORSDOF 9
ENDMDL
MODEL      211
REMARK 921   NORMALIZED FREE ENERGY PREDICTED BY IDOCK:   -4.78 KCAL/MOL
REMARK 922        TOTAL FREE ENERGY PREDICTED BY IDOCK:   -9.06 KCAL/MOL
REMARK 923 INTER-LIGAND FREE ENERGY PREDICTED BY IDOCK:   -8.38 KCAL/MOL
REMARK 924 INTRA-LIGAND FREE ENERGY PREDICTED BY IDOCK:   -0.68 KCAL/MOL
REMARK 927      BINDING AFFINITY PREDICTED BY RF-SCORE:    0.00 PKD
ROOT
HETATM    1  C   UNL     1     -11.629  12.292  66.089  1.00  0.00    -0.390 C  
HETATM    2  N   UNL     1     -10.544  11.538  66.852  1.00  0.00    -0.235 N  
HETATM    3  C   UNL     1     -11.060  10.147  67.208  1.00  0.00    -0.092 C  
ENDROOT
BRANCH   2   4
HETATM    4  C   UNL     1      -9.296  11.467  65.996  1.00  0.00    -0.217 C  
BRANCH   4   5
HETATM    5  C   UNL     1      -7.988  11.174  66.729  1.00  0.00    -0.156 C  
BRANCH   5   6
HETATM    6  C   UNL     1      -7.975   9.705  67.173  1.00  0.00    -0.106 C  
BRANCH   6   7
HETATM    7  C   UNL     1      -7.669   8.709  66.040  1.00  0.00    -0.100 C  
BRANCH   7   8
HETATM    8  C   UNL     1      -8.750   7.635  65.843  1.00  0.00    -0.176 C  
BRANCH   8   9
HETATM    9  C   UNL     1      -8.441   6.458  66.769  1.00  0.00    -0.112 C  
BRANCH   9  10
HETATM   10  N   UNL     1      -9.550   6.079  67.737  1.00  0.00    -0.112 N  
HETATM   11  C   UNL     1     -10.915   6.508  67.210  1.00  0.00    -0.400 C  
HETATM   12  C   UNL     1      -9.624   4.576  67.959  1.00  0.00    -0.154 C  
BRANCH  10  13
HETATM   13  C   UNL     1      -9.232   6.823  69.124  1.00  0.00    -0.137 C  
HETATM   14  C   UNL     1      -7.927   6.361  69.801  1.00  0.00    -0.119 A  
HETATM   15  C   UNL     1      -8.208   5.804  71.069  1.00  0.00    -0.122 A  
HETATM   16  C   UNL     1      -9.617   5.940  71.350  1.00  0.00    -0.189 A  
HETATM   17  C   UNL     1      -7.204   5.261  71.859  1.00  0.00    -0.085 A  
HETATM   18  C   UNL     1     -10.258   6.555  70.250  1.00  0.00    -0.227 A  
HETATM   19  C   UNL     1      -5.895   5.280  71.379  1.00  0.00    -0.017 A  
HETATM   20  C   UNL     1      -5.603   5.864  70.140  1.00  0.00    -0.013 A  
HETATM   21  C   UNL     1     -11.612   6.861  70.331  1.00  0.00    -0.385 A  
HETATM   22  C   UNL     1     -12.322   6.504  71.485  1.00  0.00    -0.282 A  
HETATM   23  C   UNL     1      -6.613   6.428  69.354  1.00  0.00    -0.044 A  
HETATM   24  C   UNL     1     -11.678   5.887  72.563  1.00  0.00    -0.288 A  
HETATM   25  C   UNL     1     -10.313   5.608  72.506  1.00  0.00    -0.240 A  
ENDBRANCH  10  13
ENDBRANCH   9  10
ENDBRANCH   8   9
ENDBRANCH   7   8
ENDBRANCH   6   7
ENDBRANCH   5   6
ENDBRANCH   4   5
ENDBRANCH   2   4
BRANCH   2  26
HETATM   26  C   UNL     1     -10.155  12.329  68.202  1.00  0.00    -0.211 C  
HETATM   27  C   UNL     1     -11.517  15.760  68.637  1.00  0.00    -0.389 A  
HETATM   28  C   UNL     1     -11.165  12.163  69.357  1.00  0.00    -0.248 A  
HETATM   29  C   UNL     1     -10.780  16.525  67.739  1.00  0.00    -0.329 A  
HETATM   30  C   UNL     1     -11.782  13.408  69.628  1.00  0.00    -0.375 A  
HETATM   31  C   UNL     1     -11.199  14.418  68.776  1.00  0.00    -0.282 A  
HETATM   32  C   UNL     1     -12.729  13.541  70.633  1.00  0.00    -0.275 A  
HETATM   33  C   UNL     1      -9.692  15.977  67.042  1.00  0.00    -0.235 A  
HETATM   34  C   UNL     1     -11.477  11.057  70.144  1.00  0.00    -0.383 A  
HETATM   35  C   UNL     1     -10.156  13.842  68.019  1.00  0.00    -0.244 A  
HETATM   36  C   UNL     1     -13.075  12.415  71.382  1.00  0.00    -0.299 A  
HETATM   37  C   UNL     1      -9.343  14.630  67.210  1.00  0.00    -0.212 A  
HETATM   38  C   UNL     1     -12.456  11.183  71.139  1.00  0.00    -0.498 A  
ENDBRANCH   2  26
TORSDOF 9
ENDMDL
MODEL      212
REMARK 921   NORMALIZED FREE ENERGY PREDICTED BY IDOCK:   -4.77 KCAL/MOL
REMARK 922        TOTAL FREE ENERGY PREDICTED BY IDOCK:   -9.05 KCAL/MOL
REMARK 923 INTER-LIGAND FREE ENERGY PREDICTED BY IDOCK:   -8.59 KCAL/MOL
REMARK 924 INTRA-LIGAND FREE ENERGY PREDICTED BY IDOCK:   -0.46 KCAL/MOL
REMARK 927      BINDING AFFINITY PREDICTED BY RF-SCORE:    0.00 PKD
ROOT
HETATM    1  C   UNL     1     -11.182  15.404  64.897  1.00  0.00    -0.403 C  
HETATM    2  N   UNL     1     -11.082  14.060  65.610  1.00  0.00    -0.298 N  
HETATM    3  C   UNL     1     -12.476  13.627  66.058  1.00  0.00    -0.426 C  
ENDROOT
BRANCH   2   4
HETATM    4  C   UNL     1     -10.461  13.046  64.671  1.00  0.00    -0.380 C  
BRANCH   4   5
HETATM    5  C   UNL     1     -11.177  11.701  64.556  1.00  0.00    -0.335 C  
BRANCH   5   6
HETATM    6  C   UNL     1     -10.454  10.668  65.430  1.00  0.00    -0.254 C  
BRANCH   6   7
HETATM    7  C   UNL     1      -8.921  10.681  65.282  1.00  0.00    -0.209 C  
BRANCH   7   8
HETATM    8  C   UNL     1      -8.167  10.914  66.600  1.00  0.00    -0.145 C  
BRANCH   8   9
HETATM    9  C   UNL     1      -7.778   9.556  67.185  1.00  0.00    -0.091 C  
BRANCH   9  10
HETATM   10  N   UNL     1      -7.025   9.603  68.505  1.00  0.00    -0.064 N  
HETATM   11  C   UNL     1      -5.539   9.867  68.284  1.00  0.00    -0.039 C  
HETATM   12  C   UNL     1      -7.532  10.714  69.411  1.00  0.00    -0.135 C  
BRANCH  10  13
HETATM   13  C   UNL     1      -7.237   8.178  69.214  1.00  0.00    -0.072 C  
HETATM   14  C   UNL     1      -8.660   7.607  69.067  1.00  0.00    -0.136 A  
HETATM   15  C   UNL     1      -9.254   7.448  70.340  1.00  0.00    -0.158 A  
HETATM   16  C   UNL     1      -8.291   7.784  71.362  1.00  0.00    -0.118 A  
HETATM   17  C   UNL     1     -10.560   7.001  70.478  1.00  0.00    -0.245 A  
HETATM   18  C   UNL     1      -7.083   8.194  70.753  1.00  0.00    -0.049 A  
HETATM   19  C   UNL     1     -11.286   6.701  69.327  1.00  0.00    -0.301 A  
HETATM   20  C   UNL     1     -10.694   6.821  68.063  1.00  0.00    -0.302 A  
HETATM   21  C   UNL     1      -5.981   8.490  71.548  1.00  0.00    -0.045 A  
HETATM   22  C   UNL     1      -6.113   8.424  72.942  1.00  0.00    -0.079 A  
HETATM   23  C   UNL     1      -9.371   7.252  67.927  1.00  0.00    -0.131 A  
HETATM   24  C   UNL     1      -7.316   8.026  73.533  1.00  0.00    -0.181 A  
HETATM   25  C   UNL     1      -8.416   7.693  72.742  1.00  0.00    -0.172 A  
ENDBRANCH  10  13
ENDBRANCH   9  10
ENDBRANCH   8   9
ENDBRANCH   7   8
ENDBRANCH   6   7
ENDBRANCH   5   6
ENDBRANCH   4   5
ENDBRANCH   2   4
BRANCH   2  26
HETATM   26  C   UNL     1     -10.117  14.176  66.897  1.00  0.00    -0.258 C  
HETATM   27  C   UNL     1      -9.977  17.451  68.649  1.00  0.00    -0.340 A  
HETATM   28  C   UNL     1     -10.807  13.884  68.246  1.00  0.00    -0.263 A  
HETATM   29  C   UNL     1      -9.251  18.260  67.781  1.00  0.00    -0.276 A  
HETATM   30  C   UNL     1     -10.839  15.064  69.026  1.00  0.00    -0.242 A  
HETATM   31  C   UNL     1     -10.150  16.117  68.317  1.00  0.00    -0.232 A  
HETATM   32  C   UNL     1     -11.400  15.075  70.296  1.00  0.00    -0.300 A  
HETATM   33  C   UNL     1      -8.642  17.729  66.633  1.00  0.00    -0.280 A  
HETATM   34  C   UNL     1     -11.303  12.695  68.778  1.00  0.00    -0.333 A  
HETATM   35  C   UNL     1      -9.607  15.595  67.123  1.00  0.00    -0.224 A  
HETATM   36  C   UNL     1     -11.943  13.892  70.799  1.00  0.00    -0.348 A  
HETATM   37  C   UNL     1      -8.782  16.371  66.316  1.00  0.00    -0.369 A  
HETATM   38  C   UNL     1     -11.897  12.713  70.047  1.00  0.00    -0.358 A  
ENDBRANCH   2  26
TORSDOF 9
ENDMDL
MODEL      213
REMARK 921   NORMALIZED FREE ENERGY PREDICTED BY IDOCK:   -4.76 KCAL/MOL
REMARK 922        TOTAL FREE ENERGY PREDICTED BY IDOCK:   -9.03 KCAL/MOL
REMARK 923 INTER-LIGAND FREE ENERGY PREDICTED BY IDOCK:   -8.85 KCAL/MOL
REMARK 924 INTRA-LIGAND FREE ENERGY PREDICTED BY IDOCK:   -0.17 KCAL/MOL
REMARK 927      BINDING AFFINITY PREDICTED BY RF-SCORE:    0.00 PKD
ROOT
HETATM    1  C   UNL     1     -11.122   6.580  67.776  1.00  0.00    -0.270 C  
HETATM    2  N   UNL     1      -9.680   7.052  67.622  1.00  0.00    -0.133 N  
HETATM    3  C   UNL     1      -9.162   6.636  66.248  1.00  0.00    -0.127 C  
ENDROOT
BRANCH   2   4
HETATM    4  C   UNL     1      -9.629   8.555  67.804  1.00  0.00    -0.156 C  
BRANCH   4   5
HETATM    5  C   UNL     1      -8.243   9.168  67.995  1.00  0.00    -0.112 C  
BRANCH   5   6
HETATM    6  C   UNL     1      -8.365  10.434  68.854  1.00  0.00    -0.138 C  
BRANCH   6   7
HETATM    7  C   UNL     1      -9.429  11.431  68.357  1.00  0.00    -0.194 C  
BRANCH   7   8
HETATM    8  C   UNL     1      -8.968  12.303  67.180  1.00  0.00    -0.192 C  
BRANCH   8   9
HETATM    9  C   UNL     1      -9.534  13.711  67.366  1.00  0.00    -0.225 C  
BRANCH   9  10
HETATM   10  N   UNL     1     -10.763  14.037  66.533  1.00  0.00    -0.280 N  
HETATM   11  C   UNL     1     -10.375  14.545  65.148  1.00  0.00    -0.411 C  
HETATM   12  C   UNL     1     -11.645  12.816  66.316  1.00  0.00    -0.379 C  
BRANCH  10  13
HETATM   13  C   UNL     1     -11.580  15.167  67.330  1.00  0.00    -0.223 C  
HETATM   14  C   UNL     1     -10.883  16.541  67.364  1.00  0.00    -0.202 A  
HETATM   15  C   UNL     1     -10.605  16.911  68.699  1.00  0.00    -0.360 A  
HETATM   16  C   UNL     1     -11.154  15.922  69.594  1.00  0.00    -0.320 A  
HETATM   17  C   UNL     1      -9.927  18.085  68.997  1.00  0.00    -0.292 A  
HETATM   18  C   UNL     1     -11.759  14.890  68.841  1.00  0.00    -0.343 A  
HETATM   19  C   UNL     1      -9.525  18.908  67.946  1.00  0.00    -0.346 A  
HETATM   20  C   UNL     1      -9.830  18.567  66.622  1.00  0.00    -0.370 A  
HETATM   21  C   UNL     1     -12.427  13.863  69.498  1.00  0.00    -0.141 A  
HETATM   22  C   UNL     1     -12.439  13.849  70.900  1.00  0.00    -0.447 A  
HETATM   23  C   UNL     1     -10.530  17.394  66.325  1.00  0.00    -0.276 A  
HETATM   24  C   UNL     1     -11.828  14.870  71.635  1.00  0.00    -0.429 A  
HETATM   25  C   UNL     1     -11.186  15.923  70.983  1.00  0.00    -0.371 A  
ENDBRANCH  10  13
ENDBRANCH   9  10
ENDBRANCH   8   9
ENDBRANCH   7   8
ENDBRANCH   6   7
ENDBRANCH   5   6
ENDBRANCH   4   5
ENDBRANCH   2   4
BRANCH   2  26
HETATM   26  C   UNL     1      -8.750   6.399  68.767  1.00  0.00    -0.122 C  
HETATM   27  C   UNL     1     -10.449   4.905  71.716  1.00  0.00    -0.214 A  
HETATM   28  C   UNL     1      -8.488   4.888  68.596  1.00  0.00    -0.089 A  
HETATM   29  C   UNL     1     -10.901   6.008  72.431  1.00  0.00    -0.288 A  
HETATM   30  C   UNL     1      -9.098   4.179  69.658  1.00  0.00    -0.184 A  
HETATM   31  C   UNL     1      -9.695   5.123  70.573  1.00  0.00    -0.260 A  
HETATM   32  C   UNL     1      -9.006   2.797  69.751  1.00  0.00    -0.168 A  
HETATM   33  C   UNL     1     -10.545   7.312  72.055  1.00  0.00    -0.236 A  
HETATM   34  C   UNL     1      -7.737   4.194  67.649  1.00  0.00    -0.079 A  
HETATM   35  C   UNL     1      -9.400   6.436  70.145  1.00  0.00    -0.164 A  
HETATM   36  C   UNL     1      -8.298   2.105  68.768  1.00  0.00    -0.079 A  
HETATM   37  C   UNL     1      -9.750   7.535  70.923  1.00  0.00    -0.173 A  
HETATM   38  C   UNL     1      -7.670   2.796  67.725  1.00  0.00    -0.060 A  
ENDBRANCH   2  26
TORSDOF 9
ENDMDL
MODEL      214
REMARK 921   NORMALIZED FREE ENERGY PREDICTED BY IDOCK:   -4.76 KCAL/MOL
REMARK 922        TOTAL FREE ENERGY PREDICTED BY IDOCK:   -9.02 KCAL/MOL
REMARK 923 INTER-LIGAND FREE ENERGY PREDICTED BY IDOCK:   -7.49 KCAL/MOL
REMARK 924 INTRA-LIGAND FREE ENERGY PREDICTED BY IDOCK:   -1.53 KCAL/MOL
REMARK 927      BINDING AFFINITY PREDICTED BY RF-SCORE:    0.00 PKD
ROOT
HETATM    1  C   UNL     1      -7.519   5.979  70.637  1.00  0.00    -0.087 C  
HETATM    2  N   UNL     1      -8.302   6.934  69.742  1.00  0.00    -0.131 N  
HETATM    3  C   UNL     1      -8.013   8.370  70.171  1.00  0.00    -0.102 C  
ENDROOT
BRANCH   2   4
HETATM    4  C   UNL     1      -7.908   6.694  68.299  1.00  0.00    -0.110 C  
BRANCH   4   5
HETATM    5  C   UNL     1      -7.291   7.881  67.559  1.00  0.00    -0.092 C  
BRANCH   5   6
HETATM    6  C   UNL     1      -6.192   7.372  66.616  1.00  0.00    -0.044 C  
BRANCH   6   7
HETATM    7  C   UNL     1      -6.315   7.889  65.171  1.00  0.00    -0.041 C  
BRANCH   7   8
HETATM    8  C   UNL     1      -7.754   8.211  64.742  1.00  0.00    -0.123 C  
BRANCH   8   9
HETATM    9  C   UNL     1      -7.853   9.710  64.457  1.00  0.00    -0.134 C  
BRANCH   9  10
HETATM   10  N   UNL     1      -9.174  10.362  64.832  1.00  0.00    -0.201 N  
HETATM   11  C   UNL     1     -10.013  10.663  63.595  1.00  0.00    -0.301 C  
HETATM   12  C   UNL     1     -10.021   9.463  65.721  1.00  0.00    -0.208 C  
BRANCH  10  13
HETATM   13  C   UNL     1      -8.821  11.723  65.607  1.00  0.00     0.123 C  
HETATM   14  C   UNL     1      -7.696  11.578  66.652  1.00  0.00    -0.101 A  
HETATM   15  C   UNL     1      -8.186  11.894  67.939  1.00  0.00    -0.150 A  
HETATM   16  C   UNL     1      -9.554  12.341  67.834  1.00  0.00    -0.203 A  
HETATM   17  C   UNL     1      -7.382  11.787  69.065  1.00  0.00    -0.055 A  
HETATM   18  C   UNL     1      -9.966  12.283  66.483  1.00  0.00    -0.234 A  
HETATM   19  C   UNL     1      -6.064  11.363  68.904  1.00  0.00    -0.050 A  
HETATM   20  C   UNL     1      -5.560  11.083  67.627  1.00  0.00    -0.043 A  
HETATM   21  C   UNL     1     -11.229  12.745  66.131  1.00  0.00    -0.336 A  
HETATM   22  C   UNL     1     -12.086  13.211  67.137  1.00  0.00    -0.343 A  
HETATM   23  C   UNL     1      -6.366  11.211  66.492  1.00  0.00    -0.132 A  
HETATM   24  C   UNL     1     -11.672  13.254  68.472  1.00  0.00    -0.388 A  
HETATM   25  C   UNL     1     -10.394  12.826  68.830  1.00  0.00    -0.136 A  
ENDBRANCH  10  13
ENDBRANCH   9  10
ENDBRANCH   8   9
ENDBRANCH   7   8
ENDBRANCH   6   7
ENDBRANCH   5   6
ENDBRANCH   4   5
ENDBRANCH   2   4
BRANCH   2  26
HETATM   26  C   UNL     1      -9.884   6.646  69.861  1.00  0.00    -0.167 C  
HETATM   27  C   UNL     1     -11.168   5.436  73.132  1.00  0.00    -0.355 A  
HETATM   28  C   UNL     1     -10.716   7.839  70.376  1.00  0.00    -0.238 A  
HETATM   29  C   UNL     1     -10.721   4.121  73.197  1.00  0.00    -0.277 A  
HETATM   30  C   UNL     1     -11.265   7.522  71.641  1.00  0.00    -0.275 A  
HETATM   31  C   UNL     1     -10.914   6.163  71.980  1.00  0.00    -0.305 A  
HETATM   32  C   UNL     1     -12.069   8.423  72.326  1.00  0.00    -0.456 A  
HETATM   33  C   UNL     1     -10.092   3.513  72.099  1.00  0.00    -0.205 A  
HETATM   34  C   UNL     1     -11.026   9.060  69.780  1.00  0.00    -0.177 A  
HETATM   35  C   UNL     1     -10.211   5.582  70.902  1.00  0.00    -0.293 A  
HETATM   36  C   UNL     1     -12.329   9.665  71.745  1.00  0.00    -0.474 A  
HETATM   37  C   UNL     1      -9.869   4.234  70.918  1.00  0.00    -0.259 A  
HETATM   38  C   UNL     1     -11.812   9.982  70.484  1.00  0.00    -0.387 A  
ENDBRANCH   2  26
TORSDOF 9
ENDMDL
MODEL      215
REMARK 921   NORMALIZED FREE ENERGY PREDICTED BY IDOCK:   -4.75 KCAL/MOL
REMARK 922        TOTAL FREE ENERGY PREDICTED BY IDOCK:   -9.01 KCAL/MOL
REMARK 923 INTER-LIGAND FREE ENERGY PREDICTED BY IDOCK:   -9.23 KCAL/MOL
REMARK 924 INTRA-LIGAND FREE ENERGY PREDICTED BY IDOCK:    0.23 KCAL/MOL
REMARK 927      BINDING AFFINITY PREDICTED BY RF-SCORE:    0.00 PKD
ROOT
HETATM    1  C   UNL     1     -11.339  15.848  70.634  1.00  0.00    -0.397 C  
HETATM    2  N   UNL     1     -11.385  14.805  69.522  1.00  0.00    -0.269 N  
HETATM    3  C   UNL     1     -10.030  14.108  69.435  1.00  0.00     0.251 C  
ENDROOT
BRANCH   2   4
HETATM    4  C   UNL     1     -12.499  13.820  69.812  1.00  0.00    -0.162 C  
BRANCH   4   5
HETATM    5  C   UNL     1     -12.072  12.384  70.116  1.00  0.00    -0.366 C  
BRANCH   5   6
HETATM    6  C   UNL     1     -12.932  11.835  71.263  1.00  0.00    -0.353 C  
BRANCH   6   7
HETATM    7  C   UNL     1     -12.743  10.329  71.524  1.00  0.00    -0.557 C  
BRANCH   7   8
HETATM    8  C   UNL     1     -11.317   9.822  71.260  1.00  0.00    -0.445 C  
BRANCH   8   9
HETATM    9  C   UNL     1     -11.401   8.402  70.698  1.00  0.00    -0.244 C  
BRANCH   9  10
HETATM   10  N   UNL     1     -10.701   7.331  71.519  1.00  0.00    -0.219 N  
HETATM   11  C   UNL     1     -10.600   7.737  72.986  1.00  0.00    -0.379 C  
HETATM   12  C   UNL     1     -11.450   6.008  71.487  1.00  0.00    -0.216 C  
BRANCH  10  13
HETATM   13  C   UNL     1      -9.235   7.146  70.892  1.00  0.00    -0.152 C  
HETATM   14  C   UNL     1      -9.121   5.981  69.890  1.00  0.00    -0.147 A  
HETATM   15  C   UNL     1      -8.186   5.030  70.356  1.00  0.00    -0.096 A  
HETATM   16  C   UNL     1      -7.576   5.513  71.571  1.00  0.00    -0.104 A  
HETATM   17  C   UNL     1      -7.943   3.854  69.659  1.00  0.00    -0.058 A  
HETATM   18  C   UNL     1      -8.139   6.764  71.914  1.00  0.00    -0.101 A  
HETATM   19  C   UNL     1      -8.639   3.626  68.474  1.00  0.00    -0.118 A  
HETATM   20  C   UNL     1      -9.540   4.582  67.985  1.00  0.00    -0.209 A  
HETATM   21  C   UNL     1      -7.644   7.460  73.011  1.00  0.00    -0.099 A  
HETATM   22  C   UNL     1      -6.630   6.877  73.784  1.00  0.00    -0.067 A  
HETATM   23  C   UNL     1      -9.770   5.774  68.678  1.00  0.00    -0.165 A  
HETATM   24  C   UNL     1      -6.087   5.635  73.440  1.00  0.00    -0.056 A  
HETATM   25  C   UNL     1      -6.553   4.946  72.320  1.00  0.00    -0.043 A  
ENDBRANCH  10  13
ENDBRANCH   9  10
ENDBRANCH   8   9
ENDBRANCH   7   8
ENDBRANCH   6   7
ENDBRANCH   5   6
ENDBRANCH   4   5
ENDBRANCH   2   4
BRANCH   2  26
HETATM   26  C   UNL     1     -11.720  15.504  68.108  1.00  0.00    -0.229 C  
HETATM   27  C   UNL     1      -8.865  16.804  66.115  1.00  0.00    -0.298 A  
HETATM   28  C   UNL     1     -11.675  14.552  66.894  1.00  0.00    -0.399 A  
HETATM   29  C   UNL     1      -8.467  17.941  66.810  1.00  0.00    -0.268 A  
HETATM   30  C   UNL     1     -10.610  14.924  66.040  1.00  0.00    -0.321 A  
HETATM   31  C   UNL     1      -9.977  16.111  66.566  1.00  0.00    -0.293 A  
HETATM   32  C   UNL     1     -10.352  14.234  64.864  1.00  0.00    -0.429 A  
HETATM   33  C   UNL     1      -9.211  18.424  67.898  1.00  0.00    -0.294 A  
HETATM   34  C   UNL     1     -12.515  13.503  66.527  1.00  0.00    -0.309 A  
HETATM   35  C   UNL     1     -10.684  16.548  67.708  1.00  0.00    -0.329 A  
HETATM   36  C   UNL     1     -11.165  13.150  64.531  1.00  0.00    -0.383 A  
HETATM   37  C   UNL     1     -10.358  17.748  68.332  1.00  0.00    -0.378 A  
HETATM   38  C   UNL     1     -12.237  12.786  65.355  1.00  0.00    -0.532 A  
ENDBRANCH   2  26
TORSDOF 9
ENDMDL
MODEL      216
REMARK 921   NORMALIZED FREE ENERGY PREDICTED BY IDOCK:   -4.74 KCAL/MOL
REMARK 922        TOTAL FREE ENERGY PREDICTED BY IDOCK:   -9.01 KCAL/MOL
REMARK 923 INTER-LIGAND FREE ENERGY PREDICTED BY IDOCK:   -9.12 KCAL/MOL
REMARK 924 INTRA-LIGAND FREE ENERGY PREDICTED BY IDOCK:    0.12 KCAL/MOL
REMARK 927      BINDING AFFINITY PREDICTED BY RF-SCORE:    0.00 PKD
ROOT
HETATM    1  C   UNL     1     -11.368  10.312  70.426  1.00  0.00    -0.332 C  
HETATM    2  N   UNL     1     -10.745   9.237  69.541  1.00  0.00    -0.229 N  
HETATM    3  C   UNL     1     -11.218   9.438  68.104  1.00  0.00     0.202 C  
ENDROOT
BRANCH   2   4
HETATM    4  C   UNL     1      -9.237   9.322  69.647  1.00  0.00    -0.175 C  
BRANCH   4   5
HETATM    5  C   UNL     1      -8.475   9.524  68.338  1.00  0.00    -0.119 C  
BRANCH   5   6
HETATM    6  C   UNL     1      -8.614  10.987  67.894  1.00  0.00    -0.133 C  
BRANCH   6   7
HETATM    7  C   UNL     1      -7.282  11.658  67.513  1.00  0.00    -0.119 C  
BRANCH   7   8
HETATM    8  C   UNL     1      -7.307  13.191  67.597  1.00  0.00    -0.155 C  
BRANCH   8   9
HETATM    9  C   UNL     1      -8.579  13.618  68.330  1.00  0.00    -0.170 C  
BRANCH   9  10
HETATM   10  N   UNL     1      -8.815  15.118  68.414  1.00  0.00    -0.168 N  
HETATM   11  C   UNL     1     -10.155  15.431  69.071  1.00  0.00    -0.234 C  
HETATM   12  C   UNL     1      -7.750  15.815  69.247  1.00  0.00    -0.224 C  
BRANCH  10  13
HETATM   13  C   UNL     1      -8.789  15.679  66.910  1.00  0.00    -0.250 C  
HETATM   14  C   UNL     1      -9.095  17.185  66.795  1.00  0.00    -0.266 A  
HETATM   15  C   UNL     1     -10.257  17.386  66.016  1.00  0.00    -0.308 A  
HETATM   16  C   UNL     1     -10.716  16.117  65.506  1.00  0.00    -0.355 A  
HETATM   17  C   UNL     1     -10.778  18.656  65.810  1.00  0.00    -0.224 A  
HETATM   18  C   UNL     1      -9.874  15.086  65.981  1.00  0.00    -0.347 A  
HETATM   19  C   UNL     1     -10.125  19.745  66.384  1.00  0.00    -0.600 A  
HETATM   20  C   UNL     1      -8.952  19.558  67.127  1.00  0.00    -0.363 A  
HETATM   21  C   UNL     1     -10.079  13.780  65.550  1.00  0.00    -0.303 A  
HETATM   22  C   UNL     1     -11.154  13.510  64.692  1.00  0.00    -0.383 A  
HETATM   23  C   UNL     1      -8.418  18.281  67.318  1.00  0.00    -0.250 A  
HETATM   24  C   UNL     1     -11.987  14.536  64.236  1.00  0.00    -0.419 A  
HETATM   25  C   UNL     1     -11.767  15.855  64.635  1.00  0.00    -0.117 A  
ENDBRANCH  10  13
ENDBRANCH   9  10
ENDBRANCH   8   9
ENDBRANCH   7   8
ENDBRANCH   6   7
ENDBRANCH   5   6
ENDBRANCH   4   5
ENDBRANCH   2   4
BRANCH   2  26
HETATM   26  C   UNL     1     -11.180   7.770  70.049  1.00  0.00    -0.117 C  
HETATM   27  C   UNL     1      -8.962   4.920  69.168  1.00  0.00    -0.132 A  
HETATM   28  C   UNL     1     -10.578   7.358  71.410  1.00  0.00    -0.232 A  
HETATM   29  C   UNL     1      -9.187   4.735  67.808  1.00  0.00    -0.145 A  
HETATM   30  C   UNL     1      -9.688   6.273  71.224  1.00  0.00    -0.193 A  
HETATM   31  C   UNL     1      -9.706   5.882  69.834  1.00  0.00    -0.208 A  
HETATM   32  C   UNL     1      -9.016   5.699  72.294  1.00  0.00    -0.141 A  
HETATM   33  C   UNL     1     -10.191   5.447  67.135  1.00  0.00    -0.266 A  
HETATM   34  C   UNL     1     -10.825   7.830  72.697  1.00  0.00    -0.413 A  
HETATM   35  C   UNL     1     -10.663   6.657  69.145  1.00  0.00    -0.304 A  
HETATM   36  C   UNL     1      -9.228   6.215  73.573  1.00  0.00    -0.133 A  
HETATM   37  C   UNL     1     -10.972   6.392  67.814  1.00  0.00    -0.425 A  
HETATM   38  C   UNL     1     -10.123   7.272  73.774  1.00  0.00    -0.375 A  
ENDBRANCH   2  26
TORSDOF 9
ENDMDL
MODEL      217
REMARK 921   NORMALIZED FREE ENERGY PREDICTED BY IDOCK:   -4.73 KCAL/MOL
REMARK 922        TOTAL FREE ENERGY PREDICTED BY IDOCK:   -8.99 KCAL/MOL
REMARK 923 INTER-LIGAND FREE ENERGY PREDICTED BY IDOCK:   -8.83 KCAL/MOL
REMARK 924 INTRA-LIGAND FREE ENERGY PREDICTED BY IDOCK:   -0.16 KCAL/MOL
REMARK 927      BINDING AFFINITY PREDICTED BY RF-SCORE:    0.00 PKD
ROOT
HETATM    1  C   UNL     1      -9.716  10.713  68.669  1.00  0.00    -0.178 C  
HETATM    2  N   UNL     1      -9.210  10.743  67.230  1.00  0.00    -0.147 N  
HETATM    3  C   UNL     1      -7.730  10.371  67.213  1.00  0.00    -0.099 C  
ENDROOT
BRANCH   2   4
HETATM    4  C   UNL     1     -10.034   9.784  66.396  1.00  0.00    -0.247 C  
BRANCH   4   5
HETATM    5  C   UNL     1      -9.341   8.491  65.966  1.00  0.00    -0.266 C  
BRANCH   5   6
HETATM    6  C   UNL     1      -9.924   7.317  66.764  1.00  0.00    -0.287 C  
BRANCH   6   7
HETATM    7  C   UNL     1      -9.395   5.938  66.329  1.00  0.00    -0.168 C  
BRANCH   7   8
HETATM    8  C   UNL     1      -8.972   5.034  67.497  1.00  0.00    -0.113 C  
BRANCH   8   9
HETATM    9  C   UNL     1      -7.889   5.753  68.302  1.00  0.00    -0.100 C  
BRANCH   9  10
HETATM   10  N   UNL     1      -8.021   5.652  69.813  1.00  0.00    -0.097 N  
HETATM   11  C   UNL     1      -9.013   4.564  70.210  1.00  0.00    -0.090 C  
HETATM   12  C   UNL     1      -6.699   5.297  70.478  1.00  0.00    -0.040 C  
BRANCH  10  13
HETATM   13  C   UNL     1      -8.529   7.084  70.334  1.00  0.00    -0.141 C  
HETATM   14  C   UNL     1      -7.823   7.575  71.613  1.00  0.00    -0.086 A  
HETATM   15  C   UNL     1      -8.764   7.739  72.654  1.00  0.00    -0.198 A  
HETATM   16  C   UNL     1     -10.090   7.483  72.146  1.00  0.00    -0.235 A  
HETATM   17  C   UNL     1      -8.372   8.120  73.929  1.00  0.00    -0.311 A  
HETATM   18  C   UNL     1     -10.009   7.119  70.782  1.00  0.00    -0.194 A  
HETATM   19  C   UNL     1      -7.018   8.349  74.169  1.00  0.00    -0.178 A  
HETATM   20  C   UNL     1      -6.083   8.226  73.133  1.00  0.00    -0.084 A  
HETATM   21  C   UNL     1     -11.177   6.903  70.059  1.00  0.00    -0.347 A  
HETATM   22  C   UNL     1     -12.411   7.001  70.718  1.00  0.00    -0.307 A  
HETATM   23  C   UNL     1      -6.483   7.860  71.844  1.00  0.00    -0.046 A  
HETATM   24  C   UNL     1     -12.478   7.352  72.071  1.00  0.00    -0.280 A  
HETATM   25  C   UNL     1     -11.313   7.605  72.794  1.00  0.00    -0.419 A  
ENDBRANCH  10  13
ENDBRANCH   9  10
ENDBRANCH   8   9
ENDBRANCH   7   8
ENDBRANCH   6   7
ENDBRANCH   5   6
ENDBRANCH   4   5
ENDBRANCH   2   4
BRANCH   2  26
HETATM   26  C   UNL     1      -9.402  12.214  66.598  1.00  0.00    -0.226 C  
HETATM   27  C   UNL     1     -12.537  12.880  64.716  1.00  0.00    -0.493 A  
HETATM   28  C   UNL     1     -10.153  13.211  67.506  1.00  0.00    -0.222 A  
HETATM   29  C   UNL     1     -12.368  12.174  63.531  1.00  0.00    -0.682 A  
HETATM   30  C   UNL     1     -11.392  13.550  66.913  1.00  0.00    -0.350 A  
HETATM   31  C   UNL     1     -11.493  12.899  65.628  1.00  0.00    -0.368 A  
HETATM   32  C   UNL     1     -12.264  14.441  67.522  1.00  0.00    -0.210 A  
HETATM   33  C   UNL     1     -11.147  11.555  63.223  1.00  0.00    -0.273 A  
HETATM   34  C   UNL     1      -9.774  13.819  68.701  1.00  0.00    -0.140 A  
HETATM   35  C   UNL     1     -10.290  12.211  65.359  1.00  0.00    -0.301 A  
HETATM   36  C   UNL     1     -11.900  15.005  68.746  1.00  0.00    -0.331 A  
HETATM   37  C   UNL     1     -10.076  11.605  64.125  1.00  0.00    -0.338 A  
HETATM   38  C   UNL     1     -10.667  14.696  69.331  1.00  0.00    -0.237 A  
ENDBRANCH   2  26
TORSDOF 9
ENDMDL
MODEL      218
REMARK 921   NORMALIZED FREE ENERGY PREDICTED BY IDOCK:   -4.73 KCAL/MOL
REMARK 922        TOTAL FREE ENERGY PREDICTED BY IDOCK:   -8.99 KCAL/MOL
REMARK 923 INTER-LIGAND FREE ENERGY PREDICTED BY IDOCK:  -10.04 KCAL/MOL
REMARK 924 INTRA-LIGAND FREE ENERGY PREDICTED BY IDOCK:    1.05 KCAL/MOL
REMARK 927      BINDING AFFINITY PREDICTED BY RF-SCORE:    0.00 PKD
ROOT
HETATM    1  C   UNL     1     -10.417   9.086  68.096  1.00  0.00    -0.207 C  
HETATM    2  N   UNL     1     -10.398   8.645  69.556  1.00  0.00    -0.211 N  
HETATM    3  C   UNL     1      -8.950   8.479  70.009  1.00  0.00    -0.142 C  
ENDROOT
BRANCH   2   4
HETATM    4  C   UNL     1     -11.127   9.675  70.394  1.00  0.00    -0.290 C  
BRANCH   4   5
HETATM    5  C   UNL     1     -11.610  10.926  69.661  1.00  0.00    -0.394 C  
BRANCH   5   6
HETATM    6  C   UNL     1     -12.123  11.946  70.687  1.00  0.00    -0.389 C  
BRANCH   6   7
HETATM    7  C   UNL     1     -12.118  13.401  70.184  1.00  0.00    -0.415 C  
BRANCH   7   8
HETATM    8  C   UNL     1     -10.792  13.836  69.542  1.00  0.00    -0.003 C  
BRANCH   8   9
HETATM    9  C   UNL     1     -10.462  12.870  68.404  1.00  0.00    -0.251 C  
BRANCH   9  10
HETATM   10  N   UNL     1      -9.011  12.862  67.952  1.00  0.00    -0.185 N  
HETATM   11  C   UNL     1      -8.124  13.632  68.926  1.00  0.00     0.093 C  
HETATM   12  C   UNL     1      -8.446  11.452  67.875  1.00  0.00    -0.139 C  
BRANCH  10  13
HETATM   13  C   UNL     1      -8.969  13.550  66.502  1.00  0.00    -0.044 C  
HETATM   14  C   UNL     1      -9.304  15.054  66.508  1.00  0.00    -0.309 A  
HETATM   15  C   UNL     1     -10.455  15.298  65.726  1.00  0.00    -0.365 A  
HETATM   16  C   UNL     1     -10.880  14.069  65.101  1.00  0.00    -0.376 A  
HETATM   17  C   UNL     1     -10.998  16.571  65.616  1.00  0.00    -0.053 A  
HETATM   18  C   UNL     1     -10.025  13.017  65.505  1.00  0.00    -0.226 A  
HETATM   19  C   UNL     1     -10.378  17.620  66.293  1.00  0.00    -0.342 A  
HETATM   20  C   UNL     1      -9.215  17.393  67.041  1.00  0.00    -0.252 A  
HETATM   21  C   UNL     1     -10.196  11.748  64.961  1.00  0.00    -0.314 A  
HETATM   22  C   UNL     1     -11.250  11.531  64.063  1.00  0.00    -0.414 A  
HETATM   23  C   UNL     1      -8.658  16.114  67.134  1.00  0.00    -0.211 A  
HETATM   24  C   UNL     1     -12.095  12.577  63.679  1.00  0.00    -0.642 A  
HETATM   25  C   UNL     1     -11.909  13.861  64.191  1.00  0.00    -0.417 A  
ENDBRANCH  10  13
ENDBRANCH   9  10
ENDBRANCH   8   9
ENDBRANCH   7   8
ENDBRANCH   6   7
ENDBRANCH   5   6
ENDBRANCH   4   5
ENDBRANCH   2   4
BRANCH   2  26
HETATM   26  C   UNL     1     -11.179   7.245  69.731  1.00  0.00    -0.126 C  
HETATM   27  C   UNL     1      -9.602   4.206  68.286  1.00  0.00    -0.191 A  
HETATM   28  C   UNL     1     -10.770   6.434  70.979  1.00  0.00    -0.301 A  
HETATM   29  C   UNL     1      -9.777   4.362  66.915  1.00  0.00    -0.233 A  
HETATM   30  C   UNL     1     -10.135   5.235  70.576  1.00  0.00    -0.315 A  
HETATM   31  C   UNL     1     -10.152   5.154  69.134  1.00  0.00    -0.274 A  
HETATM   32  C   UNL     1      -9.675   4.314  71.506  1.00  0.00    -0.244 A  
HETATM   33  C   UNL     1     -10.554   5.410  66.398  1.00  0.00    -0.322 A  
HETATM   34  C   UNL     1     -10.985   6.675  72.334  1.00  0.00    -0.277 A  
HETATM   35  C   UNL     1     -10.868   6.255  68.615  1.00  0.00    -0.401 A  
HETATM   36  C   UNL     1      -9.846   4.589  72.863  1.00  0.00    -0.185 A  
HETATM   37  C   UNL     1     -11.145   6.348  67.255  1.00  0.00    -0.416 A  
HETATM   38  C   UNL     1     -10.494   5.759  73.274  1.00  0.00    -0.255 A  
ENDBRANCH   2  26
TORSDOF 9
ENDMDL
MODEL      219
REMARK 921   NORMALIZED FREE ENERGY PREDICTED BY IDOCK:   -4.73 KCAL/MOL
REMARK 922        TOTAL FREE ENERGY PREDICTED BY IDOCK:   -8.99 KCAL/MOL
REMARK 923 INTER-LIGAND FREE ENERGY PREDICTED BY IDOCK:   -7.69 KCAL/MOL
REMARK 924 INTRA-LIGAND FREE ENERGY PREDICTED BY IDOCK:   -1.29 KCAL/MOL
REMARK 927      BINDING AFFINITY PREDICTED BY RF-SCORE:    0.00 PKD
ROOT
HETATM    1  C   UNL     1     -10.458  10.236  67.703  1.00  0.00    -0.239 C  
HETATM    2  N   UNL     1      -9.708  11.561  67.798  1.00  0.00    -0.171 N  
HETATM    3  C   UNL     1     -10.634  12.616  68.397  1.00  0.00    -0.243 C  
ENDROOT
BRANCH   2   4
HETATM    4  C   UNL     1      -8.466  11.367  68.643  1.00  0.00    -0.131 C  
BRANCH   4   5
HETATM    5  C   UNL     1      -8.320  10.011  69.333  1.00  0.00    -0.169 C  
BRANCH   5   6
HETATM    6  C   UNL     1      -7.150  10.073  70.324  1.00  0.00    -0.156 C  
BRANCH   6   7
HETATM    7  C   UNL     1      -6.640   8.694  70.781  1.00  0.00    -0.045 C  
BRANCH   7   8
HETATM    8  C   UNL     1      -6.774   8.446  72.292  1.00  0.00    -0.097 C  
BRANCH   8   9
HETATM    9  C   UNL     1      -6.709   6.940  72.545  1.00  0.00    -0.062 C  
BRANCH   9  10
HETATM   10  N   UNL     1      -7.670   6.411  73.597  1.00  0.00    -0.093 N  
HETATM   11  C   UNL     1      -7.006   5.353  74.472  1.00  0.00    -0.078 C  
HETATM   12  C   UNL     1      -8.149   7.509  74.535  1.00  0.00    -0.198 C  
BRANCH  10  13
HETATM   13  C   UNL     1      -8.919   5.778  72.812  1.00  0.00    -0.127 C  
HETATM   14  C   UNL     1      -8.537   5.027  71.522  1.00  0.00    -0.129 A  
HETATM   15  C   UNL     1      -9.148   5.639  70.404  1.00  0.00    -0.164 A  
HETATM   16  C   UNL     1     -10.008   6.707  70.854  1.00  0.00    -0.204 A  
HETATM   17  C   UNL     1      -8.916   5.184  69.114  1.00  0.00    -0.125 A  
HETATM   18  C   UNL     1      -9.928   6.814  72.262  1.00  0.00    -0.173 A  
HETATM   19  C   UNL     1      -8.063   4.096  68.935  1.00  0.00    -0.074 A  
HETATM   20  C   UNL     1      -7.482   3.460  70.040  1.00  0.00    -0.044 A  
HETATM   21  C   UNL     1     -10.737   7.729  72.927  1.00  0.00    -0.446 A  
HETATM   22  C   UNL     1     -11.577   8.563  72.176  1.00  0.00    -0.447 A  
HETATM   23  C   UNL     1      -7.733   3.908  71.341  1.00  0.00    -0.060 A  
HETATM   24  C   UNL     1     -11.639   8.456  70.783  1.00  0.00    -0.252 A  
HETATM   25  C   UNL     1     -10.858   7.516  70.111  1.00  0.00    -0.259 A  
ENDBRANCH  10  13
ENDBRANCH   9  10
ENDBRANCH   8   9
ENDBRANCH   7   8
ENDBRANCH   6   7
ENDBRANCH   5   6
ENDBRANCH   4   5
ENDBRANCH   2   4
BRANCH   2  26
HETATM   26  C   UNL     1      -9.224  12.039  66.336  1.00  0.00    -0.216 C  
HETATM   27  C   UNL     1      -9.247   9.514  63.608  1.00  0.00    -0.060 A  
HETATM   28  C   UNL     1     -10.359  12.529  65.412  1.00  0.00    -0.305 A  
HETATM   29  C   UNL     1      -8.171   8.688  63.914  1.00  0.00    -0.147 A  
HETATM   30  C   UNL     1     -10.494  11.642  64.318  1.00  0.00    -0.383 A  
HETATM   31  C   UNL     1      -9.474  10.623  64.408  1.00  0.00    -0.317 A  
HETATM   32  C   UNL     1     -11.441  11.857  63.327  1.00  0.00    -0.376 A  
HETATM   33  C   UNL     1      -7.289   9.002  64.959  1.00  0.00    -0.096 A  
HETATM   34  C   UNL     1     -11.158  13.669  65.474  1.00  0.00    -0.301 A  
HETATM   35  C   UNL     1      -8.636  10.901  65.510  1.00  0.00    -0.149 A  
HETATM   36  C   UNL     1     -12.274  12.973  63.426  1.00  0.00    -0.552 A  
HETATM   37  C   UNL     1      -7.493  10.144  65.745  1.00  0.00    -0.131 A  
HETATM   38  C   UNL     1     -12.135  13.870  64.490  1.00  0.00    -0.473 A  
ENDBRANCH   2  26
TORSDOF 9
ENDMDL
MODEL      220
REMARK 921   NORMALIZED FREE ENERGY PREDICTED BY IDOCK:   -4.73 KCAL/MOL
REMARK 922        TOTAL FREE ENERGY PREDICTED BY IDOCK:   -8.98 KCAL/MOL
REMARK 923 INTER-LIGAND FREE ENERGY PREDICTED BY IDOCK:   -8.01 KCAL/MOL
REMARK 924 INTRA-LIGAND FREE ENERGY PREDICTED BY IDOCK:   -0.97 KCAL/MOL
REMARK 927      BINDING AFFINITY PREDICTED BY RF-SCORE:    0.00 PKD
ROOT
HETATM    1  C   UNL     1      -9.085   9.471  64.322  1.00  0.00    -0.170 C  
HETATM    2  N   UNL     1      -9.098  10.175  65.675  1.00  0.00    -0.169 N  
HETATM    3  C   UNL     1     -10.462   9.975  66.329  1.00  0.00    -0.102 C  
ENDROOT
BRANCH   2   4
HETATM    4  C   UNL     1      -7.982   9.617  66.534  1.00  0.00    -0.112 C  
BRANCH   4   5
HETATM    5  C   UNL     1      -8.328   8.397  67.386  1.00  0.00    -0.124 C  
BRANCH   5   6
HETATM    6  C   UNL     1      -8.058   8.719  68.862  1.00  0.00    -0.114 C  
BRANCH   6   7
HETATM    7  C   UNL     1      -8.813   9.955  69.385  1.00  0.00    -0.195 C  
BRANCH   7   8
HETATM    8  C   UNL     1      -9.622   9.699  70.665  1.00  0.00    -0.214 C  
BRANCH   8   9
HETATM    9  C   UNL     1      -9.697   8.190  70.900  1.00  0.00    -0.166 C  
BRANCH   9  10
HETATM   10  N   UNL     1     -11.010   7.681  71.471  1.00  0.00    -0.231 N  
HETATM   11  C   UNL     1     -10.943   7.558  72.989  1.00  0.00    -0.390 C  
HETATM   12  C   UNL     1     -12.167   8.619  71.163  1.00  0.00    -0.238 C  
BRANCH  10  13
HETATM   13  C   UNL     1     -11.280   6.243  70.809  1.00  0.00    -0.324 C  
HETATM   14  C   UNL     1     -10.470   5.095  71.444  1.00  0.00    -0.249 A  
HETATM   15  C   UNL     1      -9.622   4.508  70.478  1.00  0.00    -0.274 A  
HETATM   16  C   UNL     1      -9.868   5.116  69.192  1.00  0.00    -0.257 A  
HETATM   17  C   UNL     1      -8.745   3.487  70.812  1.00  0.00    -0.125 A  
HETATM   18  C   UNL     1     -10.851   6.123  69.328  1.00  0.00    -0.418 A  
HETATM   19  C   UNL     1      -8.716   3.038  72.132  1.00  0.00    -0.104 A  
HETATM   20  C   UNL     1      -9.580   3.589  73.087  1.00  0.00    -0.149 A  
HETATM   21  C   UNL     1     -11.308   6.792  68.198  1.00  0.00    -0.022 A  
HETATM   22  C   UNL     1     -10.740   6.486  66.953  1.00  0.00    -0.403 A  
HETATM   23  C   UNL     1     -10.477   4.605  72.744  1.00  0.00    -0.261 A  
HETATM   24  C   UNL     1      -9.761   5.494  66.832  1.00  0.00    -0.163 A  
HETATM   25  C   UNL     1      -9.323   4.794  67.955  1.00  0.00    -0.168 A  
ENDBRANCH  10  13
ENDBRANCH   9  10
ENDBRANCH   8   9
ENDBRANCH   7   8
ENDBRANCH   6   7
ENDBRANCH   5   6
ENDBRANCH   4   5
ENDBRANCH   2   4
BRANCH   2  26
HETATM   26  C   UNL     1      -8.817  11.752  65.490  1.00  0.00     0.192 C  
HETATM   27  C   UNL     1     -11.651  14.082  66.091  1.00  0.00    -0.374 A  
HETATM   28  C   UNL     1      -8.402  12.486  66.783  1.00  0.00    -0.034 A  
HETATM   29  C   UNL     1     -12.473  13.895  64.985  1.00  0.00    -0.447 A  
HETATM   30  C   UNL     1      -9.409  13.412  67.146  1.00  0.00    -0.240 A  
HETATM   31  C   UNL     1     -10.446  13.399  66.140  1.00  0.00    -0.295 A  
HETATM   32  C   UNL     1      -9.281  14.214  68.271  1.00  0.00    -0.198 A  
HETATM   33  C   UNL     1     -12.067  13.094  63.907  1.00  0.00    -0.536 A  
HETATM   34  C   UNL     1      -7.235  12.410  67.540  1.00  0.00    -0.145 A  
HETATM   35  C   UNL     1     -10.068  12.530  65.094  1.00  0.00    -0.266 A  
HETATM   36  C   UNL     1      -8.132  14.092  69.054  1.00  0.00     0.043 A  
HETATM   37  C   UNL     1     -10.832  12.433  63.936  1.00  0.00    -0.465 A  
HETATM   38  C   UNL     1      -7.119  13.198  68.693  1.00  0.00    -0.103 A  
ENDBRANCH   2  26
TORSDOF 9
ENDMDL
MODEL      221
REMARK 921   NORMALIZED FREE ENERGY PREDICTED BY IDOCK:   -4.72 KCAL/MOL
REMARK 922        TOTAL FREE ENERGY PREDICTED BY IDOCK:   -8.97 KCAL/MOL
REMARK 923 INTER-LIGAND FREE ENERGY PREDICTED BY IDOCK:   -7.80 KCAL/MOL
REMARK 924 INTRA-LIGAND FREE ENERGY PREDICTED BY IDOCK:   -1.17 KCAL/MOL
REMARK 927      BINDING AFFINITY PREDICTED BY RF-SCORE:    0.00 PKD
ROOT
HETATM    1  C   UNL     1      -9.796  15.451  66.263  1.00  0.00    -0.297 C  
HETATM    2  N   UNL     1      -9.949  15.198  67.759  1.00  0.00    -0.224 N  
HETATM    3  C   UNL     1     -11.416  14.919  68.071  1.00  0.00    -0.337 C  
ENDROOT
BRANCH   2   4
HETATM    4  C   UNL     1      -9.064  14.035  68.157  1.00  0.00    -0.192 C  
BRANCH   4   5
HETATM    5  C   UNL     1      -9.482  12.658  67.641  1.00  0.00    -0.189 C  
BRANCH   5   6
HETATM    6  C   UNL     1     -10.440  12.010  68.649  1.00  0.00    -0.238 C  
BRANCH   6   7
HETATM    7  C   UNL     1     -11.500  11.094  68.011  1.00  0.00    -0.366 C  
BRANCH   7   8
HETATM    8  C   UNL     1     -10.954  10.187  66.897  1.00  0.00    -0.106 C  
BRANCH   8   9
HETATM    9  C   UNL     1     -10.690   8.800  67.485  1.00  0.00    -0.143 C  
BRANCH   9  10
HETATM   10  N   UNL     1      -9.501   8.057  66.898  1.00  0.00    -0.177 N  
HETATM   11  C   UNL     1      -9.890   6.647  66.463  1.00  0.00    -0.104 C  
HETATM   12  C   UNL     1      -8.946   8.752  65.664  1.00  0.00    -0.200 C  
BRANCH  10  13
HETATM   13  C   UNL     1      -8.378   7.994  68.043  1.00  0.00    -0.126 C  
HETATM   14  C   UNL     1      -8.940   7.819  69.468  1.00  0.00    -0.142 A  
HETATM   15  C   UNL     1      -8.582   8.925  70.271  1.00  0.00    -0.178 A  
HETATM   16  C   UNL     1      -7.724   9.806  69.516  1.00  0.00    -0.120 A  
HETATM   17  C   UNL     1      -9.015   9.035  71.584  1.00  0.00    -0.144 A  
HETATM   18  C   UNL     1      -7.554   9.292  68.210  1.00  0.00    -0.083 A  
HETATM   19  C   UNL     1      -9.816   8.021  72.109  1.00  0.00    -0.286 A  
HETATM   20  C   UNL     1     -10.145   6.904  71.331  1.00  0.00    -0.197 A  
HETATM   21  C   UNL     1      -6.696   9.938  67.325  1.00  0.00    -0.074 A  
HETATM   22  C   UNL     1      -6.061  11.118  67.736  1.00  0.00    -0.047 A  
HETATM   23  C   UNL     1      -9.691   6.785  70.014  1.00  0.00    -0.170 A  
HETATM   24  C   UNL     1      -6.245  11.623  69.028  1.00  0.00    -0.066 A  
HETATM   25  C   UNL     1      -7.075  10.962  69.933  1.00  0.00    -0.052 A  
ENDBRANCH  10  13
ENDBRANCH   9  10
ENDBRANCH   8   9
ENDBRANCH   7   8
ENDBRANCH   6   7
ENDBRANCH   5   6
ENDBRANCH   4   5
ENDBRANCH   2   4
BRANCH   2  26
HETATM   26  C   UNL     1      -9.456  16.483  68.599  1.00  0.00    -0.243 C  
HETATM   27  C   UNL     1      -5.917  17.546  68.195  1.00  0.00    -0.157 A  
HETATM   28  C   UNL     1      -9.575  17.826  67.847  1.00  0.00    -0.280 A  
HETATM   29  C   UNL     1      -5.199  16.572  68.881  1.00  0.00    -0.121 A  
HETATM   30  C   UNL     1      -8.282  18.351  67.608  1.00  0.00    -0.262 A  
HETATM   31  C   UNL     1      -7.301  17.481  68.214  1.00  0.00    -0.223 A  
HETATM   32  C   UNL     1      -8.104  19.561  66.953  1.00  0.00    -0.306 A  
HETATM   33  C   UNL     1      -5.852  15.588  69.638  1.00  0.00    -0.128 A  
HETATM   34  C   UNL     1     -10.695  18.560  67.462  1.00  0.00    -0.419 A  
HETATM   35  C   UNL     1      -7.964  16.447  68.910  1.00  0.00    -0.236 A  
HETATM   36  C   UNL     1      -9.230  20.263  66.522  1.00  0.00    -0.392 A  
HETATM   37  C   UNL     1      -7.252  15.543  69.692  1.00  0.00    -0.169 A  
HETATM   38  C   UNL     1     -10.515  19.767  66.773  1.00  0.00    -0.610 A  
ENDBRANCH   2  26
TORSDOF 9
ENDMDL
MODEL      222
REMARK 921   NORMALIZED FREE ENERGY PREDICTED BY IDOCK:   -4.72 KCAL/MOL
REMARK 922        TOTAL FREE ENERGY PREDICTED BY IDOCK:   -8.96 KCAL/MOL
REMARK 923 INTER-LIGAND FREE ENERGY PREDICTED BY IDOCK:   -7.74 KCAL/MOL
REMARK 924 INTRA-LIGAND FREE ENERGY PREDICTED BY IDOCK:   -1.23 KCAL/MOL
REMARK 927      BINDING AFFINITY PREDICTED BY RF-SCORE:    0.00 PKD
ROOT
HETATM    1  C   UNL     1     -10.548  10.324  70.595  1.00  0.00     0.035 C  
HETATM    2  N   UNL     1     -10.391   9.168  69.614  1.00  0.00    -0.211 N  
HETATM    3  C   UNL     1     -10.987   7.905  70.231  1.00  0.00    -0.248 C  
ENDROOT
BRANCH   2   4
HETATM    4  C   UNL     1     -11.077   9.527  68.312  1.00  0.00     0.009 C  
BRANCH   4   5
HETATM    5  C   UNL     1     -11.236  11.018  68.018  1.00  0.00    -0.372 C  
BRANCH   5   6
HETATM    6  C   UNL     1     -10.016  11.510  67.227  1.00  0.00    -0.212 C  
BRANCH   6   7
HETATM    7  C   UNL     1      -9.000  12.304  68.069  1.00  0.00    -0.190 C  
BRANCH   7   8
HETATM    8  C   UNL     1      -8.489  13.584  67.389  1.00  0.00    -0.203 C  
BRANCH   8   9
HETATM    9  C   UNL     1      -8.439  14.701  68.431  1.00  0.00    -0.160 C  
BRANCH   9  10
HETATM   10  N   UNL     1      -8.716  16.100  67.904  1.00  0.00    -0.173 N  
HETATM   11  C   UNL     1      -8.075  17.162  68.791  1.00  0.00    -0.252 C  
HETATM   12  C   UNL     1      -8.151  16.305  66.507  1.00  0.00    -0.302 C  
BRANCH  10  13
HETATM   13  C   UNL     1     -10.311  16.284  67.883  1.00  0.00    -0.285 C  
HETATM   14  C   UNL     1     -11.024  15.743  69.138  1.00  0.00    -0.265 A  
HETATM   15  C   UNL     1     -11.924  14.714  68.779  1.00  0.00    -0.301 A  
HETATM   16  C   UNL     1     -11.947  14.578  67.343  1.00  0.00    -0.367 A  
HETATM   17  C   UNL     1     -12.650  14.023  69.738  1.00  0.00    -0.128 A  
HETATM   18  C   UNL     1     -11.037  15.494  66.769  1.00  0.00    -0.206 A  
HETATM   19  C   UNL     1     -12.481  14.367  71.079  1.00  0.00    -0.425 A  
HETATM   20  C   UNL     1     -11.618  15.410  71.439  1.00  0.00    -0.461 A  
HETATM   21  C   UNL     1     -10.949  15.598  65.384  1.00  0.00    -0.342 A  
HETATM   22  C   UNL     1     -11.733  14.749  64.590  1.00  0.00    -0.426 A  
HETATM   23  C   UNL     1     -10.902  16.119  70.470  1.00  0.00    -0.199 A  
HETATM   24  C   UNL     1     -12.623  13.839  65.170  1.00  0.00    -0.471 A  
HETATM   25  C   UNL     1     -12.743  13.754  66.557  1.00  0.00    -0.073 A  
ENDBRANCH  10  13
ENDBRANCH   9  10
ENDBRANCH   8   9
ENDBRANCH   7   8
ENDBRANCH   6   7
ENDBRANCH   5   6
ENDBRANCH   4   5
ENDBRANCH   2   4
BRANCH   2  26
HETATM   26  C   UNL     1      -8.833   8.920  69.282  1.00  0.00    -0.139 C  
HETATM   27  C   UNL     1      -7.340   5.691  70.362  1.00  0.00    -0.079 A  
HETATM   28  C   UNL     1      -8.569   8.189  67.948  1.00  0.00    -0.132 A  
HETATM   29  C   UNL     1      -7.231   5.823  71.742  1.00  0.00    -0.091 A  
HETATM   30  C   UNL     1      -8.003   6.918  68.208  1.00  0.00    -0.119 A  
HETATM   31  C   UNL     1      -7.804   6.774  69.631  1.00  0.00    -0.115 A  
HETATM   32  C   UNL     1      -7.659   6.057  67.176  1.00  0.00    -0.092 A  
HETATM   33  C   UNL     1      -7.512   7.041  72.379  1.00  0.00    -0.085 A  
HETATM   34  C   UNL     1      -8.740   8.608  66.630  1.00  0.00    -0.137 A  
HETATM   35  C   UNL     1      -8.163   7.977  70.276  1.00  0.00    -0.123 A  
HETATM   36  C   UNL     1      -7.884   6.463  65.860  1.00  0.00    -0.102 A  
HETATM   37  C   UNL     1      -7.943   8.149  71.639  1.00  0.00    -0.144 A  
HETATM   38  C   UNL     1      -8.420   7.727  65.589  1.00  0.00    -0.153 A  
ENDBRANCH   2  26
TORSDOF 9
ENDMDL
MODEL      223
REMARK 921   NORMALIZED FREE ENERGY PREDICTED BY IDOCK:   -4.71 KCAL/MOL
REMARK 922        TOTAL FREE ENERGY PREDICTED BY IDOCK:   -8.96 KCAL/MOL
REMARK 923 INTER-LIGAND FREE ENERGY PREDICTED BY IDOCK:   -8.92 KCAL/MOL
REMARK 924 INTRA-LIGAND FREE ENERGY PREDICTED BY IDOCK:   -0.03 KCAL/MOL
REMARK 927      BINDING AFFINITY PREDICTED BY RF-SCORE:    0.00 PKD
ROOT
HETATM    1  C   UNL     1      -6.888   5.477  70.097  1.00  0.00    -0.052 C  
HETATM    2  N   UNL     1      -7.703   6.761  70.209  1.00  0.00    -0.099 N  
HETATM    3  C   UNL     1      -7.456   7.392  71.576  1.00  0.00    -0.080 C  
ENDROOT
BRANCH   2   4
HETATM    4  C   UNL     1      -7.309   7.697  69.085  1.00  0.00    -0.089 C  
BRANCH   4   5
HETATM    5  C   UNL     1      -5.989   8.447  69.259  1.00  0.00    -0.038 C  
BRANCH   5   6
HETATM    6  C   UNL     1      -5.970   9.660  68.319  1.00  0.00    -0.047 C  
BRANCH   6   7
HETATM    7  C   UNL     1      -6.314  10.994  69.007  1.00  0.00    -0.048 C  
BRANCH   7   8
HETATM    8  C   UNL     1      -7.810  11.340  68.990  1.00  0.00    -0.079 C  
BRANCH   8   9
HETATM    9  C   UNL     1      -7.992  12.678  68.272  1.00  0.00    -0.153 C  
BRANCH   9  10
HETATM   10  N   UNL     1      -9.390  12.950  67.741  1.00  0.00    -0.195 N  
HETATM   11  C   UNL     1     -10.152  11.652  67.497  1.00  0.00    -0.191 C  
HETATM   12  C   UNL     1     -10.224  13.764  68.719  1.00  0.00    -0.163 C  
BRANCH  10  13
HETATM   13  C   UNL     1      -9.217  13.758  66.364  1.00  0.00    -0.137 C  
HETATM   14  C   UNL     1      -9.269  15.291  66.523  1.00  0.00    -0.321 A  
HETATM   15  C   UNL     1     -10.353  15.818  65.785  1.00  0.00    -0.390 A  
HETATM   16  C   UNL     1     -10.993  14.755  65.048  1.00  0.00    -0.426 A  
HETATM   17  C   UNL     1     -10.652  17.173  65.808  1.00  0.00    -0.201 A  
HETATM   18  C   UNL     1     -10.348  13.530  65.335  1.00  0.00    -0.329 A  
HETATM   19  C   UNL     1      -9.853  18.018  66.576  1.00  0.00    -0.353 A  
HETATM   20  C   UNL     1      -8.754  17.509  67.281  1.00  0.00    -0.236 A  
HETATM   21  C   UNL     1     -10.747  12.374  64.672  1.00  0.00    -0.339 A  
HETATM   22  C   UNL     1     -11.819  12.444  63.771  1.00  0.00    -0.587 A  
HETATM   23  C   UNL     1      -8.443  16.147  67.241  1.00  0.00    -0.203 A  
HETATM   24  C   UNL     1     -12.456  13.660  63.503  1.00  0.00    -0.152 A  
HETATM   25  C   UNL     1     -12.039  14.831  64.137  1.00  0.00    -0.323 A  
ENDBRANCH  10  13
ENDBRANCH   9  10
ENDBRANCH   8   9
ENDBRANCH   7   8
ENDBRANCH   6   7
ENDBRANCH   5   6
ENDBRANCH   4   5
ENDBRANCH   2   4
BRANCH   2  26
HETATM   26  C   UNL     1      -9.275   6.444  70.040  1.00  0.00    -0.156 C  
HETATM   27  C   UNL     1     -11.095   5.145  73.010  1.00  0.00    -0.379 A  
HETATM   28  C   UNL     1     -10.210   7.613  70.420  1.00  0.00    -0.203 A  
HETATM   29  C   UNL     1     -10.640   3.837  73.129  1.00  0.00    -0.268 A  
HETATM   30  C   UNL     1     -10.968   7.261  71.562  1.00  0.00    -0.259 A  
HETATM   31  C   UNL     1     -10.655   5.900  71.934  1.00  0.00    -0.280 A  
HETATM   32  C   UNL     1     -11.897   8.133  72.109  1.00  0.00    -0.417 A  
HETATM   33  C   UNL     1      -9.815   3.263  72.150  1.00  0.00    -0.237 A  
HETATM   34  C   UNL     1     -10.433   8.841  69.800  1.00  0.00    -0.222 A  
HETATM   35  C   UNL     1      -9.761   5.354  70.988  1.00  0.00    -0.235 A  
HETATM   36  C   UNL     1     -12.076   9.383  71.514  1.00  0.00    -0.456 A  
HETATM   37  C   UNL     1      -9.400   4.011  71.041  1.00  0.00    -0.219 A  
HETATM   38  C   UNL     1     -11.349   9.734  70.370  1.00  0.00    -0.362 A  
ENDBRANCH   2  26
TORSDOF 9
ENDMDL
MODEL      224
REMARK 921   NORMALIZED FREE ENERGY PREDICTED BY IDOCK:   -4.71 KCAL/MOL
REMARK 922        TOTAL FREE ENERGY PREDICTED BY IDOCK:   -8.96 KCAL/MOL
REMARK 923 INTER-LIGAND FREE ENERGY PREDICTED BY IDOCK:   -8.76 KCAL/MOL
REMARK 924 INTRA-LIGAND FREE ENERGY PREDICTED BY IDOCK:   -0.19 KCAL/MOL
REMARK 927      BINDING AFFINITY PREDICTED BY RF-SCORE:    0.00 PKD
ROOT
HETATM    1  C   UNL     1      -9.778   7.894  69.534  1.00  0.00    -0.173 C  
HETATM    2  N   UNL     1      -9.624   6.757  68.529  1.00  0.00    -0.130 N  
HETATM    3  C   UNL     1     -10.103   5.457  69.169  1.00  0.00    -0.223 C  
ENDROOT
BRANCH   2   4
HETATM    4  C   UNL     1     -10.417   7.088  67.282  1.00  0.00    -0.293 C  
BRANCH   4   5
HETATM    5  C   UNL     1     -10.628   8.572  66.987  1.00  0.00    -0.305 C  
BRANCH   5   6
HETATM    6  C   UNL     1      -9.548   9.050  66.007  1.00  0.00    -0.342 C  
BRANCH   6   7
HETATM    7  C   UNL     1      -9.997  10.201  65.088  1.00  0.00    -0.379 C  
BRANCH   7   8
HETATM    8  C   UNL     1      -9.816  11.598  65.701  1.00  0.00    -0.270 C  
BRANCH   8   9
HETATM    9  C   UNL     1     -11.117  11.996  66.398  1.00  0.00    -0.318 C  
BRANCH   9  10
HETATM   10  N   UNL     1     -10.974  12.452  67.841  1.00  0.00    -0.217 N  
HETATM   11  C   UNL     1     -11.435  11.370  68.812  1.00  0.00    -0.290 C  
HETATM   12  C   UNL     1      -9.529  12.767  68.198  1.00  0.00    -0.219 C  
BRANCH  10  13
HETATM   13  C   UNL     1     -11.878  13.768  68.008  1.00  0.00    -0.373 C  
HETATM   14  C   UNL     1     -11.339  15.002  67.259  1.00  0.00    -0.337 A  
HETATM   15  C   UNL     1     -11.050  16.038  68.175  1.00  0.00    -0.344 A  
HETATM   16  C   UNL     1     -11.448  15.629  69.501  1.00  0.00    -0.349 A  
HETATM   17  C   UNL     1     -10.496  17.240  67.757  1.00  0.00    -0.371 A  
HETATM   18  C   UNL     1     -11.964  14.314  69.452  1.00  0.00    -0.381 A  
HETATM   19  C   UNL     1     -10.231  17.415  66.400  1.00  0.00    -0.339 A  
HETATM   20  C   UNL     1     -10.549  16.407  65.480  1.00  0.00    -0.346 A  
HETATM   21  C   UNL     1     -12.487  13.740  70.606  1.00  0.00    -0.429 A  
HETATM   22  C   UNL     1     -12.441  14.464  71.805  1.00  0.00    -0.414 A  
HETATM   23  C   UNL     1     -11.125  15.205  65.901  1.00  0.00    -0.319 A  
HETATM   24  C   UNL     1     -11.919  15.761  71.843  1.00  0.00    -0.552 A  
HETATM   25  C   UNL     1     -11.425  16.358  70.684  1.00  0.00    -0.179 A  
ENDBRANCH  10  13
ENDBRANCH   9  10
ENDBRANCH   8   9
ENDBRANCH   7   8
ENDBRANCH   6   7
ENDBRANCH   5   6
ENDBRANCH   4   5
ENDBRANCH   2   4
BRANCH   2  26
HETATM   26  C   UNL     1      -8.080   6.601  68.089  1.00  0.00    -0.111 C  
HETATM   27  C   UNL     1      -6.024   4.085  69.892  1.00  0.00    -0.018 A  
HETATM   28  C   UNL     1      -7.825   5.521  67.016  1.00  0.00    -0.101 A  
HETATM   29  C   UNL     1      -5.817   4.660  71.141  1.00  0.00    -0.017 A  
HETATM   30  C   UNL     1      -7.052   4.475  67.573  1.00  0.00    -0.065 A  
HETATM   31  C   UNL     1      -6.709   4.816  68.935  1.00  0.00    -0.050 A  
HETATM   32  C   UNL     1      -6.670   3.377  66.816  1.00  0.00    -0.049 A  
HETATM   33  C   UNL     1      -6.224   5.976  71.410  1.00  0.00    -0.043 A  
HETATM   34  C   UNL     1      -8.171   5.475  65.667  1.00  0.00    -0.127 A  
HETATM   35  C   UNL     1      -7.191   6.110  69.225  1.00  0.00    -0.082 A  
HETATM   36  C   UNL     1      -7.068   3.313  65.480  1.00  0.00    -0.062 A  
HETATM   37  C   UNL     1      -6.882   6.732  70.431  1.00  0.00    -0.062 A  
HETATM   38  C   UNL     1      -7.813   4.352  64.910  1.00  0.00    -0.085 A  
ENDBRANCH   2  26
TORSDOF 9
ENDMDL
MODEL      225
REMARK 921   NORMALIZED FREE ENERGY PREDICTED BY IDOCK:   -4.71 KCAL/MOL
REMARK 922        TOTAL FREE ENERGY PREDICTED BY IDOCK:   -8.96 KCAL/MOL
REMARK 923 INTER-LIGAND FREE ENERGY PREDICTED BY IDOCK:   -8.30 KCAL/MOL
REMARK 924 INTRA-LIGAND FREE ENERGY PREDICTED BY IDOCK:   -0.66 KCAL/MOL
REMARK 927      BINDING AFFINITY PREDICTED BY RF-SCORE:    0.00 PKD
ROOT
HETATM    1  C   UNL     1     -12.835  15.082  70.228  1.00  0.00    -0.229 C  
HETATM    2  N   UNL     1     -11.552  14.943  69.416  1.00  0.00    -0.291 N  
HETATM    3  C   UNL     1     -10.415  15.644  70.155  1.00  0.00    -0.303 C  
ENDROOT
BRANCH   2   4
HETATM    4  C   UNL     1     -11.255  13.472  69.208  1.00  0.00    -0.231 C  
BRANCH   4   5
HETATM    5  C   UNL     1     -11.942  12.499  70.166  1.00  0.00    -0.377 C  
BRANCH   5   6
HETATM    6  C   UNL     1     -11.564  11.062  69.784  1.00  0.00    -0.401 C  
BRANCH   6   7
HETATM    7  C   UNL     1     -11.897  10.691  68.327  1.00  0.00     0.007 C  
BRANCH   7   8
HETATM    8  C   UNL     1     -10.709  10.115  67.542  1.00  0.00    -0.347 C  
BRANCH   8   9
HETATM    9  C   UNL     1      -9.415  10.664  68.143  1.00  0.00    -0.154 C  
BRANCH   9  10
HETATM   10  N   UNL     1      -8.273  10.871  67.161  1.00  0.00    -0.123 N  
HETATM   11  C   UNL     1      -8.769  10.829  65.719  1.00  0.00    -0.186 C  
HETATM   12  C   UNL     1      -7.598  12.222  67.347  1.00  0.00    -0.159 C  
BRANCH  10  13
HETATM   13  C   UNL     1      -7.216   9.690  67.418  1.00  0.00    -0.086 C  
HETATM   14  C   UNL     1      -7.515   8.396  66.636  1.00  0.00    -0.082 A  
HETATM   15  C   UNL     1      -7.741   7.328  67.533  1.00  0.00    -0.111 A  
HETATM   16  C   UNL     1      -7.521   7.783  68.885  1.00  0.00    -0.095 A  
HETATM   17  C   UNL     1      -8.087   6.063  67.079  1.00  0.00    -0.106 A  
HETATM   18  C   UNL     1      -7.186   9.157  68.870  1.00  0.00    -0.073 A  
HETATM   19  C   UNL     1      -8.203   5.858  65.705  1.00  0.00    -0.130 A  
HETATM   20  C   UNL     1      -7.945   6.902  64.807  1.00  0.00    -0.119 A  
HETATM   21  C   UNL     1      -6.851   9.794  70.060  1.00  0.00    -0.097 A  
HETATM   22  C   UNL     1      -6.905   9.066  71.257  1.00  0.00    -0.088 A  
HETATM   23  C   UNL     1      -7.578   8.170  65.266  1.00  0.00    -0.095 A  
HETATM   24  C   UNL     1      -7.247   7.710  71.261  1.00  0.00    -0.062 A  
HETATM   25  C   UNL     1      -7.550   7.055  70.068  1.00  0.00    -0.099 A  
ENDBRANCH  10  13
ENDBRANCH   9  10
ENDBRANCH   8   9
ENDBRANCH   7   8
ENDBRANCH   6   7
ENDBRANCH   5   6
ENDBRANCH   4   5
ENDBRANCH   2   4
BRANCH   2  26
HETATM   26  C   UNL     1     -11.734  15.605  67.957  1.00  0.00    -0.153 C  
HETATM   27  C   UNL     1      -8.656  16.593  66.123  1.00  0.00    -0.324 A  
HETATM   28  C   UNL     1     -11.685  14.602  66.786  1.00  0.00    -0.355 A  
HETATM   29  C   UNL     1      -8.215  17.724  66.801  1.00  0.00    -0.275 A  
HETATM   30  C   UNL     1     -10.538  14.853  65.995  1.00  0.00    -0.321 A  
HETATM   31  C   UNL     1      -9.848  16.009  66.520  1.00  0.00    -0.284 A  
HETATM   32  C   UNL     1     -10.259  14.095  64.867  1.00  0.00    -0.371 A  
HETATM   33  C   UNL     1      -8.988  18.309  67.816  1.00  0.00    -0.273 A  
HETATM   34  C   UNL     1     -12.580  13.607  66.399  1.00  0.00    -0.289 A  
HETATM   35  C   UNL     1     -10.592  16.547  67.592  1.00  0.00    -0.321 A  
HETATM   36  C   UNL     1     -11.133  13.065  64.518  1.00  0.00    -0.378 A  
HETATM   37  C   UNL     1     -10.214  17.743  68.193  1.00  0.00    -0.383 A  
HETATM   38  C   UNL     1     -12.283  12.821  65.277  1.00  0.00    -0.535 A  
ENDBRANCH   2  26
TORSDOF 9
ENDMDL
MODEL      226
REMARK 921   NORMALIZED FREE ENERGY PREDICTED BY IDOCK:   -4.70 KCAL/MOL
REMARK 922        TOTAL FREE ENERGY PREDICTED BY IDOCK:   -8.93 KCAL/MOL
REMARK 923 INTER-LIGAND FREE ENERGY PREDICTED BY IDOCK:   -8.75 KCAL/MOL
REMARK 924 INTRA-LIGAND FREE ENERGY PREDICTED BY IDOCK:   -0.18 KCAL/MOL
REMARK 927      BINDING AFFINITY PREDICTED BY RF-SCORE:    0.00 PKD
ROOT
HETATM    1  C   UNL     1      -7.652   4.168  69.811  1.00  0.00    -0.053 C  
HETATM    2  N   UNL     1      -8.282   5.509  70.173  1.00  0.00    -0.100 N  
HETATM    3  C   UNL     1      -7.571   6.081  71.396  1.00  0.00    -0.099 C  
ENDROOT
BRANCH   2   4
HETATM    4  C   UNL     1      -8.179   6.440  68.983  1.00  0.00    -0.115 C  
BRANCH   4   5
HETATM    5  C   UNL     1      -6.813   7.081  68.739  1.00  0.00    -0.076 C  
BRANCH   5   6
HETATM    6  C   UNL     1      -6.978   8.277  67.793  1.00  0.00    -0.078 C  
BRANCH   6   7
HETATM    7  C   UNL     1      -6.480   9.613  68.374  1.00  0.00    -0.052 C  
BRANCH   7   8
HETATM    8  C   UNL     1      -7.521  10.349  69.231  1.00  0.00    -0.120 C  
BRANCH   8   9
HETATM    9  C   UNL     1      -7.855  11.679  68.556  1.00  0.00    -0.140 C  
BRANCH   9  10
HETATM   10  N   UNL     1      -9.045  11.652  67.611  1.00  0.00    -0.169 N  
HETATM   11  C   UNL     1      -8.598  11.485  66.162  1.00  0.00    -0.094 C  
HETATM   12  C   UNL     1      -9.984  10.493  67.910  1.00  0.00    -0.169 C  
BRANCH  10  13
HETATM   13  C   UNL     1      -9.820  13.046  67.795  1.00  0.00    -0.224 C  
HETATM   14  C   UNL     1     -10.817  13.367  66.665  1.00  0.00    -0.285 A  
HETATM   15  C   UNL     1     -10.442  14.562  66.011  1.00  0.00    -0.315 A  
HETATM   16  C   UNL     1      -9.301  15.137  66.682  1.00  0.00    -0.291 A  
HETATM   17  C   UNL     1     -11.149  15.040  64.916  1.00  0.00    -0.425 A  
HETATM   18  C   UNL     1      -8.913  14.299  67.752  1.00  0.00    -0.188 A  
HETATM   19  C   UNL     1     -12.254  14.316  64.470  1.00  0.00    -0.476 A  
HETATM   20  C   UNL     1     -12.655  13.151  65.136  1.00  0.00    -0.525 A  
HETATM   21  C   UNL     1      -7.879  14.696  68.594  1.00  0.00    -0.138 A  
HETATM   22  C   UNL     1      -7.211  15.898  68.327  1.00  0.00    -0.118 A  
HETATM   23  C   UNL     1     -11.953  12.682  66.250  1.00  0.00    -0.439 A  
HETATM   24  C   UNL     1      -7.598  16.715  67.259  1.00  0.00    -0.199 A  
HETATM   25  C   UNL     1      -8.656  16.342  66.431  1.00  0.00    -0.358 A  
ENDBRANCH  10  13
ENDBRANCH   9  10
ENDBRANCH   8   9
ENDBRANCH   7   8
ENDBRANCH   6   7
ENDBRANCH   5   6
ENDBRANCH   4   5
ENDBRANCH   2   4
BRANCH   2  26
HETATM   26  C   UNL     1      -9.850   5.322  70.501  1.00  0.00    -0.207 C  
HETATM   27  C   UNL     1     -10.807   4.763  74.049  1.00  0.00    -0.322 A  
HETATM   28  C   UNL     1     -10.586   6.626  70.877  1.00  0.00    -0.263 A  
HETATM   29  C   UNL     1     -10.394   3.459  74.301  1.00  0.00    -0.245 A  
HETATM   30  C   UNL     1     -11.004   6.561  72.228  1.00  0.00    -0.281 A  
HETATM   31  C   UNL     1     -10.657   5.265  72.766  1.00  0.00    -0.276 A  
HETATM   32  C   UNL     1     -11.701   7.604  72.820  1.00  0.00    -0.276 A  
HETATM   33  C   UNL     1      -9.906   2.641  73.271  1.00  0.00    -0.161 A  
HETATM   34  C   UNL     1     -10.922   7.738  70.108  1.00  0.00    -0.246 A  
HETATM   35  C   UNL     1     -10.094   4.473  71.743  1.00  0.00    -0.254 A  
HETATM   36  C   UNL     1     -11.986   8.737  72.057  1.00  0.00    -0.446 A  
HETATM   37  C   UNL     1      -9.791   3.133  71.964  1.00  0.00    -0.241 A  
HETATM   38  C   UNL     1     -11.599   8.805  70.713  1.00  0.00    -0.288 A  
ENDBRANCH   2  26
TORSDOF 9
ENDMDL
MODEL      227
REMARK 921   NORMALIZED FREE ENERGY PREDICTED BY IDOCK:   -4.69 KCAL/MOL
REMARK 922        TOTAL FREE ENERGY PREDICTED BY IDOCK:   -8.92 KCAL/MOL
REMARK 923 INTER-LIGAND FREE ENERGY PREDICTED BY IDOCK:   -8.78 KCAL/MOL
REMARK 924 INTRA-LIGAND FREE ENERGY PREDICTED BY IDOCK:   -0.14 KCAL/MOL
REMARK 927      BINDING AFFINITY PREDICTED BY RF-SCORE:    0.00 PKD
ROOT
HETATM    1  C   UNL     1     -11.631   6.500  69.997  1.00  0.00    -0.390 C  
HETATM    2  N   UNL     1     -10.264   6.407  69.327  1.00  0.00    -0.181 N  
HETATM    3  C   UNL     1     -10.399   5.626  68.022  1.00  0.00    -0.202 C  
ENDROOT
BRANCH   2   4
HETATM    4  C   UNL     1      -9.735   7.805  69.086  1.00  0.00    -0.161 C  
BRANCH   4   5
HETATM    5  C   UNL     1      -9.171   8.086  67.694  1.00  0.00    -0.145 C  
BRANCH   5   6
HETATM    6  C   UNL     1      -8.233   9.298  67.765  1.00  0.00    -0.115 C  
BRANCH   6   7
HETATM    7  C   UNL     1      -8.287  10.210  66.525  1.00  0.00    -0.124 C  
BRANCH   7   8
HETATM    8  C   UNL     1      -9.703  10.682  66.158  1.00  0.00    -0.253 C  
BRANCH   8   9
HETATM    9  C   UNL     1      -9.626  12.139  65.700  1.00  0.00    -0.165 C  
BRANCH   9  10
HETATM   10  N   UNL     1     -10.509  13.112  66.465  1.00  0.00    -0.276 N  
HETATM   11  C   UNL     1     -10.523  14.485  65.802  1.00  0.00    -0.323 C  
HETATM   12  C   UNL     1     -11.955  12.644  66.524  1.00  0.00    -0.331 C  
BRANCH  10  13
HETATM   13  C   UNL     1      -9.907  13.219  67.950  1.00  0.00    -0.234 C  
HETATM   14  C   UNL     1     -10.825  13.949  68.950  1.00  0.00    -0.278 A  
HETATM   15  C   UNL     1     -10.179  15.102  69.450  1.00  0.00    -0.244 A  
HETATM   16  C   UNL     1      -8.834  15.160  68.930  1.00  0.00    -0.205 A  
HETATM   17  C   UNL     1     -10.819  15.966  70.327  1.00  0.00    -0.349 A  
HETATM   18  C   UNL     1      -8.617  14.064  68.064  1.00  0.00    -0.179 A  
HETATM   19  C   UNL     1     -12.124  15.672  70.719  1.00  0.00    -0.454 A  
HETATM   20  C   UNL     1     -12.758  14.511  70.257  1.00  0.00    -0.325 A  
HETATM   21  C   UNL     1      -7.358  13.870  67.506  1.00  0.00    -0.181 A  
HETATM   22  C   UNL     1      -6.345  14.801  67.777  1.00  0.00    -0.172 A  
HETATM   23  C   UNL     1     -12.105  13.632  69.389  1.00  0.00    -0.364 A  
HETATM   24  C   UNL     1      -6.575  15.888  68.627  1.00  0.00    -0.118 A  
HETATM   25  C   UNL     1      -7.824  16.070  69.219  1.00  0.00    -0.222 A  
ENDBRANCH  10  13
ENDBRANCH   9  10
ENDBRANCH   8   9
ENDBRANCH   7   8
ENDBRANCH   6   7
ENDBRANCH   5   6
ENDBRANCH   4   5
ENDBRANCH   2   4
BRANCH   2  26
HETATM   26  C   UNL     1      -9.214   5.657  70.295  1.00  0.00    -0.151 C  
HETATM   27  C   UNL     1     -10.175   5.217  73.858  1.00  0.00    -0.256 A  
HETATM   28  C   UNL     1      -9.428   4.133  70.416  1.00  0.00    -0.247 A  
HETATM   29  C   UNL     1     -10.060   6.496  74.392  1.00  0.00    -0.371 A  
HETATM   30  C   UNL     1      -9.818   3.814  71.739  1.00  0.00    -0.244 A  
HETATM   31  C   UNL     1      -9.811   5.019  72.536  1.00  0.00    -0.200 A  
HETATM   32  C   UNL     1     -10.065   2.504  72.122  1.00  0.00    -0.213 A  
HETATM   33  C   UNL     1      -9.520   7.550  73.640  1.00  0.00    -0.338 A  
HETATM   34  C   UNL     1      -9.241   3.110  69.490  1.00  0.00    -0.222 A  
HETATM   35  C   UNL     1      -9.341   6.093  71.750  1.00  0.00    -0.159 A  
HETATM   36  C   UNL     1      -9.928   1.490  71.173  1.00  0.00    -0.104 A  
HETATM   37  C   UNL     1      -9.114   7.344  72.315  1.00  0.00    -0.160 A  
HETATM   38  C   UNL     1      -9.521   1.790  69.868  1.00  0.00    -0.128 A  
ENDBRANCH   2  26
TORSDOF 9
ENDMDL
MODEL      228
REMARK 921   NORMALIZED FREE ENERGY PREDICTED BY IDOCK:   -4.68 KCAL/MOL
REMARK 922        TOTAL FREE ENERGY PREDICTED BY IDOCK:   -8.91 KCAL/MOL
REMARK 923 INTER-LIGAND FREE ENERGY PREDICTED BY IDOCK:   -8.43 KCAL/MOL
REMARK 924 INTRA-LIGAND FREE ENERGY PREDICTED BY IDOCK:   -0.49 KCAL/MOL
REMARK 927      BINDING AFFINITY PREDICTED BY RF-SCORE:    0.00 PKD
ROOT
HETATM    1  C   UNL     1     -12.064  13.045  69.757  1.00  0.00    -0.258 C  
HETATM    2  N   UNL     1     -11.038  14.053  69.249  1.00  0.00    -0.248 N  
HETATM    3  C   UNL     1     -10.642  14.982  70.394  1.00  0.00    -0.045 C  
ENDROOT
BRANCH   2   4
HETATM    4  C   UNL     1      -9.840  13.305  68.701  1.00  0.00    -0.091 C  
BRANCH   4   5
HETATM    5  C   UNL     1      -9.997  11.793  68.545  1.00  0.00    -0.203 C  
BRANCH   5   6
HETATM    6  C   UNL     1      -9.018  11.291  67.475  1.00  0.00    -0.140 C  
BRANCH   6   7
HETATM    7  C   UNL     1      -9.686  10.513  66.326  1.00  0.00    -0.254 C  
BRANCH   7   8
HETATM    8  C   UNL     1      -9.842   9.009  66.598  1.00  0.00    -0.316 C  
BRANCH   8   9
HETATM    9  C   UNL     1      -9.238   8.696  67.967  1.00  0.00    -0.140 C  
BRANCH   9  10
HETATM   10  N   UNL     1     -10.045   7.747  68.838  1.00  0.00    -0.190 N  
HETATM   11  C   UNL     1     -10.947   8.512  69.801  1.00  0.00    -0.127 C  
HETATM   12  C   UNL     1     -10.956   6.851  68.011  1.00  0.00    -0.166 C  
BRANCH  10  13
HETATM   13  C   UNL     1      -8.992   6.853  69.655  1.00  0.00    -0.144 C  
HETATM   14  C   UNL     1      -8.370   5.705  68.835  1.00  0.00    -0.103 A  
HETATM   15  C   UNL     1      -8.691   4.460  69.421  1.00  0.00    -0.121 A  
HETATM   16  C   UNL     1      -9.415   4.682  70.650  1.00  0.00    -0.242 A  
HETATM   17  C   UNL     1      -8.296   3.264  68.840  1.00  0.00    -0.082 A  
HETATM   18  C   UNL     1      -9.595   6.071  70.845  1.00  0.00    -0.196 A  
HETATM   19  C   UNL     1      -7.561   3.310  67.656  1.00  0.00    -0.062 A  
HETATM   20  C   UNL     1      -7.207   4.541  67.088  1.00  0.00    -0.073 A  
HETATM   21  C   UNL     1     -10.201   6.526  72.012  1.00  0.00    -0.212 A  
HETATM   22  C   UNL     1     -10.666   5.589  72.945  1.00  0.00    -0.290 A  
HETATM   23  C   UNL     1      -7.590   5.745  67.686  1.00  0.00    -0.089 A  
HETATM   24  C   UNL     1     -10.491   4.217  72.736  1.00  0.00    -0.249 A  
HETATM   25  C   UNL     1      -9.853   3.753  71.586  1.00  0.00    -0.240 A  
ENDBRANCH  10  13
ENDBRANCH   9  10
ENDBRANCH   8   9
ENDBRANCH   7   8
ENDBRANCH   6   7
ENDBRANCH   5   6
ENDBRANCH   4   5
ENDBRANCH   2   4
BRANCH   2  26
HETATM   26  C   UNL     1     -11.655  14.923  68.040  1.00  0.00    -0.341 C  
HETATM   27  C   UNL     1      -9.273  16.756  65.853  1.00  0.00    -0.142 A  
HETATM   28  C   UNL     1     -11.759  14.170  66.696  1.00  0.00    -0.422 A  
HETATM   29  C   UNL     1      -8.834  17.807  66.651  1.00  0.00    -0.282 A  
HETATM   30  C   UNL     1     -10.883  14.760  65.755  1.00  0.00    -0.334 A  
HETATM   31  C   UNL     1     -10.245  15.907  66.358  1.00  0.00    -0.311 A  
HETATM   32  C   UNL     1     -10.788  14.279  64.457  1.00  0.00    -0.305 A  
HETATM   33  C   UNL     1      -9.408  18.053  67.907  1.00  0.00    -0.264 A  
HETATM   34  C   UNL     1     -12.582  13.117  66.303  1.00  0.00    -0.030 A  
HETATM   35  C   UNL     1     -10.771  16.103  67.654  1.00  0.00    -0.318 A  
HETATM   36  C   UNL     1     -11.577  13.188  64.087  1.00  0.00    -0.460 A  
HETATM   37  C   UNL     1     -10.419  17.220  68.404  1.00  0.00    -0.381 A  
HETATM   38  C   UNL     1     -12.465  12.611  65.001  1.00  0.00    -0.556 A  
ENDBRANCH   2  26
TORSDOF 9
ENDMDL
MODEL      229
REMARK 921   NORMALIZED FREE ENERGY PREDICTED BY IDOCK:   -4.68 KCAL/MOL
REMARK 922        TOTAL FREE ENERGY PREDICTED BY IDOCK:   -8.90 KCAL/MOL
REMARK 923 INTER-LIGAND FREE ENERGY PREDICTED BY IDOCK:   -8.97 KCAL/MOL
REMARK 924 INTRA-LIGAND FREE ENERGY PREDICTED BY IDOCK:    0.07 KCAL/MOL
REMARK 927      BINDING AFFINITY PREDICTED BY RF-SCORE:    0.00 PKD
ROOT
HETATM    1  C   UNL     1      -6.133   7.105  69.637  1.00  0.00    -0.030 C  
HETATM    2  N   UNL     1      -7.316   7.578  70.476  1.00  0.00    -0.074 N  
HETATM    3  C   UNL     1      -6.845   7.827  71.906  1.00  0.00    -0.060 C  
ENDROOT
BRANCH   2   4
HETATM    4  C   UNL     1      -7.892   8.834  69.854  1.00  0.00    -0.093 C  
BRANCH   4   5
HETATM    5  C   UNL     1      -7.454   9.145  68.424  1.00  0.00    -0.082 C  
BRANCH   5   6
HETATM    6  C   UNL     1      -6.719  10.492  68.403  1.00  0.00    -0.060 C  
BRANCH   6   7
HETATM    7  C   UNL     1      -7.627  11.708  68.667  1.00  0.00    -0.133 C  
BRANCH   7   8
HETATM    8  C   UNL     1      -6.886  13.054  68.665  1.00  0.00    -0.099 C  
BRANCH   8   9
HETATM    9  C   UNL     1      -7.544  13.970  67.633  1.00  0.00    -0.179 C  
BRANCH   9  10
HETATM   10  N   UNL     1      -7.631  15.437  68.021  1.00  0.00    -0.120 N  
HETATM   11  C   UNL     1      -7.075  15.673  69.421  1.00  0.00    -0.198 C  
HETATM   12  C   UNL     1      -6.828  16.324  67.081  1.00  0.00    -0.207 C  
BRANCH  10  13
HETATM   13  C   UNL     1      -9.184  15.843  67.965  1.00  0.00    -0.192 C  
HETATM   14  C   UNL     1      -9.962  15.197  66.802  1.00  0.00    -0.246 A  
HETATM   15  C   UNL     1     -10.478  16.198  65.948  1.00  0.00    -0.366 A  
HETATM   16  C   UNL     1     -10.185  17.498  66.503  1.00  0.00    -0.342 A  
HETATM   17  C   UNL     1     -11.172  15.873  64.791  1.00  0.00    -0.364 A  
HETATM   18  C   UNL     1      -9.449  17.343  67.700  1.00  0.00    -0.251 A  
HETATM   19  C   UNL     1     -11.362  14.527  64.484  1.00  0.00    -0.323 A  
HETATM   20  C   UNL     1     -10.886  13.529  65.345  1.00  0.00    -0.299 A  
HETATM   21  C   UNL     1      -9.124  18.466  68.454  1.00  0.00    -0.340 A  
HETATM   22  C   UNL     1      -9.491  19.733  67.978  1.00  0.00    -0.466 A  
HETATM   23  C   UNL     1     -10.204  13.858  66.519  1.00  0.00    -0.280 A  
HETATM   24  C   UNL     1     -10.210  19.873  66.787  1.00  0.00    -0.603 A  
HETATM   25  C   UNL     1     -10.572  18.751  66.043  1.00  0.00    -0.442 A  
ENDBRANCH  10  13
ENDBRANCH   9  10
ENDBRANCH   8   9
ENDBRANCH   7   8
ENDBRANCH   6   7
ENDBRANCH   5   6
ENDBRANCH   4   5
ENDBRANCH   2   4
BRANCH   2  26
HETATM   26  C   UNL     1      -8.483   6.466  70.480  1.00  0.00    -0.138 C  
HETATM   27  C   UNL     1     -11.986   7.655  70.849  1.00  0.00    -0.252 A  
HETATM   28  C   UNL     1      -9.101   6.179  69.094  1.00  0.00    -0.128 A  
HETATM   29  C   UNL     1     -12.067   8.034  72.184  1.00  0.00    -0.391 A  
HETATM   30  C   UNL     1     -10.452   6.599  69.082  1.00  0.00    -0.250 A  
HETATM   31  C   UNL     1     -10.805   7.087  70.395  1.00  0.00    -0.283 A  
HETATM   32  C   UNL     1     -11.246   6.446  67.955  1.00  0.00    -0.262 A  
HETATM   33  C   UNL     1     -11.012   7.784  73.075  1.00  0.00    -0.442 A  
HETATM   34  C   UNL     1      -8.566   5.553  67.970  1.00  0.00    -0.100 A  
HETATM   35  C   UNL     1      -9.711   6.905  71.269  1.00  0.00    -0.175 A  
HETATM   36  C   UNL     1     -10.686   5.867  66.815  1.00  0.00    -0.371 A  
HETATM   37  C   UNL     1      -9.832   7.174  72.628  1.00  0.00    -0.197 A  
HETATM   38  C   UNL     1      -9.359   5.426  66.821  1.00  0.00    -0.136 A  
ENDBRANCH   2  26
TORSDOF 9
ENDMDL
MODEL      230
REMARK 921   NORMALIZED FREE ENERGY PREDICTED BY IDOCK:   -4.68 KCAL/MOL
REMARK 922        TOTAL FREE ENERGY PREDICTED BY IDOCK:   -8.90 KCAL/MOL
REMARK 923 INTER-LIGAND FREE ENERGY PREDICTED BY IDOCK:   -8.61 KCAL/MOL
REMARK 924 INTRA-LIGAND FREE ENERGY PREDICTED BY IDOCK:   -0.30 KCAL/MOL
REMARK 927      BINDING AFFINITY PREDICTED BY RF-SCORE:    0.00 PKD
ROOT
HETATM    1  C   UNL     1      -8.417  17.444  68.373  1.00  0.00    -0.263 C  
HETATM    2  N   UNL     1      -8.974  16.237  67.625  1.00  0.00    -0.192 N  
HETATM    3  C   UNL     1      -8.561  16.324  66.159  1.00  0.00    -0.307 C  
ENDROOT
BRANCH   2   4
HETATM    4  C   UNL     1      -8.455  14.971  68.275  1.00  0.00    -0.147 C  
BRANCH   4   5
HETATM    5  C   UNL     1      -8.233  13.776  67.348  1.00  0.00    -0.194 C  
BRANCH   5   6
HETATM    6  C   UNL     1      -8.236  12.485  68.179  1.00  0.00    -0.170 C  
BRANCH   6   7
HETATM    7  C   UNL     1      -7.741  11.244  67.415  1.00  0.00    -0.128 C  
BRANCH   7   8
HETATM    8  C   UNL     1      -8.070   9.912  68.105  1.00  0.00    -0.104 C  
BRANCH   8   9
HETATM    9  C   UNL     1      -6.768   9.140  68.321  1.00  0.00    -0.060 C  
BRANCH   9  10
HETATM   10  N   UNL     1      -6.807   7.669  67.939  1.00  0.00    -0.066 N  
HETATM   11  C   UNL     1      -6.117   7.427  66.601  1.00  0.00    -0.043 C  
HETATM   12  C   UNL     1      -6.093   6.796  68.959  1.00  0.00    -0.026 C  
BRANCH  10  13
HETATM   13  C   UNL     1      -8.355   7.252  67.848  1.00  0.00    -0.119 C  
HETATM   14  C   UNL     1      -8.920   6.646  69.147  1.00  0.00    -0.131 A  
HETATM   15  C   UNL     1      -9.361   5.323  68.914  1.00  0.00    -0.163 A  
HETATM   16  C   UNL     1      -9.223   5.013  67.511  1.00  0.00    -0.129 A  
HETATM   17  C   UNL     1      -9.862   4.537  69.941  1.00  0.00    -0.298 A  
HETATM   18  C   UNL     1      -8.660   6.122  66.838  1.00  0.00    -0.109 A  
HETATM   19  C   UNL     1      -9.931   5.080  71.223  1.00  0.00    -0.264 A  
HETATM   20  C   UNL     1      -9.532   6.402  71.456  1.00  0.00    -0.162 A  
HETATM   21  C   UNL     1      -8.509   6.079  65.456  1.00  0.00    -0.151 A  
HETATM   22  C   UNL     1      -8.872   4.913  64.769  1.00  0.00    -0.147 A  
HETATM   23  C   UNL     1      -9.045   7.200  70.415  1.00  0.00    -0.156 A  
HETATM   24  C   UNL     1      -9.418   3.818  65.448  1.00  0.00    -0.168 A  
HETATM   25  C   UNL     1      -9.606   3.865  66.829  1.00  0.00    -0.222 A  
ENDBRANCH  10  13
ENDBRANCH   9  10
ENDBRANCH   8   9
ENDBRANCH   7   8
ENDBRANCH   6   7
ENDBRANCH   5   6
ENDBRANCH   4   5
ENDBRANCH   2   4
BRANCH   2  26
HETATM   26  C   UNL     1     -10.583  16.204  67.730  1.00  0.00    -0.309 C  
HETATM   27  C   UNL     1     -12.285  12.980  67.009  1.00  0.00    -0.217 A  
HETATM   28  C   UNL     1     -11.128  15.778  69.109  1.00  0.00    -0.283 A  
HETATM   29  C   UNL     1     -12.172  12.848  65.629  1.00  0.00    -0.519 A  
HETATM   30  C   UNL     1     -11.801  14.538  68.989  1.00  0.00    -0.354 A  
HETATM   31  C   UNL     1     -11.805  14.137  67.602  1.00  0.00    -0.427 A  
HETATM   32  C   UNL     1     -12.397  13.931  70.086  1.00  0.00    -0.400 A  
HETATM   33  C   UNL     1     -11.654  13.886  64.841  1.00  0.00    -0.365 A  
HETATM   34  C   UNL     1     -11.103  16.429  70.341  1.00  0.00    -0.246 A  
HETATM   35  C   UNL     1     -11.210  15.152  66.822  1.00  0.00    -0.285 A  
HETATM   36  C   UNL     1     -12.320  14.565  71.327  1.00  0.00    -0.418 A  
HETATM   37  C   UNL     1     -11.203  15.073  65.433  1.00  0.00    -0.356 A  
HETATM   38  C   UNL     1     -11.678  15.802  71.454  1.00  0.00    -0.508 A  
ENDBRANCH   2  26
TORSDOF 9
ENDMDL
MODEL      231
REMARK 921   NORMALIZED FREE ENERGY PREDICTED BY IDOCK:   -4.68 KCAL/MOL
REMARK 922        TOTAL FREE ENERGY PREDICTED BY IDOCK:   -8.90 KCAL/MOL
REMARK 923 INTER-LIGAND FREE ENERGY PREDICTED BY IDOCK:   -8.62 KCAL/MOL
REMARK 924 INTRA-LIGAND FREE ENERGY PREDICTED BY IDOCK:   -0.28 KCAL/MOL
REMARK 927      BINDING AFFINITY PREDICTED BY RF-SCORE:    0.00 PKD
ROOT
HETATM    1  C   UNL     1      -8.586  12.737  68.507  1.00  0.00    -0.048 C  
HETATM    2  N   UNL     1      -9.531  12.395  67.360  1.00  0.00    -0.182 N  
HETATM    3  C   UNL     1      -9.315  10.940  66.953  1.00  0.00    -0.168 C  
ENDROOT
BRANCH   2   4
HETATM    4  C   UNL     1     -10.958  12.642  67.804  1.00  0.00    -0.234 C  
BRANCH   4   5
HETATM    5  C   UNL     1     -11.279  12.320  69.263  1.00  0.00    -0.275 C  
BRANCH   5   6
HETATM    6  C   UNL     1     -12.112  11.033  69.324  1.00  0.00    -0.363 C  
BRANCH   6   7
HETATM    7  C   UNL     1     -12.560  10.640  70.744  1.00  0.00    -0.479 C  
BRANCH   7   8
HETATM    8  C   UNL     1     -11.561   9.741  71.489  1.00  0.00    -0.424 C  
BRANCH   8   9
HETATM    9  C   UNL     1     -11.536   8.373  70.806  1.00  0.00    -0.255 C  
BRANCH   9  10
HETATM   10  N   UNL     1     -11.052   7.219  71.671  1.00  0.00    -0.231 N  
HETATM   11  C   UNL     1     -10.380   7.725  72.943  1.00  0.00    -0.334 C  
HETATM   12  C   UNL     1     -12.197   6.320  72.114  1.00  0.00    -0.203 C  
BRANCH  10  13
HETATM   13  C   UNL     1     -10.007   6.380  70.787  1.00  0.00    -0.185 C  
HETATM   14  C   UNL     1      -9.373   5.186  71.526  1.00  0.00    -0.187 A  
HETATM   15  C   UNL     1      -7.972   5.352  71.606  1.00  0.00    -0.116 A  
HETATM   16  C   UNL     1      -7.589   6.541  70.881  1.00  0.00    -0.089 A  
HETATM   17  C   UNL     1      -7.172   4.438  72.276  1.00  0.00    -0.063 A  
HETATM   18  C   UNL     1      -8.745   7.166  70.360  1.00  0.00    -0.150 A  
HETATM   19  C   UNL     1      -7.779   3.334  72.873  1.00  0.00    -0.060 A  
HETATM   20  C   UNL     1      -9.163   3.142  72.767  1.00  0.00    -0.126 A  
HETATM   21  C   UNL     1      -8.611   8.292  69.554  1.00  0.00    -0.134 A  
HETATM   22  C   UNL     1      -7.330   8.810  69.321  1.00  0.00    -0.070 A  
HETATM   23  C   UNL     1      -9.964   4.054  72.074  1.00  0.00    -0.246 A  
HETATM   24  C   UNL     1      -6.194   8.188  69.850  1.00  0.00    -0.032 A  
HETATM   25  C   UNL     1      -6.317   7.039  70.630  1.00  0.00    -0.043 A  
ENDBRANCH  10  13
ENDBRANCH   9  10
ENDBRANCH   8   9
ENDBRANCH   7   8
ENDBRANCH   6   7
ENDBRANCH   5   6
ENDBRANCH   4   5
ENDBRANCH   2   4
BRANCH   2  26
HETATM   26  C   UNL     1      -9.250  13.354  66.095  1.00  0.00     0.029 C  
HETATM   27  C   UNL     1     -12.189  14.541  64.153  1.00  0.00    -0.372 A  
HETATM   28  C   UNL     1      -9.295  14.864  66.412  1.00  0.00    -0.327 A  
HETATM   29  C   UNL     1     -12.604  13.410  63.458  1.00  0.00    -0.126 A  
HETATM   30  C   UNL     1     -10.391  15.456  65.739  1.00  0.00    -0.381 A  
HETATM   31  C   UNL     1     -11.046  14.453  64.932  1.00  0.00    -0.404 A  
HETATM   32  C   UNL     1     -10.656  16.814  65.846  1.00  0.00    -0.255 A  
HETATM   33  C   UNL     1     -11.850  12.227  63.480  1.00  0.00    -0.601 A  
HETATM   34  C   UNL     1      -8.433  15.665  67.157  1.00  0.00    -0.234 A  
HETATM   35  C   UNL     1     -10.326  13.242  65.021  1.00  0.00    -0.355 A  
HETATM   36  C   UNL     1      -9.818  17.599  66.639  1.00  0.00    -0.309 A  
HETATM   37  C   UNL     1     -10.672  12.147  64.235  1.00  0.00    -0.380 A  
HETATM   38  C   UNL     1      -8.718  17.031  67.290  1.00  0.00    -0.212 A  
ENDBRANCH   2  26
TORSDOF 9
ENDMDL
MODEL      232
REMARK 921   NORMALIZED FREE ENERGY PREDICTED BY IDOCK:   -4.67 KCAL/MOL
REMARK 922        TOTAL FREE ENERGY PREDICTED BY IDOCK:   -8.89 KCAL/MOL
REMARK 923 INTER-LIGAND FREE ENERGY PREDICTED BY IDOCK:   -8.85 KCAL/MOL
REMARK 924 INTRA-LIGAND FREE ENERGY PREDICTED BY IDOCK:   -0.04 KCAL/MOL
REMARK 927      BINDING AFFINITY PREDICTED BY RF-SCORE:    0.00 PKD
ROOT
HETATM    1  C   UNL     1      -9.793   7.881  70.777  1.00  0.00    -0.180 C  
HETATM    2  N   UNL     1      -9.566   6.500  70.170  1.00  0.00    -0.160 N  
HETATM    3  C   UNL     1     -10.897   5.756  70.111  1.00  0.00    -0.313 C  
ENDROOT
BRANCH   2   4
HETATM    4  C   UNL     1      -8.957   6.660  68.792  1.00  0.00    -0.125 C  
BRANCH   4   5
HETATM    5  C   UNL     1      -9.830   7.345  67.740  1.00  0.00    -0.187 C  
BRANCH   5   6
HETATM    6  C   UNL     1      -8.990   8.387  66.989  1.00  0.00    -0.161 C  
BRANCH   6   7
HETATM    7  C   UNL     1      -9.759   9.140  65.888  1.00  0.00    -0.336 C  
BRANCH   7   8
HETATM    8  C   UNL     1      -9.821  10.661  66.097  1.00  0.00    -0.268 C  
BRANCH   8   9
HETATM    9  C   UNL     1     -11.151  11.006  66.769  1.00  0.00    -0.172 C  
BRANCH   9  10
HETATM   10  N   UNL     1     -11.043  11.608  68.161  1.00  0.00    -0.224 N  
HETATM   11  C   UNL     1     -11.683  10.701  69.207  1.00  0.00    -0.264 C  
HETATM   12  C   UNL     1      -9.596  11.807  68.586  1.00  0.00    -0.115 C  
BRANCH  10  13
HETATM   13  C   UNL     1     -11.801  13.023  68.117  1.00  0.00    -0.340 C  
HETATM   14  C   UNL     1     -11.155  14.054  67.171  1.00  0.00    -0.313 A  
HETATM   15  C   UNL     1     -10.735  15.188  67.902  1.00  0.00    -0.268 A  
HETATM   16  C   UNL     1     -11.139  15.045  69.280  1.00  0.00    -0.280 A  
HETATM   17  C   UNL     1     -10.070  16.239  67.286  1.00  0.00    -0.264 A  
HETATM   18  C   UNL     1     -11.790  13.803  69.452  1.00  0.00    -0.392 A  
HETATM   19  C   UNL     1      -9.825  16.161  65.916  1.00  0.00    -0.384 A  
HETATM   20  C   UNL     1     -10.270  15.058  65.178  1.00  0.00    -0.399 A  
HETATM   21  C   UNL     1     -12.340  13.483  70.690  1.00  0.00    -0.432 A  
HETATM   22  C   UNL     1     -12.186  14.384  71.753  1.00  0.00    -0.357 A  
HETATM   23  C   UNL     1     -10.957  14.009  65.796  1.00  0.00    -0.294 A  
HETATM   24  C   UNL     1     -11.530  15.606  71.573  1.00  0.00    -0.494 A  
HETATM   25  C   UNL     1     -11.008  15.950  70.326  1.00  0.00    -0.370 A  
ENDBRANCH  10  13
ENDBRANCH   9  10
ENDBRANCH   8   9
ENDBRANCH   7   8
ENDBRANCH   6   7
ENDBRANCH   5   6
ENDBRANCH   4   5
ENDBRANCH   2   4
BRANCH   2  26
HETATM   26  C   UNL     1      -8.519   5.659  71.061  1.00  0.00    -0.122 C  
HETATM   27  C   UNL     1      -7.410   7.156  74.278  1.00  0.00    -0.112 A  
HETATM   28  C   UNL     1      -9.169   4.742  72.120  1.00  0.00    -0.155 A  
HETATM   29  C   UNL     1      -6.558   8.184  73.888  1.00  0.00    -0.138 A  
HETATM   30  C   UNL     1      -8.838   5.206  73.415  1.00  0.00    -0.113 A  
HETATM   31  C   UNL     1      -7.948   6.337  73.297  1.00  0.00    -0.105 A  
HETATM   32  C   UNL     1      -9.289   4.553  74.553  1.00  0.00    -0.133 A  
HETATM   33  C   UNL     1      -6.189   8.349  72.544  1.00  0.00    -0.074 A  
HETATM   34  C   UNL     1      -9.921   3.577  71.979  1.00  0.00    -0.227 A  
HETATM   35  C   UNL     1      -7.642   6.548  71.935  1.00  0.00    -0.094 A  
HETATM   36  C   UNL     1     -10.087   3.418  74.403  1.00  0.00    -0.203 A  
HETATM   37  C   UNL     1      -6.700   7.499  71.555  1.00  0.00    -0.049 A  
HETATM   38  C   UNL     1     -10.401   2.935  73.128  1.00  0.00    -0.234 A  
ENDBRANCH   2  26
TORSDOF 9
ENDMDL
MODEL      233
REMARK 921   NORMALIZED FREE ENERGY PREDICTED BY IDOCK:   -4.67 KCAL/MOL
REMARK 922        TOTAL FREE ENERGY PREDICTED BY IDOCK:   -8.89 KCAL/MOL
REMARK 923 INTER-LIGAND FREE ENERGY PREDICTED BY IDOCK:   -8.01 KCAL/MOL
REMARK 924 INTRA-LIGAND FREE ENERGY PREDICTED BY IDOCK:   -0.88 KCAL/MOL
REMARK 927      BINDING AFFINITY PREDICTED BY RF-SCORE:    0.00 PKD
ROOT
HETATM    1  C   UNL     1     -12.078  15.588  64.045  1.00  0.00     0.074 C  
HETATM    2  N   UNL     1     -11.860  14.380  64.951  1.00  0.00    -0.396 N  
HETATM    3  C   UNL     1     -13.140  13.549  64.990  1.00  0.00     0.005 C  
ENDROOT
BRANCH   2   4
HETATM    4  C   UNL     1     -10.690  13.574  64.429  1.00  0.00    -0.388 C  
BRANCH   4   5
HETATM    5  C   UNL     1     -11.027  12.232  63.779  1.00  0.00    -0.495 C  
BRANCH   5   6
HETATM    6  C   UNL     1      -9.779  11.338  63.791  1.00  0.00    -0.330 C  
BRANCH   6   7
HETATM    7  C   UNL     1      -9.391  10.819  65.188  1.00  0.00    -0.254 C  
BRANCH   7   8
HETATM    8  C   UNL     1      -9.822   9.370  65.459  1.00  0.00    -0.231 C  
BRANCH   8   9
HETATM    9  C   UNL     1      -9.053   8.853  66.675  1.00  0.00    -0.156 C  
BRANCH   9  10
HETATM   10  N   UNL     1      -8.091   7.708  66.402  1.00  0.00    -0.109 N  
HETATM   11  C   UNL     1      -8.560   6.859  65.225  1.00  0.00     0.006 C  
HETATM   12  C   UNL     1      -6.698   8.206  66.048  1.00  0.00    -0.053 C  
BRANCH  10  13
HETATM   13  C   UNL     1      -8.032   6.819  67.738  1.00  0.00    -0.113 C  
HETATM   14  C   UNL     1      -8.144   5.302  67.491  1.00  0.00    -0.100 A  
HETATM   15  C   UNL     1      -9.289   4.788  68.138  1.00  0.00    -0.172 A  
HETATM   16  C   UNL     1      -9.923   5.839  68.898  1.00  0.00    -0.211 A  
HETATM   17  C   UNL     1      -9.647   3.452  68.022  1.00  0.00    -0.160 A  
HETATM   18  C   UNL     1      -9.208   7.045  68.716  1.00  0.00    -0.132 A  
HETATM   19  C   UNL     1      -8.844   2.612  67.252  1.00  0.00    -0.161 A  
HETATM   20  C   UNL     1      -7.686   3.106  66.638  1.00  0.00    -0.077 A  
HETATM   21  C   UNL     1      -9.592   8.182  69.421  1.00  0.00    -0.167 A  
HETATM   22  C   UNL     1     -10.716   8.114  70.256  1.00  0.00    -0.235 A  
HETATM   23  C   UNL     1      -7.317   4.448  66.772  1.00  0.00    -0.080 A  
HETATM   24  C   UNL     1     -11.420   6.917  70.420  1.00  0.00    -0.387 A  
HETATM   25  C   UNL     1     -11.021   5.764  69.745  1.00  0.00    -0.397 A  
ENDBRANCH  10  13
ENDBRANCH   9  10
ENDBRANCH   8   9
ENDBRANCH   7   8
ENDBRANCH   6   7
ENDBRANCH   5   6
ENDBRANCH   4   5
ENDBRANCH   2   4
BRANCH   2  26
HETATM   26  C   UNL     1     -11.485  14.858  66.445  1.00  0.00    -0.280 C  
HETATM   27  C   UNL     1      -8.852  12.951  68.247  1.00  0.00    -0.168 A  
HETATM   28  C   UNL     1     -10.313  15.861  66.522  1.00  0.00    -0.304 A  
HETATM   29  C   UNL     1      -9.478  11.752  68.573  1.00  0.00    -0.165 A  
HETATM   30  C   UNL     1      -9.217  15.257  67.183  1.00  0.00    -0.223 A  
HETATM   31  C   UNL     1      -9.600  13.934  67.619  1.00  0.00    -0.215 A  
HETATM   32  C   UNL     1      -8.033  15.949  67.395  1.00  0.00    -0.187 A  
HETATM   33  C   UNL     1     -10.849  11.563  68.342  1.00  0.00    -0.250 A  
HETATM   34  C   UNL     1     -10.224  17.192  66.119  1.00  0.00    -0.343 A  
HETATM   35  C   UNL     1     -10.961  13.720  67.312  1.00  0.00    -0.302 A  
HETATM   36  C   UNL     1      -7.933  17.264  66.940  1.00  0.00    -0.257 A  
HETATM   37  C   UNL     1     -11.616  12.570  67.743  1.00  0.00    -0.401 A  
HETATM   38  C   UNL     1      -9.018  17.880  66.306  1.00  0.00    -0.192 A  
ENDBRANCH   2  26
TORSDOF 9
ENDMDL
MODEL      234
REMARK 921   NORMALIZED FREE ENERGY PREDICTED BY IDOCK:   -4.66 KCAL/MOL
REMARK 922        TOTAL FREE ENERGY PREDICTED BY IDOCK:   -8.88 KCAL/MOL
REMARK 923 INTER-LIGAND FREE ENERGY PREDICTED BY IDOCK:   -7.76 KCAL/MOL
REMARK 924 INTRA-LIGAND FREE ENERGY PREDICTED BY IDOCK:   -1.12 KCAL/MOL
REMARK 927      BINDING AFFINITY PREDICTED BY RF-SCORE:    0.00 PKD
ROOT
HETATM    1  C   UNL     1     -11.703  12.524  66.676  1.00  0.00    -0.387 C  
HETATM    2  N   UNL     1     -10.615  11.622  67.249  1.00  0.00    -0.219 N  
HETATM    3  C   UNL     1     -11.050  10.165  67.109  1.00  0.00    -0.050 C  
ENDROOT
BRANCH   2   4
HETATM    4  C   UNL     1      -9.316  11.887  66.515  1.00  0.00    -0.216 C  
BRANCH   4   5
HETATM    5  C   UNL     1      -8.043  11.859  67.360  1.00  0.00    -0.165 C  
BRANCH   5   6
HETATM    6  C   UNL     1      -7.496  10.426  67.402  1.00  0.00    -0.094 C  
BRANCH   6   7
HETATM    7  C   UNL     1      -6.079  10.311  67.994  1.00  0.00    -0.051 C  
BRANCH   7   8
HETATM    8  C   UNL     1      -5.232   9.188  67.377  1.00  0.00    -0.037 C  
BRANCH   8   9
HETATM    9  C   UNL     1      -5.613   7.867  68.048  1.00  0.00    -0.033 C  
BRANCH   9  10
HETATM   10  N   UNL     1      -6.080   6.767  67.109  1.00  0.00    -0.028 N  
HETATM   11  C   UNL     1      -5.360   6.843  65.766  1.00  0.00    -0.023 C  
HETATM   12  C   UNL     1      -5.802   5.381  67.671  1.00  0.00    -0.017 C  
BRANCH  10  13
HETATM   13  C   UNL     1      -7.659   6.968  66.903  1.00  0.00    -0.094 C  
HETATM   14  C   UNL     1      -8.500   6.682  68.162  1.00  0.00    -0.116 A  
HETATM   15  C   UNL     1      -9.397   5.618  67.916  1.00  0.00    -0.112 A  
HETATM   16  C   UNL     1      -9.296   5.217  66.533  1.00  0.00    -0.146 A  
HETATM   17  C   UNL     1     -10.229   5.129  68.913  1.00  0.00    -0.221 A  
HETATM   18  C   UNL     1      -8.307   5.996  65.889  1.00  0.00    -0.138 A  
HETATM   19  C   UNL     1     -10.171   5.714  70.176  1.00  0.00    -0.318 A  
HETATM   20  C   UNL     1      -9.310   6.793  70.419  1.00  0.00    -0.163 A  
HETATM   21  C   UNL     1      -8.092   5.838  64.524  1.00  0.00    -0.132 A  
HETATM   22  C   UNL     1      -8.828   4.868  63.829  1.00  0.00    -0.072 A  
HETATM   23  C   UNL     1      -8.487   7.298  69.408  1.00  0.00    -0.133 A  
HETATM   24  C   UNL     1      -9.797   4.097  64.480  1.00  0.00    -0.168 A  
HETATM   25  C   UNL     1     -10.044   4.273  65.841  1.00  0.00    -0.223 A  
ENDBRANCH  10  13
ENDBRANCH   9  10
ENDBRANCH   8   9
ENDBRANCH   7   8
ENDBRANCH   6   7
ENDBRANCH   5   6
ENDBRANCH   4   5
ENDBRANCH   2   4
BRANCH   2  26
HETATM   26  C   UNL     1     -10.365  11.961  68.805  1.00  0.00    -0.165 C  
HETATM   27  C   UNL     1     -12.579  14.491  70.390  1.00  0.00    -0.405 A  
HETATM   28  C   UNL     1     -11.209  11.123  69.788  1.00  0.00    -0.318 A  
HETATM   29  C   UNL     1     -12.143  15.696  69.850  1.00  0.00    -0.360 A  
HETATM   30  C   UNL     1     -12.122  11.967  70.465  1.00  0.00    -0.422 A  
HETATM   31  C   UNL     1     -11.898  13.332  70.051  1.00  0.00    -0.365 A  
HETATM   32  C   UNL     1     -12.998  11.466  71.417  1.00  0.00    -0.468 A  
HETATM   33  C   UNL     1     -10.998  15.757  69.042  1.00  0.00    -0.262 A  
HETATM   34  C   UNL     1     -11.151   9.770  70.117  1.00  0.00    -0.335 A  
HETATM   35  C   UNL     1     -10.792  13.377  69.175  1.00  0.00    -0.156 A  
HETATM   36  C   UNL     1     -12.970  10.100  71.701  1.00  0.00    -0.561 A  
HETATM   37  C   UNL     1     -10.284  14.593  68.730  1.00  0.00    -0.242 A  
HETATM   38  C   UNL     1     -12.056   9.259  71.057  1.00  0.00    -0.349 A  
ENDBRANCH   2  26
TORSDOF 9
ENDMDL
MODEL      235
REMARK 921   NORMALIZED FREE ENERGY PREDICTED BY IDOCK:   -4.66 KCAL/MOL
REMARK 922        TOTAL FREE ENERGY PREDICTED BY IDOCK:   -8.88 KCAL/MOL
REMARK 923 INTER-LIGAND FREE ENERGY PREDICTED BY IDOCK:   -7.12 KCAL/MOL
REMARK 924 INTRA-LIGAND FREE ENERGY PREDICTED BY IDOCK:   -1.76 KCAL/MOL
REMARK 927      BINDING AFFINITY PREDICTED BY RF-SCORE:    0.00 PKD
ROOT
HETATM    1  C   UNL     1      -8.788   4.360  72.899  1.00  0.00    -0.114 C  
HETATM    2  N   UNL     1      -9.174   5.804  72.599  1.00  0.00    -0.138 N  
HETATM    3  C   UNL     1      -9.546   6.503  73.904  1.00  0.00    -0.202 C  
ENDROOT
BRANCH   2   4
HETATM    4  C   UNL     1      -8.014   6.493  71.910  1.00  0.00    -0.103 C  
BRANCH   4   5
HETATM    5  C   UNL     1      -7.532   7.800  72.538  1.00  0.00    -0.101 C  
BRANCH   5   6
HETATM    6  C   UNL     1      -8.017   8.980  71.685  1.00  0.00     0.018 C  
BRANCH   6   7
HETATM    7  C   UNL     1      -7.285   9.125  70.339  1.00  0.00    -0.084 C  
BRANCH   7   8
HETATM    8  C   UNL     1      -6.465  10.418  70.208  1.00  0.00    -0.141 C  
BRANCH   8   9
HETATM    9  C   UNL     1      -7.192  11.360  69.247  1.00  0.00    -0.075 C  
BRANCH   9  10
HETATM   10  N   UNL     1      -6.381  11.824  68.048  1.00  0.00    -0.050 N  
HETATM   11  C   UNL     1      -5.160  12.627  68.483  1.00  0.00    -0.059 C  
HETATM   12  C   UNL     1      -5.860  10.655  67.225  1.00  0.00    -0.046 C  
BRANCH  10  13
HETATM   13  C   UNL     1      -7.353  12.734  67.152  1.00  0.00    -0.015 C  
HETATM   14  C   UNL     1      -7.662  14.115  67.762  1.00  0.00    -0.175 A  
HETATM   15  C   UNL     1      -9.049  14.243  67.997  1.00  0.00    -0.191 A  
HETATM   16  C   UNL     1      -9.729  13.072  67.497  1.00  0.00    -0.206 A  
HETATM   17  C   UNL     1      -9.580  15.377  68.596  1.00  0.00    -0.204 A  
HETATM   18  C   UNL     1      -8.780  12.168  66.968  1.00  0.00    -0.190 A  
HETATM   19  C   UNL     1      -8.712  16.405  68.962  1.00  0.00    -0.233 A  
HETATM   20  C   UNL     1      -7.340  16.302  68.698  1.00  0.00    -0.180 A  
HETATM   21  C   UNL     1      -9.217  10.998  66.354  1.00  0.00    -0.192 A  
HETATM   22  C   UNL     1     -10.590  10.720  66.323  1.00  0.00    -0.257 A  
HETATM   23  C   UNL     1      -6.810  15.167  68.077  1.00  0.00    -0.152 A  
HETATM   24  C   UNL     1     -11.519  11.618  66.858  1.00  0.00    -0.320 A  
HETATM   25  C   UNL     1     -11.093  12.810  67.444  1.00  0.00    -0.312 A  
ENDBRANCH  10  13
ENDBRANCH   9  10
ENDBRANCH   8   9
ENDBRANCH   7   8
ENDBRANCH   6   7
ENDBRANCH   5   6
ENDBRANCH   4   5
ENDBRANCH   2   4
BRANCH   2  26
HETATM   26  C   UNL     1     -10.429   5.852  71.587  1.00  0.00    -0.233 C  
HETATM   27  C   UNL     1     -10.904   8.948  69.586  1.00  0.00    -0.186 A  
HETATM   28  C   UNL     1     -10.111   5.393  70.148  1.00  0.00    -0.322 A  
HETATM   29  C   UNL     1     -11.362   9.875  70.515  1.00  0.00    -0.399 A  
HETATM   30  C   UNL     1     -10.240   6.490  69.263  1.00  0.00    -0.216 A  
HETATM   31  C   UNL     1     -10.695   7.643  70.004  1.00  0.00    -0.245 A  
HETATM   32  C   UNL     1     -10.019   6.347  67.900  1.00  0.00    -0.145 A  
HETATM   33  C   UNL     1     -11.677   9.492  71.828  1.00  0.00    -0.411 A  
HETATM   34  C   UNL     1      -9.803   4.133  69.640  1.00  0.00    -0.208 A  
HETATM   35  C   UNL     1     -10.935   7.269  71.344  1.00  0.00    -0.256 A  
HETATM   36  C   UNL     1      -9.657   5.093  67.407  1.00  0.00    -0.154 A  
HETATM   37  C   UNL     1     -11.504   8.165  72.243  1.00  0.00    -0.435 A  
HETATM   38  C   UNL     1      -9.549   3.996  68.269  1.00  0.00    -0.188 A  
ENDBRANCH   2  26
TORSDOF 9
ENDMDL
MODEL      236
REMARK 921   NORMALIZED FREE ENERGY PREDICTED BY IDOCK:   -4.65 KCAL/MOL
REMARK 922        TOTAL FREE ENERGY PREDICTED BY IDOCK:   -8.86 KCAL/MOL
REMARK 923 INTER-LIGAND FREE ENERGY PREDICTED BY IDOCK:   -8.66 KCAL/MOL
REMARK 924 INTRA-LIGAND FREE ENERGY PREDICTED BY IDOCK:   -0.20 KCAL/MOL
REMARK 927      BINDING AFFINITY PREDICTED BY RF-SCORE:    0.00 PKD
ROOT
HETATM    1  C   UNL     1     -10.300  19.013  66.174  1.00  0.00    -0.468 C  
HETATM    2  N   UNL     1      -9.894  17.592  66.550  1.00  0.00    -0.306 N  
HETATM    3  C   UNL     1     -10.274  17.332  68.005  1.00  0.00    -0.332 C  
ENDROOT
BRANCH   2   4
HETATM    4  C   UNL     1     -10.579  16.618  65.614  1.00  0.00    -0.270 C  
BRANCH   4   5
HETATM    5  C   UNL     1     -11.108  15.330  66.244  1.00  0.00    -0.273 C  
BRANCH   5   6
HETATM    6  C   UNL     1     -11.741  14.457  65.152  1.00  0.00    -0.372 C  
BRANCH   6   7
HETATM    7  C   UNL     1     -10.831  13.320  64.651  1.00  0.00    -0.396 C  
BRANCH   7   8
HETATM    8  C   UNL     1      -9.984  12.666  65.752  1.00  0.00    -0.266 C  
BRANCH   8   9
HETATM    9  C   UNL     1     -10.767  11.488  66.333  1.00  0.00    -0.273 C  
BRANCH   9  10
HETATM   10  N   UNL     1     -10.370  11.070  67.740  1.00  0.00    -0.182 N  
HETATM   11  C   UNL     1      -9.804  12.246  68.528  1.00  0.00    -0.153 C  
HETATM   12  C   UNL     1     -11.558  10.547  68.535  1.00  0.00    -0.148 C  
BRANCH  10  13
HETATM   13  C   UNL     1      -9.262   9.917  67.590  1.00  0.00    -0.133 C  
HETATM   14  C   UNL     1      -9.828   8.486  67.666  1.00  0.00    -0.222 A  
HETATM   15  C   UNL     1      -9.262   7.798  68.763  1.00  0.00    -0.139 A  
HETATM   16  C   UNL     1      -8.268   8.635  69.391  1.00  0.00    -0.113 A  
HETATM   17  C   UNL     1      -9.650   6.505  69.084  1.00  0.00    -0.137 A  
HETATM   18  C   UNL     1      -8.212   9.880  68.724  1.00  0.00    -0.114 A  
HETATM   19  C   UNL     1     -10.616   5.884  68.293  1.00  0.00    -0.310 A  
HETATM   20  C   UNL     1     -11.155   6.545  67.182  1.00  0.00    -0.434 A  
HETATM   21  C   UNL     1      -7.263  10.822  69.109  1.00  0.00    -0.107 A  
HETATM   22  C   UNL     1      -6.417  10.530  70.188  1.00  0.00    -0.144 A  
HETATM   23  C   UNL     1     -10.748   7.840  66.848  1.00  0.00    -0.244 A  
HETATM   24  C   UNL     1      -6.489   9.298  70.847  1.00  0.00    -0.080 A  
HETATM   25  C   UNL     1      -7.413   8.335  70.445  1.00  0.00    -0.067 A  
ENDBRANCH  10  13
ENDBRANCH   9  10
ENDBRANCH   8   9
ENDBRANCH   7   8
ENDBRANCH   6   7
ENDBRANCH   5   6
ENDBRANCH   4   5
ENDBRANCH   2   4
BRANCH   2  26
HETATM   26  C   UNL     1      -8.304  17.395  66.366  1.00  0.00    -0.267 C  
HETATM   27  C   UNL     1      -6.061  19.441  68.511  1.00  0.00    -0.257 A  
HETATM   28  C   UNL     1      -7.673  16.352  67.313  1.00  0.00    -0.194 A  
HETATM   29  C   UNL     1      -6.166  20.720  67.974  1.00  0.00    -0.373 A  
HETATM   30  C   UNL     1      -6.791  16.999  68.210  1.00  0.00    -0.170 A  
HETATM   31  C   UNL     1      -6.733  18.405  67.882  1.00  0.00    -0.216 A  
HETATM   32  C   UNL     1      -6.082  16.286  69.166  1.00  0.00    -0.154 A  
HETATM   33  C   UNL     1      -6.873  20.951  66.784  1.00  0.00    -0.342 A  
HETATM   34  C   UNL     1      -7.798  14.964  67.354  1.00  0.00    -0.224 A  
HETATM   35  C   UNL     1      -7.510  18.645  66.729  1.00  0.00    -0.240 A  
HETATM   36  C   UNL     1      -6.254  14.903  69.236  1.00  0.00    -0.110 A  
HETATM   37  C   UNL     1      -7.521  19.898  66.124  1.00  0.00    -0.326 A  
HETATM   38  C   UNL     1      -7.106  14.248  68.339  1.00  0.00    -0.105 A  
ENDBRANCH   2  26
TORSDOF 9
ENDMDL
MODEL      237
REMARK 921   NORMALIZED FREE ENERGY PREDICTED BY IDOCK:   -4.64 KCAL/MOL
REMARK 922        TOTAL FREE ENERGY PREDICTED BY IDOCK:   -8.85 KCAL/MOL
REMARK 923 INTER-LIGAND FREE ENERGY PREDICTED BY IDOCK:   -8.98 KCAL/MOL
REMARK 924 INTRA-LIGAND FREE ENERGY PREDICTED BY IDOCK:    0.13 KCAL/MOL
REMARK 927      BINDING AFFINITY PREDICTED BY RF-SCORE:    0.00 PKD
ROOT
HETATM    1  C   UNL     1      -6.908   9.962  70.074  1.00  0.00    -0.110 C  
HETATM    2  N   UNL     1      -8.013   8.951  69.784  1.00  0.00    -0.095 N  
HETATM    3  C   UNL     1      -8.830   8.728  71.053  1.00  0.00    -0.211 C  
ENDROOT
BRANCH   2   4
HETATM    4  C   UNL     1      -8.874   9.471  68.652  1.00  0.00    -0.132 C  
BRANCH   4   5
HETATM    5  C   UNL     1      -9.926  10.516  69.025  1.00  0.00    -0.223 C  
BRANCH   5   6
HETATM    6  C   UNL     1     -11.113  10.404  68.058  1.00  0.00    -0.359 C  
BRANCH   6   7
HETATM    7  C   UNL     1     -10.761  10.720  66.592  1.00  0.00    -0.268 C  
BRANCH   7   8
HETATM    8  C   UNL     1     -11.165  12.133  66.143  1.00  0.00    -0.386 C  
BRANCH   8   9
HETATM    9  C   UNL     1     -10.440  13.150  67.026  1.00  0.00    -0.248 C  
BRANCH   9  10
HETATM   10  N   UNL     1     -10.198  14.510  66.392  1.00  0.00    -0.279 N  
HETATM   11  C   UNL     1      -8.758  14.969  66.602  1.00  0.00    -0.254 C  
HETATM   12  C   UNL     1     -10.430  14.489  64.889  1.00  0.00    -0.409 C  
BRANCH  10  13
HETATM   13  C   UNL     1     -11.215  15.538  67.089  1.00  0.00    -0.204 C  
HETATM   14  C   UNL     1     -10.680  16.980  67.194  1.00  0.00    -0.177 A  
HETATM   15  C   UNL     1     -10.593  17.367  68.551  1.00  0.00    -0.340 A  
HETATM   16  C   UNL     1     -11.126  16.316  69.384  1.00  0.00    -0.328 A  
HETATM   17  C   UNL     1     -10.084  18.605  68.917  1.00  0.00    -0.357 A  
HETATM   18  C   UNL     1     -11.528  15.231  68.572  1.00  0.00    -0.355 A  
HETATM   19  C   UNL     1      -9.662  19.475  67.914  1.00  0.00    -0.457 A  
HETATM   20  C   UNL     1      -9.779  19.114  66.565  1.00  0.00    -0.411 A  
HETATM   21  C   UNL     1     -12.149  14.132  69.156  1.00  0.00    -0.362 A  
HETATM   22  C   UNL     1     -12.313  14.105  70.548  1.00  0.00    -0.434 A  
HETATM   23  C   UNL     1     -10.310  17.874  66.197  1.00  0.00    -0.352 A  
HETATM   24  C   UNL     1     -11.902  15.181  71.342  1.00  0.00    -0.418 A  
HETATM   25  C   UNL     1     -11.311  16.303  70.761  1.00  0.00    -0.327 A  
ENDBRANCH  10  13
ENDBRANCH   9  10
ENDBRANCH   8   9
ENDBRANCH   7   8
ENDBRANCH   6   7
ENDBRANCH   5   6
ENDBRANCH   4   5
ENDBRANCH   2   4
BRANCH   2  26
HETATM   26  C   UNL     1      -7.379   7.550  69.300  1.00  0.00    -0.089 C  
HETATM   27  C   UNL     1      -8.233   4.510  71.260  1.00  0.00    -0.095 A  
HETATM   28  C   UNL     1      -8.270   6.744  68.330  1.00  0.00    -0.119 A  
HETATM   29  C   UNL     1      -7.506   4.661  72.437  1.00  0.00    -0.084 A  
HETATM   30  C   UNL     1      -8.688   5.546  68.957  1.00  0.00    -0.102 A  
HETATM   31  C   UNL     1      -8.077   5.460  70.263  1.00  0.00    -0.097 A  
HETATM   32  C   UNL     1      -9.494   4.629  68.297  1.00  0.00    -0.200 A  
HETATM   33  C   UNL     1      -6.581   5.704  72.590  1.00  0.00    -0.067 A  
HETATM   34  C   UNL     1      -8.632   6.989  67.007  1.00  0.00    -0.122 A  
HETATM   35  C   UNL     1      -7.206   6.556  70.442  1.00  0.00    -0.080 A  
HETATM   36  C   UNL     1      -9.897   4.909  66.991  1.00  0.00    -0.214 A  
HETATM   37  C   UNL     1      -6.392   6.644  71.567  1.00  0.00    -0.042 A  
HETATM   38  C   UNL     1      -9.472   6.079  66.352  1.00  0.00    -0.174 A  
ENDBRANCH   2  26
TORSDOF 9
ENDMDL
MODEL      238
REMARK 921   NORMALIZED FREE ENERGY PREDICTED BY IDOCK:   -4.63 KCAL/MOL
REMARK 922        TOTAL FREE ENERGY PREDICTED BY IDOCK:   -8.83 KCAL/MOL
REMARK 923 INTER-LIGAND FREE ENERGY PREDICTED BY IDOCK:   -8.24 KCAL/MOL
REMARK 924 INTRA-LIGAND FREE ENERGY PREDICTED BY IDOCK:   -0.59 KCAL/MOL
REMARK 927      BINDING AFFINITY PREDICTED BY RF-SCORE:    0.00 PKD
ROOT
HETATM    1  C   UNL     1      -9.160  13.164  67.304  1.00  0.00    -0.217 C  
HETATM    2  N   UNL     1      -8.734  11.704  67.189  1.00  0.00    -0.158 N  
HETATM    3  C   UNL     1      -7.381  11.633  66.488  1.00  0.00     0.044 C  
ENDROOT
BRANCH   2   4
HETATM    4  C   UNL     1      -8.675  11.095  68.574  1.00  0.00    -0.161 C  
BRANCH   4   5
HETATM    5  C   UNL     1      -7.280  10.819  69.135  1.00  0.00    -0.107 C  
BRANCH   5   6
HETATM    6  C   UNL     1      -7.234   9.390  69.691  1.00  0.00    -0.067 C  
BRANCH   6   7
HETATM    7  C   UNL     1      -7.214   9.313  71.229  1.00  0.00    -0.007 C  
BRANCH   7   8
HETATM    8  C   UNL     1      -7.455   7.903  71.788  1.00  0.00    -0.078 C  
BRANCH   8   9
HETATM    9  C   UNL     1      -8.889   7.826  72.314  1.00  0.00    -0.134 C  
BRANCH   9  10
HETATM   10  N   UNL     1      -9.774   6.782  71.652  1.00  0.00    -0.163 N  
HETATM   11  C   UNL     1     -10.178   5.693  72.640  1.00  0.00    -0.185 C  
HETATM   12  C   UNL     1     -11.066   7.385  71.120  1.00  0.00    -0.252 C  
BRANCH  10  13
HETATM   13  C   UNL     1      -8.926   6.150  70.444  1.00  0.00    -0.150 C  
HETATM   14  C   UNL     1      -9.571   6.336  69.057  1.00  0.00    -0.138 A  
HETATM   15  C   UNL     1      -9.853   5.078  68.479  1.00  0.00    -0.216 A  
HETATM   16  C   UNL     1      -9.355   4.033  69.341  1.00  0.00    -0.243 A  
HETATM   17  C   UNL     1     -10.490   4.973  67.251  1.00  0.00    -0.151 A  
HETATM   18  C   UNL     1      -8.779   4.611  70.495  1.00  0.00    -0.132 A  
HETATM   19  C   UNL     1     -10.846   6.144  66.583  1.00  0.00    -0.279 A  
HETATM   20  C   UNL     1     -10.536   7.395  67.131  1.00  0.00    -0.413 A  
HETATM   21  C   UNL     1      -8.159   3.793  71.434  1.00  0.00    -0.068 A  
HETATM   22  C   UNL     1      -8.167   2.406  71.236  1.00  0.00    -0.070 A  
HETATM   23  C   UNL     1      -9.877   7.499  68.359  1.00  0.00    -0.173 A  
HETATM   24  C   UNL     1      -8.748   1.845  70.094  1.00  0.00    -0.108 A  
HETATM   25  C   UNL     1      -9.341   2.660  69.130  1.00  0.00    -0.198 A  
ENDBRANCH  10  13
ENDBRANCH   9  10
ENDBRANCH   8   9
ENDBRANCH   7   8
ENDBRANCH   6   7
ENDBRANCH   5   6
ENDBRANCH   4   5
ENDBRANCH   2   4
BRANCH   2  26
HETATM   26  C   UNL     1      -9.822  10.867  66.343  1.00  0.00    -0.207 C  
HETATM   27  C   UNL     1     -11.409  12.557  63.437  1.00  0.00    -0.489 A  
HETATM   28  C   UNL     1      -9.245  10.103  65.133  1.00  0.00    -0.262 A  
HETATM   29  C   UNL     1     -12.275  13.475  64.021  1.00  0.00    -0.458 A  
HETATM   30  C   UNL     1      -9.759  10.655  63.935  1.00  0.00    -0.378 A  
HETATM   31  C   UNL     1     -10.703  11.698  64.265  1.00  0.00    -0.398 A  
HETATM   32  C   UNL     1      -9.406  10.144  62.695  1.00  0.00    -0.322 A  
HETATM   33  C   UNL     1     -12.490  13.489  65.408  1.00  0.00    -0.540 A  
HETATM   34  C   UNL     1      -8.405   8.993  65.071  1.00  0.00    -0.174 A  
HETATM   35  C   UNL     1     -10.856  11.760  65.667  1.00  0.00    -0.342 A  
HETATM   36  C   UNL     1      -8.521   9.066  62.641  1.00  0.00    -0.210 A  
HETATM   37  C   UNL     1     -11.807  12.596  66.244  1.00  0.00    -0.471 A  
HETATM   38  C   UNL     1      -8.024   8.496  63.818  1.00  0.00    -0.161 A  
ENDBRANCH   2  26
TORSDOF 9
ENDMDL
MODEL      239
REMARK 921   NORMALIZED FREE ENERGY PREDICTED BY IDOCK:   -4.62 KCAL/MOL
REMARK 922        TOTAL FREE ENERGY PREDICTED BY IDOCK:   -8.82 KCAL/MOL
REMARK 923 INTER-LIGAND FREE ENERGY PREDICTED BY IDOCK:   -8.19 KCAL/MOL
REMARK 924 INTRA-LIGAND FREE ENERGY PREDICTED BY IDOCK:   -0.63 KCAL/MOL
REMARK 927      BINDING AFFINITY PREDICTED BY RF-SCORE:    0.00 PKD
ROOT
HETATM    1  C   UNL     1      -9.908   9.728  65.533  1.00  0.00    -0.308 C  
HETATM    2  N   UNL     1      -9.234  10.564  66.616  1.00  0.00    -0.155 N  
HETATM    3  C   UNL     1     -10.116  10.572  67.862  1.00  0.00    -0.176 C  
ENDROOT
BRANCH   2   4
HETATM    4  C   UNL     1      -7.865   9.985  66.908  1.00  0.00    -0.106 C  
BRANCH   4   5
HETATM    5  C   UNL     1      -7.804   8.477  67.148  1.00  0.00    -0.097 C  
BRANCH   5   6
HETATM    6  C   UNL     1      -7.020   8.202  68.438  1.00  0.00    -0.073 C  
BRANCH   6   7
HETATM    7  C   UNL     1      -6.985   9.390  69.418  1.00  0.00    -0.049 C  
BRANCH   7   8
HETATM    8  C   UNL     1      -6.517   9.020  70.833  1.00  0.00    -0.064 C  
BRANCH   8   9
HETATM    9  C   UNL     1      -6.617   7.504  70.998  1.00  0.00    -0.039 C  
BRANCH   9  10
HETATM   10  N   UNL     1      -7.531   7.026  72.115  1.00  0.00    -0.089 N  
HETATM   11  C   UNL     1      -6.896   5.882  72.898  1.00  0.00    -0.075 C  
HETATM   12  C   UNL     1      -7.826   8.128  73.121  1.00  0.00    -0.159 C  
BRANCH  10  13
HETATM   13  C   UNL     1      -8.895   6.536  71.424  1.00  0.00    -0.137 C  
HETATM   14  C   UNL     1     -10.051   7.550  71.522  1.00  0.00    -0.201 A  
HETATM   15  C   UNL     1     -11.131   6.989  72.239  1.00  0.00    -0.287 A  
HETATM   16  C   UNL     1     -10.830   5.614  72.558  1.00  0.00    -0.299 A  
HETATM   17  C   UNL     1     -12.276   7.723  72.514  1.00  0.00    -0.193 A  
HETATM   18  C   UNL     1      -9.540   5.292  72.080  1.00  0.00    -0.189 A  
HETATM   19  C   UNL     1     -12.347   9.040  72.061  1.00  0.00    -0.455 A  
HETATM   20  C   UNL     1     -11.296   9.592  71.318  1.00  0.00    -0.458 A  
HETATM   21  C   UNL     1      -9.068   3.989  72.205  1.00  0.00    -0.158 A  
HETATM   22  C   UNL     1      -9.867   3.037  72.852  1.00  0.00    -0.187 A  
HETATM   23  C   UNL     1     -10.152   8.844  71.025  1.00  0.00    -0.324 A  
HETATM   24  C   UNL     1     -11.139   3.370  73.330  1.00  0.00    -0.236 A  
HETATM   25  C   UNL     1     -11.635   4.665  73.177  1.00  0.00    -0.261 A  
ENDBRANCH  10  13
ENDBRANCH   9  10
ENDBRANCH   8   9
ENDBRANCH   7   8
ENDBRANCH   6   7
ENDBRANCH   5   6
ENDBRANCH   4   5
ENDBRANCH   2   4
BRANCH   2  26
HETATM   26  C   UNL     1      -9.015  12.077  66.103  1.00  0.00    -0.079 C  
HETATM   27  C   UNL     1     -11.845  14.453  66.503  1.00  0.00    -0.406 A  
HETATM   28  C   UNL     1      -8.505  13.054  67.185  1.00  0.00    -0.176 A  
HETATM   29  C   UNL     1     -12.758  14.045  65.536  1.00  0.00    -0.517 A  
HETATM   30  C   UNL     1      -9.501  14.023  67.454  1.00  0.00    -0.225 A  
HETATM   31  C   UNL     1     -10.623  13.804  66.571  1.00  0.00    -0.279 A  
HETATM   32  C   UNL     1      -9.294  15.031  68.385  1.00  0.00    -0.193 A  
HETATM   33  C   UNL     1     -12.429  13.052  64.600  1.00  0.00    -0.460 A  
HETATM   34  C   UNL     1      -7.273  13.138  67.830  1.00  0.00    -0.147 A  
HETATM   35  C   UNL     1     -10.316  12.750  65.683  1.00  0.00    -0.296 A  
HETATM   36  C   UNL     1      -8.077  15.075  69.066  1.00  0.00    -0.178 A  
HETATM   37  C   UNL     1     -11.178  12.421  64.641  1.00  0.00    -0.356 A  
HETATM   38  C   UNL     1      -7.075  14.137  68.792  1.00  0.00    -0.107 A  
ENDBRANCH   2  26
TORSDOF 9
ENDMDL
MODEL      240
REMARK 921   NORMALIZED FREE ENERGY PREDICTED BY IDOCK:   -4.62 KCAL/MOL
REMARK 922        TOTAL FREE ENERGY PREDICTED BY IDOCK:   -8.81 KCAL/MOL
REMARK 923 INTER-LIGAND FREE ENERGY PREDICTED BY IDOCK:   -7.38 KCAL/MOL
REMARK 924 INTRA-LIGAND FREE ENERGY PREDICTED BY IDOCK:   -1.44 KCAL/MOL
REMARK 927      BINDING AFFINITY PREDICTED BY RF-SCORE:    0.00 PKD
ROOT
HETATM    1  C   UNL     1     -11.037   9.731  70.120  1.00  0.00    -0.285 C  
HETATM    2  N   UNL     1     -10.008   9.432  69.035  1.00  0.00    -0.171 N  
HETATM    3  C   UNL     1      -8.817  10.371  69.203  1.00  0.00    -0.172 C  
ENDROOT
BRANCH   2   4
HETATM    4  C   UNL     1      -9.589   7.980  69.137  1.00  0.00    -0.156 C  
BRANCH   4   5
HETATM    5  C   UNL     1     -10.717   6.949  69.174  1.00  0.00    -0.262 C  
BRANCH   5   6
HETATM    6  C   UNL     1     -10.394   5.885  70.231  1.00  0.00    -0.298 C  
BRANCH   6   7
HETATM    7  C   UNL     1     -10.089   4.492  69.648  1.00  0.00    -0.161 C  
BRANCH   7   8
HETATM    8  C   UNL     1      -8.615   4.281  69.271  1.00  0.00    -0.110 C  
BRANCH   8   9
HETATM    9  C   UNL     1      -7.742   5.028  70.279  1.00  0.00    -0.067 C  
BRANCH   9  10
HETATM   10  N   UNL     1      -6.835   4.156  71.132  1.00  0.00    -0.034 N  
HETATM   11  C   UNL     1      -6.890   2.699  70.686  1.00  0.00    -0.033 C  
HETATM   12  C   UNL     1      -5.379   4.584  71.037  1.00  0.00    -0.003 C  
BRANCH  10  13
HETATM   13  C   UNL     1      -7.348   4.292  72.648  1.00  0.00    -0.073 C  
HETATM   14  C   UNL     1      -8.724   3.650  72.907  1.00  0.00    -0.098 A  
HETATM   15  C   UNL     1      -9.646   4.631  73.335  1.00  0.00    -0.136 A  
HETATM   16  C   UNL     1      -8.965   5.896  73.480  1.00  0.00    -0.128 A  
HETATM   17  C   UNL     1     -10.975   4.317  73.581  1.00  0.00    -0.364 A  
HETATM   18  C   UNL     1      -7.609   5.744  73.113  1.00  0.00    -0.096 A  
HETATM   19  C   UNL     1     -11.391   2.999  73.403  1.00  0.00    -0.211 A  
HETATM   20  C   UNL     1     -10.476   2.012  73.015  1.00  0.00    -0.229 A  
HETATM   21  C   UNL     1      -6.737   6.819  73.251  1.00  0.00    -0.071 A  
HETATM   22  C   UNL     1      -7.241   8.047  73.703  1.00  0.00    -0.174 A  
HETATM   23  C   UNL     1      -9.133   2.327  72.787  1.00  0.00    -0.100 A  
HETATM   24  C   UNL     1      -8.587   8.187  74.054  1.00  0.00    -0.253 A  
HETATM   25  C   UNL     1      -9.461   7.105  73.953  1.00  0.00    -0.297 A  
ENDBRANCH  10  13
ENDBRANCH   9  10
ENDBRANCH   8   9
ENDBRANCH   7   8
ENDBRANCH   6   7
ENDBRANCH   5   6
ENDBRANCH   4   5
ENDBRANCH   2   4
BRANCH   2  26
HETATM   26  C   UNL     1     -10.655   9.641  67.573  1.00  0.00    -0.277 C  
HETATM   27  C   UNL     1     -10.131  12.928  65.917  1.00  0.00    -0.295 A  
HETATM   28  C   UNL     1      -9.713   9.298  66.399  1.00  0.00    -0.325 A  
HETATM   29  C   UNL     1     -10.959  13.791  66.627  1.00  0.00    -0.298 A  
HETATM   30  C   UNL     1      -9.412  10.476  65.674  1.00  0.00    -0.259 A  
HETATM   31  C   UNL     1     -10.148  11.581  66.244  1.00  0.00    -0.261 A  
HETATM   32  C   UNL     1      -8.588  10.447  64.558  1.00  0.00    -0.187 A  
HETATM   33  C   UNL     1     -11.846  13.308  67.601  1.00  0.00    -0.400 A  
HETATM   34  C   UNL     1      -9.215   8.075  65.957  1.00  0.00    -0.179 A  
HETATM   35  C   UNL     1     -10.981  11.101  67.277  1.00  0.00    -0.354 A  
HETATM   36  C   UNL     1      -8.050   9.224  64.154  1.00  0.00    -0.145 A  
HETATM   37  C   UNL     1     -11.894  11.942  67.906  1.00  0.00    -0.308 A  
HETATM   38  C   UNL     1      -8.359   8.049  64.848  1.00  0.00    -0.108 A  
ENDBRANCH   2  26
TORSDOF 9
ENDMDL
MODEL      241
REMARK 921   NORMALIZED FREE ENERGY PREDICTED BY IDOCK:   -4.60 KCAL/MOL
REMARK 922        TOTAL FREE ENERGY PREDICTED BY IDOCK:   -8.78 KCAL/MOL
REMARK 923 INTER-LIGAND FREE ENERGY PREDICTED BY IDOCK:   -7.32 KCAL/MOL
REMARK 924 INTRA-LIGAND FREE ENERGY PREDICTED BY IDOCK:   -1.46 KCAL/MOL
REMARK 927      BINDING AFFINITY PREDICTED BY RF-SCORE:    0.00 PKD
ROOT
HETATM    1  C   UNL     1      -9.113  11.016  68.873  1.00  0.00    -0.123 C  
HETATM    2  N   UNL     1     -10.292  10.101  68.559  1.00  0.00    -0.171 N  
HETATM    3  C   UNL     1      -9.945   9.237  67.349  1.00  0.00    -0.199 C  
ENDROOT
BRANCH   2   4
HETATM    4  C   UNL     1     -10.599   9.254  69.777  1.00  0.00    -0.231 C  
BRANCH   4   5
HETATM    5  C   UNL     1      -9.868   7.915  69.874  1.00  0.00    -0.182 C  
BRANCH   5   6
HETATM    6  C   UNL     1     -10.900   6.780  69.928  1.00  0.00    -0.310 C  
BRANCH   6   7
HETATM    7  C   UNL     1     -10.334   5.398  69.555  1.00  0.00    -0.350 C  
BRANCH   7   8
HETATM    8  C   UNL     1     -10.531   5.019  68.079  1.00  0.00    -0.026 C  
BRANCH   8   9
HETATM    9  C   UNL     1      -9.473   5.741  67.246  1.00  0.00    -0.114 C  
BRANCH   9  10
HETATM   10  N   UNL     1      -8.398   4.853  66.640  1.00  0.00    -0.107 N  
HETATM   11  C   UNL     1      -8.715   3.377  66.855  1.00  0.00    -0.123 C  
HETATM   12  C   UNL     1      -8.272   5.054  65.137  1.00  0.00    -0.131 C  
BRANCH  10  13
HETATM   13  C   UNL     1      -7.016   5.235  67.362  1.00  0.00    -0.065 C  
HETATM   14  C   UNL     1      -6.976   4.899  68.865  1.00  0.00    -0.052 A  
HETATM   15  C   UNL     1      -6.790   6.077  69.622  1.00  0.00    -0.065 A  
HETATM   16  C   UNL     1      -6.601   7.195  68.728  1.00  0.00    -0.044 A  
HETATM   17  C   UNL     1      -6.776   6.051  71.009  1.00  0.00    -0.061 A  
HETATM   18  C   UNL     1      -6.699   6.749  67.391  1.00  0.00    -0.067 A  
HETATM   19  C   UNL     1      -6.944   4.827  71.654  1.00  0.00    -0.052 A  
HETATM   20  C   UNL     1      -7.093   3.648  70.911  1.00  0.00    -0.033 A  
HETATM   21  C   UNL     1      -6.470   7.644  66.351  1.00  0.00    -0.049 A  
HETATM   22  C   UNL     1      -6.197   8.984  66.658  1.00  0.00    -0.061 A  
HETATM   23  C   UNL     1      -7.087   3.674  69.513  1.00  0.00    -0.042 A  
HETATM   24  C   UNL     1      -6.112   9.416  67.986  1.00  0.00    -0.052 A  
HETATM   25  C   UNL     1      -6.306   8.517  69.035  1.00  0.00    -0.044 A  
ENDBRANCH  10  13
ENDBRANCH   9  10
ENDBRANCH   8   9
ENDBRANCH   7   8
ENDBRANCH   6   7
ENDBRANCH   5   6
ENDBRANCH   4   5
ENDBRANCH   2   4
BRANCH   2  26
HETATM   26  C   UNL     1     -11.609  10.973  68.237  1.00  0.00    -0.284 C  
HETATM   27  C   UNL     1     -12.460  13.731  70.580  1.00  0.00    -0.409 A  
HETATM   28  C   UNL     1     -11.350  12.242  67.397  1.00  0.00    -0.389 A  
HETATM   29  C   UNL     1     -12.929  13.071  71.710  1.00  0.00    -0.420 A  
HETATM   30  C   UNL     1     -11.624  13.390  68.177  1.00  0.00    -0.376 A  
HETATM   31  C   UNL     1     -12.120  12.975  69.469  1.00  0.00    -0.289 A  
HETATM   32  C   UNL     1     -11.480  14.668  67.656  1.00  0.00    -0.364 A  
HETATM   33  C   UNL     1     -13.126  11.682  71.710  1.00  0.00    -0.487 A  
HETATM   34  C   UNL     1     -10.976  12.391  66.063  1.00  0.00    -0.324 A  
HETATM   35  C   UNL     1     -12.242  11.569  69.490  1.00  0.00    -0.287 A  
HETATM   36  C   UNL     1     -11.053  14.809  66.335  1.00  0.00    -0.340 A  
HETATM   37  C   UNL     1     -12.821  10.919  70.575  1.00  0.00    -0.301 A  
HETATM   38  C   UNL     1     -10.801  13.682  65.546  1.00  0.00    -0.295 A  
ENDBRANCH   2  26
TORSDOF 9
ENDMDL
MODEL      242
REMARK 921   NORMALIZED FREE ENERGY PREDICTED BY IDOCK:   -4.58 KCAL/MOL
REMARK 922        TOTAL FREE ENERGY PREDICTED BY IDOCK:   -8.76 KCAL/MOL
REMARK 923 INTER-LIGAND FREE ENERGY PREDICTED BY IDOCK:   -7.71 KCAL/MOL
REMARK 924 INTRA-LIGAND FREE ENERGY PREDICTED BY IDOCK:   -1.04 KCAL/MOL
REMARK 927      BINDING AFFINITY PREDICTED BY RF-SCORE:    0.00 PKD
ROOT
HETATM    1  C   UNL     1     -12.578  13.507  69.342  1.00  0.00     0.261 C  
HETATM    2  N   UNL     1     -11.460  14.518  69.111  1.00  0.00    -0.276 N  
HETATM    3  C   UNL     1     -11.469  15.541  70.244  1.00  0.00    -0.334 C  
ENDROOT
BRANCH   2   4
HETATM    4  C   UNL     1     -10.137  13.785  69.035  1.00  0.00     0.019 C  
BRANCH   4   5
HETATM    5  C   UNL     1     -10.197  12.320  68.605  1.00  0.00    -0.177 C  
BRANCH   5   6
HETATM    6  C   UNL     1      -8.922  11.970  67.825  1.00  0.00    -0.176 C  
BRANCH   6   7
HETATM    7  C   UNL     1      -9.179  11.230  66.499  1.00  0.00    -0.200 C  
BRANCH   7   8
HETATM    8  C   UNL     1      -9.439   9.725  66.663  1.00  0.00    -0.220 C  
BRANCH   8   9
HETATM    9  C   UNL     1      -8.603   9.211  67.835  1.00  0.00    -0.121 C  
BRANCH   9  10
HETATM   10  N   UNL     1      -9.151   7.980  68.540  1.00  0.00    -0.137 N  
HETATM   11  C   UNL     1     -10.452   7.509  67.899  1.00  0.00    -0.204 C  
HETATM   12  C   UNL     1      -8.185   6.807  68.472  1.00  0.00    -0.120 C  
BRANCH  10  13
HETATM   13  C   UNL     1      -9.404   8.394  70.071  1.00  0.00    -0.159 C  
HETATM   14  C   UNL     1      -8.127   8.430  70.933  1.00  0.00    -0.118 A  
HETATM   15  C   UNL     1      -8.227   7.496  71.988  1.00  0.00    -0.115 A  
HETATM   16  C   UNL     1      -9.535   6.885  71.965  1.00  0.00    -0.147 A  
HETATM   17  C   UNL     1      -7.180   7.294  72.876  1.00  0.00    -0.075 A  
HETATM   18  C   UNL     1     -10.273   7.397  70.873  1.00  0.00    -0.195 A  
HETATM   19  C   UNL     1      -6.015   8.041  72.714  1.00  0.00    -0.055 A  
HETATM   20  C   UNL     1      -5.922   8.996  71.693  1.00  0.00    -0.069 A  
HETATM   21  C   UNL     1     -11.597   7.009  70.699  1.00  0.00    -0.379 A  
HETATM   22  C   UNL     1     -12.152   6.075  71.585  1.00  0.00     0.039 A  
HETATM   23  C   UNL     1      -6.985   9.212  70.811  1.00  0.00    -0.097 A  
HETATM   24  C   UNL     1     -11.409   5.568  72.655  1.00  0.00    -0.346 A  
HETATM   25  C   UNL     1     -10.092   5.979  72.858  1.00  0.00    -0.198 A  
ENDBRANCH  10  13
ENDBRANCH   9  10
ENDBRANCH   8   9
ENDBRANCH   7   8
ENDBRANCH   6   7
ENDBRANCH   5   6
ENDBRANCH   4   5
ENDBRANCH   2   4
BRANCH   2  26
HETATM   26  C   UNL     1     -11.669  15.275  67.702  1.00  0.00    -0.167 C  
HETATM   27  C   UNL     1      -8.624  16.313  65.841  1.00  0.00    -0.064 A  
HETATM   28  C   UNL     1     -11.676  14.347  66.469  1.00  0.00    -0.404 A  
HETATM   29  C   UNL     1      -8.138  17.389  66.575  1.00  0.00    -0.312 A  
HETATM   30  C   UNL     1     -10.547  14.624  65.662  1.00  0.00    -0.344 A  
HETATM   31  C   UNL     1      -9.817  15.730  66.237  1.00  0.00    -0.320 A  
HETATM   32  C   UNL     1     -10.318  13.933  64.481  1.00  0.00    -0.260 A  
HETATM   33  C   UNL     1      -8.869  17.925  67.647  1.00  0.00    -0.250 A  
HETATM   34  C   UNL     1     -12.605  13.396  66.049  1.00  0.00    -0.361 A  
HETATM   35  C   UNL     1     -10.517  16.214  67.362  1.00  0.00    -0.310 A  
HETATM   36  C   UNL     1     -11.224  12.945  64.095  1.00  0.00    -0.432 A  
HETATM   37  C   UNL     1     -10.095  17.362  68.025  1.00  0.00    -0.326 A  
HETATM   38  C   UNL     1     -12.357  12.678  64.872  1.00  0.00    -0.563 A  
ENDBRANCH   2  26
TORSDOF 9
ENDMDL
MODEL      243
REMARK 921   NORMALIZED FREE ENERGY PREDICTED BY IDOCK:   -4.58 KCAL/MOL
REMARK 922        TOTAL FREE ENERGY PREDICTED BY IDOCK:   -8.75 KCAL/MOL
REMARK 923 INTER-LIGAND FREE ENERGY PREDICTED BY IDOCK:   -8.61 KCAL/MOL
REMARK 924 INTRA-LIGAND FREE ENERGY PREDICTED BY IDOCK:   -0.14 KCAL/MOL
REMARK 927      BINDING AFFINITY PREDICTED BY RF-SCORE:    0.00 PKD
ROOT
HETATM    1  C   UNL     1     -10.144  10.836  69.200  1.00  0.00    -0.205 C  
HETATM    2  N   UNL     1     -10.365  11.064  67.709  1.00  0.00    -0.182 N  
HETATM    3  C   UNL     1      -9.157  11.797  67.131  1.00  0.00    -0.175 C  
ENDROOT
BRANCH   2   4
HETATM    4  C   UNL     1     -10.580   9.727  67.030  1.00  0.00    -0.199 C  
BRANCH   4   5
HETATM    5  C   UNL     1      -9.712   9.441  65.805  1.00  0.00    -0.354 C  
BRANCH   5   6
HETATM    6  C   UNL     1      -8.818   8.227  66.093  1.00  0.00    -0.200 C  
BRANCH   6   7
HETATM    7  C   UNL     1      -7.326   8.570  66.259  1.00  0.00    -0.079 C  
BRANCH   7   8
HETATM    8  C   UNL     1      -6.679   7.960  67.511  1.00  0.00    -0.069 C  
BRANCH   8   9
HETATM    9  C   UNL     1      -7.679   8.043  68.665  1.00  0.00    -0.105 C  
BRANCH   9  10
HETATM   10  N   UNL     1      -7.352   7.184  69.877  1.00  0.00    -0.082 N  
HETATM   11  C   UNL     1      -6.124   6.315  69.624  1.00  0.00    -0.026 C  
HETATM   12  C   UNL     1      -7.042   8.026  71.105  1.00  0.00    -0.055 C  
BRANCH  10  13
HETATM   13  C   UNL     1      -8.637   6.262  70.155  1.00  0.00    -0.134 C  
HETATM   14  C   UNL     1      -9.644   6.868  71.151  1.00  0.00    -0.167 A  
HETATM   15  C   UNL     1      -9.774   6.030  72.281  1.00  0.00    -0.172 A  
HETATM   16  C   UNL     1      -8.992   4.834  72.082  1.00  0.00    -0.142 A  
HETATM   17  C   UNL     1     -10.581   6.382  73.353  1.00  0.00    -0.298 A  
HETATM   18  C   UNL     1      -8.325   4.910  70.838  1.00  0.00    -0.108 A  
HETATM   19  C   UNL     1     -11.277   7.589  73.295  1.00  0.00    -0.201 A  
HETATM   20  C   UNL     1     -11.183   8.408  72.163  1.00  0.00    -0.431 A  
HETATM   21  C   UNL     1      -7.572   3.827  70.396  1.00  0.00    -0.044 A  
HETATM   22  C   UNL     1      -7.450   2.703  71.225  1.00  0.00    -0.033 A  
HETATM   23  C   UNL     1     -10.384   8.042  71.075  1.00  0.00    -0.228 A  
HETATM   24  C   UNL     1      -8.106   2.643  72.459  1.00  0.00    -0.055 A  
HETATM   25  C   UNL     1      -8.892   3.710  72.893  1.00  0.00    -0.102 A  
ENDBRANCH  10  13
ENDBRANCH   9  10
ENDBRANCH   8   9
ENDBRANCH   7   8
ENDBRANCH   6   7
ENDBRANCH   5   6
ENDBRANCH   4   5
ENDBRANCH   2   4
BRANCH   2  26
HETATM   26  C   UNL     1     -11.694  11.944  67.466  1.00  0.00    -0.265 C  
HETATM   27  C   UNL     1     -11.534  15.563  68.300  1.00  0.00    -0.359 A  
HETATM   28  C   UNL     1     -11.767  12.628  66.084  1.00  0.00    -0.461 A  
HETATM   29  C   UNL     1     -11.534  15.582  69.691  1.00  0.00    -0.337 A  
HETATM   30  C   UNL     1     -11.703  14.033  66.247  1.00  0.00    -0.401 A  
HETATM   31  C   UNL     1     -11.662  14.342  67.658  1.00  0.00    -0.421 A  
HETATM   32  C   UNL     1     -11.758  14.889  65.157  1.00  0.00    -0.295 A  
HETATM   33  C   UNL     1     -11.732  14.407  70.432  1.00  0.00    -0.346 A  
HETATM   34  C   UNL     1     -11.940  12.092  64.809  1.00  0.00    -0.377 A  
HETATM   35  C   UNL     1     -11.782  13.147  68.399  1.00  0.00    -0.386 A  
HETATM   36  C   UNL     1     -11.877  14.341  63.879  1.00  0.00    -0.153 A  
HETATM   37  C   UNL     1     -11.901  13.176  69.785  1.00  0.00    -0.386 A  
HETATM   38  C   UNL     1     -11.966  12.956  63.706  1.00  0.00    -0.582 A  
ENDBRANCH   2  26
TORSDOF 9
ENDMDL
MODEL      244
REMARK 921   NORMALIZED FREE ENERGY PREDICTED BY IDOCK:   -4.57 KCAL/MOL
REMARK 922        TOTAL FREE ENERGY PREDICTED BY IDOCK:   -8.75 KCAL/MOL
REMARK 923 INTER-LIGAND FREE ENERGY PREDICTED BY IDOCK:   -8.07 KCAL/MOL
REMARK 924 INTRA-LIGAND FREE ENERGY PREDICTED BY IDOCK:   -0.67 KCAL/MOL
REMARK 927      BINDING AFFINITY PREDICTED BY RF-SCORE:    0.00 PKD
ROOT
HETATM    1  C   UNL     1     -11.395  16.119  68.348  1.00  0.00    -0.345 C  
HETATM    2  N   UNL     1     -10.515  15.127  67.595  1.00  0.00    -0.249 N  
HETATM    3  C   UNL     1     -10.081  14.019  68.551  1.00  0.00    -0.236 C  
ENDROOT
BRANCH   2   4
HETATM    4  C   UNL     1     -11.289  14.573  66.417  1.00  0.00    -0.349 C  
BRANCH   4   5
HETATM    5  C   UNL     1     -11.288  13.053  66.259  1.00  0.00    -0.354 C  
BRANCH   5   6
HETATM    6  C   UNL     1     -10.334  12.665  65.121  1.00  0.00    -0.312 C  
BRANCH   6   7
HETATM    7  C   UNL     1     -10.768  11.413  64.337  1.00  0.00    -0.405 C  
BRANCH   7   8
HETATM    8  C   UNL     1      -9.693  10.870  63.382  1.00  0.00    -0.392 C  
BRANCH   8   9
HETATM    9  C   UNL     1      -8.426  10.582  64.188  1.00  0.00    -0.122 C  
BRANCH   9  10
HETATM   10  N   UNL     1      -8.086   9.111  64.370  1.00  0.00    -0.137 N  
HETATM   11  C   UNL     1      -8.493   8.295  63.147  1.00  0.00     0.030 C  
HETATM   12  C   UNL     1      -6.593   8.891  64.561  1.00  0.00    -0.071 C  
BRANCH  10  13
HETATM   13  C   UNL     1      -8.885   8.604  65.667  1.00  0.00    -0.187 C  
HETATM   14  C   UNL     1      -8.483   9.317  66.973  1.00  0.00    -0.124 A  
HETATM   15  C   UNL     1      -7.962   8.382  67.895  1.00  0.00    -0.115 A  
HETATM   16  C   UNL     1      -8.069   7.053  67.343  1.00  0.00    -0.116 A  
HETATM   17  C   UNL     1      -7.474   8.782  69.131  1.00  0.00    -0.076 A  
HETATM   18  C   UNL     1      -8.628   7.127  66.046  1.00  0.00    -0.158 A  
HETATM   19  C   UNL     1      -7.512  10.137  69.456  1.00  0.00    -0.133 A  
HETATM   20  C   UNL     1      -8.061  11.065  68.562  1.00  0.00    -0.140 A  
HETATM   21  C   UNL     1      -8.900   5.954  65.350  1.00  0.00    -0.071 A  
HETATM   22  C   UNL     1      -8.563   4.725  65.933  1.00  0.00    -0.119 A  
HETATM   23  C   UNL     1      -8.570  10.658  67.326  1.00  0.00    -0.126 A  
HETATM   24  C   UNL     1      -8.001   4.665  67.212  1.00  0.00    -0.101 A  
HETATM   25  C   UNL     1      -7.758   5.835  67.932  1.00  0.00    -0.097 A  
ENDBRANCH  10  13
ENDBRANCH   9  10
ENDBRANCH   8   9
ENDBRANCH   7   8
ENDBRANCH   6   7
ENDBRANCH   5   6
ENDBRANCH   4   5
ENDBRANCH   2   4
BRANCH   2  26
HETATM   26  C   UNL     1      -9.210  15.868  67.005  1.00  0.00    -0.214 C  
HETATM   27  C   UNL     1      -8.832  19.499  67.706  1.00  0.00    -0.370 A  
HETATM   28  C   UNL     1      -8.007  15.917  67.972  1.00  0.00    -0.141 A  
HETATM   29  C   UNL     1      -9.786  20.094  66.889  1.00  0.00    -0.593 A  
HETATM   30  C   UNL     1      -7.752  17.259  68.341  1.00  0.00    -0.247 A  
HETATM   31  C   UNL     1      -8.662  18.125  67.628  1.00  0.00    -0.249 A  
HETATM   32  C   UNL     1      -6.712  17.586  69.200  1.00  0.00    -0.243 A  
HETATM   33  C   UNL     1     -10.511  19.341  65.952  1.00  0.00    -0.534 A  
HETATM   34  C   UNL     1      -7.170  14.905  68.438  1.00  0.00    -0.116 A  
HETATM   35  C   UNL     1      -9.443  17.351  66.744  1.00  0.00    -0.282 A  
HETATM   36  C   UNL     1      -5.912  16.560  69.705  1.00  0.00    -0.208 A  
HETATM   37  C   UNL     1     -10.312  17.959  65.843  1.00  0.00    -0.259 A  
HETATM   38  C   UNL     1      -6.139  15.232  69.329  1.00  0.00    -0.110 A  
ENDBRANCH   2  26
TORSDOF 9
ENDMDL
MODEL      245
REMARK 921   NORMALIZED FREE ENERGY PREDICTED BY IDOCK:   -4.57 KCAL/MOL
REMARK 922        TOTAL FREE ENERGY PREDICTED BY IDOCK:   -8.75 KCAL/MOL
REMARK 923 INTER-LIGAND FREE ENERGY PREDICTED BY IDOCK:   -7.17 KCAL/MOL
REMARK 924 INTRA-LIGAND FREE ENERGY PREDICTED BY IDOCK:   -1.58 KCAL/MOL
REMARK 927      BINDING AFFINITY PREDICTED BY RF-SCORE:    0.00 PKD
ROOT
HETATM    1  C   UNL     1      -9.990   5.030  67.413  1.00  0.00    -0.177 C  
HETATM    2  N   UNL     1      -8.693   5.758  67.747  1.00  0.00    -0.108 N  
HETATM    3  C   UNL     1      -7.523   5.010  67.114  1.00  0.00    -0.087 C  
ENDROOT
BRANCH   2   4
HETATM    4  C   UNL     1      -8.780   7.183  67.242  1.00  0.00    -0.120 C  
BRANCH   4   5
HETATM    5  C   UNL     1      -7.701   7.619  66.251  1.00  0.00    -0.089 C  
BRANCH   5   6
HETATM    6  C   UNL     1      -7.406   9.112  66.451  1.00  0.00    -0.092 C  
BRANCH   6   7
HETATM    7  C   UNL     1      -8.555   9.897  67.110  1.00  0.00    -0.125 C  
BRANCH   7   8
HETATM    8  C   UNL     1      -9.320  10.815  66.144  1.00  0.00    -0.209 C  
BRANCH   8   9
HETATM    9  C   UNL     1     -10.602  11.286  66.832  1.00  0.00    -0.257 C  
BRANCH   9  10
HETATM   10  N   UNL     1     -10.680  12.777  67.119  1.00  0.00    -0.243 N  
HETATM   11  C   UNL     1      -9.699  13.559  66.251  1.00  0.00    -0.277 C  
HETATM   12  C   UNL     1     -12.062  13.341  66.827  1.00  0.00    -0.345 C  
BRANCH  10  13
HETATM   13  C   UNL     1     -10.325  12.972  68.672  1.00  0.00    -0.191 C  
HETATM   14  C   UNL     1     -11.329  12.311  69.636  1.00  0.00    -0.207 A  
HETATM   15  C   UNL     1     -11.931  13.290  70.458  1.00  0.00    -0.319 A  
HETATM   16  C   UNL     1     -11.333  14.575  70.187  1.00  0.00    -0.250 A  
HETATM   17  C   UNL     1     -12.917  12.957  71.376  1.00  0.00    -0.362 A  
HETATM   18  C   UNL     1     -10.367  14.438  69.164  1.00  0.00    -0.164 A  
HETATM   19  C   UNL     1     -13.305  11.622  71.481  1.00  0.00    -0.148 A  
HETATM   20  C   UNL     1     -12.687  10.639  70.696  1.00  0.00    -0.445 A  
HETATM   21  C   UNL     1      -9.602  15.539  68.792  1.00  0.00    -0.208 A  
HETATM   22  C   UNL     1      -9.847  16.774  69.407  1.00  0.00    -0.095 A  
HETATM   23  C   UNL     1     -11.680  10.974  69.786  1.00  0.00    -0.410 A  
HETATM   24  C   UNL     1     -10.812  16.900  70.411  1.00  0.00     0.310 A  
HETATM   25  C   UNL     1     -11.559  15.793  70.815  1.00  0.00    -0.429 A  
ENDBRANCH  10  13
ENDBRANCH   9  10
ENDBRANCH   8   9
ENDBRANCH   7   8
ENDBRANCH   6   7
ENDBRANCH   5   6
ENDBRANCH   4   5
ENDBRANCH   2   4
BRANCH   2  26
HETATM   26  C   UNL     1      -8.483   5.828  69.345  1.00  0.00    -0.112 C  
HETATM   27  C   UNL     1      -7.235   9.024  70.774  1.00  0.00    -0.098 A  
HETATM   28  C   UNL     1      -9.701   6.363  70.129  1.00  0.00    -0.185 A  
HETATM   29  C   UNL     1      -5.897   9.055  70.396  1.00  0.00    -0.031 A  
HETATM   30  C   UNL     1      -9.371   7.603  70.726  1.00  0.00    -0.162 A  
HETATM   31  C   UNL     1      -7.985   7.904  70.453  1.00  0.00    -0.097 A  
HETATM   32  C   UNL     1     -10.290   8.298  71.500  1.00  0.00    -0.276 A  
HETATM   33  C   UNL     1      -5.294   7.953  69.770  1.00  0.00    -0.023 A  
HETATM   34  C   UNL     1     -10.955   5.801  70.360  1.00  0.00    -0.333 A  
HETATM   35  C   UNL     1      -7.404   6.824  69.753  1.00  0.00    -0.089 A  
HETATM   36  C   UNL     1     -11.562   7.753  71.682  1.00  0.00    -0.304 A  
HETATM   37  C   UNL     1      -6.040   6.803  69.480  1.00  0.00    -0.029 A  
HETATM   38  C   UNL     1     -11.892   6.517  71.116  1.00  0.00    -0.383 A  
ENDBRANCH   2  26
TORSDOF 9
ENDMDL
MODEL      246
REMARK 921   NORMALIZED FREE ENERGY PREDICTED BY IDOCK:   -4.57 KCAL/MOL
REMARK 922        TOTAL FREE ENERGY PREDICTED BY IDOCK:   -8.74 KCAL/MOL
REMARK 923 INTER-LIGAND FREE ENERGY PREDICTED BY IDOCK:   -8.78 KCAL/MOL
REMARK 924 INTRA-LIGAND FREE ENERGY PREDICTED BY IDOCK:    0.05 KCAL/MOL
REMARK 927      BINDING AFFINITY PREDICTED BY RF-SCORE:    0.00 PKD
ROOT
HETATM    1  C   UNL     1     -11.310   8.811  72.214  1.00  0.00    -0.285 C  
HETATM    2  N   UNL     1     -11.039   7.940  70.991  1.00  0.00    -0.246 N  
HETATM    3  C   UNL     1     -12.239   7.027  70.753  1.00  0.00    -0.295 C  
ENDROOT
BRANCH   2   4
HETATM    4  C   UNL     1     -10.774   8.833  69.797  1.00  0.00    -0.218 C  
BRANCH   4   5
HETATM    5  C   UNL     1     -10.023  10.134  70.076  1.00  0.00    -0.213 C  
BRANCH   5   6
HETATM    6  C   UNL     1      -8.947  10.336  69.001  1.00  0.00    -0.175 C  
BRANCH   6   7
HETATM    7  C   UNL     1      -9.021  11.698  68.285  1.00  0.00    -0.185 C  
BRANCH   7   8
HETATM    8  C   UNL     1      -7.879  12.659  68.650  1.00  0.00    -0.043 C  
BRANCH   8   9
HETATM    9  C   UNL     1      -7.826  13.771  67.602  1.00  0.00    -0.178 C  
BRANCH   9  10
HETATM   10  N   UNL     1      -7.934  15.187  68.145  1.00  0.00    -0.121 N  
HETATM   11  C   UNL     1      -7.501  15.254  69.606  1.00  0.00    -0.181 C  
HETATM   12  C   UNL     1      -7.043  16.158  67.385  1.00  0.00    -0.177 C  
BRANCH  10  13
HETATM   13  C   UNL     1      -9.471  15.627  68.001  1.00  0.00    -0.194 C  
HETATM   14  C   UNL     1     -10.124  15.206  66.670  1.00  0.00    -0.271 A  
HETATM   15  C   UNL     1     -10.546  16.348  65.954  1.00  0.00    -0.294 A  
HETATM   16  C   UNL     1     -10.312  17.528  66.752  1.00  0.00    -0.314 A  
HETATM   17  C   UNL     1     -11.116  16.241  64.693  1.00  0.00    -0.259 A  
HETATM   18  C   UNL     1      -9.705  17.155  67.973  1.00  0.00    -0.274 A  
HETATM   19  C   UNL     1     -11.274  14.972  64.139  1.00  0.00     0.180 A  
HETATM   20  C   UNL     1     -10.893  13.832  64.858  1.00  0.00    -0.398 A  
HETATM   21  C   UNL     1      -9.460  18.125  68.940  1.00  0.00    -0.216 A  
HETATM   22  C   UNL     1      -9.773  19.461  68.655  1.00  0.00    -0.504 A  
HETATM   23  C   UNL     1     -10.337  13.941  66.136  1.00  0.00    -0.303 A  
HETATM   24  C   UNL     1     -10.364  19.819  67.439  1.00  0.00    -0.582 A  
HETATM   25  C   UNL     1     -10.647  18.848  66.479  1.00  0.00    -0.462 A  
ENDBRANCH  10  13
ENDBRANCH   9  10
ENDBRANCH   8   9
ENDBRANCH   7   8
ENDBRANCH   6   7
ENDBRANCH   5   6
ENDBRANCH   4   5
ENDBRANCH   2   4
BRANCH   2  26
HETATM   26  C   UNL     1      -9.719   7.043  71.221  1.00  0.00    -0.171 C  
HETATM   27  C   UNL     1     -10.190   3.603  72.548  1.00  0.00    -0.229 A  
HETATM   28  C   UNL     1      -9.335   6.148  70.024  1.00  0.00    -0.166 A  
HETATM   29  C   UNL     1     -10.527   3.807  73.882  1.00  0.00    -0.262 A  
HETATM   30  C   UNL     1      -9.482   4.787  70.384  1.00  0.00    -0.241 A  
HETATM   31  C   UNL     1      -9.872   4.707  71.773  1.00  0.00    -0.247 A  
HETATM   32  C   UNL     1      -9.191   3.768  69.489  1.00  0.00    -0.226 A  
HETATM   33  C   UNL     1     -10.477   5.086  74.456  1.00  0.00    -0.274 A  
HETATM   34  C   UNL     1      -8.843   6.474  68.762  1.00  0.00    -0.125 A  
HETATM   35  C   UNL     1      -9.897   6.006  72.324  1.00  0.00    -0.178 A  
HETATM   36  C   UNL     1      -8.750   4.105  68.209  1.00  0.00    -0.119 A  
HETATM   37  C   UNL     1     -10.118   6.199  73.684  1.00  0.00    -0.227 A  
HETATM   38  C   UNL     1      -8.578   5.446  67.847  1.00  0.00    -0.104 A  
ENDBRANCH   2  26
TORSDOF 9
ENDMDL
MODEL      247
REMARK 921   NORMALIZED FREE ENERGY PREDICTED BY IDOCK:   -4.57 KCAL/MOL
REMARK 922        TOTAL FREE ENERGY PREDICTED BY IDOCK:   -8.73 KCAL/MOL
REMARK 923 INTER-LIGAND FREE ENERGY PREDICTED BY IDOCK:   -8.46 KCAL/MOL
REMARK 924 INTRA-LIGAND FREE ENERGY PREDICTED BY IDOCK:   -0.27 KCAL/MOL
REMARK 927      BINDING AFFINITY PREDICTED BY RF-SCORE:    0.00 PKD
ROOT
HETATM    1  C   UNL     1      -9.958  12.627  65.763  1.00  0.00    -0.256 C  
HETATM    2  N   UNL     1     -10.998  12.658  66.878  1.00  0.00    -0.254 N  
HETATM    3  C   UNL     1     -12.252  13.365  66.372  1.00  0.00    -0.376 C  
ENDROOT
BRANCH   2   4
HETATM    4  C   UNL     1     -11.298  11.239  67.314  1.00  0.00    -0.255 C  
BRANCH   4   5
HETATM    5  C   UNL     1     -10.484  10.135  66.640  1.00  0.00    -0.254 C  
BRANCH   5   6
HETATM    6  C   UNL     1     -10.465   8.896  67.546  1.00  0.00    -0.337 C  
BRANCH   6   7
HETATM    7  C   UNL     1      -9.577   7.751  67.027  1.00  0.00    -0.238 C  
BRANCH   7   8
HETATM    8  C   UNL     1      -8.165   7.731  67.632  1.00  0.00    -0.125 C  
BRANCH   8   9
HETATM    9  C   UNL     1      -8.265   7.270  69.086  1.00  0.00    -0.122 C  
BRANCH   9  10
HETATM   10  N   UNL     1      -7.458   8.081  70.087  1.00  0.00    -0.072 N  
HETATM   11  C   UNL     1      -5.975   8.082  69.730  1.00  0.00    -0.023 C  
HETATM   12  C   UNL     1      -7.895   9.538  70.125  1.00  0.00    -0.160 C  
BRANCH  10  13
HETATM   13  C   UNL     1      -7.682   7.404  71.526  1.00  0.00    -0.086 C  
HETATM   14  C   UNL     1      -7.130   5.969  71.639  1.00  0.00    -0.078 A  
HETATM   15  C   UNL     1      -8.179   5.066  71.922  1.00  0.00    -0.116 A  
HETATM   16  C   UNL     1      -9.407   5.802  72.108  1.00  0.00    -0.157 A  
HETATM   17  C   UNL     1      -7.952   3.701  72.018  1.00  0.00    -0.067 A  
HETATM   18  C   UNL     1      -9.163   7.181  71.910  1.00  0.00    -0.149 A  
HETATM   19  C   UNL     1      -6.654   3.227  71.833  1.00  0.00    -0.015 A  
HETATM   20  C   UNL     1      -5.601   4.119  71.589  1.00  0.00    -0.008 A  
HETATM   21  C   UNL     1     -10.191   8.095  72.117  1.00  0.00    -0.330 A  
HETATM   22  C   UNL     1     -11.462   7.619  72.467  1.00  0.00    -0.405 A  
HETATM   23  C   UNL     1      -5.829   5.497  71.513  1.00  0.00    -0.024 A  
HETATM   24  C   UNL     1     -11.693   6.252  72.650  1.00  0.00    -0.164 A  
HETATM   25  C   UNL     1     -10.660   5.331  72.479  1.00  0.00    -0.276 A  
ENDBRANCH  10  13
ENDBRANCH   9  10
ENDBRANCH   8   9
ENDBRANCH   7   8
ENDBRANCH   6   7
ENDBRANCH   5   6
ENDBRANCH   4   5
ENDBRANCH   2   4
BRANCH   2  26
HETATM   26  C   UNL     1     -10.421  13.442  68.164  1.00  0.00    -0.245 C  
HETATM   27  C   UNL     1     -10.812  17.137  68.239  1.00  0.00    -0.314 A  
HETATM   28  C   UNL     1     -11.449  13.664  69.294  1.00  0.00    -0.344 A  
HETATM   29  C   UNL     1      -9.890  17.587  67.301  1.00  0.00    -0.294 A  
HETATM   30  C   UNL     1     -11.710  15.049  69.431  1.00  0.00    -0.351 A  
HETATM   31  C   UNL     1     -10.869  15.779  68.510  1.00  0.00    -0.290 A  
HETATM   32  C   UNL     1     -12.595  15.526  70.387  1.00  0.00    -0.421 A  
HETATM   33  C   UNL     1      -8.984  16.704  66.694  1.00  0.00    -0.285 A  
HETATM   34  C   UNL     1     -12.053  12.763  70.168  1.00  0.00    -0.370 A  
HETATM   35  C   UNL     1     -10.014  14.876  67.844  1.00  0.00    -0.219 A  
HETATM   36  C   UNL     1     -13.237  14.611  71.222  1.00  0.00    -0.432 A  
HETATM   37  C   UNL     1      -9.012  15.336  66.995  1.00  0.00    -0.254 A  
HETATM   38  C   UNL     1     -12.970  13.241  71.113  1.00  0.00    -0.297 A  
ENDBRANCH   2  26
TORSDOF 9
ENDMDL
MODEL      248
REMARK 921   NORMALIZED FREE ENERGY PREDICTED BY IDOCK:   -4.57 KCAL/MOL
REMARK 922        TOTAL FREE ENERGY PREDICTED BY IDOCK:   -8.73 KCAL/MOL
REMARK 923 INTER-LIGAND FREE ENERGY PREDICTED BY IDOCK:   -8.04 KCAL/MOL
REMARK 924 INTRA-LIGAND FREE ENERGY PREDICTED BY IDOCK:   -0.69 KCAL/MOL
REMARK 927      BINDING AFFINITY PREDICTED BY RF-SCORE:    0.00 PKD
ROOT
HETATM    1  C   UNL     1     -12.570  15.385  70.250  1.00  0.00    -0.336 C  
HETATM    2  N   UNL     1     -11.593  14.792  69.241  1.00  0.00    -0.286 N  
HETATM    3  C   UNL     1     -10.167  14.994  69.747  1.00  0.00    -0.125 C  
ENDROOT
BRANCH   2   4
HETATM    4  C   UNL     1     -11.911  13.323  69.048  1.00  0.00    -0.321 C  
BRANCH   4   5
HETATM    5  C   UNL     1     -11.210  12.348  69.994  1.00  0.00     0.187 C  
BRANCH   5   6
HETATM    6  C   UNL     1     -11.108  10.974  69.317  1.00  0.00    -0.312 C  
BRANCH   6   7
HETATM    7  C   UNL     1     -11.051  11.033  67.780  1.00  0.00    -0.356 C  
BRANCH   7   8
HETATM    8  C   UNL     1      -9.626  11.113  67.210  1.00  0.00    -0.182 C  
BRANCH   8   9
HETATM    9  C   UNL     1      -8.872   9.844  67.606  1.00  0.00    -0.125 C  
BRANCH   9  10
HETATM   10  N   UNL     1      -7.811   9.378  66.622  1.00  0.00    -0.104 N  
HETATM   11  C   UNL     1      -7.305  10.535  65.766  1.00  0.00    -0.137 C  
HETATM   12  C   UNL     1      -6.595   8.797  67.326  1.00  0.00    -0.058 C  
BRANCH  10  13
HETATM   13  C   UNL     1      -8.494   8.259  65.695  1.00  0.00    -0.158 C  
HETATM   14  C   UNL     1      -9.229   7.154  66.479  1.00  0.00    -0.199 A  
HETATM   15  C   UNL     1      -8.642   5.897  66.211  1.00  0.00    -0.132 A  
HETATM   16  C   UNL     1      -7.609   6.053  65.215  1.00  0.00    -0.088 A  
HETATM   17  C   UNL     1      -9.086   4.743  66.840  1.00  0.00    -0.118 A  
HETATM   18  C   UNL     1      -7.500   7.417  64.861  1.00  0.00    -0.087 A  
HETATM   19  C   UNL     1     -10.139   4.843  67.749  1.00  0.00    -0.158 A  
HETATM   20  C   UNL     1     -10.751   6.080  67.992  1.00  0.00    -0.359 A  
HETATM   21  C   UNL     1      -6.619   7.795  63.853  1.00  0.00    -0.061 A  
HETATM   22  C   UNL     1      -5.819   6.816  63.249  1.00  0.00    -0.035 A  
HETATM   23  C   UNL     1     -10.314   7.238  67.342  1.00  0.00    -0.330 A  
HETATM   24  C   UNL     1      -5.929   5.470  63.615  1.00  0.00    -0.021 A  
HETATM   25  C   UNL     1      -6.835   5.077  64.599  1.00  0.00    -0.049 A  
ENDBRANCH  10  13
ENDBRANCH   9  10
ENDBRANCH   8   9
ENDBRANCH   7   8
ENDBRANCH   6   7
ENDBRANCH   5   6
ENDBRANCH   4   5
ENDBRANCH   2   4
BRANCH   2  26
HETATM   26  C   UNL     1     -11.760  15.510  67.807  1.00  0.00    -0.088 C  
HETATM   27  C   UNL     1      -8.665  16.586  66.053  1.00  0.00    -0.255 A  
HETATM   28  C   UNL     1     -11.690  14.553  66.598  1.00  0.00    -0.384 A  
HETATM   29  C   UNL     1      -8.239  17.691  66.781  1.00  0.00    -0.270 A  
HETATM   30  C   UNL     1     -10.535  14.842  65.833  1.00  0.00    -0.324 A  
HETATM   31  C   UNL     1      -9.859  15.980  66.411  1.00  0.00    -0.308 A  
HETATM   32  C   UNL     1     -10.236  14.130  64.679  1.00  0.00    -0.195 A  
HETATM   33  C   UNL     1      -9.029  18.232  67.807  1.00  0.00    -0.273 A  
HETATM   34  C   UNL     1     -12.574  13.569  66.161  1.00  0.00    -0.355 A  
HETATM   35  C   UNL     1     -10.619  16.471  67.494  1.00  0.00    -0.313 A  
HETATM   36  C   UNL     1     -11.099  13.110  64.279  1.00  0.00    -0.426 A  
HETATM   37  C   UNL     1     -10.256  17.645  68.146  1.00  0.00    -0.371 A  
HETATM   38  C   UNL     1     -12.257  12.830  65.013  1.00  0.00    -0.527 A  
ENDBRANCH   2  26
TORSDOF 9
ENDMDL
MODEL      249
REMARK 921   NORMALIZED FREE ENERGY PREDICTED BY IDOCK:   -4.56 KCAL/MOL
REMARK 922        TOTAL FREE ENERGY PREDICTED BY IDOCK:   -8.73 KCAL/MOL
REMARK 923 INTER-LIGAND FREE ENERGY PREDICTED BY IDOCK:   -8.24 KCAL/MOL
REMARK 924 INTRA-LIGAND FREE ENERGY PREDICTED BY IDOCK:   -0.48 KCAL/MOL
REMARK 927      BINDING AFFINITY PREDICTED BY RF-SCORE:    0.00 PKD
ROOT
HETATM    1  C   UNL     1      -7.778   5.490  70.407  1.00  0.00    -0.085 C  
HETATM    2  N   UNL     1      -7.589   6.968  70.731  1.00  0.00    -0.088 N  
HETATM    3  C   UNL     1      -7.580   7.150  72.246  1.00  0.00    -0.089 C  
ENDROOT
BRANCH   2   4
HETATM    4  C   UNL     1      -6.297   7.451  70.106  1.00  0.00    -0.034 C  
BRANCH   4   5
HETATM    5  C   UNL     1      -5.398   8.316  70.989  1.00  0.00    -0.029 C  
BRANCH   5   6
HETATM    6  C   UNL     1      -5.739   9.795  70.762  1.00  0.00    -0.071 C  
BRANCH   6   7
HETATM    7  C   UNL     1      -6.230  10.115  69.338  1.00  0.00    -0.046 C  
BRANCH   7   8
HETATM    8  C   UNL     1      -6.953  11.465  69.214  1.00  0.00    -0.115 C  
BRANCH   8   9
HETATM    9  C   UNL     1      -8.323  11.226  68.578  1.00  0.00    -0.155 C  
BRANCH   9  10
HETATM   10  N   UNL     1      -8.583  11.979  67.283  1.00  0.00    -0.169 N  
HETATM   11  C   UNL     1      -7.587  13.118  67.096  1.00  0.00     0.006 C  
HETATM   12  C   UNL     1      -8.446  11.079  66.064  1.00  0.00    -0.158 C  
BRANCH  10  13
HETATM   13  C   UNL     1     -10.078  12.557  67.371  1.00  0.00    -0.210 C  
HETATM   14  C   UNL     1     -10.801  12.644  66.013  1.00  0.00    -0.306 A  
HETATM   15  C   UNL     1     -11.137  13.986  65.727  1.00  0.00    -0.305 A  
HETATM   16  C   UNL     1     -10.777  14.820  66.849  1.00  0.00    -0.308 A  
HETATM   17  C   UNL     1     -11.747  14.340  64.532  1.00  0.00    -0.431 A  
HETATM   18  C   UNL     1     -10.175  14.025  67.851  1.00  0.00    -0.240 A  
HETATM   19  C   UNL     1     -12.033  13.336  63.608  1.00  0.00    -0.547 A  
HETATM   20  C   UNL     1     -11.737  11.998  63.899  1.00  0.00    -0.537 A  
HETATM   21  C   UNL     1      -9.817  14.605  69.063  1.00  0.00    -0.178 A  
HETATM   22  C   UNL     1     -10.017  15.981  69.242  1.00  0.00    -0.252 A  
HETATM   23  C   UNL     1     -11.140  11.642  65.112  1.00  0.00    -0.300 A  
HETATM   24  C   UNL     1     -10.605  16.759  68.239  1.00  0.00    -0.352 A  
HETATM   25  C   UNL     1     -10.999  16.179  67.034  1.00  0.00    -0.123 A  
ENDBRANCH  10  13
ENDBRANCH   9  10
ENDBRANCH   8   9
ENDBRANCH   7   8
ENDBRANCH   6   7
ENDBRANCH   5   6
ENDBRANCH   4   5
ENDBRANCH   2   4
BRANCH   2  26
HETATM   26  C   UNL     1      -8.786   7.841  70.093  1.00  0.00    -0.140 C  
HETATM   27  C   UNL     1     -11.054   6.144  67.686  1.00  0.00    -0.311 A  
HETATM   28  C   UNL     1     -10.121   7.760  70.864  1.00  0.00    -0.195 A  
HETATM   29  C   UNL     1     -10.277   6.004  66.542  1.00  0.00    -0.200 A  
HETATM   30  C   UNL     1     -11.092   7.114  70.062  1.00  0.00    -0.288 A  
HETATM   31  C   UNL     1     -10.515   6.818  68.771  1.00  0.00    -0.231 A  
HETATM   32  C   UNL     1     -12.389   6.920  70.515  1.00  0.00    -0.177 A  
HETATM   33  C   UNL     1      -9.006   6.592  66.452  1.00  0.00    -0.158 A  
HETATM   34  C   UNL     1     -10.483   8.256  72.115  1.00  0.00    -0.371 A  
HETATM   35  C   UNL     1      -9.206   7.343  68.715  1.00  0.00    -0.144 A  
HETATM   36  C   UNL     1     -12.728   7.372  71.791  1.00  0.00    -0.367 A  
HETATM   37  C   UNL     1      -8.474   7.308  67.532  1.00  0.00    -0.119 A  
HETATM   38  C   UNL     1     -11.784   8.033  72.585  1.00  0.00    -0.418 A  
ENDBRANCH   2  26
TORSDOF 9
ENDMDL
MODEL      250
REMARK 921   NORMALIZED FREE ENERGY PREDICTED BY IDOCK:   -4.56 KCAL/MOL
REMARK 922        TOTAL FREE ENERGY PREDICTED BY IDOCK:   -8.72 KCAL/MOL
REMARK 923 INTER-LIGAND FREE ENERGY PREDICTED BY IDOCK:   -8.02 KCAL/MOL
REMARK 924 INTRA-LIGAND FREE ENERGY PREDICTED BY IDOCK:   -0.70 KCAL/MOL
REMARK 927      BINDING AFFINITY PREDICTED BY RF-SCORE:    0.00 PKD
ROOT
HETATM    1  C   UNL     1      -9.805   4.168  69.377  1.00  0.00    -0.093 C  
HETATM    2  N   UNL     1      -9.622   5.512  68.679  1.00  0.00    -0.128 N  
HETATM    3  C   UNL     1     -10.811   5.762  67.756  1.00  0.00    -0.167 C  
ENDROOT
BRANCH   2   4
HETATM    4  C   UNL     1      -9.491   6.599  69.725  1.00  0.00    -0.147 C  
BRANCH   4   5
HETATM    5  C   UNL     1     -10.609   7.642  69.763  1.00  0.00    -0.245 C  
BRANCH   5   6
HETATM    6  C   UNL     1     -10.237   8.743  70.764  1.00  0.00    -0.262 C  
BRANCH   6   7
HETATM    7  C   UNL     1     -11.410   9.664  71.150  1.00  0.00    -0.456 C  
BRANCH   7   8
HETATM    8  C   UNL     1     -11.795  10.675  70.059  1.00  0.00    -0.403 C  
BRANCH   8   9
HETATM    9  C   UNL     1     -10.519  11.324  69.524  1.00  0.00     0.027 C  
BRANCH   9  10
HETATM   10  N   UNL     1     -10.518  11.636  68.036  1.00  0.00    -0.188 N  
HETATM   11  C   UNL     1      -9.162  12.169  67.584  1.00  0.00    -0.181 C  
HETATM   12  C   UNL     1     -10.799  10.401  67.194  1.00  0.00    -0.238 C  
BRANCH  10  13
HETATM   13  C   UNL     1     -11.658  12.739  67.789  1.00  0.00    -0.353 C  
HETATM   14  C   UNL     1     -11.879  13.096  66.307  1.00  0.00    -0.455 A  
HETATM   15  C   UNL     1     -11.608  14.466  66.091  1.00  0.00    -0.372 A  
HETATM   16  C   UNL     1     -11.306  15.098  67.353  1.00  0.00    -0.309 A  
HETATM   17  C   UNL     1     -11.678  15.026  64.823  1.00  0.00    -0.370 A  
HETATM   18  C   UNL     1     -11.348  14.132  68.384  1.00  0.00    -0.315 A  
HETATM   19  C   UNL     1     -12.032  14.207  63.752  1.00  0.00    -0.156 A  
HETATM   20  C   UNL     1     -12.339  12.856  63.963  1.00  0.00    -0.457 A  
HETATM   21  C   UNL     1     -11.167  14.532  69.704  1.00  0.00    -0.292 A  
HETATM   22  C   UNL     1     -10.895  15.880  69.974  1.00  0.00    -0.356 A  
HETATM   23  C   UNL     1     -12.286  12.298  65.244  1.00  0.00    -0.225 A  
HETATM   24  C   UNL     1     -10.847  16.825  68.944  1.00  0.00    -0.301 A  
HETATM   25  C   UNL     1     -11.062  16.439  67.621  1.00  0.00    -0.150 A  
ENDBRANCH  10  13
ENDBRANCH   9  10
ENDBRANCH   8   9
ENDBRANCH   7   8
ENDBRANCH   6   7
ENDBRANCH   5   6
ENDBRANCH   4   5
ENDBRANCH   2   4
BRANCH   2  26
HETATM   26  C   UNL     1      -8.261   5.514  67.813  1.00  0.00    -0.100 C  
HETATM   27  C   UNL     1      -8.553   4.935  64.153  1.00  0.00    -0.135 A  
HETATM   28  C   UNL     1      -7.888   6.885  67.208  1.00  0.00    -0.110 A  
HETATM   29  C   UNL     1      -8.849   3.579  64.056  1.00  0.00    -0.097 A  
HETATM   30  C   UNL     1      -7.969   6.817  65.797  1.00  0.00    -0.112 A  
HETATM   31  C   UNL     1      -8.306   5.467  65.409  1.00  0.00    -0.142 A  
HETATM   32  C   UNL     1      -7.673   7.916  65.003  1.00  0.00    -0.106 A  
HETATM   33  C   UNL     1      -8.826   2.749  65.187  1.00  0.00    -0.127 A  
HETATM   34  C   UNL     1      -7.454   8.062  67.815  1.00  0.00    -0.094 A  
HETATM   35  C   UNL     1      -8.360   4.652  66.560  1.00  0.00    -0.106 A  
HETATM   36  C   UNL     1      -7.292   9.107  65.622  1.00  0.00    -0.086 A  
HETATM   37  C   UNL     1      -8.538   3.276  66.452  1.00  0.00    -0.121 A  
HETATM   38  C   UNL     1      -7.185   9.180  67.016  1.00  0.00    -0.090 A  
ENDBRANCH   2  26
TORSDOF 9
ENDMDL
MODEL      251
REMARK 921   NORMALIZED FREE ENERGY PREDICTED BY IDOCK:   -4.55 KCAL/MOL
REMARK 922        TOTAL FREE ENERGY PREDICTED BY IDOCK:   -8.71 KCAL/MOL
REMARK 923 INTER-LIGAND FREE ENERGY PREDICTED BY IDOCK:   -7.68 KCAL/MOL
REMARK 924 INTRA-LIGAND FREE ENERGY PREDICTED BY IDOCK:   -1.03 KCAL/MOL
REMARK 927      BINDING AFFINITY PREDICTED BY RF-SCORE:    0.00 PKD
ROOT
HETATM    1  C   UNL     1     -12.696   6.831  71.796  1.00  0.00    -0.296 C  
HETATM    2  N   UNL     1     -11.250   7.311  71.870  1.00  0.00    -0.242 N  
HETATM    3  C   UNL     1     -10.484   6.776  70.664  1.00  0.00    -0.215 C  
ENDROOT
BRANCH   2   4
HETATM    4  C   UNL     1     -11.233   8.825  71.912  1.00  0.00    -0.368 C  
BRANCH   4   5
HETATM    5  C   UNL     1     -12.464   9.533  71.347  1.00  0.00    -0.450 C  
BRANCH   5   6
HETATM    6  C   UNL     1     -12.067  10.939  70.877  1.00  0.00    -0.455 C  
BRANCH   6   7
HETATM    7  C   UNL     1     -11.118  10.950  69.664  1.00  0.00    -0.328 C  
BRANCH   7   8
HETATM    8  C   UNL     1     -11.743  11.529  68.386  1.00  0.00    -0.372 C  
BRANCH   8   9
HETATM    9  C   UNL     1     -11.135  10.813  67.179  1.00  0.00    -0.227 C  
BRANCH   9  10
HETATM   10  N   UNL     1     -10.318  11.688  66.242  1.00  0.00    -0.227 N  
HETATM   11  C   UNL     1     -10.801  11.558  64.802  1.00  0.00    -0.297 C  
HETATM   12  C   UNL     1     -10.423  13.162  66.603  1.00  0.00    -0.277 C  
BRANCH  10  13
HETATM   13  C   UNL     1      -8.792  11.202  66.362  1.00  0.00    -0.178 C  
HETATM   14  C   UNL     1      -8.632   9.702  66.680  1.00  0.00    -0.137 A  
HETATM   15  C   UNL     1      -7.960   9.536  67.912  1.00  0.00    -0.098 A  
HETATM   16  C   UNL     1      -7.560  10.828  68.417  1.00  0.00    -0.102 A  
HETATM   17  C   UNL     1      -7.741   8.277  68.452  1.00  0.00    -0.105 A  
HETATM   18  C   UNL     1      -8.003  11.836  67.531  1.00  0.00    -0.148 A  
HETATM   19  C   UNL     1      -8.195   7.162  67.748  1.00  0.00    -0.115 A  
HETATM   20  C   UNL     1      -8.830   7.316  66.509  1.00  0.00    -0.156 A  
HETATM   21  C   UNL     1      -7.659  13.162  67.775  1.00  0.00    -0.155 A  
HETATM   22  C   UNL     1      -6.923  13.471  68.927  1.00  0.00    -0.108 A  
HETATM   23  C   UNL     1      -9.032   8.585  65.957  1.00  0.00    -0.228 A  
HETATM   24  C   UNL     1      -6.499  12.465  69.802  1.00  0.00    -0.025 A  
HETATM   25  C   UNL     1      -6.809  11.129  69.546  1.00  0.00    -0.127 A  
ENDBRANCH  10  13
ENDBRANCH   9  10
ENDBRANCH   8   9
ENDBRANCH   7   8
ENDBRANCH   6   7
ENDBRANCH   5   6
ENDBRANCH   4   5
ENDBRANCH   2   4
BRANCH   2  26
HETATM   26  C   UNL     1     -10.553   6.787  73.226  1.00  0.00    -0.309 C  
HETATM   27  C   UNL     1      -8.998   3.411  73.163  1.00  0.00    -0.100 A  
HETATM   28  C   UNL     1      -9.043   7.091  73.331  1.00  0.00    -0.176 A  
HETATM   29  C   UNL     1     -10.087   2.546  73.151  1.00  0.00    -0.196 A  
HETATM   30  C   UNL     1      -8.312   5.879  73.305  1.00  0.00    -0.116 A  
HETATM   31  C   UNL     1      -9.239   4.772  73.261  1.00  0.00    -0.120 A  
HETATM   32  C   UNL     1      -6.928   5.869  73.394  1.00  0.00    -0.085 A  
HETATM   33  C   UNL     1     -11.396   3.025  73.310  1.00  0.00    -0.144 A  
HETATM   34  C   UNL     1      -8.366   8.298  73.498  1.00  0.00    -0.259 A  
HETATM   35  C   UNL     1     -10.559   5.266  73.341  1.00  0.00    -0.300 A  
HETATM   36  C   UNL     1      -6.254   7.086  73.507  1.00  0.00    -0.062 A  
HETATM   37  C   UNL     1     -11.640   4.398  73.449  1.00  0.00    -0.225 A  
HETATM   38  C   UNL     1      -6.966   8.290  73.558  1.00  0.00    -0.152 A  
ENDBRANCH   2  26
TORSDOF 9
ENDMDL
MODEL      252
REMARK 921   NORMALIZED FREE ENERGY PREDICTED BY IDOCK:   -4.55 KCAL/MOL
REMARK 922        TOTAL FREE ENERGY PREDICTED BY IDOCK:   -8.70 KCAL/MOL
REMARK 923 INTER-LIGAND FREE ENERGY PREDICTED BY IDOCK:   -7.78 KCAL/MOL
REMARK 924 INTRA-LIGAND FREE ENERGY PREDICTED BY IDOCK:   -0.92 KCAL/MOL
REMARK 927      BINDING AFFINITY PREDICTED BY RF-SCORE:    0.00 PKD
ROOT
HETATM    1  C   UNL     1     -11.435  15.764  64.446  1.00  0.00    -0.263 C  
HETATM    2  N   UNL     1     -11.308  14.690  65.521  1.00  0.00    -0.335 N  
HETATM    3  C   UNL     1     -12.702  14.212  65.917  1.00  0.00    -0.354 C  
ENDROOT
BRANCH   2   4
HETATM    4  C   UNL     1     -10.461  13.553  64.987  1.00  0.00    -0.376 C  
BRANCH   4   5
HETATM    5  C   UNL     1     -11.215  12.402  64.321  1.00  0.00    -0.408 C  
BRANCH   5   6
HETATM    6  C   UNL     1     -10.267  11.666  63.364  1.00  0.00    -0.471 C  
BRANCH   6   7
HETATM    7  C   UNL     1      -9.473  10.522  64.022  1.00  0.00    -0.337 C  
BRANCH   7   8
HETATM    8  C   UNL     1     -10.068  10.031  65.350  1.00  0.00    -0.317 C  
BRANCH   8   9
HETATM    9  C   UNL     1      -9.533   8.627  65.633  1.00  0.00    -0.044 C  
BRANCH   9  10
HETATM   10  N   UNL     1     -10.050   7.974  66.906  1.00  0.00    -0.266 N  
HETATM   11  C   UNL     1     -10.893   8.947  67.723  1.00  0.00    -0.036 C  
HETATM   12  C   UNL     1     -10.937   6.774  66.611  1.00  0.00     0.006 C  
BRANCH  10  13
HETATM   13  C   UNL     1      -8.763   7.512  67.748  1.00  0.00    -0.123 C  
HETATM   14  C   UNL     1      -8.905   7.704  69.270  1.00  0.00    -0.136 A  
HETATM   15  C   UNL     1      -7.916   8.598  69.741  1.00  0.00    -0.095 A  
HETATM   16  C   UNL     1      -7.040   8.958  68.652  1.00  0.00    -0.071 A  
HETATM   17  C   UNL     1      -7.864   8.982  71.073  1.00  0.00    -0.174 A  
HETATM   18  C   UNL     1      -7.480   8.327  67.466  1.00  0.00    -0.094 A  
HETATM   19  C   UNL     1      -8.811   8.462  71.954  1.00  0.00    -0.267 A  
HETATM   20  C   UNL     1      -9.772   7.547  71.503  1.00  0.00    -0.184 A  
HETATM   21  C   UNL     1      -6.736   8.467  66.299  1.00  0.00    -0.065 A  
HETATM   22  C   UNL     1      -5.592   9.277  66.316  1.00  0.00    -0.052 A  
HETATM   23  C   UNL     1      -9.810   7.146  70.164  1.00  0.00    -0.180 A  
HETATM   24  C   UNL     1      -5.173   9.905  67.494  1.00  0.00    -0.035 A  
HETATM   25  C   UNL     1      -5.893   9.741  68.677  1.00  0.00    -0.039 A  
ENDBRANCH  10  13
ENDBRANCH   9  10
ENDBRANCH   8   9
ENDBRANCH   7   8
ENDBRANCH   6   7
ENDBRANCH   5   6
ENDBRANCH   4   5
ENDBRANCH   2   4
BRANCH   2  26
HETATM   26  C   UNL     1     -10.553  15.280  66.818  1.00  0.00    -0.304 C  
HETATM   27  C   UNL     1      -6.939  14.502  67.206  1.00  0.00     0.055 A  
HETATM   28  C   UNL     1      -9.873  16.648  66.598  1.00  0.00    -0.285 A  
HETATM   29  C   UNL     1      -6.927  13.158  67.563  1.00  0.00    -0.155 A  
HETATM   30  C   UNL     1      -8.469  16.501  66.705  1.00  0.00    -0.273 A  
HETATM   31  C   UNL     1      -8.164  15.133  67.054  1.00  0.00    -0.262 A  
HETATM   32  C   UNL     1      -7.616  17.586  66.558  1.00  0.00    -0.311 A  
HETATM   33  C   UNL     1      -8.118  12.469  67.836  1.00  0.00    -0.163 A  
HETATM   34  C   UNL     1     -10.416  17.914  66.390  1.00  0.00    -0.318 A  
HETATM   35  C   UNL     1      -9.369  14.424  67.251  1.00  0.00    -0.211 A  
HETATM   36  C   UNL     1      -8.167  18.841  66.296  1.00  0.00    -0.270 A  
HETATM   37  C   UNL     1      -9.357  13.115  67.722  1.00  0.00    -0.206 A  
HETATM   38  C   UNL     1      -9.554  19.004  66.211  1.00  0.00    -0.367 A  
ENDBRANCH   2  26
TORSDOF 9
ENDMDL
MODEL      253
REMARK 921   NORMALIZED FREE ENERGY PREDICTED BY IDOCK:   -4.54 KCAL/MOL
REMARK 922        TOTAL FREE ENERGY PREDICTED BY IDOCK:   -8.69 KCAL/MOL
REMARK 923 INTER-LIGAND FREE ENERGY PREDICTED BY IDOCK:   -8.56 KCAL/MOL
REMARK 924 INTRA-LIGAND FREE ENERGY PREDICTED BY IDOCK:   -0.13 KCAL/MOL
REMARK 927      BINDING AFFINITY PREDICTED BY RF-SCORE:    0.00 PKD
ROOT
HETATM    1  C   UNL     1     -10.227  10.327  66.453  1.00  0.00    -0.225 C  
HETATM    2  N   UNL     1      -9.105   9.352  66.793  1.00  0.00    -0.137 N  
HETATM    3  C   UNL     1      -7.861   9.724  65.991  1.00  0.00    -0.107 C  
ENDROOT
BRANCH   2   4
HETATM    4  C   UNL     1      -8.840   9.402  68.284  1.00  0.00    -0.128 C  
BRANCH   4   5
HETATM    5  C   UNL     1      -9.447  10.583  69.041  1.00  0.00    -0.211 C  
BRANCH   5   6
HETATM    6  C   UNL     1     -10.305  10.053  70.198  1.00  0.00    -0.321 C  
BRANCH   6   7
HETATM    7  C   UNL     1     -11.631  10.810  70.395  1.00  0.00    -0.431 C  
BRANCH   7   8
HETATM    8  C   UNL     1     -11.847  11.963  69.402  1.00  0.00    -0.389 C  
BRANCH   8   9
HETATM    9  C   UNL     1     -12.185  13.228  70.191  1.00  0.00    -0.306 C  
BRANCH   9  10
HETATM   10  N   UNL     1     -11.503  14.500  69.713  1.00  0.00    -0.269 N  
HETATM   11  C   UNL     1     -12.524  15.541  69.267  1.00  0.00     0.060 C  
HETATM   12  C   UNL     1     -10.673  15.149  70.811  1.00  0.00    -0.070 C  
BRANCH  10  13
HETATM   13  C   UNL     1     -10.557  14.088  68.483  1.00  0.00    -0.254 C  
HETATM   14  C   UNL     1      -9.311  14.980  68.320  1.00  0.00    -0.192 A  
HETATM   15  C   UNL     1      -9.337  15.626  67.064  1.00  0.00    -0.241 A  
HETATM   16  C   UNL     1     -10.476  15.160  66.309  1.00  0.00    -0.312 A  
HETATM   17  C   UNL     1      -8.353  16.531  66.695  1.00  0.00    -0.297 A  
HETATM   18  C   UNL     1     -11.210  14.236  67.089  1.00  0.00    -0.333 A  
HETATM   19  C   UNL     1      -7.319  16.793  67.593  1.00  0.00    -0.164 A  
HETATM   20  C   UNL     1      -7.265  16.129  68.826  1.00  0.00    -0.170 A  
HETATM   21  C   UNL     1     -12.310  13.592  66.533  1.00  0.00    -0.412 A  
HETATM   22  C   UNL     1     -12.697  13.916  65.225  1.00  0.00    -0.485 A  
HETATM   23  C   UNL     1      -8.248  15.202  69.187  1.00  0.00    -0.214 A  
HETATM   24  C   UNL     1     -11.968  14.839  64.467  1.00  0.00    -0.451 A  
HETATM   25  C   UNL     1     -10.843  15.463  65.004  1.00  0.00    -0.462 A  
ENDBRANCH  10  13
ENDBRANCH   9  10
ENDBRANCH   8   9
ENDBRANCH   7   8
ENDBRANCH   6   7
ENDBRANCH   5   6
ENDBRANCH   4   5
ENDBRANCH   2   4
BRANCH   2  26
HETATM   26  C   UNL     1      -9.544   7.842  66.435  1.00  0.00    -0.181 C  
HETATM   27  C   UNL     1      -6.916   5.216  66.554  1.00  0.00    -0.067 A  
HETATM   28  C   UNL     1      -9.955   6.987  67.652  1.00  0.00    -0.194 A  
HETATM   29  C   UNL     1      -6.143   5.471  65.427  1.00  0.00    -0.026 A  
HETATM   30  C   UNL     1      -9.022   5.938  67.831  1.00  0.00    -0.111 A  
HETATM   31  C   UNL     1      -8.046   5.990  66.767  1.00  0.00    -0.105 A  
HETATM   32  C   UNL     1      -9.164   5.013  68.855  1.00  0.00    -0.155 A  
HETATM   33  C   UNL     1      -6.529   6.437  64.485  1.00  0.00    -0.034 A  
HETATM   34  C   UNL     1     -11.066   7.067  68.489  1.00  0.00    -0.071 A  
HETATM   35  C   UNL     1      -8.397   7.016  65.864  1.00  0.00    -0.141 A  
HETATM   36  C   UNL     1     -10.251   5.132  69.721  1.00  0.00    -0.357 A  
HETATM   37  C   UNL     1      -7.692   7.194  64.677  1.00  0.00    -0.112 A  
HETATM   38  C   UNL     1     -11.193   6.151  69.542  1.00  0.00    -0.482 A  
ENDBRANCH   2  26
TORSDOF 9
ENDMDL
MODEL      254
REMARK 921   NORMALIZED FREE ENERGY PREDICTED BY IDOCK:   -4.52 KCAL/MOL
REMARK 922        TOTAL FREE ENERGY PREDICTED BY IDOCK:   -8.67 KCAL/MOL
REMARK 923 INTER-LIGAND FREE ENERGY PREDICTED BY IDOCK:   -8.44 KCAL/MOL
REMARK 924 INTRA-LIGAND FREE ENERGY PREDICTED BY IDOCK:   -0.23 KCAL/MOL
REMARK 927      BINDING AFFINITY PREDICTED BY RF-SCORE:    0.00 PKD
ROOT
HETATM    1  C   UNL     1     -11.260   8.728  72.242  1.00  0.00    -0.273 C  
HETATM    2  N   UNL     1     -11.121   7.649  71.173  1.00  0.00    -0.247 N  
HETATM    3  C   UNL     1     -12.393   6.806  71.146  1.00  0.00    -0.333 C  
ENDROOT
BRANCH   2   4
HETATM    4  C   UNL     1     -10.863   8.310  69.834  1.00  0.00    -0.213 C  
BRANCH   4   5
HETATM    5  C   UNL     1     -10.293   9.727  69.876  1.00  0.00    -0.291 C  
BRANCH   5   6
HETATM    6  C   UNL     1      -9.440   9.964  68.622  1.00  0.00    -0.153 C  
BRANCH   6   7
HETATM    7  C   UNL     1      -9.655  11.341  67.966  1.00  0.00    -0.182 C  
BRANCH   7   8
HETATM    8  C   UNL     1      -8.683  12.425  68.455  1.00  0.00    -0.060 C  
BRANCH   8   9
HETATM    9  C   UNL     1      -8.661  13.558  67.429  1.00  0.00    -0.220 C  
BRANCH   9  10
HETATM   10  N   UNL     1      -8.424  14.949  67.995  1.00  0.00    -0.146 N  
HETATM   11  C   UNL     1      -7.965  14.884  69.448  1.00  0.00    -0.123 C  
HETATM   12  C   UNL     1      -7.341  15.697  67.232  1.00  0.00    -0.220 C  
BRANCH  10  13
HETATM   13  C   UNL     1      -9.816  15.741  67.887  1.00  0.00    -0.217 C  
HETATM   14  C   UNL     1     -10.654  15.376  66.646  1.00  0.00    -0.306 A  
HETATM   15  C   UNL     1     -10.843  16.517  65.835  1.00  0.00    -0.096 A  
HETATM   16  C   UNL     1     -10.270  17.669  66.489  1.00  0.00    -0.355 A  
HETATM   17  C   UNL     1     -11.519  16.441  64.625  1.00  0.00    -0.092 A  
HETATM   18  C   UNL     1      -9.677  17.271  67.709  1.00  0.00    -0.270 A  
HETATM   19  C   UNL     1     -12.021  15.205  64.220  1.00  0.00    -0.276 A  
HETATM   20  C   UNL     1     -11.870  14.076  65.035  1.00  0.00    -0.383 A  
HETATM   21  C   UNL     1      -9.130  18.233  68.551  1.00  0.00    -0.328 A  
HETATM   22  C   UNL     1      -9.134  19.574  68.142  1.00  0.00    -0.396 A  
HETATM   23  C   UNL     1     -11.206  14.159  66.263  1.00  0.00    -0.329 A  
HETATM   24  C   UNL     1      -9.714  19.954  66.928  1.00  0.00    -0.532 A  
HETATM   25  C   UNL     1     -10.297  19.001  66.094  1.00  0.00    -0.537 A  
ENDBRANCH  10  13
ENDBRANCH   9  10
ENDBRANCH   8   9
ENDBRANCH   7   8
ENDBRANCH   6   7
ENDBRANCH   5   6
ENDBRANCH   4   5
ENDBRANCH   2   4
BRANCH   2  26
HETATM   26  C   UNL     1      -9.855   6.702  71.492  1.00  0.00    -0.171 C  
HETATM   27  C   UNL     1      -6.816   7.135  69.397  1.00  0.00    -0.050 A  
HETATM   28  C   UNL     1      -8.832   7.308  72.476  1.00  0.00    -0.146 A  
HETATM   29  C   UNL     1      -7.176   6.581  68.173  1.00  0.00    -0.088 A  
HETATM   30  C   UNL     1      -7.610   7.543  71.803  1.00  0.00    -0.084 A  
HETATM   31  C   UNL     1      -7.722   7.068  70.443  1.00  0.00    -0.096 A  
HETATM   32  C   UNL     1      -6.513   8.077  72.463  1.00  0.00    -0.074 A  
HETATM   33  C   UNL     1      -8.394   5.903  68.014  1.00  0.00    -0.111 A  
HETATM   34  C   UNL     1      -8.926   7.572  73.841  1.00  0.00    -0.300 A  
HETATM   35  C   UNL     1      -8.982   6.456  70.267  1.00  0.00    -0.154 A  
HETATM   36  C   UNL     1      -6.632   8.389  73.818  1.00  0.00    -0.139 A  
HETATM   37  C   UNL     1      -9.296   5.799  69.082  1.00  0.00    -0.146 A  
HETATM   38  C   UNL     1      -7.828   8.140  74.501  1.00  0.00    -0.301 A  
ENDBRANCH   2  26
TORSDOF 9
ENDMDL
MODEL      255
REMARK 921   NORMALIZED FREE ENERGY PREDICTED BY IDOCK:   -4.52 KCAL/MOL
REMARK 922        TOTAL FREE ENERGY PREDICTED BY IDOCK:   -8.66 KCAL/MOL
REMARK 923 INTER-LIGAND FREE ENERGY PREDICTED BY IDOCK:   -7.17 KCAL/MOL
REMARK 924 INTRA-LIGAND FREE ENERGY PREDICTED BY IDOCK:   -1.50 KCAL/MOL
REMARK 927      BINDING AFFINITY PREDICTED BY RF-SCORE:    0.00 PKD
ROOT
HETATM    1  C   UNL     1     -10.663  10.914  69.932  1.00  0.00    -0.075 C  
HETATM    2  N   UNL     1     -11.357  11.814  68.915  1.00  0.00    -0.242 N  
HETATM    3  C   UNL     1     -12.435  11.012  68.192  1.00  0.00     1.399 C  
ENDROOT
BRANCH   2   4
HETATM    4  C   UNL     1     -11.944  13.012  69.634  1.00  0.00    -0.302 C  
BRANCH   4   5
HETATM    5  C   UNL     1     -11.060  14.256  69.711  1.00  0.00    -0.175 C  
BRANCH   5   6
HETATM    6  C   UNL     1     -11.900  15.494  69.366  1.00  0.00    -0.392 C  
BRANCH   6   7
HETATM    7  C   UNL     1     -11.505  16.173  68.042  1.00  0.00    -0.163 C  
BRANCH   7   8
HETATM    8  C   UNL     1     -11.189  17.670  68.177  1.00  0.00     0.276 C  
BRANCH   8   9
HETATM    9  C   UNL     1     -10.427  18.121  66.930  1.00  0.00    -0.357 C  
BRANCH   9  10
HETATM   10  N   UNL     1      -9.500  19.310  67.125  1.00  0.00    -0.315 N  
HETATM   11  C   UNL     1      -9.795  20.413  66.114  1.00  0.00    -0.192 C  
HETATM   12  C   UNL     1      -9.653  19.934  68.504  1.00  0.00    -0.279 C  
BRANCH  10  13
HETATM   13  C   UNL     1      -8.000  18.768  66.932  1.00  0.00    -0.252 C  
HETATM   14  C   UNL     1      -7.866  17.236  67.035  1.00  0.00    -0.243 A  
HETATM   15  C   UNL     1      -7.015  16.894  68.110  1.00  0.00    -0.165 A  
HETATM   16  C   UNL     1      -6.477  18.098  68.695  1.00  0.00    -0.220 A  
HETATM   17  C   UNL     1      -6.776  15.570  68.449  1.00  0.00    -0.116 A  
HETATM   18  C   UNL     1      -7.004  19.225  68.024  1.00  0.00    -0.282 A  
HETATM   19  C   UNL     1      -7.391  14.569  67.699  1.00  0.00    -0.201 A  
HETATM   20  C   UNL     1      -8.206  14.899  66.608  1.00  0.00     0.037 A  
HETATM   21  C   UNL     1      -6.561  20.497  68.368  1.00  0.00    -0.292 A  
HETATM   22  C   UNL     1      -5.637  20.634  69.413  1.00  0.00    -0.403 A  
HETATM   23  C   UNL     1      -8.430  16.233  66.256  1.00  0.00    -0.369 A  
HETATM   24  C   UNL     1      -5.129  19.513  70.077  1.00  0.00    -0.204 A  
HETATM   25  C   UNL     1      -5.541  18.231  69.714  1.00  0.00    -0.225 A  
ENDBRANCH  10  13
ENDBRANCH   9  10
ENDBRANCH   8   9
ENDBRANCH   7   8
ENDBRANCH   6   7
ENDBRANCH   5   6
ENDBRANCH   4   5
ENDBRANCH   2   4
BRANCH   2  26
HETATM   26  C   UNL     1     -10.293  12.374  67.842  1.00  0.00    -0.210 C  
HETATM   27  C   UNL     1      -8.349   9.879  65.889  1.00  0.00    -0.126 A  
HETATM   28  C   UNL     1     -10.849  12.535  66.411  1.00  0.00    -0.290 A  
HETATM   29  C   UNL     1      -7.447   9.365  66.814  1.00  0.00    -0.094 A  
HETATM   30  C   UNL     1     -10.200  11.623  65.545  1.00  0.00    -0.302 A  
HETATM   31  C   UNL     1      -9.190  10.906  66.288  1.00  0.00    -0.197 A  
HETATM   32  C   UNL     1     -10.507  11.567  64.193  1.00  0.00    -0.408 A  
HETATM   33  C   UNL     1      -7.333   9.916  68.099  1.00  0.00    -0.080 A  
HETATM   34  C   UNL     1     -11.781  13.431  65.891  1.00  0.00    -0.389 A  
HETATM   35  C   UNL     1      -9.134  11.411  67.605  1.00  0.00    -0.155 A  
HETATM   36  C   UNL     1     -11.482  12.431  63.691  1.00  0.00    -0.568 A  
HETATM   37  C   UNL     1      -8.155  10.980  68.493  1.00  0.00    -0.140 A  
HETATM   38  C   UNL     1     -12.114  13.354  64.532  1.00  0.00    -0.457 A  
ENDBRANCH   2  26
TORSDOF 9
ENDMDL
MODEL      256
REMARK 921   NORMALIZED FREE ENERGY PREDICTED BY IDOCK:   -4.52 KCAL/MOL
REMARK 922        TOTAL FREE ENERGY PREDICTED BY IDOCK:   -8.66 KCAL/MOL
REMARK 923 INTER-LIGAND FREE ENERGY PREDICTED BY IDOCK:   -8.04 KCAL/MOL
REMARK 924 INTRA-LIGAND FREE ENERGY PREDICTED BY IDOCK:   -0.62 KCAL/MOL
REMARK 927      BINDING AFFINITY PREDICTED BY RF-SCORE:    0.00 PKD
ROOT
HETATM    1  C   UNL     1      -9.375  11.945  68.507  1.00  0.00    -0.140 C  
HETATM    2  N   UNL     1     -10.649  11.141  68.274  1.00  0.00    -0.180 N  
HETATM    3  C   UNL     1     -10.428  10.181  67.109  1.00  0.00    -0.246 C  
ENDROOT
BRANCH   2   4
HETATM    4  C   UNL     1     -11.005  10.399  69.546  1.00  0.00    -0.262 C  
BRANCH   4   5
HETATM    5  C   UNL     1     -10.109   9.216  69.914  1.00  0.00    -0.219 C  
BRANCH   5   6
HETATM    6  C   UNL     1     -10.944   7.929  69.906  1.00  0.00    -0.179 C  
BRANCH   6   7
HETATM    7  C   UNL     1     -10.161   6.673  69.480  1.00  0.00    -0.197 C  
BRANCH   7   8
HETATM    8  C   UNL     1     -10.216   6.383  67.972  1.00  0.00    -0.195 C  
BRANCH   8   9
HETATM    9  C   UNL     1      -9.046   7.097  67.296  1.00  0.00    -0.123 C  
BRANCH   9  10
HETATM   10  N   UNL     1      -8.011   6.190  66.650  1.00  0.00    -0.104 N  
HETATM   11  C   UNL     1      -7.282   5.352  67.694  1.00  0.00    -0.072 C  
HETATM   12  C   UNL     1      -8.643   5.210  65.672  1.00  0.00    -0.139 C  
BRANCH  10  13
HETATM   13  C   UNL     1      -6.973   7.141  65.878  1.00  0.00    -0.065 C  
HETATM   14  C   UNL     1      -6.506   8.360  66.698  1.00  0.00    -0.056 A  
HETATM   15  C   UNL     1      -6.879   9.556  66.046  1.00  0.00    -0.090 A  
HETATM   16  C   UNL     1      -7.490   9.239  64.778  1.00  0.00    -0.104 A  
HETATM   17  C   UNL     1      -6.623  10.797  66.611  1.00  0.00    -0.112 A  
HETATM   18  C   UNL     1      -7.546   7.836  64.620  1.00  0.00    -0.113 A  
HETATM   19  C   UNL     1      -5.977  10.847  67.845  1.00  0.00    -0.046 A  
HETATM   20  C   UNL     1      -5.571   9.667  68.481  1.00  0.00    -0.039 A  
HETATM   21  C   UNL     1      -8.025   7.298  63.431  1.00  0.00    -0.069 A  
HETATM   22  C   UNL     1      -8.492   8.165  62.433  1.00  0.00    -0.099 A  
HETATM   23  C   UNL     1      -5.812   8.418  67.901  1.00  0.00    -0.043 A  
HETATM   24  C   UNL     1      -8.441   9.553  62.605  1.00  0.00    -0.190 A  
HETATM   25  C   UNL     1      -7.929  10.101  63.780  1.00  0.00    -0.153 A  
ENDBRANCH  10  13
ENDBRANCH   9  10
ENDBRANCH   8   9
ENDBRANCH   7   8
ENDBRANCH   6   7
ENDBRANCH   5   6
ENDBRANCH   4   5
ENDBRANCH   2   4
BRANCH   2  26
HETATM   26  C   UNL     1     -11.881  12.125  67.934  1.00  0.00    -0.269 C  
HETATM   27  C   UNL     1     -11.484  15.725  68.770  1.00  0.00    -0.391 A  
HETATM   28  C   UNL     1     -11.798  12.801  66.549  1.00  0.00    -0.471 A  
HETATM   29  C   UNL     1     -11.583  15.755  70.156  1.00  0.00    -0.364 A  
HETATM   30  C   UNL     1     -11.630  14.197  66.713  1.00  0.00    -0.409 A  
HETATM   31  C   UNL     1     -11.665  14.513  68.122  1.00  0.00    -0.369 A  
HETATM   32  C   UNL     1     -11.536  15.046  65.620  1.00  0.00    -0.188 A  
HETATM   33  C   UNL     1     -11.930  14.607  70.884  1.00  0.00    -0.388 A  
HETATM   34  C   UNL     1     -11.921  12.271  65.266  1.00  0.00    -0.391 A  
HETATM   35  C   UNL     1     -11.937  13.338  68.855  1.00  0.00    -0.336 A  
HETATM   36  C   UNL     1     -11.607  14.500  64.338  1.00  0.00    -0.325 A  
HETATM   37  C   UNL     1     -12.152  13.389  70.229  1.00  0.00    -0.419 A  
HETATM   38  C   UNL     1     -11.796  13.124  64.162  1.00  0.00    -0.487 A  
ENDBRANCH   2  26
TORSDOF 9
ENDMDL
MODEL      257
REMARK 921   NORMALIZED FREE ENERGY PREDICTED BY IDOCK:   -4.51 KCAL/MOL
REMARK 922        TOTAL FREE ENERGY PREDICTED BY IDOCK:   -8.64 KCAL/MOL
REMARK 923 INTER-LIGAND FREE ENERGY PREDICTED BY IDOCK:   -7.77 KCAL/MOL
REMARK 924 INTRA-LIGAND FREE ENERGY PREDICTED BY IDOCK:   -0.87 KCAL/MOL
REMARK 927      BINDING AFFINITY PREDICTED BY RF-SCORE:    0.00 PKD
ROOT
HETATM    1  C   UNL     1     -10.383  13.172  68.807  1.00  0.00    -0.130 C  
HETATM    2  N   UNL     1      -9.385  12.433  67.923  1.00  0.00    -0.189 N  
HETATM    3  C   UNL     1      -8.658  13.442  67.038  1.00  0.00    -0.158 C  
ENDROOT
BRANCH   2   4
HETATM    4  C   UNL     1      -8.418  11.667  68.802  1.00  0.00    -0.025 C  
BRANCH   4   5
HETATM    5  C   UNL     1      -6.939  12.025  68.656  1.00  0.00    -0.096 C  
BRANCH   5   6
HETATM    6  C   UNL     1      -6.091  10.975  69.387  1.00  0.00    -0.060 C  
BRANCH   6   7
HETATM    7  C   UNL     1      -6.835  10.244  70.520  1.00  0.00    -0.047 C  
BRANCH   7   8
HETATM    8  C   UNL     1      -6.767   8.712  70.426  1.00  0.00    -0.038 C  
BRANCH   8   9
HETATM    9  C   UNL     1      -8.193   8.160  70.450  1.00  0.00    -0.114 C  
BRANCH   9  10
HETATM   10  N   UNL     1      -8.462   7.088  71.494  1.00  0.00    -0.116 N  
HETATM   11  C   UNL     1      -7.275   6.139  71.630  1.00  0.00    -0.087 C  
HETATM   12  C   UNL     1      -8.701   7.682  72.873  1.00  0.00    -0.153 C  
BRANCH  10  13
HETATM   13  C   UNL     1      -9.764   6.282  71.010  1.00  0.00    -0.176 C  
HETATM   14  C   UNL     1      -9.591   4.751  71.006  1.00  0.00    -0.242 A  
HETATM   15  C   UNL     1      -9.757   4.247  69.697  1.00  0.00    -0.284 A  
HETATM   16  C   UNL     1     -10.129   5.325  68.813  1.00  0.00    -0.248 A  
HETATM   17  C   UNL     1      -9.594   2.898  69.415  1.00  0.00    -0.061 A  
HETATM   18  C   UNL     1     -10.171   6.536  69.540  1.00  0.00    -0.219 A  
HETATM   19  C   UNL     1      -9.267   2.034  70.459  1.00  0.00    -0.180 A  
HETATM   20  C   UNL     1      -9.138   2.520  71.767  1.00  0.00    -0.149 A  
HETATM   21  C   UNL     1     -10.587   7.703  68.906  1.00  0.00    -0.176 A  
HETATM   22  C   UNL     1     -10.905   7.657  67.542  1.00  0.00    -0.205 A  
HETATM   23  C   UNL     1      -9.321   3.876  72.052  1.00  0.00    -0.186 A  
HETATM   24  C   UNL     1     -10.850   6.454  66.830  1.00  0.00    -0.428 A  
HETATM   25  C   UNL     1     -10.468   5.273  67.466  1.00  0.00    -0.193 A  
ENDBRANCH  10  13
ENDBRANCH   9  10
ENDBRANCH   8   9
ENDBRANCH   7   8
ENDBRANCH   6   7
ENDBRANCH   5   6
ENDBRANCH   4   5
ENDBRANCH   2   4
BRANCH   2  26
HETATM   26  C   UNL     1     -10.145  11.355  66.995  1.00  0.00    -0.208 C  
HETATM   27  C   UNL     1     -10.999  12.376  63.524  1.00  0.00    -0.506 A  
HETATM   28  C   UNL     1      -9.212  10.480  66.131  1.00  0.00    -0.197 A  
HETATM   29  C   UNL     1     -12.050  13.271  63.692  1.00  0.00    -0.551 A  
HETATM   30  C   UNL     1      -9.421  10.775  64.762  1.00  0.00    -0.292 A  
HETATM   31  C   UNL     1     -10.486  11.743  64.646  1.00  0.00    -0.347 A  
HETATM   32  C   UNL     1      -8.713  10.118  63.766  1.00  0.00    -0.220 A  
HETATM   33  C   UNL     1     -12.631  13.479  64.952  1.00  0.00    -0.392 A  
HETATM   34  C   UNL     1      -8.314   9.476  66.488  1.00  0.00    -0.119 A  
HETATM   35  C   UNL     1     -11.016  12.008  65.928  1.00  0.00    -0.342 A  
HETATM   36  C   UNL     1      -7.776   9.152  64.136  1.00  0.00    -0.121 A  
HETATM   37  C   UNL     1     -12.141  12.811  66.082  1.00  0.00    -0.429 A  
HETATM   38  C   UNL     1      -7.577   8.834  65.484  1.00  0.00    -0.087 A  
ENDBRANCH   2  26
TORSDOF 9
ENDMDL
MODEL      258
REMARK 921   NORMALIZED FREE ENERGY PREDICTED BY IDOCK:   -4.51 KCAL/MOL
REMARK 922        TOTAL FREE ENERGY PREDICTED BY IDOCK:   -8.64 KCAL/MOL
REMARK 923 INTER-LIGAND FREE ENERGY PREDICTED BY IDOCK:   -7.24 KCAL/MOL
REMARK 924 INTRA-LIGAND FREE ENERGY PREDICTED BY IDOCK:   -1.40 KCAL/MOL
REMARK 927      BINDING AFFINITY PREDICTED BY RF-SCORE:    0.00 PKD
ROOT
HETATM    1  C   UNL     1     -11.906  15.410  64.749  1.00  0.00    -0.169 C  
HETATM    2  N   UNL     1     -10.798  14.610  65.426  1.00  0.00    -0.333 N  
HETATM    3  C   UNL     1     -11.321  14.052  66.747  1.00  0.00    -0.334 C  
ENDROOT
BRANCH   2   4
HETATM    4  C   UNL     1     -10.346  13.503  64.496  1.00  0.00    -0.358 C  
BRANCH   4   5
HETATM    5  C   UNL     1     -10.223  12.109  65.110  1.00  0.00    -0.308 C  
BRANCH   5   6
HETATM    6  C   UNL     1      -9.842  11.106  64.012  1.00  0.00    -0.349 C  
BRANCH   6   7
HETATM    7  C   UNL     1      -9.600   9.675  64.525  1.00  0.00    -0.094 C  
BRANCH   7   8
HETATM    8  C   UNL     1      -8.117   9.279  64.598  1.00  0.00    -0.136 C  
BRANCH   8   9
HETATM    9  C   UNL     1      -7.520   9.867  65.877  1.00  0.00    -0.108 C  
BRANCH   9  10
HETATM   10  N   UNL     1      -6.617   8.934  66.667  1.00  0.00    -0.063 N  
HETATM   11  C   UNL     1      -5.998   7.869  65.766  1.00  0.00    -0.038 C  
HETATM   12  C   UNL     1      -5.459   9.676  67.318  1.00  0.00    -0.036 C  
BRANCH  10  13
HETATM   13  C   UNL     1      -7.529   8.245  67.794  1.00  0.00    -0.094 C  
HETATM   14  C   UNL     1      -8.337   7.031  67.295  1.00  0.00    -0.122 A  
HETATM   15  C   UNL     1      -9.721   7.277  67.437  1.00  0.00    -0.191 A  
HETATM   16  C   UNL     1      -9.916   8.548  68.094  1.00  0.00    -0.214 A  
HETATM   17  C   UNL     1     -10.667   6.358  67.006  1.00  0.00    -0.434 A  
HETATM   18  C   UNL     1      -8.660   9.143  68.347  1.00  0.00    -0.129 A  
HETATM   19  C   UNL     1     -10.226   5.169  66.428  1.00  0.00    -0.303 A  
HETATM   20  C   UNL     1      -8.855   4.901  66.317  1.00  0.00    -0.116 A  
HETATM   21  C   UNL     1      -8.599  10.343  69.049  1.00  0.00    -0.158 A  
HETATM   22  C   UNL     1      -9.795  10.960  69.443  1.00  0.00    -0.055 A  
HETATM   23  C   UNL     1      -7.904   5.820  66.770  1.00  0.00    -0.101 A  
HETATM   24  C   UNL     1     -11.033  10.365  69.178  1.00  0.00    -0.285 A  
HETATM   25  C   UNL     1     -11.101   9.145  68.506  1.00  0.00     0.117 A  
ENDBRANCH  10  13
ENDBRANCH   9  10
ENDBRANCH   8   9
ENDBRANCH   7   8
ENDBRANCH   6   7
ENDBRANCH   5   6
ENDBRANCH   4   5
ENDBRANCH   2   4
BRANCH   2  26
HETATM   26  C   UNL     1      -9.519  15.550  65.709  1.00  0.00    -0.299 C  
HETATM   27  C   UNL     1      -9.951  18.367  68.095  1.00  0.00    -0.388 A  
HETATM   28  C   UNL     1      -8.662  15.121  66.919  1.00  0.00    -0.289 A  
HETATM   29  C   UNL     1     -10.720  19.284  67.388  1.00  0.00    -0.594 A  
HETATM   30  C   UNL     1      -8.743  16.108  67.930  1.00  0.00    -0.174 A  
HETATM   31  C   UNL     1      -9.544  17.210  67.449  1.00  0.00    -0.247 A  
HETATM   32  C   UNL     1      -8.055  15.974  69.127  1.00  0.00    -0.238 A  
HETATM   33  C   UNL     1     -11.018  19.087  66.031  1.00  0.00    -0.084 A  
HETATM   34  C   UNL     1      -7.837  14.013  67.106  1.00  0.00    -0.049 A  
HETATM   35  C   UNL     1      -9.908  16.969  66.107  1.00  0.00    -0.297 A  
HETATM   36  C   UNL     1      -7.274  14.835  69.328  1.00  0.00    -0.167 A  
HETATM   37  C   UNL     1     -10.574  17.938  65.363  1.00  0.00     0.113 A  
HETATM   38  C   UNL     1      -7.166  13.863  68.327  1.00  0.00    -0.112 A  
ENDBRANCH   2  26
TORSDOF 9
ENDMDL
MODEL      259
REMARK 921   NORMALIZED FREE ENERGY PREDICTED BY IDOCK:   -4.50 KCAL/MOL
REMARK 922        TOTAL FREE ENERGY PREDICTED BY IDOCK:   -8.64 KCAL/MOL
REMARK 923 INTER-LIGAND FREE ENERGY PREDICTED BY IDOCK:   -8.50 KCAL/MOL
REMARK 924 INTRA-LIGAND FREE ENERGY PREDICTED BY IDOCK:   -0.14 KCAL/MOL
REMARK 927      BINDING AFFINITY PREDICTED BY RF-SCORE:    0.00 PKD
ROOT
HETATM    1  C   UNL     1      -9.759   5.208  69.110  1.00  0.00    -0.163 C  
HETATM    2  N   UNL     1      -8.404   5.183  69.810  1.00  0.00    -0.092 N  
HETATM    3  C   UNL     1      -7.825   3.773  69.726  1.00  0.00    -0.051 C  
ENDROOT
BRANCH   2   4
HETATM    4  C   UNL     1      -7.491   6.199  69.156  1.00  0.00    -0.090 C  
BRANCH   4   5
HETATM    5  C   UNL     1      -7.938   6.738  67.798  1.00  0.00    -0.113 C  
BRANCH   5   6
HETATM    6  C   UNL     1      -7.543   8.217  67.687  1.00  0.00    -0.098 C  
BRANCH   6   7
HETATM    7  C   UNL     1      -8.354   9.008  66.645  1.00  0.00    -0.118 C  
BRANCH   7   8
HETATM    8  C   UNL     1      -9.482   9.860  67.246  1.00  0.00    -0.181 C  
BRANCH   8   9
HETATM    9  C   UNL     1      -9.396  11.268  66.657  1.00  0.00    -0.180 C  
BRANCH   9  10
HETATM   10  N   UNL     1      -9.069  12.374  67.648  1.00  0.00    -0.178 N  
HETATM   11  C   UNL     1      -8.816  11.809  69.042  1.00  0.00     0.261 C  
HETATM   12  C   UNL     1      -7.813  13.137  67.255  1.00  0.00    -0.117 C  
BRANCH  10  13
HETATM   13  C   UNL     1     -10.329  13.368  67.671  1.00  0.00    -0.238 C  
HETATM   14  C   UNL     1     -11.147  13.379  66.365  1.00  0.00    -0.312 A  
HETATM   15  C   UNL     1     -11.134  14.672  65.795  1.00  0.00    -0.331 A  
HETATM   16  C   UNL     1     -10.438  15.577  66.678  1.00  0.00    -0.299 A  
HETATM   17  C   UNL     1     -11.753  14.933  64.581  1.00  0.00    -0.406 A  
HETATM   18  C   UNL     1      -9.968  14.865  67.805  1.00  0.00    -0.222 A  
HETATM   19  C   UNL     1     -12.403  13.887  63.927  1.00  0.00    -0.323 A  
HETATM   20  C   UNL     1     -12.453  12.612  64.503  1.00  0.00    -0.525 A  
HETATM   21  C   UNL     1      -9.333  15.554  68.834  1.00  0.00    -0.222 A  
HETATM   22  C   UNL     1      -9.128  16.934  68.701  1.00  0.00    -0.265 A  
HETATM   23  C   UNL     1     -11.845  12.355  65.736  1.00  0.00    -0.467 A  
HETATM   24  C   UNL     1      -9.589  17.625  67.576  1.00  0.00    -0.267 A  
HETATM   25  C   UNL     1     -10.258  16.949  66.556  1.00  0.00    -0.320 A  
ENDBRANCH  10  13
ENDBRANCH   9  10
ENDBRANCH   8   9
ENDBRANCH   7   8
ENDBRANCH   6   7
ENDBRANCH   5   6
ENDBRANCH   4   5
ENDBRANCH   2   4
BRANCH   2  26
HETATM   26  C   UNL     1      -8.562   5.607  71.357  1.00  0.00    -0.132 C  
HETATM   27  C   UNL     1     -11.563   7.589  72.297  1.00  0.00    -0.354 A  
HETATM   28  C   UNL     1      -9.384   4.619  72.213  1.00  0.00    -0.162 A  
HETATM   29  C   UNL     1     -11.305   8.850  71.771  1.00  0.00    -0.431 A  
HETATM   30  C   UNL     1     -10.581   5.243  72.637  1.00  0.00    -0.278 A  
HETATM   31  C   UNL     1     -10.586   6.613  72.181  1.00  0.00    -0.238 A  
HETATM   32  C   UNL     1     -11.501   4.574  73.433  1.00  0.00    -0.322 A  
HETATM   33  C   UNL     1     -10.060   9.157  71.200  1.00  0.00    -0.384 A  
HETATM   34  C   UNL     1      -9.095   3.325  72.641  1.00  0.00    -0.119 A  
HETATM   35  C   UNL     1      -9.362   6.893  71.537  1.00  0.00    -0.155 A  
HETATM   36  C   UNL     1     -11.229   3.259  73.811  1.00  0.00    -0.235 A  
HETATM   37  C   UNL     1      -9.056   8.183  71.116  1.00  0.00    -0.183 A  
HETATM   38  C   UNL     1     -10.037   2.639  73.418  1.00  0.00    -0.187 A  
ENDBRANCH   2  26
TORSDOF 9
ENDMDL
MODEL      260
REMARK 921   NORMALIZED FREE ENERGY PREDICTED BY IDOCK:   -4.50 KCAL/MOL
REMARK 922        TOTAL FREE ENERGY PREDICTED BY IDOCK:   -8.63 KCAL/MOL
REMARK 923 INTER-LIGAND FREE ENERGY PREDICTED BY IDOCK:   -8.44 KCAL/MOL
REMARK 924 INTRA-LIGAND FREE ENERGY PREDICTED BY IDOCK:   -0.19 KCAL/MOL
REMARK 927      BINDING AFFINITY PREDICTED BY RF-SCORE:    0.00 PKD
ROOT
HETATM    1  C   UNL     1     -11.831   7.810  70.882  1.00  0.00    -0.239 C  
HETATM    2  N   UNL     1     -10.712   7.362  69.948  1.00  0.00    -0.240 N  
HETATM    3  C   UNL     1     -11.258   6.314  68.983  1.00  0.00    -0.343 C  
ENDROOT
BRANCH   2   4
HETATM    4  C   UNL     1     -10.170   8.569  69.211  1.00  0.00    -0.208 C  
BRANCH   4   5
HETATM    5  C   UNL     1     -10.564   8.697  67.739  1.00  0.00    -0.249 C  
BRANCH   5   6
HETATM    6  C   UNL     1      -9.360   9.208  66.937  1.00  0.00    -0.199 C  
BRANCH   6   7
HETATM    7  C   UNL     1      -9.736  10.078  65.724  1.00  0.00    -0.321 C  
BRANCH   7   8
HETATM    8  C   UNL     1     -10.624  11.284  66.069  1.00  0.00    -0.314 C  
BRANCH   8   9
HETATM    9  C   UNL     1      -9.880  12.563  65.683  1.00  0.00    -0.216 C  
BRANCH   9  10
HETATM   10  N   UNL     1     -10.533  13.860  66.132  1.00  0.00    -0.291 N  
HETATM   11  C   UNL     1     -10.337  14.964  65.099  1.00  0.00    -0.401 C  
HETATM   12  C   UNL     1     -12.035  13.707  66.322  1.00  0.00    -0.423 C  
BRANCH  10  13
HETATM   13  C   UNL     1      -9.844  14.273  67.523  1.00  0.00    -0.231 C  
HETATM   14  C   UNL     1      -9.850  15.788  67.803  1.00  0.00    -0.224 A  
HETATM   15  C   UNL     1      -8.525  16.267  67.906  1.00  0.00    -0.166 A  
HETATM   16  C   UNL     1      -7.606  15.159  67.811  1.00  0.00    -0.171 A  
HETATM   17  C   UNL     1      -8.257  17.615  68.101  1.00  0.00    -0.257 A  
HETATM   18  C   UNL     1      -8.332  13.962  67.610  1.00  0.00    -0.183 A  
HETATM   19  C   UNL     1      -9.329  18.500  68.200  1.00  0.00    -0.336 A  
HETATM   20  C   UNL     1     -10.646  18.028  68.136  1.00  0.00    -0.334 A  
HETATM   21  C   UNL     1      -7.654  12.748  67.569  1.00  0.00    -0.162 A  
HETATM   22  C   UNL     1      -6.257  12.747  67.675  1.00  0.00    -0.153 A  
HETATM   23  C   UNL     1     -10.915  16.667  67.960  1.00  0.00    -0.311 A  
HETATM   24  C   UNL     1      -5.548  13.939  67.864  1.00  0.00    -0.103 A  
HETATM   25  C   UNL     1      -6.223  15.157  67.942  1.00  0.00    -0.172 A  
ENDBRANCH  10  13
ENDBRANCH   9  10
ENDBRANCH   8   9
ENDBRANCH   7   8
ENDBRANCH   6   7
ENDBRANCH   5   6
ENDBRANCH   4   5
ENDBRANCH   2   4
BRANCH   2  26
HETATM   26  C   UNL     1      -9.493   6.730  70.794  1.00  0.00    -0.165 C  
HETATM   27  C   UNL     1      -9.830   3.204  71.922  1.00  0.00    -0.238 A  
HETATM   28  C   UNL     1      -8.440   5.986  69.945  1.00  0.00    -0.130 A  
HETATM   29  C   UNL     1     -10.768   3.273  72.946  1.00  0.00    -0.173 A  
HETATM   30  C   UNL     1      -8.465   4.607  70.262  1.00  0.00    -0.090 A  
HETATM   31  C   UNL     1      -9.419   4.385  71.324  1.00  0.00    -0.224 A  
HETATM   32  C   UNL     1      -7.606   3.709  69.646  1.00  0.00    -0.051 A  
HETATM   33  C   UNL     1     -11.236   4.509  73.419  1.00  0.00    -0.404 A  
HETATM   34  C   UNL     1      -7.504   6.464  69.030  1.00  0.00    -0.095 A  
HETATM   35  C   UNL     1      -9.945   5.626  71.743  1.00  0.00    -0.222 A  
HETATM   36  C   UNL     1      -6.707   4.188  68.691  1.00  0.00    -0.046 A  
HETATM   37  C   UNL     1     -10.792   5.707  72.844  1.00  0.00    -0.303 A  
HETATM   38  C   UNL     1      -6.657   5.552  68.385  1.00  0.00    -0.049 A  
ENDBRANCH   2  26
TORSDOF 9
ENDMDL
MODEL      261
REMARK 921   NORMALIZED FREE ENERGY PREDICTED BY IDOCK:   -4.47 KCAL/MOL
REMARK 922        TOTAL FREE ENERGY PREDICTED BY IDOCK:   -8.59 KCAL/MOL
REMARK 923 INTER-LIGAND FREE ENERGY PREDICTED BY IDOCK:   -8.82 KCAL/MOL
REMARK 924 INTRA-LIGAND FREE ENERGY PREDICTED BY IDOCK:    0.23 KCAL/MOL
REMARK 927      BINDING AFFINITY PREDICTED BY RF-SCORE:    0.00 PKD
ROOT
HETATM    1  C   UNL     1     -10.615   8.344  71.761  1.00  0.00    -0.282 C  
HETATM    2  N   UNL     1     -10.479   7.577  70.450  1.00  0.00    -0.218 N  
HETATM    3  C   UNL     1     -11.712   6.698  70.255  1.00  0.00    -0.371 C  
ENDROOT
BRANCH   2   4
HETATM    4  C   UNL     1     -10.316   8.564  69.313  1.00  0.00    -0.221 C  
BRANCH   4   5
HETATM    5  C   UNL     1     -10.276   7.975  67.903  1.00  0.00    -0.267 C  
BRANCH   5   6
HETATM    6  C   UNL     1      -9.313   8.800  67.039  1.00  0.00    -0.200 C  
BRANCH   6   7
HETATM    7  C   UNL     1     -10.012   9.791  66.090  1.00  0.00    -0.338 C  
BRANCH   7   8
HETATM    8  C   UNL     1     -10.025  11.241  66.600  1.00  0.00    -0.242 C  
BRANCH   8   9
HETATM    9  C   UNL     1     -10.710  12.118  65.553  1.00  0.00    -0.283 C  
BRANCH   9  10
HETATM   10  N   UNL     1     -11.079  13.520  66.013  1.00  0.00    -0.292 N  
HETATM   11  C   UNL     1     -10.732  14.560  64.953  1.00  0.00    -0.429 C  
HETATM   12  C   UNL     1     -12.570  13.657  66.283  1.00  0.00    -0.291 C  
BRANCH  10  13
HETATM   13  C   UNL     1     -10.250  13.802  67.359  1.00  0.00    -0.252 C  
HETATM   14  C   UNL     1     -11.018  13.469  68.653  1.00  0.00    -0.289 A  
HETATM   15  C   UNL     1     -11.176  14.633  69.438  1.00  0.00    -0.307 A  
HETATM   16  C   UNL     1     -10.479  15.730  68.811  1.00  0.00    -0.228 A  
HETATM   17  C   UNL     1     -11.885  14.611  70.630  1.00  0.00    -0.367 A  
HETATM   18  C   UNL     1      -9.898  15.288  67.601  1.00  0.00    -0.217 A  
HETATM   19  C   UNL     1     -12.443  13.405  71.051  1.00  0.00    -0.437 A  
HETATM   20  C   UNL     1     -12.260  12.238  70.298  1.00  0.00    -0.342 A  
HETATM   21  C   UNL     1      -9.105  16.160  66.862  1.00  0.00    -0.241 A  
HETATM   22  C   UNL     1      -8.945  17.478  67.312  1.00  0.00    -0.238 A  
HETATM   23  C   UNL     1     -11.528  12.258  69.107  1.00  0.00    -0.352 A  
HETATM   24  C   UNL     1      -9.533  17.907  68.507  1.00  0.00    -0.316 A  
HETATM   25  C   UNL     1     -10.300  17.029  69.272  1.00  0.00    -0.276 A  
ENDBRANCH  10  13
ENDBRANCH   9  10
ENDBRANCH   8   9
ENDBRANCH   7   8
ENDBRANCH   6   7
ENDBRANCH   5   6
ENDBRANCH   4   5
ENDBRANCH   2   4
BRANCH   2  26
HETATM   26  C   UNL     1      -9.159   6.651  70.474  1.00  0.00    -0.152 C  
HETATM   27  C   UNL     1      -6.501   7.516  72.925  1.00  0.00    -0.061 A  
HETATM   28  C   UNL     1      -9.213   5.482  71.480  1.00  0.00    -0.164 A  
HETATM   29  C   UNL     1      -5.928   8.668  72.398  1.00  0.00    -0.072 A  
HETATM   30  C   UNL     1      -8.248   5.686  72.496  1.00  0.00    -0.114 A  
HETATM   31  C   UNL     1      -7.498   6.884  72.199  1.00  0.00    -0.091 A  
HETATM   32  C   UNL     1      -8.080   4.772  73.526  1.00  0.00    -0.106 A  
HETATM   33  C   UNL     1      -6.291   9.144  71.129  1.00  0.00    -0.074 A  
HETATM   34  C   UNL     1      -9.978   4.317  71.484  1.00  0.00    -0.243 A  
HETATM   35  C   UNL     1      -7.923   7.403  70.956  1.00  0.00    -0.097 A  
HETATM   36  C   UNL     1      -8.889   3.634  73.552  1.00  0.00    -0.092 A  
HETATM   37  C   UNL     1      -7.270   8.484  70.374  1.00  0.00    -0.039 A  
HETATM   38  C   UNL     1      -9.830   3.409  72.541  1.00  0.00    -0.218 A  
ENDBRANCH   2  26
TORSDOF 9
ENDMDL
MODEL      262
REMARK 921   NORMALIZED FREE ENERGY PREDICTED BY IDOCK:   -4.47 KCAL/MOL
REMARK 922        TOTAL FREE ENERGY PREDICTED BY IDOCK:   -8.58 KCAL/MOL
REMARK 923 INTER-LIGAND FREE ENERGY PREDICTED BY IDOCK:   -8.31 KCAL/MOL
REMARK 924 INTRA-LIGAND FREE ENERGY PREDICTED BY IDOCK:   -0.27 KCAL/MOL
REMARK 927      BINDING AFFINITY PREDICTED BY RF-SCORE:    0.00 PKD
ROOT
HETATM    1  C   UNL     1     -12.554  15.336  70.169  1.00  0.00    -0.296 C  
HETATM    2  N   UNL     1     -11.699  14.562  69.171  1.00  0.00    -0.296 N  
HETATM    3  C   UNL     1     -10.267  14.489  69.694  1.00  0.00     0.122 C  
ENDROOT
BRANCH   2   4
HETATM    4  C   UNL     1     -12.291  13.182  68.977  1.00  0.00     0.098 C  
BRANCH   4   5
HETATM    5  C   UNL     1     -11.882  12.119  69.996  1.00  0.00    -0.383 C  
BRANCH   5   6
HETATM    6  C   UNL     1     -11.774  10.760  69.292  1.00  0.00    -0.374 C  
BRANCH   6   7
HETATM    7  C   UNL     1     -11.249  10.840  67.847  1.00  0.00    -0.386 C  
BRANCH   7   8
HETATM    8  C   UNL     1      -9.749  10.542  67.708  1.00  0.00    -0.180 C  
BRANCH   8   9
HETATM    9  C   UNL     1      -9.148  10.407  69.108  1.00  0.00    -0.187 C  
BRANCH   9  10
HETATM   10  N   UNL     1      -7.913   9.526  69.208  1.00  0.00    -0.088 N  
HETATM   11  C   UNL     1      -7.161   9.476  67.882  1.00  0.00    -0.081 C  
HETATM   12  C   UNL     1      -6.928  10.041  70.246  1.00  0.00    -0.150 C  
BRANCH  10  13
HETATM   13  C   UNL     1      -8.419   8.057  69.614  1.00  0.00    -0.131 C  
HETATM   14  C   UNL     1      -9.396   8.035  70.807  1.00  0.00    -0.167 A  
HETATM   15  C   UNL     1      -8.846   7.286  71.871  1.00  0.00    -0.133 A  
HETATM   16  C   UNL     1      -7.591   6.708  71.451  1.00  0.00    -0.093 A  
HETATM   17  C   UNL     1      -9.507   7.161  73.085  1.00  0.00    -0.204 A  
HETATM   18  C   UNL     1      -7.309   7.110  70.126  1.00  0.00    -0.080 A  
HETATM   19  C   UNL     1     -10.742   7.790  73.238  1.00  0.00    -0.335 A  
HETATM   20  C   UNL     1     -11.311   8.503  72.175  1.00  0.00    -0.442 A  
HETATM   21  C   UNL     1      -6.183   6.606  69.482  1.00  0.00    -0.037 A  
HETATM   22  C   UNL     1      -5.326   5.750  70.186  1.00  0.00    -0.009 A  
HETATM   23  C   UNL     1     -10.653   8.611  70.947  1.00  0.00    -0.265 A  
HETATM   24  C   UNL     1      -5.611   5.367  71.501  1.00  0.00    -0.009 A  
HETATM   25  C   UNL     1      -6.756   5.839  72.142  1.00  0.00    -0.067 A  
ENDBRANCH  10  13
ENDBRANCH   9  10
ENDBRANCH   8   9
ENDBRANCH   7   8
ENDBRANCH   6   7
ENDBRANCH   5   6
ENDBRANCH   4   5
ENDBRANCH   2   4
BRANCH   2  26
HETATM   26  C   UNL     1     -11.709  15.295  67.735  1.00  0.00    -0.191 C  
HETATM   27  C   UNL     1      -8.427  16.201  66.245  1.00  0.00    -0.357 A  
HETATM   28  C   UNL     1     -11.595  14.341  66.527  1.00  0.00    -0.390 A  
HETATM   29  C   UNL     1      -8.000  17.278  67.015  1.00  0.00    -0.242 A  
HETATM   30  C   UNL     1     -10.367  14.567  65.860  1.00  0.00    -0.332 A  
HETATM   31  C   UNL     1      -9.678  15.662  66.501  1.00  0.00    -0.286 A  
HETATM   32  C   UNL     1     -10.017  13.844  64.728  1.00  0.00    -0.105 A  
HETATM   33  C   UNL     1      -8.839  17.858  67.978  1.00  0.00    -0.268 A  
HETATM   34  C   UNL     1     -12.495  13.410  66.012  1.00  0.00    -0.431 A  
HETATM   35  C   UNL     1     -10.495  16.192  67.523  1.00  0.00    -0.302 A  
HETATM   36  C   UNL     1     -10.901  12.876  64.251  1.00  0.00    -0.423 A  
HETATM   37  C   UNL     1     -10.120  17.341  68.212  1.00  0.00    -0.321 A  
HETATM   38  C   UNL     1     -12.128  12.659  64.887  1.00  0.00    -0.494 A  
ENDBRANCH   2  26
TORSDOF 9
ENDMDL
MODEL      263
REMARK 921   NORMALIZED FREE ENERGY PREDICTED BY IDOCK:   -4.45 KCAL/MOL
REMARK 922        TOTAL FREE ENERGY PREDICTED BY IDOCK:   -8.56 KCAL/MOL
REMARK 923 INTER-LIGAND FREE ENERGY PREDICTED BY IDOCK:   -7.81 KCAL/MOL
REMARK 924 INTRA-LIGAND FREE ENERGY PREDICTED BY IDOCK:   -0.75 KCAL/MOL
REMARK 927      BINDING AFFINITY PREDICTED BY RF-SCORE:    0.00 PKD
ROOT
HETATM    1  C   UNL     1      -8.407   7.688  68.718  1.00  0.00    -0.129 C  
HETATM    2  N   UNL     1      -9.790   8.027  68.170  1.00  0.00    -0.164 N  
HETATM    3  C   UNL     1     -10.235   9.372  68.737  1.00  0.00    -0.203 C  
ENDROOT
BRANCH   2   4
HETATM    4  C   UNL     1      -9.729   8.054  66.657  1.00  0.00    -0.243 C  
BRANCH   4   5
HETATM    5  C   UNL     1      -9.828   9.430  65.999  1.00  0.00    -0.366 C  
BRANCH   5   6
HETATM    6  C   UNL     1      -9.164   9.377  64.616  1.00  0.00    -0.185 C  
BRANCH   6   7
HETATM    7  C   UNL     1      -9.602  10.506  63.664  1.00  0.00    -0.370 C  
BRANCH   7   8
HETATM    8  C   UNL     1     -10.886  11.229  64.101  1.00  0.00    -0.407 C  
BRANCH   8   9
HETATM    9  C   UNL     1     -10.567  12.712  64.293  1.00  0.00    -0.384 C  
BRANCH   9  10
HETATM   10  N   UNL     1     -11.179  13.358  65.526  1.00  0.00    -0.287 N  
HETATM   11  C   UNL     1     -12.324  14.292  65.151  1.00  0.00    -0.424 C  
HETATM   12  C   UNL     1     -11.758  12.326  66.483  1.00  0.00    -0.352 C  
BRANCH  10  13
HETATM   13  C   UNL     1     -10.007  14.180  66.252  1.00  0.00    -0.303 C  
HETATM   14  C   UNL     1      -8.903  13.297  66.865  1.00  0.00    -0.186 A  
HETATM   15  C   UNL     1      -8.839  13.498  68.262  1.00  0.00    -0.179 A  
HETATM   16  C   UNL     1      -9.766  14.538  68.638  1.00  0.00    -0.221 A  
HETATM   17  C   UNL     1      -7.961  12.775  69.057  1.00  0.00     0.308 A  
HETATM   18  C   UNL     1     -10.458  14.989  67.491  1.00  0.00    -0.256 A  
HETATM   19  C   UNL     1      -7.128  11.839  68.448  1.00  0.00    -0.085 A  
HETATM   20  C   UNL     1      -7.158  11.659  67.058  1.00  0.00    -0.145 A  
HETATM   21  C   UNL     1     -11.349  16.051  67.602  1.00  0.00    -0.109 A  
HETATM   22  C   UNL     1     -11.580  16.615  68.864  1.00  0.00     0.103 A  
HETATM   23  C   UNL     1      -8.029  12.403  66.257  1.00  0.00     0.599 A  
HETATM   24  C   UNL     1     -10.896  16.153  69.994  1.00  0.00    -0.349 A  
HETATM   25  C   UNL     1      -9.974  15.113  69.886  1.00  0.00    -0.107 A  
ENDBRANCH  10  13
ENDBRANCH   9  10
ENDBRANCH   8   9
ENDBRANCH   7   8
ENDBRANCH   6   7
ENDBRANCH   5   6
ENDBRANCH   4   5
ENDBRANCH   2   4
BRANCH   2  26
HETATM   26  C   UNL     1     -10.854   6.890  68.587  1.00  0.00    -0.187 C  
HETATM   27  C   UNL     1      -9.531   3.507  69.379  1.00  0.00    -0.234 A  
HETATM   28  C   UNL     1     -11.096   6.763  70.106  1.00  0.00    -0.365 A  
HETATM   29  C   UNL     1      -9.168   2.995  68.138  1.00  0.00    -0.248 A  
HETATM   30  C   UNL     1     -10.622   5.509  70.558  1.00  0.00    -0.339 A  
HETATM   31  C   UNL     1     -10.139   4.752  69.426  1.00  0.00    -0.241 A  
HETATM   32  C   UNL     1     -10.727   5.134  71.890  1.00  0.00    -0.219 A  
HETATM   33  C   UNL     1      -9.473   3.682  66.952  1.00  0.00    -0.213 A  
HETATM   34  C   UNL     1     -11.727   7.623  71.003  1.00  0.00    -0.306 A  
HETATM   35  C   UNL     1     -10.377   5.483  68.242  1.00  0.00    -0.237 A  
HETATM   36  C   UNL     1     -11.311   6.024  72.792  1.00  0.00    -0.282 A  
HETATM   37  C   UNL     1     -10.123   4.923  66.995  1.00  0.00    -0.243 A  
HETATM   38  C   UNL     1     -11.805   7.258  72.354  1.00  0.00    -0.247 A  
ENDBRANCH   2  26
TORSDOF 9
ENDMDL
MODEL      264
REMARK 921   NORMALIZED FREE ENERGY PREDICTED BY IDOCK:   -4.45 KCAL/MOL
REMARK 922        TOTAL FREE ENERGY PREDICTED BY IDOCK:   -8.55 KCAL/MOL
REMARK 923 INTER-LIGAND FREE ENERGY PREDICTED BY IDOCK:   -7.05 KCAL/MOL
REMARK 924 INTRA-LIGAND FREE ENERGY PREDICTED BY IDOCK:   -1.50 KCAL/MOL
REMARK 927      BINDING AFFINITY PREDICTED BY RF-SCORE:    0.00 PKD
ROOT
HETATM    1  C   UNL     1     -11.355  16.171  67.961  1.00  0.00    -0.234 C  
HETATM    2  N   UNL     1     -10.678  14.837  68.260  1.00  0.00    -0.238 N  
HETATM    3  C   UNL     1      -9.744  15.010  69.455  1.00  0.00    -0.103 C  
ENDROOT
BRANCH   2   4
HETATM    4  C   UNL     1     -11.740  13.793  68.531  1.00  0.00    -0.356 C  
BRANCH   4   5
HETATM    5  C   UNL     1     -11.573  12.970  69.809  1.00  0.00    -0.286 C  
BRANCH   5   6
HETATM    6  C   UNL     1     -11.433  11.487  69.440  1.00  0.00    -0.376 C  
BRANCH   6   7
HETATM    7  C   UNL     1     -11.360  10.542  70.653  1.00  0.00    -0.363 C  
BRANCH   7   8
HETATM    8  C   UNL     1     -11.526   9.056  70.298  1.00  0.00    -0.147 C  
BRANCH   8   9
HETATM    9  C   UNL     1     -10.250   8.315  70.698  1.00  0.00    -0.193 C  
BRANCH   9  10
HETATM   10  N   UNL     1      -9.889   7.119  69.831  1.00  0.00    -0.173 N  
HETATM   11  C   UNL     1      -9.793   5.843  70.661  1.00  0.00    -0.183 C  
HETATM   12  C   UNL     1     -10.934   6.859  68.756  1.00  0.00    -0.157 C  
BRANCH  10  13
HETATM   13  C   UNL     1      -8.472   7.447  69.150  1.00  0.00    -0.133 C  
HETATM   14  C   UNL     1      -7.759   6.216  68.557  1.00  0.00    -0.100 A  
HETATM   15  C   UNL     1      -6.518   6.017  69.202  1.00  0.00    -0.043 A  
HETATM   16  C   UNL     1      -6.287   7.091  70.138  1.00  0.00    -0.035 A  
HETATM   17  C   UNL     1      -5.706   4.937  68.888  1.00  0.00    -0.019 A  
HETATM   18  C   UNL     1      -7.393   7.970  70.127  1.00  0.00    -0.061 A  
HETATM   19  C   UNL     1      -6.135   4.043  67.908  1.00  0.00    -0.032 A  
HETATM   20  C   UNL     1      -7.347   4.254  67.238  1.00  0.00    -0.069 A  
HETATM   21  C   UNL     1      -7.356   9.128  70.896  1.00  0.00    -0.129 A  
HETATM   22  C   UNL     1      -6.238   9.368  71.707  1.00  0.00     0.063 A  
HETATM   23  C   UNL     1      -8.155   5.354  67.542  1.00  0.00    -0.101 A  
HETATM   24  C   UNL     1      -5.153   8.485  71.717  1.00  0.00    -0.034 A  
HETATM   25  C   UNL     1      -5.167   7.340  70.922  1.00  0.00    -0.023 A  
ENDBRANCH  10  13
ENDBRANCH   9  10
ENDBRANCH   8   9
ENDBRANCH   7   8
ENDBRANCH   6   7
ENDBRANCH   5   6
ENDBRANCH   4   5
ENDBRANCH   2   4
BRANCH   2  26
HETATM   26  C   UNL     1      -9.829  14.338  66.983  1.00  0.00    -0.254 C  
HETATM   27  C   UNL     1      -8.808  10.765  66.890  1.00  0.00    -0.144 A  
HETATM   28  C   UNL     1     -10.680  13.758  65.834  1.00  0.00    -0.285 A  
HETATM   29  C   UNL     1      -7.799  10.685  67.844  1.00  0.00    -0.105 A  
HETATM   30  C   UNL     1     -10.402  12.378  65.689  1.00  0.00    -0.284 A  
HETATM   31  C   UNL     1      -9.364  12.006  66.622  1.00  0.00    -0.221 A  
HETATM   32  C   UNL     1     -11.029  11.614  64.715  1.00  0.00    -0.351 A  
HETATM   33  C   UNL     1      -7.299  11.837  68.470  1.00  0.00    -0.103 A  
HETATM   34  C   UNL     1     -11.564  14.377  64.952  1.00  0.00    -0.395 A  
HETATM   35  C   UNL     1      -8.920  13.158  67.306  1.00  0.00    -0.216 A  
HETATM   36  C   UNL     1     -11.954  12.230  63.871  1.00  0.00    -0.582 A  
HETATM   37  C   UNL     1      -7.832  13.098  68.172  1.00  0.00    -0.145 A  
HETATM   38  C   UNL     1     -12.220  13.599  63.989  1.00  0.00    -0.443 A  
ENDBRANCH   2  26
TORSDOF 9
ENDMDL
MODEL      265
REMARK 921   NORMALIZED FREE ENERGY PREDICTED BY IDOCK:   -4.44 KCAL/MOL
REMARK 922        TOTAL FREE ENERGY PREDICTED BY IDOCK:   -8.54 KCAL/MOL
REMARK 923 INTER-LIGAND FREE ENERGY PREDICTED BY IDOCK:   -7.90 KCAL/MOL
REMARK 924 INTRA-LIGAND FREE ENERGY PREDICTED BY IDOCK:   -0.64 KCAL/MOL
REMARK 927      BINDING AFFINITY PREDICTED BY RF-SCORE:    0.00 PKD
ROOT
HETATM    1  C   UNL     1     -10.778  16.411  69.153  1.00  0.00    -0.317 C  
HETATM    2  N   UNL     1     -10.581  15.203  68.243  1.00  0.00    -0.239 N  
HETATM    3  C   UNL     1     -10.856  13.929  69.037  1.00  0.00    -0.225 C  
ENDROOT
BRANCH   2   4
HETATM    4  C   UNL     1     -11.507  15.326  67.050  1.00  0.00    -0.167 C  
BRANCH   4   5
HETATM    5  C   UNL     1     -12.257  14.059  66.641  1.00  0.00    -0.463 C  
BRANCH   5   6
HETATM    6  C   UNL     1     -11.248  13.006  66.164  1.00  0.00    -0.320 C  
BRANCH   6   7
HETATM    7  C   UNL     1     -11.745  12.147  64.987  1.00  0.00    -0.371 C  
BRANCH   7   8
HETATM    8  C   UNL     1     -10.653  11.282  64.339  1.00  0.00    -0.410 C  
BRANCH   8   9
HETATM    9  C   UNL     1      -9.612  10.935  65.403  1.00  0.00    -0.225 C  
BRANCH   9  10
HETATM   10  N   UNL     1      -8.923   9.590  65.231  1.00  0.00    -0.186 N  
HETATM   11  C   UNL     1      -8.887   9.171  63.765  1.00  0.00    -0.063 C  
HETATM   12  C   UNL     1      -7.478   9.625  65.706  1.00  0.00    -0.100 C  
BRANCH  10  13
HETATM   13  C   UNL     1      -9.758   8.524  66.092  1.00  0.00    -0.189 C  
HETATM   14  C   UNL     1     -10.089   8.991  67.523  1.00  0.00    -0.285 A  
HETATM   15  C   UNL     1      -9.503   8.118  68.467  1.00  0.00    -0.144 A  
HETATM   16  C   UNL     1      -8.868   7.022  67.775  1.00  0.00    -0.123 A  
HETATM   17  C   UNL     1      -9.607   8.353  69.830  1.00  0.00    -0.171 A  
HETATM   18  C   UNL     1      -9.012   7.200  66.380  1.00  0.00    -0.178 A  
HETATM   19  C   UNL     1     -10.313   9.475  70.261  1.00  0.00    -0.321 A  
HETATM   20  C   UNL     1     -10.929  10.325  69.334  1.00  0.00    -0.289 A  
HETATM   21  C   UNL     1      -8.545   6.219  65.512  1.00  0.00    -0.124 A  
HETATM   22  C   UNL     1      -7.894   5.097  66.044  1.00  0.00    -0.103 A  
HETATM   23  C   UNL     1     -10.840  10.076  67.961  1.00  0.00    -0.311 A  
HETATM   24  C   UNL     1      -7.749   4.937  67.426  1.00  0.00    -0.091 A  
HETATM   25  C   UNL     1      -8.246   5.899  68.305  1.00  0.00    -0.109 A  
ENDBRANCH  10  13
ENDBRANCH   9  10
ENDBRANCH   8   9
ENDBRANCH   7   8
ENDBRANCH   6   7
ENDBRANCH   5   6
ENDBRANCH   4   5
ENDBRANCH   2   4
BRANCH   2  26
HETATM   26  C   UNL     1      -9.072  15.167  67.675  1.00  0.00    -0.180 C  
HETATM   27  C   UNL     1      -6.501  17.132  69.506  1.00  0.00    -0.210 A  
HETATM   28  C   UNL     1      -8.176  14.078  68.303  1.00  0.00    -0.153 A  
HETATM   29  C   UNL     1      -6.803  18.451  69.186  1.00  0.00    -0.260 A  
HETATM   30  C   UNL     1      -7.144  14.688  69.054  1.00  0.00    -0.128 A  
HETATM   31  C   UNL     1      -7.245  16.123  68.914  1.00  0.00    -0.178 A  
HETATM   32  C   UNL     1      -6.188  13.931  69.717  1.00  0.00    -0.136 A  
HETATM   33  C   UNL     1      -7.785  18.759  68.231  1.00  0.00    -0.326 A  
HETATM   34  C   UNL     1      -8.210  12.690  68.184  1.00  0.00    -0.170 A  
HETATM   35  C   UNL     1      -8.286  16.430  68.012  1.00  0.00    -0.178 A  
HETATM   36  C   UNL     1      -6.261  12.540  69.636  1.00  0.00    -0.126 A  
HETATM   37  C   UNL     1      -8.511  17.740  67.601  1.00  0.00    -0.229 A  
HETATM   38  C   UNL     1      -7.263  11.924  68.878  1.00  0.00    -0.098 A  
ENDBRANCH   2  26
TORSDOF 9
ENDMDL
MODEL      266
REMARK 921   NORMALIZED FREE ENERGY PREDICTED BY IDOCK:   -4.43 KCAL/MOL
REMARK 922        TOTAL FREE ENERGY PREDICTED BY IDOCK:   -8.53 KCAL/MOL
REMARK 923 INTER-LIGAND FREE ENERGY PREDICTED BY IDOCK:   -8.50 KCAL/MOL
REMARK 924 INTRA-LIGAND FREE ENERGY PREDICTED BY IDOCK:   -0.03 KCAL/MOL
REMARK 927      BINDING AFFINITY PREDICTED BY RF-SCORE:    0.00 PKD
ROOT
HETATM    1  C   UNL     1     -10.474   5.154  66.424  1.00  0.00    -0.303 C  
HETATM    2  N   UNL     1      -9.496   5.870  67.349  1.00  0.00    -0.111 N  
HETATM    3  C   UNL     1      -8.135   5.184  67.265  1.00  0.00    -0.104 C  
ENDROOT
BRANCH   2   4
HETATM    4  C   UNL     1      -9.409   7.327  66.945  1.00  0.00    -0.156 C  
BRANCH   4   5
HETATM    5  C   UNL     1      -8.032   7.831  66.515  1.00  0.00    -0.106 C  
BRANCH   5   6
HETATM    6  C   UNL     1      -8.178   9.219  65.878  1.00  0.00    -0.116 C  
BRANCH   6   7
HETATM    7  C   UNL     1      -9.633   9.621  65.574  1.00  0.00    -0.351 C  
BRANCH   7   8
HETATM    8  C   UNL     1      -9.816  11.113  65.255  1.00  0.00    -0.296 C  
BRANCH   8   9
HETATM    9  C   UNL     1      -9.677  11.909  66.552  1.00  0.00    -0.210 C  
BRANCH   9  10
HETATM   10  N   UNL     1     -10.931  11.992  67.408  1.00  0.00    -0.247 N  
HETATM   11  C   UNL     1     -12.015  12.817  66.722  1.00  0.00    -0.319 C  
HETATM   12  C   UNL     1     -11.533  10.619  67.670  1.00  0.00    -0.086 C  
BRANCH  10  13
HETATM   13  C   UNL     1     -10.505  12.678  68.795  1.00  0.00    -0.143 C  
HETATM   14  C   UNL     1     -11.539  12.508  69.925  1.00  0.00    -0.242 A  
HETATM   15  C   UNL     1     -12.009  13.772  70.348  1.00  0.00    -0.385 A  
HETATM   16  C   UNL     1     -11.290  14.808  69.646  1.00  0.00    -0.316 A  
HETATM   17  C   UNL     1     -12.992  13.890  71.320  1.00  0.00    -0.414 A  
HETATM   18  C   UNL     1     -10.379  14.218  68.741  1.00  0.00    -0.239 A  
HETATM   19  C   UNL     1     -13.512  12.727  71.885  1.00  0.00    -0.452 A  
HETATM   20  C   UNL     1     -13.026  11.471  71.498  1.00  0.00    -0.485 A  
HETATM   21  C   UNL     1      -9.517  15.029  68.010  1.00  0.00    -0.193 A  
HETATM   22  C   UNL     1      -9.612  16.421  68.151  1.00  0.00    -0.227 A  
HETATM   23  C   UNL     1     -12.022  11.355  70.533  1.00  0.00    -0.451 A  
HETATM   24  C   UNL     1     -10.525  16.993  69.043  1.00  0.00    -0.337 A  
HETATM   25  C   UNL     1     -11.368  16.186  69.806  1.00  0.00    -0.323 A  
ENDBRANCH  10  13
ENDBRANCH   9  10
ENDBRANCH   8   9
ENDBRANCH   7   8
ENDBRANCH   6   7
ENDBRANCH   5   6
ENDBRANCH   4   5
ENDBRANCH   2   4
BRANCH   2  26
HETATM   26  C   UNL     1     -10.026   5.826  68.871  1.00  0.00    -0.161 C  
HETATM   27  C   UNL     1      -7.848   4.194  71.403  1.00  0.00    -0.072 A  
HETATM   28  C   UNL     1      -9.559   7.007  69.748  1.00  0.00    -0.151 A  
HETATM   29  C   UNL     1      -7.962   2.839  71.112  1.00  0.00    -0.056 A  
HETATM   30  C   UNL     1      -8.697   6.530  70.764  1.00  0.00    -0.143 A  
HETATM   31  C   UNL     1      -8.610   5.091  70.671  1.00  0.00    -0.125 A  
HETATM   32  C   UNL     1      -8.140   7.389  71.701  1.00  0.00    -0.099 A  
HETATM   33  C   UNL     1      -8.878   2.376  70.155  1.00  0.00    -0.142 A  
HETATM   34  C   UNL     1      -9.897   8.359  69.714  1.00  0.00    -0.187 A  
HETATM   35  C   UNL     1      -9.475   4.638  69.652  1.00  0.00    -0.232 A  
HETATM   36  C   UNL     1      -8.442   8.750  71.626  1.00  0.00    -0.209 A  
HETATM   37  C   UNL     1      -9.679   3.278  69.442  1.00  0.00     0.018 A  
HETATM   38  C   UNL     1      -9.311   9.231  70.641  1.00  0.00    -0.329 A  
ENDBRANCH   2  26
TORSDOF 9
ENDMDL
MODEL      267
REMARK 921   NORMALIZED FREE ENERGY PREDICTED BY IDOCK:   -4.43 KCAL/MOL
REMARK 922        TOTAL FREE ENERGY PREDICTED BY IDOCK:   -8.52 KCAL/MOL
REMARK 923 INTER-LIGAND FREE ENERGY PREDICTED BY IDOCK:   -8.35 KCAL/MOL
REMARK 924 INTRA-LIGAND FREE ENERGY PREDICTED BY IDOCK:   -0.18 KCAL/MOL
REMARK 927      BINDING AFFINITY PREDICTED BY RF-SCORE:    0.00 PKD
ROOT
HETATM    1  C   UNL     1     -11.398   6.632  69.558  1.00  0.00    -0.299 C  
HETATM    2  N   UNL     1     -10.114   7.021  68.834  1.00  0.00    -0.168 N  
HETATM    3  C   UNL     1      -9.700   5.883  67.905  1.00  0.00    -0.119 C  
ENDROOT
BRANCH   2   4
HETATM    4  C   UNL     1     -10.348   8.307  68.068  1.00  0.00    -0.213 C  
BRANCH   4   5
HETATM    5  C   UNL     1      -9.793   8.359  66.644  1.00  0.00    -0.343 C  
BRANCH   5   6
HETATM    6  C   UNL     1      -9.416   9.807  66.303  1.00  0.00    -0.250 C  
BRANCH   6   7
HETATM    7  C   UNL     1     -10.122  10.362  65.052  1.00  0.00    -0.379 C  
BRANCH   7   8
HETATM    8  C   UNL     1     -11.095  11.515  65.343  1.00  0.00    -0.250 C  
BRANCH   8   9
HETATM    9  C   UNL     1     -10.386  12.837  65.046  1.00  0.00    -0.303 C  
BRANCH   9  10
HETATM   10  N   UNL     1     -10.962  14.059  65.742  1.00  0.00    -0.291 N  
HETATM   11  C   UNL     1     -10.951  15.276  64.822  1.00  0.00    -0.386 C  
HETATM   12  C   UNL     1     -12.409  13.847  66.161  1.00  0.00    -0.465 C  
BRANCH  10  13
HETATM   13  C   UNL     1     -10.051  14.333  67.035  1.00  0.00    -0.260 C  
HETATM   14  C   UNL     1     -10.816  14.259  68.371  1.00  0.00    -0.263 A  
HETATM   15  C   UNL     1     -10.756  15.505  69.035  1.00  0.00    -0.243 A  
HETATM   16  C   UNL     1      -9.916  16.407  68.285  1.00  0.00    -0.243 A  
HETATM   17  C   UNL     1     -11.417  15.716  70.237  1.00  0.00    -0.361 A  
HETATM   18  C   UNL     1      -9.457  15.759  67.115  1.00  0.00    -0.222 A  
HETATM   19  C   UNL     1     -12.145  14.664  70.791  1.00  0.00    -0.387 A  
HETATM   20  C   UNL     1     -12.178  13.415  70.158  1.00  0.00    -0.385 A  
HETATM   21  C   UNL     1      -8.562  16.413  66.276  1.00  0.00    -0.375 A  
HETATM   22  C   UNL     1      -8.176  17.725  66.585  1.00  0.00    -0.287 A  
HETATM   23  C   UNL     1     -11.496  13.198  68.957  1.00  0.00    -0.345 A  
HETATM   24  C   UNL     1      -8.645  18.359  67.740  1.00  0.00    -0.278 A  
HETATM   25  C   UNL     1      -9.515  17.698  68.606  1.00  0.00    -0.284 A  
ENDBRANCH  10  13
ENDBRANCH   9  10
ENDBRANCH   8   9
ENDBRANCH   7   8
ENDBRANCH   6   7
ENDBRANCH   5   6
ENDBRANCH   4   5
ENDBRANCH   2   4
BRANCH   2  26
HETATM   26  C   UNL     1      -8.933   7.304  69.895  1.00  0.00    -0.142 C  
HETATM   27  C   UNL     1      -5.520   6.119  69.024  1.00  0.00    -0.008 A  
HETATM   28  C   UNL     1      -8.155   8.616  69.655  1.00  0.00    -0.112 A  
HETATM   29  C   UNL     1      -5.600   4.739  69.179  1.00  0.00    -0.012 A  
HETATM   30  C   UNL     1      -6.820   8.315  69.296  1.00  0.00    -0.050 A  
HETATM   31  C   UNL     1      -6.629   6.884  69.348  1.00  0.00    -0.048 A  
HETATM   32  C   UNL     1      -5.899   9.319  69.034  1.00  0.00    -0.039 A  
HETATM   33  C   UNL     1      -6.745   4.135  69.718  1.00  0.00    -0.034 A  
HETATM   34  C   UNL     1      -8.545   9.946  69.797  1.00  0.00    -0.219 A  
HETATM   35  C   UNL     1      -7.813   6.274  69.817  1.00  0.00    -0.110 A  
HETATM   36  C   UNL     1      -6.313  10.649  69.126  1.00  0.00    -0.053 A  
HETATM   37  C   UNL     1      -7.854   4.909  70.084  1.00  0.00    -0.066 A  
HETATM   38  C   UNL     1      -7.624  10.960  69.502  1.00  0.00    -0.057 A  
ENDBRANCH   2  26
TORSDOF 9
ENDMDL
MODEL      268
REMARK 921   NORMALIZED FREE ENERGY PREDICTED BY IDOCK:   -4.42 KCAL/MOL
REMARK 922        TOTAL FREE ENERGY PREDICTED BY IDOCK:   -8.51 KCAL/MOL
REMARK 923 INTER-LIGAND FREE ENERGY PREDICTED BY IDOCK:   -7.73 KCAL/MOL
REMARK 924 INTRA-LIGAND FREE ENERGY PREDICTED BY IDOCK:   -0.78 KCAL/MOL
REMARK 927      BINDING AFFINITY PREDICTED BY RF-SCORE:    0.00 PKD
ROOT
HETATM    1  C   UNL     1      -8.121  17.527  68.809  1.00  0.00    -0.232 C  
HETATM    2  N   UNL     1      -8.384  16.148  68.213  1.00  0.00    -0.166 N  
HETATM    3  C   UNL     1      -7.574  15.997  66.929  1.00  0.00    -0.233 C  
ENDROOT
BRANCH   2   4
HETATM    4  C   UNL     1      -8.014  15.090  69.232  1.00  0.00    -0.190 C  
BRANCH   4   5
HETATM    5  C   UNL     1      -6.763  14.266  68.930  1.00  0.00    -0.100 C  
BRANCH   5   6
HETATM    6  C   UNL     1      -7.149  12.784  68.822  1.00  0.00    -0.089 C  
BRANCH   6   7
HETATM    7  C   UNL     1      -6.315  11.850  69.718  1.00  0.00    -0.118 C  
BRANCH   7   8
HETATM    8  C   UNL     1      -6.798  10.392  69.722  1.00  0.00    -0.130 C  
BRANCH   8   9
HETATM    9  C   UNL     1      -6.525   9.792  71.102  1.00  0.00     0.045 C  
BRANCH   9  10
HETATM   10  N   UNL     1      -7.187   8.451  71.375  1.00  0.00    -0.076 N  
HETATM   11  C   UNL     1      -6.181   7.308  71.277  1.00  0.00    -0.036 C  
HETATM   12  C   UNL     1      -7.784   8.384  72.773  1.00  0.00    -0.071 C  
BRANCH  10  13
HETATM   13  C   UNL     1      -8.343   8.268  70.276  1.00  0.00    -0.123 C  
HETATM   14  C   UNL     1      -9.743   8.694  70.758  1.00  0.00    -0.237 A  
HETATM   15  C   UNL     1     -10.624   7.590  70.727  1.00  0.00    -0.227 A  
HETATM   16  C   UNL     1      -9.943   6.450  70.161  1.00  0.00    -0.201 A  
HETATM   17  C   UNL     1     -11.935   7.698  71.168  1.00  0.00    -0.319 A  
HETATM   18  C   UNL     1      -8.608   6.803  69.856  1.00  0.00    -0.141 A  
HETATM   19  C   UNL     1     -12.378   8.932  71.643  1.00  0.00    -0.405 A  
HETATM   20  C   UNL     1     -11.522  10.041  71.642  1.00  0.00    -0.050 A  
HETATM   21  C   UNL     1      -7.782   5.880  69.224  1.00  0.00    -0.094 A  
HETATM   22  C   UNL     1      -8.281   4.599  68.951  1.00  0.00    -0.081 A  
HETATM   23  C   UNL     1     -10.208   9.934  71.179  1.00  0.00     0.214 A  
HETATM   24  C   UNL     1      -9.600   4.258  69.266  1.00  0.00    -0.261 A  
HETATM   25  C   UNL     1     -10.446   5.188  69.868  1.00  0.00    -0.296 A  
ENDBRANCH  10  13
ENDBRANCH   9  10
ENDBRANCH   8   9
ENDBRANCH   7   8
ENDBRANCH   6   7
ENDBRANCH   5   6
ENDBRANCH   4   5
ENDBRANCH   2   4
BRANCH   2  26
HETATM   26  C   UNL     1      -9.952  15.968  67.883  1.00  0.00    -0.233 C  
HETATM   27  C   UNL     1     -11.133  12.568  66.956  1.00  0.00    -0.326 A  
HETATM   28  C   UNL     1     -10.819  15.554  69.092  1.00  0.00    -0.251 A  
HETATM   29  C   UNL     1     -10.637  12.386  65.669  1.00  0.00    -0.297 A  
HETATM   30  C   UNL     1     -11.333  14.253  68.881  1.00  0.00    -0.302 A  
HETATM   31  C   UNL     1     -10.926  13.791  67.575  1.00  0.00    -0.285 A  
HETATM   32  C   UNL     1     -12.157  13.642  69.816  1.00  0.00    -0.396 A  
HETATM   33  C   UNL     1     -10.006  13.432  64.980  1.00  0.00    -0.179 A  
HETATM   34  C   UNL     1     -11.183  16.260  70.237  1.00  0.00    -0.343 A  
HETATM   35  C   UNL     1     -10.222  14.822  66.916  1.00  0.00    -0.257 A  
HETATM   36  C   UNL     1     -12.473  14.335  70.986  1.00  0.00    -0.432 A  
HETATM   37  C   UNL     1      -9.830  14.682  65.588  1.00  0.00    -0.354 A  
HETATM   38  C   UNL     1     -11.990  15.632  71.195  1.00  0.00    -0.457 A  
ENDBRANCH   2  26
TORSDOF 9
ENDMDL
MODEL      269
REMARK 921   NORMALIZED FREE ENERGY PREDICTED BY IDOCK:   -4.42 KCAL/MOL
REMARK 922        TOTAL FREE ENERGY PREDICTED BY IDOCK:   -8.51 KCAL/MOL
REMARK 923 INTER-LIGAND FREE ENERGY PREDICTED BY IDOCK:   -8.17 KCAL/MOL
REMARK 924 INTRA-LIGAND FREE ENERGY PREDICTED BY IDOCK:   -0.35 KCAL/MOL
REMARK 927      BINDING AFFINITY PREDICTED BY RF-SCORE:    0.00 PKD
ROOT
HETATM    1  C   UNL     1      -5.474   6.851  69.981  1.00  0.00    -0.019 C  
HETATM    2  N   UNL     1      -6.888   7.278  70.359  1.00  0.00    -0.052 N  
HETATM    3  C   UNL     1      -6.841   8.048  71.676  1.00  0.00    -0.057 C  
ENDROOT
BRANCH   2   4
HETATM    4  C   UNL     1      -7.466   8.122  69.242  1.00  0.00    -0.089 C  
BRANCH   4   5
HETATM    5  C   UNL     1      -6.487   8.579  68.161  1.00  0.00    -0.057 C  
BRANCH   5   6
HETATM    6  C   UNL     1      -5.903   9.943  68.554  1.00  0.00    -0.042 C  
BRANCH   6   7
HETATM    7  C   UNL     1      -6.725  11.146  68.057  1.00  0.00    -0.062 C  
BRANCH   7   8
HETATM    8  C   UNL     1      -7.392  10.926  66.690  1.00  0.00    -0.139 C  
BRANCH   8   9
HETATM    9  C   UNL     1      -8.861  11.337  66.794  1.00  0.00    -0.170 C  
BRANCH   9  10
HETATM   10  N   UNL     1      -9.855  10.381  66.154  1.00  0.00    -0.212 N  
HETATM   11  C   UNL     1      -9.604  10.242  64.656  1.00  0.00    -0.312 C  
HETATM   12  C   UNL     1      -9.758   8.981  66.741  1.00  0.00    -0.216 C  
BRANCH  10  13
HETATM   13  C   UNL     1     -11.319  10.985  66.417  1.00  0.00     0.175 C  
HETATM   14  C   UNL     1     -11.685  12.170  65.503  1.00  0.00    -0.384 A  
HETATM   15  C   UNL     1     -11.925  13.327  66.278  1.00  0.00    -0.471 A  
HETATM   16  C   UNL     1     -11.843  12.989  67.679  1.00  0.00    -0.401 A  
HETATM   17  C   UNL     1     -12.219  14.547  65.686  1.00  0.00    -0.279 A  
HETATM   18  C   UNL     1     -11.514  11.621  67.814  1.00  0.00    -0.373 A  
HETATM   19  C   UNL     1     -12.280  14.614  64.295  1.00  0.00    -0.432 A  
HETATM   20  C   UNL     1     -12.080  13.464  63.520  1.00  0.00    -0.497 A  
HETATM   21  C   UNL     1     -11.459  11.051  69.082  1.00  0.00    -0.370 A  
HETATM   22  C   UNL     1     -11.681  11.864  70.201  1.00  0.00    -0.337 A  
HETATM   23  C   UNL     1     -11.804  12.232  64.119  1.00  0.00    -0.502 A  
HETATM   24  C   UNL     1     -11.995  13.219  70.056  1.00  0.00    -0.399 A  
HETATM   25  C   UNL     1     -12.087  13.791  68.787  1.00  0.00    -0.344 A  
ENDBRANCH  10  13
ENDBRANCH   9  10
ENDBRANCH   8   9
ENDBRANCH   7   8
ENDBRANCH   6   7
ENDBRANCH   5   6
ENDBRANCH   4   5
ENDBRANCH   2   4
BRANCH   2  26
HETATM   26  C   UNL     1      -7.840   5.987  70.526  1.00  0.00    -0.102 C  
HETATM   27  C   UNL     1      -8.491   4.767  73.976  1.00  0.00    -0.103 A  
HETATM   28  C   UNL     1      -9.333   6.313  70.739  1.00  0.00    -0.168 A  
HETATM   29  C   UNL     1      -7.288   4.178  74.351  1.00  0.00    -0.071 A  
HETATM   30  C   UNL     1      -9.725   5.910  72.038  1.00  0.00    -0.174 A  
HETATM   31  C   UNL     1      -8.607   5.267  72.689  1.00  0.00    -0.117 A  
HETATM   32  C   UNL     1     -11.027   6.081  72.485  1.00  0.00    -0.300 A  
HETATM   33  C   UNL     1      -6.239   4.023  73.432  1.00  0.00    -0.030 A  
HETATM   34  C   UNL     1     -10.282   6.849  69.871  1.00  0.00    -0.214 A  
HETATM   35  C   UNL     1      -7.527   5.184  71.783  1.00  0.00    -0.090 A  
HETATM   36  C   UNL     1     -11.959   6.668  71.627  1.00  0.00    -0.395 A  
HETATM   37  C   UNL     1      -6.368   4.491  72.118  1.00  0.00    -0.022 A  
HETATM   38  C   UNL     1     -11.590   7.050  70.333  1.00  0.00    -0.341 A  
ENDBRANCH   2  26
TORSDOF 9
ENDMDL
MODEL      270
REMARK 921   NORMALIZED FREE ENERGY PREDICTED BY IDOCK:   -4.41 KCAL/MOL
REMARK 922        TOTAL FREE ENERGY PREDICTED BY IDOCK:   -8.50 KCAL/MOL
REMARK 923 INTER-LIGAND FREE ENERGY PREDICTED BY IDOCK:   -7.99 KCAL/MOL
REMARK 924 INTRA-LIGAND FREE ENERGY PREDICTED BY IDOCK:   -0.51 KCAL/MOL
REMARK 927      BINDING AFFINITY PREDICTED BY RF-SCORE:    0.00 PKD
ROOT
HETATM    1  C   UNL     1     -11.257   8.861  72.050  1.00  0.00    -0.352 C  
HETATM    2  N   UNL     1     -10.876   7.931  70.903  1.00  0.00    -0.230 N  
HETATM    3  C   UNL     1     -11.934   6.840  70.771  1.00  0.00    -0.378 C  
ENDROOT
BRANCH   2   4
HETATM    4  C   UNL     1     -10.753   8.743  69.629  1.00  0.00    -0.208 C  
BRANCH   4   5
HETATM    5  C   UNL     1     -11.047  10.238  69.747  1.00  0.00    -0.340 C  
BRANCH   5   6
HETATM    6  C   UNL     1     -10.823  10.905  68.383  1.00  0.00    -0.266 C  
BRANCH   6   7
HETATM    7  C   UNL     1     -11.085  12.422  68.374  1.00  0.00    -0.288 C  
BRANCH   7   8
HETATM    8  C   UNL     1     -12.047  12.884  67.269  1.00  0.00    -0.275 C  
BRANCH   8   9
HETATM    9  C   UNL     1     -11.819  14.375  67.017  1.00  0.00    -0.412 C  
BRANCH   9  10
HETATM   10  N   UNL     1     -11.166  14.722  65.689  1.00  0.00    -0.338 N  
HETATM   11  C   UNL     1     -10.799  13.464  64.908  1.00  0.00    -0.352 C  
HETATM   12  C   UNL     1     -12.091  15.532  64.793  1.00  0.00     0.051 C  
BRANCH  10  13
HETATM   13  C   UNL     1      -9.846  15.571  66.025  1.00  0.00    -0.335 C  
HETATM   14  C   UNL     1      -8.923  14.914  67.069  1.00  0.00    -0.256 A  
HETATM   15  C   UNL     1      -8.799  15.748  68.203  1.00  0.00    -0.178 A  
HETATM   16  C   UNL     1      -9.503  16.986  67.965  1.00  0.00    -0.256 A  
HETATM   17  C   UNL     1      -8.064  15.356  69.312  1.00  0.00    -0.246 A  
HETATM   18  C   UNL     1     -10.113  16.942  66.691  1.00  0.00    -0.306 A  
HETATM   19  C   UNL     1      -7.435  14.112  69.289  1.00  0.00     0.018 A  
HETATM   20  C   UNL     1      -7.522  13.295  68.155  1.00  0.00    -0.128 A  
HETATM   21  C   UNL     1     -10.783  18.064  66.213  1.00  0.00    -0.134 A  
HETATM   22  C   UNL     1     -10.880  19.196  67.033  1.00  0.00    -0.479 A  
HETATM   23  C   UNL     1      -8.247  13.700  67.030  1.00  0.00    -0.056 A  
HETATM   24  C   UNL     1     -10.280  19.224  68.296  1.00  0.00    -0.513 A  
HETATM   25  C   UNL     1      -9.577  18.117  68.768  1.00  0.00    -0.304 A  
ENDBRANCH  10  13
ENDBRANCH   9  10
ENDBRANCH   8   9
ENDBRANCH   7   8
ENDBRANCH   6   7
ENDBRANCH   5   6
ENDBRANCH   4   5
ENDBRANCH   2   4
BRANCH   2  26
HETATM   26  C   UNL     1      -9.438   7.255  71.180  1.00  0.00    -0.156 C  
HETATM   27  C   UNL     1      -8.394   4.466  68.957  1.00  0.00    -0.087 A  
HETATM   28  C   UNL     1      -8.275   7.866  70.371  1.00  0.00    -0.119 A  
HETATM   29  C   UNL     1      -9.195   3.403  69.361  1.00  0.00    -0.222 A  
HETATM   30  C   UNL     1      -7.777   6.906  69.458  1.00  0.00    -0.104 A  
HETATM   31  C   UNL     1      -8.486   5.662  69.650  1.00  0.00    -0.110 A  
HETATM   32  C   UNL     1      -6.717   7.196  68.611  1.00  0.00    -0.063 A  
HETATM   33  C   UNL     1     -10.025   3.508  70.488  1.00  0.00     0.084 A  
HETATM   34  C   UNL     1      -7.658   9.113  70.459  1.00  0.00    -0.130 A  
HETATM   35  C   UNL     1      -9.378   5.798  70.736  1.00  0.00    -0.189 A  
HETATM   36  C   UNL     1      -6.141   8.465  68.668  1.00  0.00    -0.045 A  
HETATM   37  C   UNL     1     -10.091   4.704  71.215  1.00  0.00    -0.245 A  
HETATM   38  C   UNL     1      -6.608   9.416  69.583  1.00  0.00    -0.044 A  
ENDBRANCH   2  26
TORSDOF 9
ENDMDL
MODEL      271
REMARK 921   NORMALIZED FREE ENERGY PREDICTED BY IDOCK:   -4.39 KCAL/MOL
REMARK 922        TOTAL FREE ENERGY PREDICTED BY IDOCK:   -8.47 KCAL/MOL
REMARK 923 INTER-LIGAND FREE ENERGY PREDICTED BY IDOCK:   -7.77 KCAL/MOL
REMARK 924 INTRA-LIGAND FREE ENERGY PREDICTED BY IDOCK:   -0.71 KCAL/MOL
REMARK 927      BINDING AFFINITY PREDICTED BY RF-SCORE:    0.00 PKD
ROOT
HETATM    1  C   UNL     1      -5.453   6.330  68.430  1.00  0.00    -0.008 C  
HETATM    2  N   UNL     1      -6.357   6.284  69.657  1.00  0.00    -0.033 N  
HETATM    3  C   UNL     1      -5.528   5.878  70.873  1.00  0.00    -0.013 C  
ENDROOT
BRANCH   2   4
HETATM    4  C   UNL     1      -6.998   7.643  69.850  1.00  0.00    -0.054 C  
BRANCH   4   5
HETATM    5  C   UNL     1      -6.547   8.747  68.895  1.00  0.00    -0.053 C  
BRANCH   5   6
HETATM    6  C   UNL     1      -7.683   9.765  68.729  1.00  0.00    -0.081 C  
BRANCH   6   7
HETATM    7  C   UNL     1      -9.089   9.138  68.696  1.00  0.00    -0.136 C  
BRANCH   7   8
HETATM    8  C   UNL     1     -10.080   9.870  67.778  1.00  0.00    -0.221 C  
BRANCH   8   9
HETATM    9  C   UNL     1      -9.916  11.376  67.988  1.00  0.00    -0.182 C  
BRANCH   9  10
HETATM   10  N   UNL     1     -11.187  12.127  68.353  1.00  0.00    -0.243 N  
HETATM   11  C   UNL     1     -11.778  12.837  67.140  1.00  0.00    -0.380 C  
HETATM   12  C   UNL     1     -12.268  11.196  68.879  1.00  0.00    -0.076 C  
BRANCH  10  13
HETATM   13  C   UNL     1     -10.788  13.197  69.483  1.00  0.00     0.179 C  
HETATM   14  C   UNL     1     -11.960  13.625  70.387  1.00  0.00    -0.372 A  
HETATM   15  C   UNL     1     -12.188  15.014  70.262  1.00  0.00    -0.390 A  
HETATM   16  C   UNL     1     -11.182  15.588  69.401  1.00  0.00    -0.302 A  
HETATM   17  C   UNL     1     -13.229  15.638  70.934  1.00  0.00    -0.355 A  
HETATM   18  C   UNL     1     -10.322  14.567  68.937  1.00  0.00    -0.237 A  
HETATM   19  C   UNL     1     -14.055  14.866  71.749  1.00  0.00    -0.609 A  
HETATM   20  C   UNL     1     -13.813  13.495  71.907  1.00  0.00    -0.421 A  
HETATM   21  C   UNL     1      -9.223  14.901  68.152  1.00  0.00    -0.186 A  
HETATM   22  C   UNL     1      -9.027  16.242  67.796  1.00  0.00    -0.193 A  
HETATM   23  C   UNL     1     -12.751  12.871  71.245  1.00  0.00    -0.371 A  
HETATM   24  C   UNL     1      -9.891  17.243  68.253  1.00  0.00    -0.304 A  
HETATM   25  C   UNL     1     -10.974  16.921  69.070  1.00  0.00    -0.179 A  
ENDBRANCH  10  13
ENDBRANCH   9  10
ENDBRANCH   8   9
ENDBRANCH   7   8
ENDBRANCH   6   7
ENDBRANCH   5   6
ENDBRANCH   4   5
ENDBRANCH   2   4
BRANCH   2  26
HETATM   26  C   UNL     1      -7.547   5.219  69.439  1.00  0.00    -0.069 C  
HETATM   27  C   UNL     1     -10.629   5.648  71.472  1.00  0.00    -0.306 A  
HETATM   28  C   UNL     1      -8.603   5.641  68.395  1.00  0.00    -0.111 A  
HETATM   29  C   UNL     1     -10.241   5.254  72.748  1.00  0.00    -0.228 A  
HETATM   30  C   UNL     1      -9.845   5.856  69.038  1.00  0.00    -0.193 A  
HETATM   31  C   UNL     1      -9.711   5.536  70.440  1.00  0.00    -0.242 A  
HETATM   32  C   UNL     1     -10.972   6.236  68.322  1.00  0.00    -0.408 A  
HETATM   33  C   UNL     1      -8.978   4.688  72.980  1.00  0.00    -0.122 A  
HETATM   34  C   UNL     1      -8.516   5.764  67.010  1.00  0.00    -0.107 A  
HETATM   35  C   UNL     1      -8.412   5.041  70.682  1.00  0.00    -0.111 A  
HETATM   36  C   UNL     1     -10.863   6.410  66.942  1.00  0.00    -0.428 A  
HETATM   37  C   UNL     1      -8.062   4.537  71.931  1.00  0.00    -0.100 A  
HETATM   38  C   UNL     1      -9.646   6.178  66.291  1.00  0.00    -0.123 A  
ENDBRANCH   2  26
TORSDOF 9
ENDMDL
MODEL      272
REMARK 921   NORMALIZED FREE ENERGY PREDICTED BY IDOCK:   -4.39 KCAL/MOL
REMARK 922        TOTAL FREE ENERGY PREDICTED BY IDOCK:   -8.47 KCAL/MOL
REMARK 923 INTER-LIGAND FREE ENERGY PREDICTED BY IDOCK:   -6.67 KCAL/MOL
REMARK 924 INTRA-LIGAND FREE ENERGY PREDICTED BY IDOCK:   -1.80 KCAL/MOL
REMARK 927      BINDING AFFINITY PREDICTED BY RF-SCORE:    0.00 PKD
ROOT
HETATM    1  C   UNL     1      -6.125   6.373  69.929  1.00  0.00    -0.030 C  
HETATM    2  N   UNL     1      -7.351   6.309  70.834  1.00  0.00    -0.078 N  
HETATM    3  C   UNL     1      -6.991   5.554  72.111  1.00  0.00    -0.081 C  
ENDROOT
BRANCH   2   4
HETATM    4  C   UNL     1      -7.817   7.719  71.136  1.00  0.00    -0.089 C  
BRANCH   4   5
HETATM    5  C   UNL     1      -7.043   8.849  70.457  1.00  0.00    -0.064 C  
BRANCH   5   6
HETATM    6  C   UNL     1      -8.025   9.740  69.684  1.00  0.00    -0.152 C  
BRANCH   6   7
HETATM    7  C   UNL     1      -9.387   9.924  70.379  1.00  0.00    -0.064 C  
BRANCH   7   8
HETATM    8  C   UNL     1     -10.537  10.267  69.420  1.00  0.00    -0.262 C  
BRANCH   8   9
HETATM    9  C   UNL     1      -9.949  10.918  68.168  1.00  0.00    -0.174 C  
BRANCH   9  10
HETATM   10  N   UNL     1     -10.535  12.271  67.797  1.00  0.00    -0.206 N  
HETATM   11  C   UNL     1     -11.866  12.116  67.068  1.00  0.00    -0.216 C  
HETATM   12  C   UNL     1     -10.811  13.128  69.023  1.00  0.00    -0.161 C  
BRANCH  10  13
HETATM   13  C   UNL     1      -9.464  12.999  66.849  1.00  0.00    -0.242 C  
HETATM   14  C   UNL     1      -8.042  12.410  66.935  1.00  0.00    -0.064 A  
HETATM   15  C   UNL     1      -7.136  13.393  67.392  1.00  0.00    -0.108 A  
HETATM   16  C   UNL     1      -7.827  14.653  67.533  1.00  0.00    -0.212 A  
HETATM   17  C   UNL     1      -5.798  13.098  67.610  1.00  0.00    -0.122 A  
HETATM   18  C   UNL     1      -9.191  14.480  67.202  1.00  0.00    -0.233 A  
HETATM   19  C   UNL     1      -5.354  11.800  67.362  1.00  0.00    -0.088 A  
HETATM   20  C   UNL     1      -6.238  10.828  66.874  1.00  0.00    -0.076 A  
HETATM   21  C   UNL     1     -10.038  15.583  67.189  1.00  0.00    -0.254 A  
HETATM   22  C   UNL     1      -9.526  16.835  67.557  1.00  0.00    -0.237 A  
HETATM   23  C   UNL     1      -7.581  11.134  66.637  1.00  0.00    -0.147 A  
HETATM   24  C   UNL     1      -8.177  16.992  67.892  1.00  0.00    -0.200 A  
HETATM   25  C   UNL     1      -7.313  15.897  67.873  1.00  0.00    -0.148 A  
ENDBRANCH  10  13
ENDBRANCH   9  10
ENDBRANCH   8   9
ENDBRANCH   7   8
ENDBRANCH   6   7
ENDBRANCH   5   6
ENDBRANCH   4   5
ENDBRANCH   2   4
BRANCH   2  26
HETATM   26  C   UNL     1      -8.563   5.554  70.087  1.00  0.00    -0.121 C  
HETATM   27  C   UNL     1     -11.982   6.948  70.517  1.00  0.00    -0.358 A  
HETATM   28  C   UNL     1      -8.897   6.107  68.685  1.00  0.00    -0.114 A  
HETATM   29  C   UNL     1     -12.314   6.612  71.825  1.00  0.00    -0.385 A  
HETATM   30  C   UNL     1     -10.187   6.690  68.701  1.00  0.00    -0.184 A  
HETATM   31  C   UNL     1     -10.772   6.502  70.008  1.00  0.00    -0.302 A  
HETATM   32  C   UNL     1     -10.738   7.256  67.560  1.00  0.00    -0.326 A  
HETATM   33  C   UNL     1     -11.485   5.780  72.593  1.00  0.00    -0.337 A  
HETATM   34  C   UNL     1      -8.183   6.054  67.490  1.00  0.00    -0.106 A  
HETATM   35  C   UNL     1      -9.897   5.730  70.803  1.00  0.00    -0.235 A  
HETATM   36  C   UNL     1      -9.992   7.247  66.381  1.00  0.00    -0.094 A  
HETATM   37  C   UNL     1     -10.280   5.295  72.068  1.00  0.00    -0.259 A  
HETATM   38  C   UNL     1      -8.726   6.652  66.345  1.00  0.00    -0.144 A  
ENDBRANCH   2  26
TORSDOF 9
ENDMDL
MODEL      273
REMARK 921   NORMALIZED FREE ENERGY PREDICTED BY IDOCK:   -4.38 KCAL/MOL
REMARK 922        TOTAL FREE ENERGY PREDICTED BY IDOCK:   -8.46 KCAL/MOL
REMARK 923 INTER-LIGAND FREE ENERGY PREDICTED BY IDOCK:   -8.25 KCAL/MOL
REMARK 924 INTRA-LIGAND FREE ENERGY PREDICTED BY IDOCK:   -0.21 KCAL/MOL
REMARK 927      BINDING AFFINITY PREDICTED BY RF-SCORE:    0.00 PKD
ROOT
HETATM    1  C   UNL     1     -10.148  10.825  69.241  1.00  0.00    -0.177 C  
HETATM    2  N   UNL     1     -10.387  10.977  67.743  1.00  0.00    -0.182 N  
HETATM    3  C   UNL     1      -9.188  11.684  67.116  1.00  0.00    -0.176 C  
ENDROOT
BRANCH   2   4
HETATM    4  C   UNL     1     -10.604   9.607  67.135  1.00  0.00    -0.228 C  
BRANCH   4   5
HETATM    5  C   UNL     1      -9.694   9.232  65.966  1.00  0.00    -0.359 C  
BRANCH   5   6
HETATM    6  C   UNL     1      -8.805   8.050  66.378  1.00  0.00    -0.183 C  
BRANCH   6   7
HETATM    7  C   UNL     1      -7.326   8.422  66.594  1.00  0.00    -0.082 C  
BRANCH   7   8
HETATM    8  C   UNL     1      -6.748   7.935  67.931  1.00  0.00    -0.068 C  
BRANCH   8   9
HETATM    9  C   UNL     1      -7.815   8.104  69.013  1.00  0.00    -0.108 C  
BRANCH   9  10
HETATM   10  N   UNL     1      -7.532   7.396  70.328  1.00  0.00    -0.081 N  
HETATM   11  C   UNL     1      -6.255   6.565  70.245  1.00  0.00    -0.035 C  
HETATM   12  C   UNL     1      -7.336   8.377  71.474  1.00  0.00    -0.095 C  
BRANCH  10  13
HETATM   13  C   UNL     1      -8.792   6.447  70.629  1.00  0.00    -0.144 C  
HETATM   14  C   UNL     1      -8.572   5.455  71.787  1.00  0.00    -0.131 A  
HETATM   15  C   UNL     1      -8.680   4.127  71.317  1.00  0.00    -0.134 A  
HETATM   16  C   UNL     1      -9.057   4.142  69.924  1.00  0.00    -0.179 A  
HETATM   17  C   UNL     1      -8.466   3.043  72.156  1.00  0.00    -0.084 A  
HETATM   18  C   UNL     1      -9.160   5.480  69.479  1.00  0.00    -0.143 A  
HETATM   19  C   UNL     1      -8.145   3.288  73.491  1.00  0.00    -0.074 A  
HETATM   20  C   UNL     1      -8.072   4.600  73.974  1.00  0.00    -0.101 A  
HETATM   21  C   UNL     1      -9.592   5.740  68.183  1.00  0.00    -0.132 A  
HETATM   22  C   UNL     1      -9.865   4.662  67.330  1.00  0.00    -0.218 A  
HETATM   23  C   UNL     1      -8.307   5.691  73.131  1.00  0.00    -0.118 A  
HETATM   24  C   UNL     1      -9.750   3.342  67.778  1.00  0.00    -0.048 A  
HETATM   25  C   UNL     1      -9.352   3.073  69.087  1.00  0.00    -0.220 A  
ENDBRANCH  10  13
ENDBRANCH   9  10
ENDBRANCH   8   9
ENDBRANCH   7   8
ENDBRANCH   6   7
ENDBRANCH   5   6
ENDBRANCH   4   5
ENDBRANCH   2   4
BRANCH   2  26
HETATM   26  C   UNL     1     -11.722  11.840  67.471  1.00  0.00    -0.240 C  
HETATM   27  C   UNL     1     -11.566  15.497  68.119  1.00  0.00    -0.313 A  
HETATM   28  C   UNL     1     -11.813  12.452  66.057  1.00  0.00    -0.459 A  
HETATM   29  C   UNL     1     -11.550  15.586  69.506  1.00  0.00    -0.361 A  
HETATM   30  C   UNL     1     -11.752  13.863  66.148  1.00  0.00    -0.393 A  
HETATM   31  C   UNL     1     -11.696  14.244  67.540  1.00  0.00    -0.415 A  
HETATM   32  C   UNL     1     -11.823  14.663  65.016  1.00  0.00    -0.377 A  
HETATM   33  C   UNL     1     -11.736  14.450  70.309  1.00  0.00    -0.355 A  
HETATM   34  C   UNL     1     -11.998  11.852  64.813  1.00  0.00    -0.222 A  
HETATM   35  C   UNL     1     -11.804  13.087  68.343  1.00  0.00    -0.370 A  
HETATM   36  C   UNL     1     -11.953  14.051  63.769  1.00  0.00    -0.230 A  
HETATM   37  C   UNL     1     -11.908  13.187  69.726  1.00  0.00    -0.386 A  
HETATM   38  C   UNL     1     -12.039  12.658  63.668  1.00  0.00    -0.632 A  
ENDBRANCH   2  26
TORSDOF 9
ENDMDL
MODEL      274
REMARK 921   NORMALIZED FREE ENERGY PREDICTED BY IDOCK:   -4.38 KCAL/MOL
REMARK 922        TOTAL FREE ENERGY PREDICTED BY IDOCK:   -8.45 KCAL/MOL
REMARK 923 INTER-LIGAND FREE ENERGY PREDICTED BY IDOCK:   -8.28 KCAL/MOL
REMARK 924 INTRA-LIGAND FREE ENERGY PREDICTED BY IDOCK:   -0.16 KCAL/MOL
REMARK 927      BINDING AFFINITY PREDICTED BY RF-SCORE:    0.00 PKD
ROOT
HETATM    1  C   UNL     1      -7.089  14.760  69.951  1.00  0.00    -0.086 C  
HETATM    2  N   UNL     1      -7.561  15.373  68.637  1.00  0.00    -0.122 N  
HETATM    3  C   UNL     1      -6.664  16.558  68.289  1.00  0.00    -0.137 C  
ENDROOT
BRANCH   2   4
HETATM    4  C   UNL     1      -7.526  14.313  67.556  1.00  0.00    -0.182 C  
BRANCH   4   5
HETATM    5  C   UNL     1      -6.861  12.988  67.926  1.00  0.00    -0.130 C  
BRANCH   5   6
HETATM    6  C   UNL     1      -7.478  11.862  67.085  1.00  0.00    -0.146 C  
BRANCH   6   7
HETATM    7  C   UNL     1      -8.419  10.932  67.872  1.00  0.00    -0.129 C  
BRANCH   7   8
HETATM    8  C   UNL     1      -8.915   9.719  67.070  1.00  0.00    -0.152 C  
BRANCH   8   9
HETATM    9  C   UNL     1      -7.975   8.543  67.336  1.00  0.00    -0.102 C  
BRANCH   9  10
HETATM   10  N   UNL     1      -8.654   7.201  67.563  1.00  0.00    -0.122 N  
HETATM   11  C   UNL     1     -10.147   7.279  67.260  1.00  0.00    -0.225 C  
HETATM   12  C   UNL     1      -8.085   6.115  66.663  1.00  0.00    -0.109 C  
BRANCH  10  13
HETATM   13  C   UNL     1      -8.420   6.815  69.104  1.00  0.00    -0.128 C  
HETATM   14  C   UNL     1      -8.502   5.303  69.393  1.00  0.00    -0.094 A  
HETATM   15  C   UNL     1      -9.552   5.038  70.300  1.00  0.00    -0.255 A  
HETATM   16  C   UNL     1     -10.139   6.285  70.730  1.00  0.00    -0.229 A  
HETATM   17  C   UNL     1      -9.871   3.742  70.679  1.00  0.00    -0.159 A  
HETATM   18  C   UNL     1      -9.493   7.359  70.076  1.00  0.00    -0.161 A  
HETATM   19  C   UNL     1      -9.124   2.691  70.149  1.00  0.00    -0.186 A  
HETATM   20  C   UNL     1      -8.057   2.947  69.278  1.00  0.00    -0.066 A  
HETATM   21  C   UNL     1      -9.842   8.666  70.398  1.00  0.00    -0.207 A  
HETATM   22  C   UNL     1     -10.866   8.886  71.329  1.00  0.00    -0.360 A  
HETATM   23  C   UNL     1      -7.725   4.255  68.913  1.00  0.00    -0.058 A  
HETATM   24  C   UNL     1     -11.504   7.815  71.962  1.00  0.00    -0.337 A  
HETATM   25  C   UNL     1     -11.137   6.501  71.672  1.00  0.00    -0.302 A  
ENDBRANCH  10  13
ENDBRANCH   9  10
ENDBRANCH   8   9
ENDBRANCH   7   8
ENDBRANCH   6   7
ENDBRANCH   5   6
ENDBRANCH   4   5
ENDBRANCH   2   4
BRANCH   2  26
HETATM   26  C   UNL     1      -9.088  15.875  68.767  1.00  0.00    -0.219 C  
HETATM   27  C   UNL     1     -10.373  18.164  66.135  1.00  0.00    -0.394 A  
HETATM   28  C   UNL     1     -10.116  15.004  68.013  1.00  0.00    -0.223 A  
HETATM   29  C   UNL     1      -9.742  19.372  66.411  1.00  0.00    -0.460 A  
HETATM   30  C   UNL     1     -10.687  15.753  66.957  1.00  0.00    -0.306 A  
HETATM   31  C   UNL     1     -10.160  17.098  66.995  1.00  0.00    -0.297 A  
HETATM   32  C   UNL     1     -11.653  15.206  66.124  1.00  0.00    -0.080 A  
HETATM   33  C   UNL     1      -8.967  19.538  67.569  1.00  0.00    -0.367 A  
HETATM   34  C   UNL     1     -10.565  13.708  68.257  1.00  0.00    -0.261 A  
HETATM   35  C   UNL     1      -9.317  17.235  68.119  1.00  0.00    -0.274 A  
HETATM   36  C   UNL     1     -12.058  13.889  66.342  1.00  0.00    -0.489 A  
HETATM   37  C   UNL     1      -8.782  18.473  68.461  1.00  0.00    -0.352 A  
HETATM   38  C   UNL     1     -11.519  13.145  67.398  1.00  0.00    -0.375 A  
ENDBRANCH   2  26
TORSDOF 9
ENDMDL
MODEL      275
REMARK 921   NORMALIZED FREE ENERGY PREDICTED BY IDOCK:   -4.37 KCAL/MOL
REMARK 922        TOTAL FREE ENERGY PREDICTED BY IDOCK:   -8.44 KCAL/MOL
REMARK 923 INTER-LIGAND FREE ENERGY PREDICTED BY IDOCK:   -7.71 KCAL/MOL
REMARK 924 INTRA-LIGAND FREE ENERGY PREDICTED BY IDOCK:   -0.72 KCAL/MOL
REMARK 927      BINDING AFFINITY PREDICTED BY RF-SCORE:    0.00 PKD
ROOT
HETATM    1  C   UNL     1      -8.465  17.554  68.581  1.00  0.00    -0.258 C  
HETATM    2  N   UNL     1      -8.790  16.246  67.868  1.00  0.00    -0.182 N  
HETATM    3  C   UNL     1      -8.223  16.295  66.452  1.00  0.00    -0.319 C  
ENDROOT
BRANCH   2   4
HETATM    4  C   UNL     1      -8.208  15.093  68.660  1.00  0.00    -0.154 C  
BRANCH   4   5
HETATM    5  C   UNL     1      -6.809  14.629  68.253  1.00  0.00    -0.116 C  
BRANCH   5   6
HETATM    6  C   UNL     1      -6.792  13.097  68.165  1.00  0.00    -0.111 C  
BRANCH   6   7
HETATM    7  C   UNL     1      -5.695  12.430  69.015  1.00  0.00    -0.067 C  
BRANCH   7   8
HETATM    8  C   UNL     1      -5.748  10.895  69.013  1.00  0.00    -0.040 C  
BRANCH   8   9
HETATM    9  C   UNL     1      -6.311  10.426  70.355  1.00  0.00    -0.127 C  
BRANCH   9  10
HETATM   10  N   UNL     1      -6.742   8.969  70.410  1.00  0.00    -0.046 N  
HETATM   11  C   UNL     1      -5.717   8.117  71.152  1.00  0.00    -0.033 C  
HETATM   12  C   UNL     1      -8.063   8.792  71.143  1.00  0.00    -0.157 C  
BRANCH  10  13
HETATM   13  C   UNL     1      -6.885   8.466  68.892  1.00  0.00    -0.061 C  
HETATM   14  C   UNL     1      -8.317   8.562  68.330  1.00  0.00    -0.124 A  
HETATM   15  C   UNL     1      -8.785   7.277  67.973  1.00  0.00    -0.127 A  
HETATM   16  C   UNL     1      -7.729   6.313  68.164  1.00  0.00    -0.104 A  
HETATM   17  C   UNL     1     -10.073   7.085  67.492  1.00  0.00    -0.236 A  
HETATM   18  C   UNL     1      -6.585   6.965  68.678  1.00  0.00    -0.054 A  
HETATM   19  C   UNL     1     -10.907   8.194  67.359  1.00  0.00    -0.125 A  
HETATM   20  C   UNL     1     -10.438   9.476  67.676  1.00  0.00    -0.321 A  
HETATM   21  C   UNL     1      -5.411   6.242  68.866  1.00  0.00    -0.011 A  
HETATM   22  C   UNL     1      -5.409   4.868  68.589  1.00  0.00    -0.007 A  
HETATM   23  C   UNL     1      -9.134   9.670  68.141  1.00  0.00    -0.123 A  
HETATM   24  C   UNL     1      -6.550   4.232  68.090  1.00  0.00    -0.042 A  
HETATM   25  C   UNL     1      -7.721   4.956  67.864  1.00  0.00    -0.083 A  
ENDBRANCH  10  13
ENDBRANCH   9  10
ENDBRANCH   8   9
ENDBRANCH   7   8
ENDBRANCH   6   7
ENDBRANCH   5   6
ENDBRANCH   4   5
ENDBRANCH   2   4
BRANCH   2  26
HETATM   26  C   UNL     1     -10.385  16.023  67.800  1.00  0.00    -0.279 C  
HETATM   27  C   UNL     1     -11.610  12.732  66.583  1.00  0.00    -0.430 A  
HETATM   28  C   UNL     1     -10.999  15.386  69.065  1.00  0.00    -0.252 A  
HETATM   29  C   UNL     1     -11.356  12.770  65.216  1.00  0.00    -0.338 A  
HETATM   30  C   UNL     1     -11.502  14.101  68.751  1.00  0.00    -0.333 A  
HETATM   31  C   UNL     1     -11.330  13.860  67.337  1.00  0.00    -0.349 A  
HETATM   32  C   UNL     1     -12.117  13.312  69.712  1.00  0.00    -0.355 A  
HETATM   33  C   UNL     1     -10.897  13.942  64.596  1.00  0.00    -0.420 A  
HETATM   34  C   UNL     1     -11.166  15.892  70.352  1.00  0.00    -0.392 A  
HETATM   35  C   UNL     1     -10.794  15.017  66.731  1.00  0.00    -0.318 A  
HETATM   36  C   UNL     1     -12.232  13.805  71.012  1.00  0.00    -0.401 A  
HETATM   37  C   UNL     1     -10.651  15.097  65.349  1.00  0.00    -0.410 A  
HETATM   38  C   UNL     1     -11.760  15.084  71.330  1.00  0.00    -0.409 A  
ENDBRANCH   2  26
TORSDOF 9
ENDMDL
MODEL      276
REMARK 921   NORMALIZED FREE ENERGY PREDICTED BY IDOCK:   -4.36 KCAL/MOL
REMARK 922        TOTAL FREE ENERGY PREDICTED BY IDOCK:   -8.42 KCAL/MOL
REMARK 923 INTER-LIGAND FREE ENERGY PREDICTED BY IDOCK:   -8.66 KCAL/MOL
REMARK 924 INTRA-LIGAND FREE ENERGY PREDICTED BY IDOCK:    0.24 KCAL/MOL
REMARK 927      BINDING AFFINITY PREDICTED BY RF-SCORE:    0.00 PKD
ROOT
HETATM    1  C   UNL     1     -10.135   8.454  68.284  1.00  0.00    -0.199 C  
HETATM    2  N   UNL     1     -10.261   7.916  69.706  1.00  0.00    -0.207 N  
HETATM    3  C   UNL     1      -8.870   7.815  70.326  1.00  0.00    -0.144 C  
ENDROOT
BRANCH   2   4
HETATM    4  C   UNL     1     -11.160   8.837  70.505  1.00  0.00    -0.246 C  
BRANCH   4   5
HETATM    5  C   UNL     1     -11.330  10.256  69.964  1.00  0.00    -0.370 C  
BRANCH   5   6
HETATM    6  C   UNL     1     -12.422  10.975  70.768  1.00  0.00    -0.491 C  
BRANCH   6   7
HETATM    7  C   UNL     1     -12.591  12.463  70.409  1.00  0.00    -0.101 C  
BRANCH   7   8
HETATM    8  C   UNL     1     -11.335  13.106  69.800  1.00  0.00    -0.120 C  
BRANCH   8   9
HETATM    9  C   UNL     1     -11.642  13.501  68.356  1.00  0.00    -0.343 C  
BRANCH   9  10
HETATM   10  N   UNL     1     -10.462  14.032  67.558  1.00  0.00    -0.251 N  
HETATM   11  C   UNL     1      -9.944  12.987  66.576  1.00  0.00    -0.262 C  
HETATM   12  C   UNL     1     -10.836  15.254  66.732  1.00  0.00    -0.312 C  
BRANCH  10  13
HETATM   13  C   UNL     1      -9.318  14.416  68.616  1.00  0.00    -0.188 C  
HETATM   14  C   UNL     1      -8.870  15.889  68.555  1.00  0.00    -0.195 A  
HETATM   15  C   UNL     1      -7.498  15.967  68.227  1.00  0.00    -0.128 A  
HETATM   16  C   UNL     1      -6.947  14.635  68.155  1.00  0.00    -0.124 A  
HETATM   17  C   UNL     1      -6.864  17.189  68.054  1.00  0.00    -0.174 A  
HETATM   18  C   UNL     1      -7.969  13.689  68.400  1.00  0.00    -0.147 A  
HETATM   19  C   UNL     1      -7.610  18.355  68.217  1.00  0.00    -0.301 A  
HETATM   20  C   UNL     1      -8.962  18.288  68.577  1.00  0.00    -0.329 A  
HETATM   21  C   UNL     1      -7.652  12.337  68.461  1.00  0.00    -0.118 A  
HETATM   22  C   UNL     1      -6.329  11.939  68.223  1.00  0.00    -0.051 A  
HETATM   23  C   UNL     1      -9.594  17.056  68.770  1.00  0.00    -0.269 A  
HETATM   24  C   UNL     1      -5.328  12.883  67.971  1.00  0.00    -0.099 A  
HETATM   25  C   UNL     1      -5.631  14.244  67.944  1.00  0.00    -0.101 A  
ENDBRANCH  10  13
ENDBRANCH   9  10
ENDBRANCH   8   9
ENDBRANCH   7   8
ENDBRANCH   6   7
ENDBRANCH   5   6
ENDBRANCH   4   5
ENDBRANCH   2   4
BRANCH   2  26
HETATM   26  C   UNL     1     -10.953   6.460  69.697  1.00  0.00    -0.358 C  
HETATM   27  C   UNL     1      -8.921   3.601  68.465  1.00  0.00    -0.178 A  
HETATM   28  C   UNL     1     -10.708   5.626  70.973  1.00  0.00    -0.304 A  
HETATM   29  C   UNL     1      -8.865   3.804  67.091  1.00  0.00    -0.135 A  
HETATM   30  C   UNL     1      -9.923   4.492  70.654  1.00  0.00    -0.273 A  
HETATM   31  C   UNL     1      -9.682   4.472  69.229  1.00  0.00    -0.260 A  
HETATM   32  C   UNL     1      -9.565   3.566  71.623  1.00  0.00    -0.228 A  
HETATM   33  C   UNL     1      -9.616   4.817  66.475  1.00  0.00    -0.181 A  
HETATM   34  C   UNL     1     -11.175   5.793  72.275  1.00  0.00    -0.333 A  
HETATM   35  C   UNL     1     -10.377   5.542  68.625  1.00  0.00    -0.255 A  
HETATM   36  C   UNL     1      -9.992   3.770  72.935  1.00  0.00    -0.207 A  
HETATM   37  C   UNL     1     -10.417   5.674  67.241  1.00  0.00    -0.322 A  
HETATM   38  C   UNL     1     -10.788   4.874  73.260  1.00  0.00    -0.355 A  
ENDBRANCH   2  26
TORSDOF 9
ENDMDL
MODEL      277
REMARK 921   NORMALIZED FREE ENERGY PREDICTED BY IDOCK:   -4.36 KCAL/MOL
REMARK 922        TOTAL FREE ENERGY PREDICTED BY IDOCK:   -8.42 KCAL/MOL
REMARK 923 INTER-LIGAND FREE ENERGY PREDICTED BY IDOCK:   -7.34 KCAL/MOL
REMARK 924 INTRA-LIGAND FREE ENERGY PREDICTED BY IDOCK:   -1.08 KCAL/MOL
REMARK 927      BINDING AFFINITY PREDICTED BY RF-SCORE:    0.00 PKD
ROOT
HETATM    1  C   UNL     1      -9.078  10.780  69.176  1.00  0.00    -0.095 C  
HETATM    2  N   UNL     1     -10.170   9.955  68.505  1.00  0.00    -0.170 N  
HETATM    3  C   UNL     1      -9.712   9.568  67.101  1.00  0.00    -0.171 C  
ENDROOT
BRANCH   2   4
HETATM    4  C   UNL     1     -10.458   8.733  69.352  1.00  0.00    -0.222 C  
BRANCH   4   5
HETATM    5  C   UNL     1      -9.879   7.409  68.853  1.00  0.00    -0.157 C  
BRANCH   5   6
HETATM    6  C   UNL     1     -10.900   6.289  69.094  1.00  0.00    -0.403 C  
BRANCH   6   7
HETATM    7  C   UNL     1     -10.316   5.045  69.789  1.00  0.00    -0.286 C  
BRANCH   7   8
HETATM    8  C   UNL     1      -9.231   4.325  68.974  1.00  0.00    -0.207 C  
BRANCH   8   9
HETATM    9  C   UNL     1      -7.864   4.694  69.551  1.00  0.00    -0.062 C  
BRANCH   9  10
HETATM   10  N   UNL     1      -7.313   3.733  70.593  1.00  0.00    -0.040 N  
HETATM   11  C   UNL     1      -8.144   2.455  70.661  1.00  0.00    -0.045 C  
HETATM   12  C   UNL     1      -5.887   3.306  70.278  1.00  0.00    -0.018 C  
BRANCH  10  13
HETATM   13  C   UNL     1      -7.357   4.499  72.003  1.00  0.00    -0.067 C  
HETATM   14  C   UNL     1      -8.666   4.295  72.791  1.00  0.00    -0.108 A  
HETATM   15  C   UNL     1      -9.313   5.535  72.986  1.00  0.00    -0.140 A  
HETATM   16  C   UNL     1      -8.483   6.595  72.467  1.00  0.00    -0.123 A  
HETATM   17  C   UNL     1     -10.544   5.616  73.621  1.00  0.00    -0.310 A  
HETATM   18  C   UNL     1      -7.312   6.041  71.902  1.00  0.00    -0.094 A  
HETATM   19  C   UNL     1     -11.138   4.439  74.075  1.00  0.00    -0.173 A  
HETATM   20  C   UNL     1     -10.486   3.210  73.918  1.00  0.00    -0.247 A  
HETATM   21  C   UNL     1      -6.322   6.886  71.409  1.00  0.00    -0.041 A  
HETATM   22  C   UNL     1      -6.537   8.271  71.438  1.00  0.00    -0.051 A  
HETATM   23  C   UNL     1      -9.237   3.132  73.296  1.00  0.00    -0.103 A  
HETATM   24  C   UNL     1      -7.705   8.807  71.990  1.00  0.00    -0.025 A  
HETATM   25  C   UNL     1      -8.686   7.969  72.519  1.00  0.00    -0.232 A  
ENDBRANCH  10  13
ENDBRANCH   9  10
ENDBRANCH   8   9
ENDBRANCH   7   8
ENDBRANCH   6   7
ENDBRANCH   5   6
ENDBRANCH   4   5
ENDBRANCH   2   4
BRANCH   2  26
HETATM   26  C   UNL     1     -11.538  10.804  68.408  1.00  0.00    -0.239 C  
HETATM   27  C   UNL     1     -12.758  12.452  71.509  1.00  0.00    -0.333 A  
HETATM   28  C   UNL     1     -11.341  12.306  68.110  1.00  0.00    -0.349 A  
HETATM   29  C   UNL     1     -13.233  11.396  72.279  1.00  0.00    -0.082 A  
HETATM   30  C   UNL     1     -11.758  13.068  69.227  1.00  0.00    -0.375 A  
HETATM   31  C   UNL     1     -12.290  12.179  70.233  1.00  0.00    -0.269 A  
HETATM   32  C   UNL     1     -11.695  14.454  69.219  1.00  0.00    -0.358 A  
HETATM   33  C   UNL     1     -13.309  10.095  71.759  1.00  0.00    -0.485 A  
HETATM   34  C   UNL     1     -10.904  12.957  66.959  1.00  0.00    -0.282 A  
HETATM   35  C   UNL     1     -12.291  10.859  69.733  1.00  0.00    -0.326 A  
HETATM   36  C   UNL     1     -11.206  15.097  68.081  1.00  0.00    -0.326 A  
HETATM   37  C   UNL     1     -12.874   9.823  70.455  1.00  0.00    -0.026 A  
HETATM   38  C   UNL     1     -10.812  14.355  66.961  1.00  0.00    -0.297 A  
ENDBRANCH   2  26
TORSDOF 9
ENDMDL
MODEL      278
REMARK 921   NORMALIZED FREE ENERGY PREDICTED BY IDOCK:   -4.35 KCAL/MOL
REMARK 922        TOTAL FREE ENERGY PREDICTED BY IDOCK:   -8.41 KCAL/MOL
REMARK 923 INTER-LIGAND FREE ENERGY PREDICTED BY IDOCK:   -7.58 KCAL/MOL
REMARK 924 INTRA-LIGAND FREE ENERGY PREDICTED BY IDOCK:   -0.82 KCAL/MOL
REMARK 927      BINDING AFFINITY PREDICTED BY RF-SCORE:    0.00 PKD
ROOT
HETATM    1  C   UNL     1      -8.360   7.636  69.886  1.00  0.00    -0.132 C  
HETATM    2  N   UNL     1      -9.825   7.993  69.662  1.00  0.00    -0.181 N  
HETATM    3  C   UNL     1     -10.312   8.854  70.825  1.00  0.00    -0.226 C  
ENDROOT
BRANCH   2   4
HETATM    4  C   UNL     1      -9.962   8.717  68.339  1.00  0.00    -0.179 C  
BRANCH   4   5
HETATM    5  C   UNL     1      -8.737   9.496  67.862  1.00  0.00    -0.119 C  
BRANCH   5   6
HETATM    6  C   UNL     1      -8.651   9.413  66.332  1.00  0.00    -0.144 C  
BRANCH   6   7
HETATM    7  C   UNL     1      -9.996   9.628  65.614  1.00  0.00    -0.321 C  
BRANCH   7   8
HETATM    8  C   UNL     1      -9.928  10.618  64.441  1.00  0.00    -0.415 C  
BRANCH   8   9
HETATM    9  C   UNL     1     -10.226  12.021  64.972  1.00  0.00    -0.276 C  
BRANCH   9  10
HETATM   10  N   UNL     1     -11.504  12.660  64.450  1.00  0.00    -0.328 N  
HETATM   11  C   UNL     1     -11.234  13.500  63.206  1.00  0.00     0.793 C  
HETATM   12  C   UNL     1     -12.540  11.619  64.054  1.00  0.00    -0.022 C  
BRANCH  10  13
HETATM   13  C   UNL     1     -12.078  13.584  65.630  1.00  0.00    -0.430 C  
HETATM   14  C   UNL     1     -11.478  15.003  65.668  1.00  0.00    -0.248 A  
HETATM   15  C   UNL     1     -10.806  15.214  66.893  1.00  0.00    -0.317 A  
HETATM   16  C   UNL     1     -10.988  14.062  67.743  1.00  0.00    -0.271 A  
HETATM   17  C   UNL     1     -10.129  16.398  67.152  1.00  0.00    -0.271 A  
HETATM   18  C   UNL     1     -11.749  13.088  67.058  1.00  0.00    -0.441 A  
HETATM   19  C   UNL     1     -10.128  17.391  66.174  1.00  0.00    -0.309 A  
HETATM   20  C   UNL     1     -10.822  17.205  64.972  1.00  0.00     0.063 A  
HETATM   21  C   UNL     1     -12.119  11.920  67.716  1.00  0.00     0.054 A  
HETATM   22  C   UNL     1     -11.681  11.714  69.031  1.00  0.00    -0.388 A  
HETATM   23  C   UNL     1     -11.520  16.020  64.721  1.00  0.00    -0.201 A  
HETATM   24  C   UNL     1     -10.920  12.682  69.696  1.00  0.00     0.147 A  
HETATM   25  C   UNL     1     -10.574  13.872  69.056  1.00  0.00    -0.187 A  
ENDBRANCH  10  13
ENDBRANCH   9  10
ENDBRANCH   8   9
ENDBRANCH   7   8
ENDBRANCH   6   7
ENDBRANCH   5   6
ENDBRANCH   4   5
ENDBRANCH   2   4
BRANCH   2  26
HETATM   26  C   UNL     1     -10.722   6.656  69.572  1.00  0.00    -0.260 C  
HETATM   27  C   UNL     1      -9.402   3.837  67.539  1.00  0.00    -0.238 A  
HETATM   28  C   UNL     1     -10.386   5.585  70.631  1.00  0.00    -0.332 A  
HETATM   29  C   UNL     1      -9.561   4.273  66.228  1.00  0.00    -0.204 A  
HETATM   30  C   UNL     1      -9.852   4.440  69.993  1.00  0.00    -0.294 A  
HETATM   31  C   UNL     1      -9.873   4.644  68.563  1.00  0.00    -0.181 A  
HETATM   32  C   UNL     1      -9.473   3.320  70.719  1.00  0.00    -0.237 A  
HETATM   33  C   UNL     1     -10.246   5.462  65.937  1.00  0.00    -0.037 A  
HETATM   34  C   UNL     1     -10.582   5.573  72.010  1.00  0.00    -0.284 A  
HETATM   35  C   UNL     1     -10.493   5.880  68.280  1.00  0.00    -0.293 A  
HETATM   36  C   UNL     1      -9.623   3.337  72.106  1.00  0.00    -0.208 A  
HETATM   37  C   UNL     1     -10.758   6.261  66.968  1.00  0.00    -0.435 A  
HETATM   38  C   UNL     1     -10.172   4.454  72.747  1.00  0.00    -0.233 A  
ENDBRANCH   2  26
TORSDOF 9
ENDMDL
MODEL      279
REMARK 921   NORMALIZED FREE ENERGY PREDICTED BY IDOCK:   -4.34 KCAL/MOL
REMARK 922        TOTAL FREE ENERGY PREDICTED BY IDOCK:   -8.40 KCAL/MOL
REMARK 923 INTER-LIGAND FREE ENERGY PREDICTED BY IDOCK:   -7.62 KCAL/MOL
REMARK 924 INTRA-LIGAND FREE ENERGY PREDICTED BY IDOCK:   -0.78 KCAL/MOL
REMARK 927      BINDING AFFINITY PREDICTED BY RF-SCORE:    0.00 PKD
ROOT
HETATM    1  C   UNL     1     -10.193   6.140  69.395  1.00  0.00    -0.197 C  
HETATM    2  N   UNL     1     -10.150   6.820  68.031  1.00  0.00    -0.151 N  
HETATM    3  C   UNL     1     -11.133   6.124  67.094  1.00  0.00    -0.242 C  
ENDROOT
BRANCH   2   4
HETATM    4  C   UNL     1     -10.487   8.287  68.199  1.00  0.00    -0.171 C  
BRANCH   4   5
HETATM    5  C   UNL     1     -10.244   8.885  69.585  1.00  0.00    -0.209 C  
BRANCH   5   6
HETATM    6  C   UNL     1     -10.005  10.394  69.449  1.00  0.00    -0.240 C  
BRANCH   6   7
HETATM    7  C   UNL     1     -11.243  11.188  68.993  1.00  0.00    -0.318 C  
BRANCH   7   8
HETATM    8  C   UNL     1     -11.321  11.408  67.474  1.00  0.00    -0.362 C  
BRANCH   8   9
HETATM    9  C   UNL     1     -11.827  12.827  67.213  1.00  0.00    -0.350 C  
BRANCH   9  10
HETATM   10  N   UNL     1     -10.794  13.799  66.665  1.00  0.00    -0.287 N  
HETATM   11  C   UNL     1      -9.394  13.461  67.168  1.00  0.00    -0.240 C  
HETATM   12  C   UNL     1     -10.728  13.764  65.146  1.00  0.00    -0.358 C  
BRANCH  10  13
HETATM   13  C   UNL     1     -11.223  15.265  67.162  1.00  0.00    -0.291 C  
HETATM   14  C   UNL     1     -10.091  16.309  67.095  1.00  0.00    -0.268 A  
HETATM   15  C   UNL     1      -9.814  16.808  68.387  1.00  0.00    -0.253 A  
HETATM   16  C   UNL     1     -10.750  16.244  69.329  1.00  0.00    -0.307 A  
HETATM   17  C   UNL     1      -8.793  17.723  68.605  1.00  0.00    -0.263 A  
HETATM   18  C   UNL     1     -11.615  15.351  68.655  1.00  0.00    -0.373 A  
HETATM   19  C   UNL     1      -8.040  18.152  67.514  1.00  0.00    -0.238 A  
HETATM   20  C   UNL     1      -8.332  17.691  66.224  1.00  0.00    -0.251 A  
HETATM   21  C   UNL     1     -12.656  14.748  69.353  1.00  0.00     0.027 A  
HETATM   22  C   UNL     1     -12.790  15.002  70.725  1.00  0.00    -0.447 A  
HETATM   23  C   UNL     1      -9.374  16.784  66.003  1.00  0.00    -0.245 A  
HETATM   24  C   UNL     1     -11.922  15.880  71.383  1.00  0.00    -0.515 A  
HETATM   25  C   UNL     1     -10.897  16.516  70.684  1.00  0.00     0.115 A  
ENDBRANCH  10  13
ENDBRANCH   9  10
ENDBRANCH   8   9
ENDBRANCH   7   8
ENDBRANCH   6   7
ENDBRANCH   5   6
ENDBRANCH   4   5
ENDBRANCH   2   4
BRANCH   2  26
HETATM   26  C   UNL     1      -8.665   6.738  67.409  1.00  0.00    -0.119 C  
HETATM   27  C   UNL     1      -6.750   9.910  67.111  1.00  0.00    -0.074 A  
HETATM   28  C   UNL     1      -7.540   6.570  68.453  1.00  0.00    -0.104 A  
HETATM   29  C   UNL     1      -7.370  10.573  66.058  1.00  0.00    -0.137 A  
HETATM   30  C   UNL     1      -6.725   7.728  68.460  1.00  0.00    -0.058 A  
HETATM   31  C   UNL     1      -7.187   8.636  67.437  1.00  0.00    -0.080 A  
HETATM   32  C   UNL     1      -5.630   7.833  69.305  1.00  0.00    -0.026 A  
HETATM   33  C   UNL     1      -8.366   9.947  65.292  1.00  0.00    -0.153 A  
HETATM   34  C   UNL     1      -7.210   5.493  69.273  1.00  0.00    -0.065 A  
HETATM   35  C   UNL     1      -8.243   8.032  66.721  1.00  0.00    -0.111 A  
HETATM   36  C   UNL     1      -5.339   6.771  70.163  1.00  0.00    -0.018 A  
HETATM   37  C   UNL     1      -8.783   8.644  65.595  1.00  0.00    -0.214 A  
HETATM   38  C   UNL     1      -6.122   5.612  70.148  1.00  0.00    -0.026 A  
ENDBRANCH   2  26
TORSDOF 9
ENDMDL
MODEL      280
REMARK 921   NORMALIZED FREE ENERGY PREDICTED BY IDOCK:   -4.34 KCAL/MOL
REMARK 922        TOTAL FREE ENERGY PREDICTED BY IDOCK:   -8.39 KCAL/MOL
REMARK 923 INTER-LIGAND FREE ENERGY PREDICTED BY IDOCK:   -8.89 KCAL/MOL
REMARK 924 INTRA-LIGAND FREE ENERGY PREDICTED BY IDOCK:    0.50 KCAL/MOL
REMARK 927      BINDING AFFINITY PREDICTED BY RF-SCORE:    0.00 PKD
ROOT
HETATM    1  C   UNL     1      -6.992  17.379  68.349  1.00  0.00    -0.201 C  
HETATM    2  N   UNL     1      -7.621  15.990  68.371  1.00  0.00    -0.140 N  
HETATM    3  C   UNL     1      -7.165  15.216  67.138  1.00  0.00    -0.063 C  
ENDROOT
BRANCH   2   4
HETATM    4  C   UNL     1      -7.219  15.285  69.650  1.00  0.00    -0.187 C  
BRANCH   4   5
HETATM    5  C   UNL     1      -5.819  14.672  69.675  1.00  0.00    -0.104 C  
BRANCH   5   6
HETATM    6  C   UNL     1      -5.908  13.195  69.266  1.00  0.00    -0.089 C  
BRANCH   6   7
HETATM    7  C   UNL     1      -5.665  12.207  70.421  1.00  0.00    -0.169 C  
BRANCH   7   8
HETATM    8  C   UNL     1      -5.561  10.740  69.978  1.00  0.00    -0.064 C  
BRANCH   8   9
HETATM    9  C   UNL     1      -6.822  10.004  70.432  1.00  0.00    -0.136 C  
BRANCH   9  10
HETATM   10  N   UNL     1      -7.729   9.510  69.316  1.00  0.00    -0.081 N  
HETATM   11  C   UNL     1      -8.965  10.392  69.178  1.00  0.00    -0.179 C  
HETATM   12  C   UNL     1      -7.031   9.527  67.965  1.00  0.00    -0.079 C  
BRANCH  10  13
HETATM   13  C   UNL     1      -8.157   8.009  69.693  1.00  0.00    -0.119 C  
HETATM   14  C   UNL     1      -8.869   7.253  68.554  1.00  0.00    -0.129 A  
HETATM   15  C   UNL     1     -10.174   6.890  68.954  1.00  0.00    -0.184 A  
HETATM   16  C   UNL     1     -10.374   7.264  70.334  1.00  0.00    -0.217 A  
HETATM   17  C   UNL     1     -11.044   6.246  68.085  1.00  0.00    -0.364 A  
HETATM   18  C   UNL     1      -9.210   7.902  70.821  1.00  0.00    -0.159 A  
HETATM   19  C   UNL     1     -10.601   5.953  66.796  1.00  0.00    -0.368 A  
HETATM   20  C   UNL     1      -9.296   6.276  66.404  1.00  0.00    -0.176 A  
HETATM   21  C   UNL     1      -9.144   8.280  72.158  1.00  0.00    -0.279 A  
HETATM   22  C   UNL     1     -10.259   8.064  72.979  1.00  0.00    -0.357 A  
HETATM   23  C   UNL     1      -8.415   6.907  67.287  1.00  0.00    -0.121 A  
HETATM   24  C   UNL     1     -11.409   7.441  72.483  1.00  0.00    -0.358 A  
HETATM   25  C   UNL     1     -11.471   7.027  71.153  1.00  0.00    -0.333 A  
ENDBRANCH  10  13
ENDBRANCH   9  10
ENDBRANCH   8   9
ENDBRANCH   7   8
ENDBRANCH   6   7
ENDBRANCH   5   6
ENDBRANCH   4   5
ENDBRANCH   2   4
BRANCH   2  26
HETATM   26  C   UNL     1      -9.230  16.101  68.371  1.00  0.00    -0.203 C  
HETATM   27  C   UNL     1     -10.782  18.566  66.062  1.00  0.00    -0.252 A  
HETATM   28  C   UNL     1      -9.935  15.210  67.326  1.00  0.00    -0.230 A  
HETATM   29  C   UNL     1     -10.497  19.794  66.650  1.00  0.00    -0.615 A  
HETATM   30  C   UNL     1     -10.569  16.026  66.359  1.00  0.00    -0.284 A  
HETATM   31  C   UNL     1     -10.395  17.412  66.726  1.00  0.00    -0.305 A  
HETATM   32  C   UNL     1     -11.286  15.474  65.307  1.00  0.00    -0.278 A  
HETATM   33  C   UNL     1      -9.901  19.871  67.918  1.00  0.00    -0.529 A  
HETATM   34  C   UNL     1     -10.072  13.825  67.252  1.00  0.00    -0.239 A  
HETATM   35  C   UNL     1      -9.724  17.485  67.966  1.00  0.00    -0.287 A  
HETATM   36  C   UNL     1     -11.373  14.085  65.211  1.00  0.00    -0.321 A  
HETATM   37  C   UNL     1      -9.545  18.705  68.610  1.00  0.00    -0.407 A  
HETATM   38  C   UNL     1     -10.770  13.267  66.173  1.00  0.00    -0.287 A  
ENDBRANCH   2  26
TORSDOF 9
ENDMDL
MODEL      281
REMARK 921   NORMALIZED FREE ENERGY PREDICTED BY IDOCK:   -4.34 KCAL/MOL
REMARK 922        TOTAL FREE ENERGY PREDICTED BY IDOCK:   -8.38 KCAL/MOL
REMARK 923 INTER-LIGAND FREE ENERGY PREDICTED BY IDOCK:   -7.10 KCAL/MOL
REMARK 924 INTRA-LIGAND FREE ENERGY PREDICTED BY IDOCK:   -1.28 KCAL/MOL
REMARK 927      BINDING AFFINITY PREDICTED BY RF-SCORE:    0.00 PKD
ROOT
HETATM    1  C   UNL     1     -12.157   7.564  70.886  1.00  0.00    -0.226 C  
HETATM    2  N   UNL     1     -10.995   7.247  69.950  1.00  0.00    -0.257 N  
HETATM    3  C   UNL     1     -11.315   5.975  69.170  1.00  0.00    -0.126 C  
ENDROOT
BRANCH   2   4
HETATM    4  C   UNL     1     -10.770   8.425  69.025  1.00  0.00    -0.080 C  
BRANCH   4   5
HETATM    5  C   UNL     1     -10.639   8.102  67.536  1.00  0.00    -0.291 C  
BRANCH   5   6
HETATM    6  C   UNL     1      -9.365   8.759  66.988  1.00  0.00    -0.200 C  
BRANCH   6   7
HETATM    7  C   UNL     1      -9.510   9.313  65.558  1.00  0.00    -0.309 C  
BRANCH   7   8
HETATM    8  C   UNL     1     -10.587  10.399  65.414  1.00  0.00    -0.080 C  
BRANCH   8   9
HETATM    9  C   UNL     1      -9.897  11.734  65.127  1.00  0.00    -0.235 C  
BRANCH   9  10
HETATM   10  N   UNL     1     -10.544  12.954  65.762  1.00  0.00    -0.271 N  
HETATM   11  C   UNL     1     -10.277  14.212  64.941  1.00  0.00    -0.341 C  
HETATM   12  C   UNL     1     -12.055  12.813  65.859  1.00  0.00    -0.426 C  
BRANCH  10  13
HETATM   13  C   UNL     1      -9.912  13.106  67.230  1.00  0.00    -0.230 C  
HETATM   14  C   UNL     1     -10.081  14.508  67.847  1.00  0.00    -0.227 A  
HETATM   15  C   UNL     1      -8.815  15.084  68.097  1.00  0.00    -0.167 A  
HETATM   16  C   UNL     1      -7.783  14.126  67.781  1.00  0.00    -0.175 A  
HETATM   17  C   UNL     1      -8.693  16.371  68.600  1.00  0.00    -0.234 A  
HETATM   18  C   UNL     1      -8.376  12.940  67.292  1.00  0.00    -0.185 A  
HETATM   19  C   UNL     1      -9.854  17.096  68.865  1.00  0.00    -0.273 A  
HETATM   20  C   UNL     1     -11.113  16.519  68.654  1.00  0.00    -0.329 A  
HETATM   21  C   UNL     1      -7.573  11.843  66.998  1.00  0.00    -0.134 A  
HETATM   22  C   UNL     1      -6.184  11.960  67.145  1.00  0.00    -0.154 A  
HETATM   23  C   UNL     1     -11.234  15.215  68.166  1.00  0.00    -0.326 A  
HETATM   24  C   UNL     1      -5.608  13.142  67.620  1.00  0.00    -0.088 A  
HETATM   25  C   UNL     1      -6.408  14.235  67.951  1.00  0.00    -0.173 A  
ENDBRANCH  10  13
ENDBRANCH   9  10
ENDBRANCH   8   9
ENDBRANCH   7   8
ENDBRANCH   6   7
ENDBRANCH   5   6
ENDBRANCH   4   5
ENDBRANCH   2   4
BRANCH   2  26
HETATM   26  C   UNL     1      -9.637   7.033  70.793  1.00  0.00    -0.164 C  
HETATM   27  C   UNL     1      -7.066   4.764  69.358  1.00  0.00    -0.051 A  
HETATM   28  C   UNL     1      -8.489   7.994  70.415  1.00  0.00    -0.130 A  
HETATM   29  C   UNL     1      -7.610   3.496  69.532  1.00  0.00    -0.051 A  
HETATM   30  C   UNL     1      -7.428   7.260  69.835  1.00  0.00    -0.086 A  
HETATM   31  C   UNL     1      -7.758   5.854  69.862  1.00  0.00    -0.088 A  
HETATM   32  C   UNL     1      -6.263   7.885  69.413  1.00  0.00    -0.034 A  
HETATM   33  C   UNL     1      -8.793   3.308  70.263  1.00  0.00    -0.145 A  
HETATM   34  C   UNL     1      -8.347   9.366  70.613  1.00  0.00    -0.217 A  
HETATM   35  C   UNL     1      -8.989   5.678  70.531  1.00  0.00    -0.150 A  
HETATM   36  C   UNL     1      -6.151   9.267  69.566  1.00  0.00    -0.040 A  
HETATM   37  C   UNL     1      -9.475   4.404  70.809  1.00  0.00    -0.243 A  
HETATM   38  C   UNL     1      -7.183  10.002  70.159  1.00  0.00    -0.167 A  
ENDBRANCH   2  26
TORSDOF 9
ENDMDL
MODEL      282
REMARK 921   NORMALIZED FREE ENERGY PREDICTED BY IDOCK:   -4.33 KCAL/MOL
REMARK 922        TOTAL FREE ENERGY PREDICTED BY IDOCK:   -8.38 KCAL/MOL
REMARK 923 INTER-LIGAND FREE ENERGY PREDICTED BY IDOCK:   -7.32 KCAL/MOL
REMARK 924 INTRA-LIGAND FREE ENERGY PREDICTED BY IDOCK:   -1.05 KCAL/MOL
REMARK 927      BINDING AFFINITY PREDICTED BY RF-SCORE:    0.00 PKD
ROOT
HETATM    1  C   UNL     1     -10.084  14.501  65.095  1.00  0.00    -0.327 C  
HETATM    2  N   UNL     1     -10.948  14.067  66.274  1.00  0.00    -0.298 N  
HETATM    3  C   UNL     1     -12.104  15.050  66.434  1.00  0.00     0.155 C  
ENDROOT
BRANCH   2   4
HETATM    4  C   UNL     1     -11.446  12.658  66.031  1.00  0.00    -0.368 C  
BRANCH   4   5
HETATM    5  C   UNL     1     -10.379  11.567  65.943  1.00  0.00    -0.293 C  
BRANCH   5   6
HETATM    6  C   UNL     1     -10.619  10.727  64.681  1.00  0.00    -0.269 C  
BRANCH   6   7
HETATM    7  C   UNL     1      -9.330  10.217  64.010  1.00  0.00    -0.337 C  
BRANCH   7   8
HETATM    8  C   UNL     1      -8.061  10.435  64.848  1.00  0.00    -0.130 C  
BRANCH   8   9
HETATM    9  C   UNL     1      -7.692   9.115  65.524  1.00  0.00    -0.094 C  
BRANCH   9  10
HETATM   10  N   UNL     1      -6.373   9.114  66.281  1.00  0.00    -0.064 N  
HETATM   11  C   UNL     1      -5.370   8.157  65.644  1.00  0.00    -0.028 C  
HETATM   12  C   UNL     1      -5.718  10.487  66.287  1.00  0.00    -0.085 C  
BRANCH  10  13
HETATM   13  C   UNL     1      -6.699   8.655  67.785  1.00  0.00    -0.066 C  
HETATM   14  C   UNL     1      -6.945   7.142  67.943  1.00  0.00    -0.080 A  
HETATM   15  C   UNL     1      -8.254   6.911  68.423  1.00  0.00    -0.120 A  
HETATM   16  C   UNL     1      -8.893   8.175  68.699  1.00  0.00    -0.134 A  
HETATM   17  C   UNL     1      -8.743   5.624  68.597  1.00  0.00    -0.106 A  
HETATM   18  C   UNL     1      -8.012   9.229  68.365  1.00  0.00    -0.102 A  
HETATM   19  C   UNL     1      -7.911   4.548  68.293  1.00  0.00    -0.080 A  
HETATM   20  C   UNL     1      -6.600   4.768  67.851  1.00  0.00    -0.046 A  
HETATM   21  C   UNL     1      -8.388  10.544  68.624  1.00  0.00    -0.132 A  
HETATM   22  C   UNL     1      -9.657  10.793  69.163  1.00  0.00    -0.169 A  
HETATM   23  C   UNL     1      -6.102   6.065  67.696  1.00  0.00    -0.018 A  
HETATM   24  C   UNL     1     -10.524   9.742  69.480  1.00  0.00    -0.250 A  
HETATM   25  C   UNL     1     -10.142   8.419  69.257  1.00  0.00    -0.202 A  
ENDBRANCH  10  13
ENDBRANCH   9  10
ENDBRANCH   8   9
ENDBRANCH   7   8
ENDBRANCH   6   7
ENDBRANCH   5   6
ENDBRANCH   4   5
ENDBRANCH   2   4
BRANCH   2  26
HETATM   26  C   UNL     1     -10.076  14.039  67.630  1.00  0.00    -0.241 C  
HETATM   27  C   UNL     1      -8.807  17.285  68.924  1.00  0.00    -0.173 A  
HETATM   28  C   UNL     1     -10.893  14.247  68.923  1.00  0.00    -0.272 A  
HETATM   29  C   UNL     1      -7.788  17.618  68.038  1.00  0.00    -0.235 A  
HETATM   30  C   UNL     1     -10.520  15.472  69.527  1.00  0.00    -0.263 A  
HETATM   31  C   UNL     1      -9.451  16.069  68.760  1.00  0.00    -0.227 A  
HETATM   32  C   UNL     1     -11.099  15.897  70.714  1.00  0.00    -0.352 A  
HETATM   33  C   UNL     1      -7.365  16.719  67.047  1.00  0.00    -0.238 A  
HETATM   34  C   UNL     1     -11.825  13.426  69.555  1.00  0.00    -0.391 A  
HETATM   35  C   UNL     1      -9.084  15.193  67.716  1.00  0.00    -0.179 A  
HETATM   36  C   UNL     1     -12.071  15.094  71.312  1.00  0.00    -0.399 A  
HETATM   37  C   UNL     1      -7.988  15.472  66.905  1.00  0.00    -0.264 A  
HETATM   38  C   UNL     1     -12.432  13.870  70.738  1.00  0.00    -0.445 A  
ENDBRANCH   2  26
TORSDOF 9
ENDMDL
MODEL      283
REMARK 921   NORMALIZED FREE ENERGY PREDICTED BY IDOCK:   -4.33 KCAL/MOL
REMARK 922        TOTAL FREE ENERGY PREDICTED BY IDOCK:   -8.37 KCAL/MOL
REMARK 923 INTER-LIGAND FREE ENERGY PREDICTED BY IDOCK:   -9.20 KCAL/MOL
REMARK 924 INTRA-LIGAND FREE ENERGY PREDICTED BY IDOCK:    0.83 KCAL/MOL
REMARK 927      BINDING AFFINITY PREDICTED BY RF-SCORE:    0.00 PKD
ROOT
HETATM    1  C   UNL     1     -11.882   6.520  71.195  1.00  0.00    -0.325 C  
HETATM    2  N   UNL     1     -10.750   7.358  71.779  1.00  0.00    -0.213 N  
HETATM    3  C   UNL     1      -9.515   7.214  70.894  1.00  0.00    -0.160 C  
ENDROOT
BRANCH   2   4
HETATM    4  C   UNL     1     -11.201   8.801  71.872  1.00  0.00    -0.368 C  
BRANCH   4   5
HETATM    5  C   UNL     1     -12.431   9.183  71.049  1.00  0.00    -0.238 C  
BRANCH   5   6
HETATM    6  C   UNL     1     -12.593  10.709  71.062  1.00  0.00    -0.516 C  
BRANCH   6   7
HETATM    7  C   UNL     1     -11.650  11.450  70.097  1.00  0.00    -0.368 C  
BRANCH   7   8
HETATM    8  C   UNL     1     -11.980  11.236  68.612  1.00  0.00    -0.314 C  
BRANCH   8   9
HETATM    9  C   UNL     1     -10.702  10.817  67.885  1.00  0.00    -0.239 C  
BRANCH   9  10
HETATM   10  N   UNL     1      -9.544  11.797  67.979  1.00  0.00    -0.181 N  
HETATM   11  C   UNL     1      -9.976  13.101  68.640  1.00  0.00    -0.111 C  
HETATM   12  C   UNL     1      -8.398  11.246  68.815  1.00  0.00    -0.120 C  
BRANCH  10  13
HETATM   13  C   UNL     1      -9.044  12.074  66.479  1.00  0.00    -0.202 C  
HETATM   14  C   UNL     1     -10.156  12.542  65.520  1.00  0.00    -0.282 A  
HETATM   15  C   UNL     1     -10.307  11.616  64.463  1.00  0.00    -0.349 A  
HETATM   16  C   UNL     1      -9.301  10.588  64.580  1.00  0.00    -0.299 A  
HETATM   17  C   UNL     1     -11.286  11.780  63.493  1.00  0.00    -0.494 A  
HETATM   18  C   UNL     1      -8.518  10.826  65.733  1.00  0.00    -0.174 A  
HETATM   19  C   UNL     1     -12.126  12.890  63.575  1.00  0.00    -0.633 A  
HETATM   20  C   UNL     1     -11.959  13.831  64.599  1.00  0.00    -0.445 A  
HETATM   21  C   UNL     1      -7.430  10.002  66.004  1.00  0.00    -0.112 A  
HETATM   22  C   UNL     1      -7.169   8.921  65.151  1.00  0.00    -0.087 A  
HETATM   23  C   UNL     1     -10.960  13.675  65.564  1.00  0.00    -0.297 A  
HETATM   24  C   UNL     1      -7.957   8.690  64.018  1.00  0.00    -0.158 A  
HETATM   25  C   UNL     1      -9.028   9.532  63.719  1.00  0.00    -0.211 A  
ENDBRANCH  10  13
ENDBRANCH   9  10
ENDBRANCH   8   9
ENDBRANCH   7   8
ENDBRANCH   6   7
ENDBRANCH   5   6
ENDBRANCH   4   5
ENDBRANCH   2   4
BRANCH   2  26
HETATM   26  C   UNL     1     -10.400   6.868  73.274  1.00  0.00    -0.287 C  
HETATM   27  C   UNL     1      -8.985   3.454  73.676  1.00  0.00    -0.090 A  
HETATM   28  C   UNL     1      -8.946   7.139  73.715  1.00  0.00    -0.227 A  
HETATM   29  C   UNL     1     -10.070   2.617  73.440  1.00  0.00    -0.187 A  
HETATM   30  C   UNL     1      -8.269   5.909  73.896  1.00  0.00    -0.108 A  
HETATM   31  C   UNL     1      -9.197   4.824  73.674  1.00  0.00    -0.121 A  
HETATM   32  C   UNL     1      -6.944   5.867  74.303  1.00  0.00    -0.081 A  
HETATM   33  C   UNL     1     -11.364   3.134  73.277  1.00  0.00    -0.140 A  
HETATM   34  C   UNL     1      -8.286   8.333  73.998  1.00  0.00    -0.259 A  
HETATM   35  C   UNL     1     -10.483   5.354  73.431  1.00  0.00    -0.269 A  
HETATM   36  C   UNL     1      -6.274   7.070  74.532  1.00  0.00    -0.083 A  
HETATM   37  C   UNL     1     -11.588   4.517  73.313  1.00  0.00    -0.254 A  
HETATM   38  C   UNL     1      -6.939   8.293  74.379  1.00  0.00    -0.203 A  
ENDBRANCH   2  26
TORSDOF 9
ENDMDL
MODEL      284
REMARK 921   NORMALIZED FREE ENERGY PREDICTED BY IDOCK:   -4.32 KCAL/MOL
REMARK 922        TOTAL FREE ENERGY PREDICTED BY IDOCK:   -8.36 KCAL/MOL
REMARK 923 INTER-LIGAND FREE ENERGY PREDICTED BY IDOCK:   -8.87 KCAL/MOL
REMARK 924 INTRA-LIGAND FREE ENERGY PREDICTED BY IDOCK:    0.51 KCAL/MOL
REMARK 927      BINDING AFFINITY PREDICTED BY RF-SCORE:    0.00 PKD
ROOT
HETATM    1  C   UNL     1     -11.061  15.777  67.713  1.00  0.00    -0.313 C  
HETATM    2  N   UNL     1     -10.037  15.231  66.723  1.00  0.00    -0.252 N  
HETATM    3  C   UNL     1      -9.411  13.964  67.301  1.00  0.00    -0.231 C  
ENDROOT
BRANCH   2   4
HETATM    4  C   UNL     1     -10.724  14.958  65.401  1.00  0.00    -0.377 C  
BRANCH   4   5
HETATM    5  C   UNL     1     -11.324  13.563  65.224  1.00  0.00    -0.304 C  
BRANCH   5   6
HETATM    6  C   UNL     1     -10.430  12.746  64.281  1.00  0.00    -0.423 C  
BRANCH   6   7
HETATM    7  C   UNL     1     -10.779  11.247  64.226  1.00  0.00    -0.416 C  
BRANCH   7   8
HETATM    8  C   UNL     1      -9.718  10.334  64.858  1.00  0.00    -0.385 C  
BRANCH   8   9
HETATM    9  C   UNL     1      -9.488  10.781  66.302  1.00  0.00    -0.181 C  
BRANCH   9  10
HETATM   10  N   UNL     1      -9.722   9.717  67.362  1.00  0.00    -0.151 N  
HETATM   11  C   UNL     1     -10.538  10.267  68.527  1.00  0.00    -0.213 C  
HETATM   12  C   UNL     1     -10.497   8.528  66.814  1.00  0.00    -0.238 C  
BRANCH  10  13
HETATM   13  C   UNL     1      -8.276   9.241  67.872  1.00  0.00    -0.115 C  
HETATM   14  C   UNL     1      -7.685   8.060  67.078  1.00  0.00    -0.100 A  
HETATM   15  C   UNL     1      -7.484   6.952  67.931  1.00  0.00    -0.099 A  
HETATM   16  C   UNL     1      -7.809   7.327  69.287  1.00  0.00    -0.116 A  
HETATM   17  C   UNL     1      -7.011   5.742  67.445  1.00  0.00    -0.065 A  
HETATM   18  C   UNL     1      -8.255   8.669  69.309  1.00  0.00    -0.113 A  
HETATM   19  C   UNL     1      -6.729   5.635  66.085  1.00  0.00    -0.057 A  
HETATM   20  C   UNL     1      -6.890   6.739  65.238  1.00  0.00    -0.051 A  
HETATM   21  C   UNL     1      -8.549   9.273  70.527  1.00  0.00    -0.271 A  
HETATM   22  C   UNL     1      -8.445   8.516  71.702  1.00  0.00    -0.235 A  
HETATM   23  C   UNL     1      -7.347   7.964  65.733  1.00  0.00    -0.076 A  
HETATM   24  C   UNL     1      -8.012   7.187  71.666  1.00  0.00    -0.097 A  
HETATM   25  C   UNL     1      -7.681   6.584  70.453  1.00  0.00    -0.098 A  
ENDBRANCH  10  13
ENDBRANCH   9  10
ENDBRANCH   8   9
ENDBRANCH   7   8
ENDBRANCH   6   7
ENDBRANCH   5   6
ENDBRANCH   4   5
ENDBRANCH   2   4
BRANCH   2  26
HETATM   26  C   UNL     1      -8.884  16.323  66.447  1.00  0.00    -0.311 C  
HETATM   27  C   UNL     1      -9.051  19.515  68.344  1.00  0.00    -0.410 A  
HETATM   28  C   UNL     1      -7.672  16.231  67.399  1.00  0.00    -0.187 A  
HETATM   29  C   UNL     1     -10.113  20.194  67.756  1.00  0.00    -0.540 A  
HETATM   30  C   UNL     1      -7.615  17.392  68.207  1.00  0.00    -0.234 A  
HETATM   31  C   UNL     1      -8.672  18.294  67.810  1.00  0.00    -0.263 A  
HETATM   32  C   UNL     1      -6.611  17.569  69.147  1.00  0.00    -0.246 A  
HETATM   33  C   UNL     1     -10.742  19.697  66.604  1.00  0.00    -0.552 A  
HETATM   34  C   UNL     1      -6.673  15.266  67.513  1.00  0.00    -0.197 A  
HETATM   35  C   UNL     1      -9.353  17.751  66.699  1.00  0.00    -0.296 A  
HETATM   36  C   UNL     1      -5.645  16.572  69.293  1.00  0.00    -0.138 A  
HETATM   37  C   UNL     1     -10.335  18.482  66.038  1.00  0.00    -0.423 A  
HETATM   38  C   UNL     1      -5.676  15.431  68.484  1.00  0.00    -0.097 A  
ENDBRANCH   2  26
TORSDOF 9
ENDMDL
MODEL      285
REMARK 921   NORMALIZED FREE ENERGY PREDICTED BY IDOCK:   -4.32 KCAL/MOL
REMARK 922        TOTAL FREE ENERGY PREDICTED BY IDOCK:   -8.36 KCAL/MOL
REMARK 923 INTER-LIGAND FREE ENERGY PREDICTED BY IDOCK:   -7.43 KCAL/MOL
REMARK 924 INTRA-LIGAND FREE ENERGY PREDICTED BY IDOCK:   -0.93 KCAL/MOL
REMARK 927      BINDING AFFINITY PREDICTED BY RF-SCORE:    0.00 PKD
ROOT
HETATM    1  C   UNL     1     -10.603  10.274  70.067  1.00  0.00    -0.269 C  
HETATM    2  N   UNL     1      -9.727   9.808  68.910  1.00  0.00    -0.165 N  
HETATM    3  C   UNL     1      -8.586  10.802  68.715  1.00  0.00    -0.156 C  
ENDROOT
BRANCH   2   4
HETATM    4  C   UNL     1      -9.207   8.417  69.212  1.00  0.00    -0.154 C  
BRANCH   4   5
HETATM    5  C   UNL     1      -7.701   8.291  69.439  1.00  0.00    -0.102 C  
BRANCH   5   6
HETATM    6  C   UNL     1      -7.385   6.883  69.961  1.00  0.00    -0.082 C  
BRANCH   6   7
HETATM    7  C   UNL     1      -6.088   6.794  70.786  1.00  0.00    -0.028 C  
BRANCH   7   8
HETATM    8  C   UNL     1      -6.310   6.825  72.306  1.00  0.00    -0.049 C  
BRANCH   8   9
HETATM    9  C   UNL     1      -7.711   6.291  72.604  1.00  0.00    -0.101 C  
BRANCH   9  10
HETATM   10  N   UNL     1      -7.781   4.828  73.012  1.00  0.00    -0.091 N  
HETATM   11  C   UNL     1      -6.552   4.061  72.534  1.00  0.00    -0.029 C  
HETATM   12  C   UNL     1      -7.837   4.659  74.522  1.00  0.00    -0.095 C  
BRANCH  10  13
HETATM   13  C   UNL     1      -9.108   4.220  72.343  1.00  0.00    -0.116 C  
HETATM   14  C   UNL     1      -8.885   3.601  70.949  1.00  0.00    -0.138 A  
HETATM   15  C   UNL     1      -9.657   4.286  69.984  1.00  0.00    -0.274 A  
HETATM   16  C   UNL     1     -10.474   5.277  70.641  1.00  0.00    -0.306 A  
HETATM   17  C   UNL     1      -9.589   3.956  68.638  1.00  0.00    -0.181 A  
HETATM   18  C   UNL     1     -10.208   5.262  72.029  1.00  0.00    -0.259 A  
HETATM   19  C   UNL     1      -8.741   2.921  68.248  1.00  0.00    -0.139 A  
HETATM   20  C   UNL     1      -8.001   2.212  69.203  1.00  0.00    -0.056 A  
HETATM   21  C   UNL     1     -10.943   6.084  72.877  1.00  0.00    -0.303 A  
HETATM   22  C   UNL     1     -11.897   6.949  72.324  1.00  0.00    -0.274 A  
HETATM   23  C   UNL     1      -8.085   2.533  70.561  1.00  0.00    -0.055 A  
HETATM   24  C   UNL     1     -12.145   6.963  70.948  1.00  0.00    -0.424 A  
HETATM   25  C   UNL     1     -11.438   6.116  70.094  1.00  0.00    -0.365 A  
ENDBRANCH  10  13
ENDBRANCH   9  10
ENDBRANCH   8   9
ENDBRANCH   7   8
ENDBRANCH   6   7
ENDBRANCH   5   6
ENDBRANCH   4   5
ENDBRANCH   2   4
BRANCH   2  26
HETATM   26  C   UNL     1     -10.592   9.711  67.552  1.00  0.00    -0.277 C  
HETATM   27  C   UNL     1     -10.402  12.572  65.187  1.00  0.00    -0.312 A  
HETATM   28  C   UNL     1      -9.831   9.121  66.346  1.00  0.00    -0.350 A  
HETATM   29  C   UNL     1     -11.134  13.572  65.819  1.00  0.00    -0.295 A  
HETATM   30  C   UNL     1      -9.670  10.118  65.355  1.00  0.00    -0.355 A  
HETATM   31  C   UNL     1     -10.338  11.324  65.786  1.00  0.00    -0.310 A  
HETATM   32  C   UNL     1      -9.024   9.847  64.157  1.00  0.00    -0.274 A  
HETATM   33  C   UNL     1     -11.852  13.312  66.996  1.00  0.00    -0.442 A  
HETATM   34  C   UNL     1      -9.376   7.827  66.099  1.00  0.00    -0.162 A  
HETATM   35  C   UNL     1     -10.994  11.079  67.012  1.00  0.00    -0.333 A  
HETATM   36  C   UNL     1      -8.524   8.563  63.940  1.00  0.00    -0.036 A  
HETATM   37  C   UNL     1     -11.821  12.041  67.583  1.00  0.00    -0.294 A  
HETATM   38  C   UNL     1      -8.697   7.562  64.902  1.00  0.00     0.223 A  
ENDBRANCH   2  26
TORSDOF 9
ENDMDL
MODEL      286
REMARK 921   NORMALIZED FREE ENERGY PREDICTED BY IDOCK:   -4.30 KCAL/MOL
REMARK 922        TOTAL FREE ENERGY PREDICTED BY IDOCK:   -8.34 KCAL/MOL
REMARK 923 INTER-LIGAND FREE ENERGY PREDICTED BY IDOCK:   -6.94 KCAL/MOL
REMARK 924 INTRA-LIGAND FREE ENERGY PREDICTED BY IDOCK:   -1.39 KCAL/MOL
REMARK 927      BINDING AFFINITY PREDICTED BY RF-SCORE:    0.00 PKD
ROOT
HETATM    1  C   UNL     1      -6.276   5.903  70.043  1.00  0.00    -0.027 C  
HETATM    2  N   UNL     1      -7.269   6.331  71.119  1.00  0.00    -0.077 N  
HETATM    3  C   UNL     1      -6.702   5.977  72.491  1.00  0.00    -0.069 C  
ENDROOT
BRANCH   2   4
HETATM    4  C   UNL     1      -7.528   7.817  70.990  1.00  0.00    -0.074 C  
BRANCH   4   5
HETATM    5  C   UNL     1      -7.258   8.437  69.620  1.00  0.00    -0.057 C  
BRANCH   5   6
HETATM    6  C   UNL     1      -6.108   9.447  69.740  1.00  0.00    -0.039 C  
BRANCH   6   7
HETATM    7  C   UNL     1      -6.528  10.811  70.317  1.00  0.00    -0.128 C  
BRANCH   7   8
HETATM    8  C   UNL     1      -5.880  12.013  69.613  1.00  0.00    -0.106 C  
BRANCH   8   9
HETATM    9  C   UNL     1      -6.681  12.328  68.349  1.00  0.00    -0.064 C  
BRANCH   9  10
HETATM   10  N   UNL     1      -7.234  13.741  68.260  1.00  0.00    -0.101 N  
HETATM   11  C   UNL     1      -7.346  14.380  69.640  1.00  0.00     0.046 C  
HETATM   12  C   UNL     1      -6.340  14.652  67.432  1.00  0.00     0.133 C  
BRANCH  10  13
HETATM   13  C   UNL     1      -8.684  13.632  67.580  1.00  0.00    -0.198 C  
HETATM   14  C   UNL     1      -9.569  14.878  67.779  1.00  0.00    -0.208 A  
HETATM   15  C   UNL     1     -10.741  14.533  68.489  1.00  0.00    -0.253 A  
HETATM   16  C   UNL     1     -10.766  13.107  68.708  1.00  0.00    -0.253 A  
HETATM   17  C   UNL     1     -11.677  15.492  68.847  1.00  0.00    -0.385 A  
HETATM   18  C   UNL     1      -9.593  12.529  68.170  1.00  0.00    -0.215 A  
HETATM   19  C   UNL     1     -11.445  16.818  68.485  1.00  0.00     0.065 A  
HETATM   20  C   UNL     1     -10.304  17.163  67.748  1.00  0.00    -0.347 A  
HETATM   21  C   UNL     1      -9.438  11.147  68.194  1.00  0.00    -0.180 A  
HETATM   22  C   UNL     1     -10.429  10.363  68.801  1.00  0.00    -0.219 A  
HETATM   23  C   UNL     1      -9.371  16.192  67.372  1.00  0.00    -0.220 A  
HETATM   24  C   UNL     1     -11.580  10.948  69.338  1.00  0.00    -0.387 A  
HETATM   25  C   UNL     1     -11.761  12.330  69.287  1.00  0.00    -0.388 A  
ENDBRANCH  10  13
ENDBRANCH   9  10
ENDBRANCH   8   9
ENDBRANCH   7   8
ENDBRANCH   6   7
ENDBRANCH   5   6
ENDBRANCH   4   5
ENDBRANCH   2   4
BRANCH   2  26
HETATM   26  C   UNL     1      -8.681   5.579  70.912  1.00  0.00    -0.135 C  
HETATM   27  C   UNL     1     -11.756   7.668  70.914  1.00  0.00    -0.291 A  
HETATM   28  C   UNL     1      -9.159   5.504  69.446  1.00  0.00    -0.134 A  
HETATM   29  C   UNL     1     -11.913   8.023  72.249  1.00  0.00    -0.412 A  
HETATM   30  C   UNL     1     -10.335   6.277  69.291  1.00  0.00    -0.266 A  
HETATM   31  C   UNL     1     -10.719   6.811  70.577  1.00  0.00    -0.277 A  
HETATM   32  C   UNL     1     -10.980   6.373  68.067  1.00  0.00    -0.400 A  
HETATM   33  C   UNL     1     -11.094   7.474  73.247  1.00  0.00    -0.294 A  
HETATM   34  C   UNL     1      -8.664   4.784  68.361  1.00  0.00    -0.112 A  
HETATM   35  C   UNL     1      -9.842   6.318  71.567  1.00  0.00    -0.193 A  
HETATM   36  C   UNL     1     -10.446   5.691  66.972  1.00  0.00    -0.344 A  
HETATM   37  C   UNL     1     -10.070   6.576  72.915  1.00  0.00    -0.197 A  
HETATM   38  C   UNL     1      -9.298   4.905  67.117  1.00  0.00    -0.139 A  
ENDBRANCH   2  26
TORSDOF 9
ENDMDL
MODEL      287
REMARK 921   NORMALIZED FREE ENERGY PREDICTED BY IDOCK:   -4.30 KCAL/MOL
REMARK 922        TOTAL FREE ENERGY PREDICTED BY IDOCK:   -8.33 KCAL/MOL
REMARK 923 INTER-LIGAND FREE ENERGY PREDICTED BY IDOCK:   -8.15 KCAL/MOL
REMARK 924 INTRA-LIGAND FREE ENERGY PREDICTED BY IDOCK:   -0.18 KCAL/MOL
REMARK 927      BINDING AFFINITY PREDICTED BY RF-SCORE:    0.00 PKD
ROOT
HETATM    1  C   UNL     1     -11.265  15.637  68.085  1.00  0.00    -0.345 C  
HETATM    2  N   UNL     1     -10.324  14.760  67.265  1.00  0.00    -0.246 N  
HETATM    3  C   UNL     1      -9.760  13.659  68.160  1.00  0.00    -0.229 C  
ENDROOT
BRANCH   2   4
HETATM    4  C   UNL     1     -11.085  14.185  66.088  1.00  0.00    -0.312 C  
BRANCH   4   5
HETATM    5  C   UNL     1     -11.135  12.660  65.993  1.00  0.00    -0.321 C  
BRANCH   5   6
HETATM    6  C   UNL     1     -10.059  12.180  65.010  1.00  0.00    -0.289 C  
BRANCH   6   7
HETATM    7  C   UNL     1     -10.021  10.653  64.816  1.00  0.00    -0.391 C  
BRANCH   7   8
HETATM    8  C   UNL     1      -8.825   9.966  65.493  1.00  0.00    -0.186 C  
BRANCH   8   9
HETATM    9  C   UNL     1      -8.936  10.172  67.004  1.00  0.00    -0.135 C  
BRANCH   9  10
HETATM   10  N   UNL     1      -9.319   8.939  67.807  1.00  0.00    -0.140 N  
HETATM   11  C   UNL     1     -10.701   8.429  67.411  1.00  0.00    -0.155 C  
HETATM   12  C   UNL     1      -8.351   7.788  67.579  1.00  0.00    -0.120 C  
BRANCH  10  13
HETATM   13  C   UNL     1      -9.307   9.367  69.354  1.00  0.00    -0.169 C  
HETATM   14  C   UNL     1      -7.927   9.817  69.872  1.00  0.00    -0.184 A  
HETATM   15  C   UNL     1      -7.499   8.966  70.915  1.00  0.00    -0.110 A  
HETATM   16  C   UNL     1      -8.541   8.014  71.214  1.00  0.00    -0.145 A  
HETATM   17  C   UNL     1      -6.258   9.125  71.515  1.00  0.00    -0.069 A  
HETATM   18  C   UNL     1      -9.634   8.224  70.342  1.00  0.00    -0.174 A  
HETATM   19  C   UNL     1      -5.431  10.156  71.071  1.00  0.00    -0.083 A  
HETATM   20  C   UNL     1      -5.864  11.028  70.063  1.00  0.00    -0.102 A  
HETATM   21  C   UNL     1     -10.792   7.469  70.501  1.00  0.00    -0.252 A  
HETATM   22  C   UNL     1     -10.826   6.479  71.493  1.00  0.00    -0.288 A  
HETATM   23  C   UNL     1      -7.122  10.878  69.474  1.00  0.00    -0.123 A  
HETATM   24  C   UNL     1      -9.735   6.274  72.343  1.00  0.00    -0.162 A  
HETATM   25  C   UNL     1      -8.583   7.050  72.214  1.00  0.00    -0.129 A  
ENDBRANCH  10  13
ENDBRANCH   9  10
ENDBRANCH   8   9
ENDBRANCH   7   8
ENDBRANCH   6   7
ENDBRANCH   5   6
ENDBRANCH   4   5
ENDBRANCH   2   4
BRANCH   2  26
HETATM   26  C   UNL     1      -9.113  15.641  66.668  1.00  0.00    -0.282 C  
HETATM   27  C   UNL     1      -8.906  19.204  67.705  1.00  0.00    -0.339 A  
HETATM   28  C   UNL     1      -7.849  15.677  67.554  1.00  0.00    -0.184 A  
HETATM   29  C   UNL     1      -9.951  19.810  67.016  1.00  0.00    -0.532 A  
HETATM   30  C   UNL     1      -7.649  16.992  68.039  1.00  0.00    -0.183 A  
HETATM   31  C   UNL     1      -8.659  17.859  67.478  1.00  0.00    -0.239 A  
HETATM   32  C   UNL     1      -6.572  17.304  68.856  1.00  0.00    -0.212 A  
HETATM   33  C   UNL     1     -10.694  19.104  66.058  1.00  0.00    -0.451 A  
HETATM   34  C   UNL     1      -6.921  14.684  67.860  1.00  0.00    -0.172 A  
HETATM   35  C   UNL     1      -9.454  17.123  66.573  1.00  0.00    -0.290 A  
HETATM   36  C   UNL     1      -5.677  16.291  69.202  1.00  0.00    -0.122 A  
HETATM   37  C   UNL     1     -10.421  17.754  65.797  1.00  0.00    -0.199 A  
HETATM   38  C   UNL     1      -5.850  14.992  68.710  1.00  0.00    -0.085 A  
ENDBRANCH   2  26
TORSDOF 9
ENDMDL
MODEL      288
REMARK 921   NORMALIZED FREE ENERGY PREDICTED BY IDOCK:   -4.30 KCAL/MOL
REMARK 922        TOTAL FREE ENERGY PREDICTED BY IDOCK:   -8.32 KCAL/MOL
REMARK 923 INTER-LIGAND FREE ENERGY PREDICTED BY IDOCK:   -7.25 KCAL/MOL
REMARK 924 INTRA-LIGAND FREE ENERGY PREDICTED BY IDOCK:   -1.08 KCAL/MOL
REMARK 927      BINDING AFFINITY PREDICTED BY RF-SCORE:    0.00 PKD
ROOT
HETATM    1  C   UNL     1      -8.156   7.347  68.538  1.00  0.00    -0.125 C  
HETATM    2  N   UNL     1      -7.361   8.315  69.407  1.00  0.00    -0.072 N  
HETATM    3  C   UNL     1      -5.876   8.171  69.086  1.00  0.00    -0.034 C  
ENDROOT
BRANCH   2   4
HETATM    4  C   UNL     1      -7.850   9.726  69.152  1.00  0.00    -0.095 C  
BRANCH   4   5
HETATM    5  C   UNL     1      -6.773  10.800  69.000  1.00  0.00    -0.070 C  
BRANCH   5   6
HETATM    6  C   UNL     1      -6.800  11.341  67.564  1.00  0.00    -0.086 C  
BRANCH   6   7
HETATM    7  C   UNL     1      -6.487  12.845  67.453  1.00  0.00    -0.126 C  
BRANCH   7   8
HETATM    8  C   UNL     1      -7.637  13.758  67.906  1.00  0.00    -0.157 C  
BRANCH   8   9
HETATM    9  C   UNL     1      -8.332  14.318  66.665  1.00  0.00     0.206 C  
BRANCH   9  10
HETATM   10  N   UNL     1      -9.590  15.130  66.929  1.00  0.00    -0.231 N  
HETATM   11  C   UNL     1      -9.506  15.860  68.266  1.00  0.00    -0.201 C  
HETATM   12  C   UNL     1      -9.815  16.195  65.867  1.00  0.00    -0.353 C  
BRANCH  10  13
HETATM   13  C   UNL     1     -10.818  14.096  66.937  1.00  0.00    -0.296 C  
HETATM   14  C   UNL     1     -11.371  13.786  68.342  1.00  0.00    -0.326 A  
HETATM   15  C   UNL     1     -11.232  12.409  68.626  1.00  0.00    -0.314 A  
HETATM   16  C   UNL     1     -10.705  11.732  67.465  1.00  0.00    -0.262 A  
HETATM   17  C   UNL     1     -11.604  11.883  69.855  1.00  0.00    -0.333 A  
HETATM   18  C   UNL     1     -10.469  12.674  66.439  1.00  0.00    -0.267 A  
HETATM   19  C   UNL     1     -12.131  12.744  70.816  1.00  0.00    -0.246 A  
HETATM   20  C   UNL     1     -12.307  14.104  70.530  1.00  0.00    -0.434 A  
HETATM   21  C   UNL     1     -10.034  12.235  65.192  1.00  0.00    -0.236 A  
HETATM   22  C   UNL     1      -9.788  10.869  65.002  1.00  0.00    -0.336 A  
HETATM   23  C   UNL     1     -11.950  14.629  69.284  1.00  0.00    -0.337 A  
HETATM   24  C   UNL     1     -10.016   9.947  66.029  1.00  0.00    -0.338 A  
HETATM   25  C   UNL     1     -10.487  10.374  67.271  1.00  0.00    -0.304 A  
ENDBRANCH  10  13
ENDBRANCH   9  10
ENDBRANCH   8   9
ENDBRANCH   7   8
ENDBRANCH   6   7
ENDBRANCH   5   6
ENDBRANCH   4   5
ENDBRANCH   2   4
BRANCH   2  26
HETATM   26  C   UNL     1      -7.606   7.999  70.969  1.00  0.00    -0.083 C  
HETATM   27  C   UNL     1     -10.451   5.773  71.846  1.00  0.00    -0.272 A  
HETATM   28  C   UNL     1      -6.908   6.721  71.482  1.00  0.00    -0.066 A  
HETATM   29  C   UNL     1     -11.571   6.567  71.625  1.00  0.00    -0.357 A  
HETATM   30  C   UNL     1      -7.885   5.762  71.846  1.00  0.00    -0.106 A  
HETATM   31  C   UNL     1      -9.198   6.341  71.677  1.00  0.00    -0.147 A  
HETATM   32  C   UNL     1      -7.525   4.521  72.350  1.00  0.00    -0.082 A  
HETATM   33  C   UNL     1     -11.445   7.929  71.313  1.00  0.00    -0.293 A  
HETATM   34  C   UNL     1      -5.559   6.434  71.678  1.00  0.00    -0.028 A  
HETATM   35  C   UNL     1      -9.065   7.690  71.286  1.00  0.00    -0.146 A  
HETATM   36  C   UNL     1      -6.169   4.222  72.493  1.00  0.00    -0.017 A  
HETATM   37  C   UNL     1     -10.180   8.515  71.181  1.00  0.00    -0.272 A  
HETATM   38  C   UNL     1      -5.194   5.169  72.159  1.00  0.00    -0.005 A  
ENDBRANCH   2  26
TORSDOF 9
ENDMDL
MODEL      289
REMARK 921   NORMALIZED FREE ENERGY PREDICTED BY IDOCK:   -4.29 KCAL/MOL
REMARK 922        TOTAL FREE ENERGY PREDICTED BY IDOCK:   -8.32 KCAL/MOL
REMARK 923 INTER-LIGAND FREE ENERGY PREDICTED BY IDOCK:   -6.17 KCAL/MOL
REMARK 924 INTRA-LIGAND FREE ENERGY PREDICTED BY IDOCK:   -2.15 KCAL/MOL
REMARK 927      BINDING AFFINITY PREDICTED BY RF-SCORE:    0.00 PKD
ROOT
HETATM    1  C   UNL     1      -5.927   6.074  69.755  1.00  0.00    -0.025 C  
HETATM    2  N   UNL     1      -7.108   5.983  70.716  1.00  0.00    -0.066 N  
HETATM    3  C   UNL     1      -6.675   5.228  71.969  1.00  0.00    -0.060 C  
ENDROOT
BRANCH   2   4
HETATM    4  C   UNL     1      -7.586   7.382  71.047  1.00  0.00    -0.086 C  
BRANCH   4   5
HETATM    5  C   UNL     1      -6.926   8.524  70.275  1.00  0.00    -0.040 C  
BRANCH   5   6
HETATM    6  C   UNL     1      -8.014   9.396  69.636  1.00  0.00    -0.109 C  
BRANCH   6   7
HETATM    7  C   UNL     1      -9.250   9.614  70.528  1.00  0.00    -0.212 C  
BRANCH   7   8
HETATM    8  C   UNL     1     -10.543   9.895  69.748  1.00  0.00    -0.296 C  
BRANCH   8   9
HETATM    9  C   UNL     1     -10.173  10.486  68.388  1.00  0.00    -0.172 C  
BRANCH   9  10
HETATM   10  N   UNL     1     -10.828  11.816  68.051  1.00  0.00    -0.203 N  
HETATM   11  C   UNL     1     -12.277  11.625  67.615  1.00  0.00     0.537 C  
HETATM   12  C   UNL     1     -10.856  12.756  69.247  1.00  0.00     0.009 C  
BRANCH  10  13
HETATM   13  C   UNL     1      -9.972  12.470  66.861  1.00  0.00    -0.224 C  
HETATM   14  C   UNL     1     -10.713  13.576  66.086  1.00  0.00    -0.289 A  
HETATM   15  C   UNL     1     -10.854  13.208  64.729  1.00  0.00    -0.368 A  
HETATM   16  C   UNL     1     -10.170  11.958  64.499  1.00  0.00    -0.320 A  
HETATM   17  C   UNL     1     -11.539  14.012  63.829  1.00  0.00     0.054 A  
HETATM   18  C   UNL     1      -9.613  11.496  65.713  1.00  0.00    -0.259 A  
HETATM   19  C   UNL     1     -12.088  15.208  64.288  1.00  0.00    -0.277 A  
HETATM   20  C   UNL     1     -11.921  15.598  65.623  1.00  0.00     0.667 A  
HETATM   21  C   UNL     1      -8.835  10.343  65.716  1.00  0.00    -0.186 A  
HETATM   22  C   UNL     1      -8.666   9.636  64.518  1.00  0.00    -0.227 A  
HETATM   23  C   UNL     1     -11.214  14.796  66.524  1.00  0.00    -0.342 A  
HETATM   24  C   UNL     1      -9.229  10.098  63.324  1.00  0.00    -0.320 A  
HETATM   25  C   UNL     1      -9.981  11.272  63.305  1.00  0.00    -0.428 A  
ENDBRANCH  10  13
ENDBRANCH   9  10
ENDBRANCH   8   9
ENDBRANCH   7   8
ENDBRANCH   6   7
ENDBRANCH   5   6
ENDBRANCH   4   5
ENDBRANCH   2   4
BRANCH   2  26
HETATM   26  C   UNL     1      -8.340   5.208  70.021  1.00  0.00    -0.089 C  
HETATM   27  C   UNL     1     -11.752   6.585  70.549  1.00  0.00    -0.438 A  
HETATM   28  C   UNL     1      -8.726   5.739  68.624  1.00  0.00    -0.108 A  
HETATM   29  C   UNL     1     -12.036   6.265  71.872  1.00  0.00    -0.311 A  
HETATM   30  C   UNL     1     -10.018   6.313  68.676  1.00  0.00    -0.166 A  
HETATM   31  C   UNL     1     -10.557   6.140  70.005  1.00  0.00    -0.323 A  
HETATM   32  C   UNL     1     -10.612   6.859  67.547  1.00  0.00    -0.351 A  
HETATM   33  C   UNL     1     -11.175   5.450  72.622  1.00  0.00    -0.333 A  
HETATM   34  C   UNL     1      -8.052   5.674  67.406  1.00  0.00    -0.102 A  
HETATM   35  C   UNL     1      -9.650   5.386  70.780  1.00  0.00    -0.228 A  
HETATM   36  C   UNL     1      -9.908   6.838  66.343  1.00  0.00    -0.096 A  
HETATM   37  C   UNL     1      -9.986   4.965  72.063  1.00  0.00    -0.245 A  
HETATM   38  C   UNL     1      -8.639   6.252  66.272  1.00  0.00    -0.138 A  
ENDBRANCH   2  26
TORSDOF 9
ENDMDL
MODEL      290
REMARK 921   NORMALIZED FREE ENERGY PREDICTED BY IDOCK:   -4.27 KCAL/MOL
REMARK 922        TOTAL FREE ENERGY PREDICTED BY IDOCK:   -8.28 KCAL/MOL
REMARK 923 INTER-LIGAND FREE ENERGY PREDICTED BY IDOCK:   -8.31 KCAL/MOL
REMARK 924 INTRA-LIGAND FREE ENERGY PREDICTED BY IDOCK:    0.03 KCAL/MOL
REMARK 927      BINDING AFFINITY PREDICTED BY RF-SCORE:    0.00 PKD
ROOT
HETATM    1  C   UNL     1     -10.635   7.723  67.329  1.00  0.00    -0.306 C  
HETATM    2  N   UNL     1      -9.680   6.697  67.930  1.00  0.00    -0.122 N  
HETATM    3  C   UNL     1      -8.762   6.166  66.833  1.00  0.00    -0.109 C  
ENDROOT
BRANCH   2   4
HETATM    4  C   UNL     1      -8.891   7.351  69.046  1.00  0.00    -0.132 C  
BRANCH   4   5
HETATM    5  C   UNL     1      -7.501   7.871  68.679  1.00  0.00    -0.099 C  
BRANCH   5   6
HETATM    6  C   UNL     1      -7.430   9.375  68.976  1.00  0.00    -0.073 C  
BRANCH   6   7
HETATM    7  C   UNL     1      -8.784  10.006  69.350  1.00  0.00    -0.195 C  
BRANCH   7   8
HETATM    8  C   UNL     1      -9.472  10.741  68.190  1.00  0.00    -0.161 C  
BRANCH   8   9
HETATM    9  C   UNL     1      -9.136  12.229  68.288  1.00  0.00    -0.187 C  
BRANCH   9  10
HETATM   10  N   UNL     1      -8.125  12.740  67.274  1.00  0.00    -0.183 N  
HETATM   11  C   UNL     1      -6.847  13.214  67.958  1.00  0.00    -0.118 C  
HETATM   12  C   UNL     1      -7.712  11.659  66.287  1.00  0.00     0.146 C  
BRANCH  10  13
HETATM   13  C   UNL     1      -8.821  13.958  66.493  1.00  0.00     0.004 C  
HETATM   14  C   UNL     1      -9.219  15.140  67.398  1.00  0.00    -0.199 A  
HETATM   15  C   UNL     1     -10.617  15.340  67.349  1.00  0.00    -0.282 A  
HETATM   16  C   UNL     1     -11.197  14.429  66.391  1.00  0.00    -0.345 A  
HETATM   17  C   UNL     1     -11.236  16.312  68.122  1.00  0.00    -0.298 A  
HETATM   18  C   UNL     1     -10.181  13.614  65.843  1.00  0.00    -0.318 A  
HETATM   19  C   UNL     1     -10.446  17.103  68.955  1.00  0.00    -0.346 A  
HETATM   20  C   UNL     1      -9.055  16.937  68.981  1.00  0.00    -0.174 A  
HETATM   21  C   UNL     1     -10.498  12.711  64.833  1.00  0.00    -0.331 A  
HETATM   22  C   UNL     1     -11.833  12.595  64.420  1.00  0.00    -0.452 A  
HETATM   23  C   UNL     1      -8.432  15.970  68.186  1.00  0.00    -0.169 A  
HETATM   24  C   UNL     1     -12.831  13.401  64.978  1.00  0.00    -0.344 A  
HETATM   25  C   UNL     1     -12.516  14.334  65.966  1.00  0.00    -0.392 A  
ENDBRANCH  10  13
ENDBRANCH   9  10
ENDBRANCH   8   9
ENDBRANCH   7   8
ENDBRANCH   6   7
ENDBRANCH   5   6
ENDBRANCH   4   5
ENDBRANCH   2   4
BRANCH   2  26
HETATM   26  C   UNL     1     -10.505   5.474  68.580  1.00  0.00    -0.169 C  
HETATM   27  C   UNL     1      -8.551   2.682  70.065  1.00  0.00    -0.108 A  
HETATM   28  C   UNL     1     -10.779   5.616  70.093  1.00  0.00    -0.376 A  
HETATM   29  C   UNL     1      -8.039   2.012  68.959  1.00  0.00    -0.063 A  
HETATM   30  C   UNL     1     -10.077   4.610  70.798  1.00  0.00    -0.264 A  
HETATM   31  C   UNL     1      -9.402   3.754  69.850  1.00  0.00    -0.248 A  
HETATM   32  C   UNL     1     -10.159   4.506  72.179  1.00  0.00    -0.260 A  
HETATM   33  C   UNL     1      -8.428   2.359  67.656  1.00  0.00    -0.105 A  
HETATM   34  C   UNL     1     -11.609   6.492  70.790  1.00  0.00    -0.437 A  
HETATM   35  C   UNL     1      -9.735   4.158  68.539  1.00  0.00    -0.148 A  
HETATM   36  C   UNL     1     -10.950   5.421  72.875  1.00  0.00    -0.338 A  
HETATM   37  C   UNL     1      -9.320   3.417  67.438  1.00  0.00    -0.243 A  
HETATM   38  C   UNL     1     -11.668   6.406  72.187  1.00  0.00    -0.366 A  
ENDBRANCH   2  26
TORSDOF 9
ENDMDL
MODEL      291
REMARK 921   NORMALIZED FREE ENERGY PREDICTED BY IDOCK:   -4.26 KCAL/MOL
REMARK 922        TOTAL FREE ENERGY PREDICTED BY IDOCK:   -8.27 KCAL/MOL
REMARK 923 INTER-LIGAND FREE ENERGY PREDICTED BY IDOCK:   -7.59 KCAL/MOL
REMARK 924 INTRA-LIGAND FREE ENERGY PREDICTED BY IDOCK:   -0.69 KCAL/MOL
REMARK 927      BINDING AFFINITY PREDICTED BY RF-SCORE:    0.00 PKD
ROOT
HETATM    1  C   UNL     1     -11.629  12.281  68.278  1.00  0.00    -0.331 C  
HETATM    2  N   UNL     1     -10.685  11.091  68.136  1.00  0.00    -0.190 N  
HETATM    3  C   UNL     1      -9.251  11.602  68.027  1.00  0.00    -0.178 C  
ENDROOT
BRANCH   2   4
HETATM    4  C   UNL     1     -10.860  10.176  69.329  1.00  0.00    -0.235 C  
BRANCH   4   5
HETATM    5  C   UNL     1     -11.321  10.835  70.629  1.00  0.00    -0.202 C  
BRANCH   5   6
HETATM    6  C   UNL     1     -12.727  10.331  70.979  1.00  0.00    -0.491 C  
BRANCH   6   7
HETATM    7  C   UNL     1     -12.851   9.754  72.401  1.00  0.00    -0.268 C  
BRANCH   7   8
HETATM    8  C   UNL     1     -12.787   8.220  72.461  1.00  0.00    -0.191 C  
BRANCH   8   9
HETATM    9  C   UNL     1     -11.318   7.795  72.480  1.00  0.00    -0.374 C  
BRANCH   9  10
HETATM   10  N   UNL     1     -10.943   6.695  71.500  1.00  0.00    -0.239 N  
HETATM   11  C   UNL     1     -11.211   5.314  72.088  1.00  0.00    -0.069 C  
HETATM   12  C   UNL     1     -11.747   6.781  70.211  1.00  0.00    -0.341 C  
BRANCH  10  13
HETATM   13  C   UNL     1      -9.378   6.868  71.181  1.00  0.00    -0.162 C  
HETATM   14  C   UNL     1      -8.754   5.678  70.428  1.00  0.00    -0.135 A  
HETATM   15  C   UNL     1      -7.729   5.095  71.206  1.00  0.00    -0.101 A  
HETATM   16  C   UNL     1      -7.542   5.869  72.410  1.00  0.00    -0.101 A  
HETATM   17  C   UNL     1      -7.046   3.967  70.773  1.00  0.00    -0.033 A  
HETATM   18  C   UNL     1      -8.469   6.936  72.431  1.00  0.00    -0.120 A  
HETATM   19  C   UNL     1      -7.386   3.415  69.540  1.00  0.00    -0.045 A  
HETATM   20  C   UNL     1      -8.375   4.009  68.745  1.00  0.00    -0.090 A  
HETATM   21  C   UNL     1      -8.420   7.866  73.464  1.00  0.00    -0.284 A  
HETATM   22  C   UNL     1      -7.482   7.690  74.491  1.00  0.00    -0.180 A  
HETATM   23  C   UNL     1      -9.049   5.156  69.174  1.00  0.00    -0.135 A  
HETATM   24  C   UNL     1      -6.577   6.625  74.464  1.00  0.00    -0.084 A  
HETATM   25  C   UNL     1      -6.595   5.708  73.413  1.00  0.00    -0.073 A  
ENDBRANCH  10  13
ENDBRANCH   9  10
ENDBRANCH   8   9
ENDBRANCH   7   8
ENDBRANCH   6   7
ENDBRANCH   5   6
ENDBRANCH   4   5
ENDBRANCH   2   4
BRANCH   2  26
HETATM   26  C   UNL     1     -11.052  10.237  66.818  1.00  0.00     0.099 C  
HETATM   27  C   UNL     1      -9.878  11.543  63.542  1.00  0.00    -0.407 A  
HETATM   28  C   UNL     1      -9.975   9.214  66.396  1.00  0.00    -0.358 A  
HETATM   29  C   UNL     1     -10.705  12.637  63.307  1.00  0.00    -0.036 A  
HETATM   30  C   UNL     1      -9.421   9.597  65.151  1.00  0.00    -0.332 A  
HETATM   31  C   UNL     1     -10.107  10.775  64.673  1.00  0.00    -0.410 A  
HETATM   32  C   UNL     1      -8.433   8.840  64.538  1.00  0.00    -0.158 A  
HETATM   33  C   UNL     1     -11.792  12.918  64.148  1.00  0.00    -0.479 A  
HETATM   34  C   UNL     1      -9.558   8.029  66.998  1.00  0.00    -0.252 A  
HETATM   35  C   UNL     1     -11.151  11.100  65.566  1.00  0.00    -0.073 A  
HETATM   36  C   UNL     1      -7.983   7.683  65.174  1.00  0.00    -0.130 A  
HETATM   37  C   UNL     1     -12.050  12.120  65.271  1.00  0.00    -0.257 A  
HETATM   38  C   UNL     1      -8.539   7.281  66.394  1.00  0.00    -0.141 A  
ENDBRANCH   2  26
TORSDOF 9
ENDMDL
MODEL      292
REMARK 921   NORMALIZED FREE ENERGY PREDICTED BY IDOCK:   -4.26 KCAL/MOL
REMARK 922        TOTAL FREE ENERGY PREDICTED BY IDOCK:   -8.27 KCAL/MOL
REMARK 923 INTER-LIGAND FREE ENERGY PREDICTED BY IDOCK:   -8.58 KCAL/MOL
REMARK 924 INTRA-LIGAND FREE ENERGY PREDICTED BY IDOCK:    0.31 KCAL/MOL
REMARK 927      BINDING AFFINITY PREDICTED BY RF-SCORE:    0.00 PKD
ROOT
HETATM    1  C   UNL     1      -9.968  13.347  64.762  1.00  0.00    -0.130 C  
HETATM    2  N   UNL     1     -10.927  13.344  65.948  1.00  0.00    -0.274 N  
HETATM    3  C   UNL     1     -12.114  14.250  65.632  1.00  0.00    -0.393 C  
ENDROOT
BRANCH   2   4
HETATM    4  C   UNL     1     -11.371  11.922  66.222  1.00  0.00    -0.334 C  
BRANCH   4   5
HETATM    5  C   UNL     1     -10.316  10.833  66.028  1.00  0.00    -0.300 C  
BRANCH   5   6
HETATM    6  C   UNL     1     -10.772   9.556  66.747  1.00  0.00    -0.136 C  
BRANCH   6   7
HETATM    7  C   UNL     1      -9.718   8.433  66.763  1.00  0.00    -0.309 C  
BRANCH   7   8
HETATM    8  C   UNL     1      -8.741   8.509  67.945  1.00  0.00    -0.138 C  
BRANCH   8   9
HETATM    9  C   UNL     1      -8.765   7.170  68.684  1.00  0.00    -0.127 C  
BRANCH   9  10
HETATM   10  N   UNL     1     -10.019   6.895  69.498  1.00  0.00    -0.162 N  
HETATM   11  C   UNL     1     -10.613   8.186  70.053  1.00  0.00    -0.239 C  
HETATM   12  C   UNL     1     -11.109   6.242  68.662  1.00  0.00    -0.325 C  
BRANCH  10  13
HETATM   13  C   UNL     1      -9.591   5.919  70.699  1.00  0.00    -0.173 C  
HETATM   14  C   UNL     1      -8.986   6.647  71.916  1.00  0.00    -0.136 A  
HETATM   15  C   UNL     1      -7.660   6.210  72.132  1.00  0.00    -0.096 A  
HETATM   16  C   UNL     1      -7.345   5.154  71.199  1.00  0.00    -0.074 A  
HETATM   17  C   UNL     1      -6.874   6.755  73.137  1.00  0.00    -0.075 A  
HETATM   18  C   UNL     1      -8.455   4.929  70.353  1.00  0.00    -0.104 A  
HETATM   19  C   UNL     1      -7.422   7.751  73.945  1.00  0.00    -0.171 A  
HETATM   20  C   UNL     1      -8.748   8.164  73.760  1.00  0.00    -0.292 A  
HETATM   21  C   UNL     1      -8.408   3.897  69.422  1.00  0.00    -0.080 A  
HETATM   22  C   UNL     1      -7.236   3.136  69.310  1.00  0.00    -0.045 A  
HETATM   23  C   UNL     1      -9.544   7.598  72.760  1.00  0.00    -0.253 A  
HETATM   24  C   UNL     1      -6.141   3.375  70.147  1.00  0.00    -0.023 A  
HETATM   25  C   UNL     1      -6.192   4.385  71.107  1.00  0.00    -0.018 A  
ENDBRANCH  10  13
ENDBRANCH   9  10
ENDBRANCH   8   9
ENDBRANCH   7   8
ENDBRANCH   6   7
ENDBRANCH   5   6
ENDBRANCH   4   5
ENDBRANCH   2   4
BRANCH   2  26
HETATM   26  C   UNL     1     -10.182  13.877  67.275  1.00  0.00    -0.249 C  
HETATM   27  C   UNL     1     -10.747  17.418  68.256  1.00  0.00    -0.327 A  
HETATM   28  C   UNL     1     -11.014  13.756  68.570  1.00  0.00    -0.283 A  
HETATM   29  C   UNL     1     -10.021  18.141  67.316  1.00  0.00    -0.336 A  
HETATM   30  C   UNL     1     -11.319  15.048  69.059  1.00  0.00    -0.306 A  
HETATM   31  C   UNL     1     -10.686  16.034  68.214  1.00  0.00    -0.298 A  
HETATM   32  C   UNL     1     -12.053  15.225  70.223  1.00  0.00    -0.388 A  
HETATM   33  C   UNL     1      -9.187  17.495  66.391  1.00  0.00    -0.267 A  
HETATM   34  C   UNL     1     -11.413  12.635  69.295  1.00  0.00    -0.354 A  
HETATM   35  C   UNL     1      -9.910  15.376  67.235  1.00  0.00    -0.217 A  
HETATM   36  C   UNL     1     -12.496  14.096  70.915  1.00  0.00    -0.436 A  
HETATM   37  C   UNL     1      -9.092  16.098  66.371  1.00  0.00    -0.339 A  
HETATM   38  C   UNL     1     -12.180  12.813  70.455  1.00  0.00    -0.371 A  
ENDBRANCH   2  26
TORSDOF 9
ENDMDL
MODEL      293
REMARK 921   NORMALIZED FREE ENERGY PREDICTED BY IDOCK:   -4.25 KCAL/MOL
REMARK 922        TOTAL FREE ENERGY PREDICTED BY IDOCK:   -8.25 KCAL/MOL
REMARK 923 INTER-LIGAND FREE ENERGY PREDICTED BY IDOCK:   -8.72 KCAL/MOL
REMARK 924 INTRA-LIGAND FREE ENERGY PREDICTED BY IDOCK:    0.47 KCAL/MOL
REMARK 927      BINDING AFFINITY PREDICTED BY RF-SCORE:    0.00 PKD
ROOT
HETATM    1  C   UNL     1      -9.565  14.738  69.558  1.00  0.00     0.069 C  
HETATM    2  N   UNL     1     -10.603  13.773  68.993  1.00  0.00    -0.188 N  
HETATM    3  C   UNL     1      -9.888  12.670  68.217  1.00  0.00    -0.227 C  
ENDROOT
BRANCH   2   4
HETATM    4  C   UNL     1     -11.425  13.208  70.133  1.00  0.00     0.055 C  
BRANCH   4   5
HETATM    5  C   UNL     1     -12.141  11.885  69.861  1.00  0.00    -0.344 C  
BRANCH   5   6
HETATM    6  C   UNL     1     -13.032  11.538  71.061  1.00  0.00    -0.252 C  
BRANCH   6   7
HETATM    7  C   UNL     1     -12.875  10.090  71.563  1.00  0.00    -0.537 C  
BRANCH   7   8
HETATM    8  C   UNL     1     -11.443   9.544  71.461  1.00  0.00    -0.466 C  
BRANCH   8   9
HETATM    9  C   UNL     1     -11.341   8.282  72.317  1.00  0.00    -0.378 C  
BRANCH   9  10
HETATM   10  N   UNL     1     -10.131   7.402  72.045  1.00  0.00    -0.180 N  
HETATM   11  C   UNL     1      -8.894   7.923  72.768  1.00  0.00    -0.189 C  
HETATM   12  C   UNL     1     -10.345   5.975  72.526  1.00  0.00    -0.195 C  
BRANCH  10  13
HETATM   13  C   UNL     1      -9.893   7.415  70.457  1.00  0.00    -0.180 C  
HETATM   14  C   UNL     1      -9.507   6.045  69.867  1.00  0.00    -0.175 A  
HETATM   15  C   UNL     1      -8.228   6.116  69.269  1.00  0.00    -0.116 A  
HETATM   16  C   UNL     1      -7.750   7.477  69.325  1.00  0.00    -0.112 A  
HETATM   17  C   UNL     1      -7.626   4.997  68.714  1.00  0.00    -0.077 A  
HETATM   18  C   UNL     1      -8.701   8.283  69.990  1.00  0.00    -0.133 A  
HETATM   19  C   UNL     1      -8.313   3.784  68.749  1.00  0.00    -0.088 A  
HETATM   20  C   UNL     1      -9.597   3.712  69.306  1.00  0.00    -0.185 A  
HETATM   21  C   UNL     1      -8.488   9.654  70.091  1.00  0.00    -0.231 A  
HETATM   22  C   UNL     1      -7.303  10.195  69.574  1.00  0.00    -0.123 A  
HETATM   23  C   UNL     1     -10.210   4.846  69.848  1.00  0.00    -0.299 A  
HETATM   24  C   UNL     1      -6.364   9.386  68.927  1.00  0.00    -0.043 A  
HETATM   25  C   UNL     1      -6.586   8.016  68.790  1.00  0.00    -0.049 A  
ENDBRANCH  10  13
ENDBRANCH   9  10
ENDBRANCH   8   9
ENDBRANCH   7   8
ENDBRANCH   6   7
ENDBRANCH   5   6
ENDBRANCH   4   5
ENDBRANCH   2   4
BRANCH   2  26
HETATM   26  C   UNL     1     -11.617  14.551  68.010  1.00  0.00    -0.336 C  
HETATM   27  C   UNL     1     -10.209  17.247  65.873  1.00  0.00    -0.273 A  
HETATM   28  C   UNL     1     -11.712  13.959  66.588  1.00  0.00    -0.417 A  
HETATM   29  C   UNL     1      -9.965  18.283  66.768  1.00  0.00    -0.359 A  
HETATM   30  C   UNL     1     -11.191  14.886  65.654  1.00  0.00    -0.347 A  
HETATM   31  C   UNL     1     -10.815  16.095  66.349  1.00  0.00    -0.131 A  
HETATM   32  C   UNL     1     -11.167  14.606  64.295  1.00  0.00    -0.057 A  
HETATM   33  C   UNL     1     -10.384  18.203  68.104  1.00  0.00    -0.393 A  
HETATM   34  C   UNL     1     -12.258  12.760  66.134  1.00  0.00    -0.340 A  
HETATM   35  C   UNL     1     -11.169  15.977  67.711  1.00  0.00    -0.231 A  
HETATM   36  C   UNL     1     -11.666  13.379  63.854  1.00  0.00    -0.455 A  
HETATM   37  C   UNL     1     -11.033  17.055  68.579  1.00  0.00    -0.247 A  
HETATM   38  C   UNL     1     -12.206  12.464  64.765  1.00  0.00    -0.493 A  
ENDBRANCH   2  26
TORSDOF 9
ENDMDL
MODEL      294
REMARK 921   NORMALIZED FREE ENERGY PREDICTED BY IDOCK:   -4.23 KCAL/MOL
REMARK 922        TOTAL FREE ENERGY PREDICTED BY IDOCK:   -8.23 KCAL/MOL
REMARK 923 INTER-LIGAND FREE ENERGY PREDICTED BY IDOCK:   -6.98 KCAL/MOL
REMARK 924 INTRA-LIGAND FREE ENERGY PREDICTED BY IDOCK:   -1.24 KCAL/MOL
REMARK 927      BINDING AFFINITY PREDICTED BY RF-SCORE:    0.00 PKD
ROOT
HETATM    1  C   UNL     1     -10.820   9.523  67.514  1.00  0.00    -0.170 C  
HETATM    2  N   UNL     1     -10.528  10.959  67.936  1.00  0.00    -0.184 N  
HETATM    3  C   UNL     1     -11.849  11.697  68.142  1.00  0.00    -0.244 C  
ENDROOT
BRANCH   2   4
HETATM    4  C   UNL     1      -9.696  10.944  69.201  1.00  0.00    -0.122 C  
BRANCH   4   5
HETATM    5  C   UNL     1      -9.657   9.624  69.971  1.00  0.00    -0.281 C  
BRANCH   5   6
HETATM    6  C   UNL     1     -10.745   9.638  71.052  1.00  0.00    -0.393 C  
BRANCH   6   7
HETATM    7  C   UNL     1     -10.391   8.825  72.311  1.00  0.00    -0.320 C  
BRANCH   7   8
HETATM    8  C   UNL     1     -11.455   7.790  72.708  1.00  0.00    -0.415 C  
BRANCH   8   9
HETATM    9  C   UNL     1     -11.087   6.448  72.075  1.00  0.00    -0.265 C  
BRANCH   9  10
HETATM   10  N   UNL     1     -10.371   5.468  72.991  1.00  0.00    -0.191 N  
HETATM   11  C   UNL     1     -10.173   6.056  74.384  1.00  0.00    -0.294 C  
HETATM   12  C   UNL     1     -11.157   4.178  73.172  1.00  0.00    -0.173 C  
BRANCH  10  13
HETATM   13  C   UNL     1      -8.949   5.152  72.315  1.00  0.00    -0.128 C  
HETATM   14  C   UNL     1      -7.932   6.305  72.418  1.00  0.00    -0.104 A  
HETATM   15  C   UNL     1      -7.566   6.747  71.127  1.00  0.00    -0.088 A  
HETATM   16  C   UNL     1      -8.193   5.904  70.137  1.00  0.00    -0.118 A  
HETATM   17  C   UNL     1      -6.702   7.818  70.947  1.00  0.00    -0.038 A  
HETATM   18  C   UNL     1      -8.996   4.937  70.784  1.00  0.00    -0.167 A  
HETATM   19  C   UNL     1      -6.189   8.456  72.075  1.00  0.00    -0.064 A  
HETATM   20  C   UNL     1      -6.518   8.002  73.358  1.00  0.00    -0.100 A  
HETATM   21  C   UNL     1      -9.636   3.961  70.027  1.00  0.00    -0.269 A  
HETATM   22  C   UNL     1      -9.511   3.994  68.632  1.00  0.00    -0.220 A  
HETATM   23  C   UNL     1      -7.373   6.910  73.537  1.00  0.00    -0.082 A  
HETATM   24  C   UNL     1      -8.723   4.962  68.002  1.00  0.00    -0.107 A  
HETATM   25  C   UNL     1      -8.048   5.923  68.755  1.00  0.00    -0.103 A  
ENDBRANCH  10  13
ENDBRANCH   9  10
ENDBRANCH   8   9
ENDBRANCH   7   8
ENDBRANCH   6   7
ENDBRANCH   5   6
ENDBRANCH   4   5
ENDBRANCH   2   4
BRANCH   2  26
HETATM   26  C   UNL     1      -9.664  11.713  66.803  1.00  0.00    -0.201 C  
HETATM   27  C   UNL     1      -8.550  15.187  67.520  1.00  0.00    -0.193 A  
HETATM   28  C   UNL     1      -8.135  11.568  66.960  1.00  0.00    -0.161 A  
HETATM   29  C   UNL     1      -9.716  15.936  67.412  1.00  0.00    -0.227 A  
HETATM   30  C   UNL     1      -7.567  12.831  67.253  1.00  0.00    -0.116 A  
HETATM   31  C   UNL     1      -8.609  13.832  67.234  1.00  0.00    -0.221 A  
HETATM   32  C   UNL     1      -6.200  12.983  67.434  1.00  0.00    -0.082 A  
HETATM   33  C   UNL     1     -10.910  15.359  66.955  1.00  0.00    -0.313 A  
HETATM   34  C   UNL     1      -7.303  10.462  66.799  1.00  0.00    -0.110 A  
HETATM   35  C   UNL     1      -9.826  13.228  66.850  1.00  0.00    -0.247 A  
HETATM   36  C   UNL     1      -5.380  11.860  67.325  1.00  0.00    -0.113 A  
HETATM   37  C   UNL     1     -10.964  13.997  66.627  1.00  0.00    -0.300 A  
HETATM   38  C   UNL     1      -5.926  10.610  67.012  1.00  0.00    -0.059 A  
ENDBRANCH   2  26
TORSDOF 9
ENDMDL
MODEL      295
REMARK 921   NORMALIZED FREE ENERGY PREDICTED BY IDOCK:   -4.23 KCAL/MOL
REMARK 922        TOTAL FREE ENERGY PREDICTED BY IDOCK:   -8.22 KCAL/MOL
REMARK 923 INTER-LIGAND FREE ENERGY PREDICTED BY IDOCK:   -7.30 KCAL/MOL
REMARK 924 INTRA-LIGAND FREE ENERGY PREDICTED BY IDOCK:   -0.93 KCAL/MOL
REMARK 927      BINDING AFFINITY PREDICTED BY RF-SCORE:    0.00 PKD
ROOT
HETATM    1  C   UNL     1     -11.738  12.296  68.173  1.00  0.00    -0.349 C  
HETATM    2  N   UNL     1     -10.725  11.212  67.818  1.00  0.00    -0.207 N  
HETATM    3  C   UNL     1      -9.333  11.834  67.745  1.00  0.00    -0.181 C  
ENDROOT
BRANCH   2   4
HETATM    4  C   UNL     1     -10.790  10.114  68.859  1.00  0.00    -0.223 C  
BRANCH   4   5
HETATM    5  C   UNL     1     -11.145  10.548  70.281  1.00  0.00    -0.359 C  
BRANCH   5   6
HETATM    6  C   UNL     1     -12.491   9.927  70.677  1.00  0.00    -0.268 C  
BRANCH   6   7
HETATM    7  C   UNL     1     -12.548   9.421  72.130  1.00  0.00    -0.423 C  
BRANCH   7   8
HETATM    8  C   UNL     1     -12.185   7.936  72.290  1.00  0.00    -0.333 C  
BRANCH   8   9
HETATM    9  C   UNL     1     -10.661   7.803  72.275  1.00  0.00    -0.269 C  
BRANCH   9  10
HETATM   10  N   UNL     1     -10.118   6.454  72.717  1.00  0.00    -0.177 N  
HETATM   11  C   UNL     1      -9.739   6.467  74.194  1.00  0.00    -0.270 C  
HETATM   12  C   UNL     1     -11.142   5.342  72.543  1.00  0.00    -0.253 C  
BRANCH  10  13
HETATM   13  C   UNL     1      -8.825   6.154  71.814  1.00  0.00    -0.138 C  
HETATM   14  C   UNL     1      -8.145   7.416  71.248  1.00  0.00    -0.100 A  
HETATM   15  C   UNL     1      -8.167   7.387  69.836  1.00  0.00    -0.132 A  
HETATM   16  C   UNL     1      -8.734   6.137  69.391  1.00  0.00    -0.123 A  
HETATM   17  C   UNL     1      -7.666   8.440  69.084  1.00  0.00    -0.092 A  
HETATM   18  C   UNL     1      -9.113   5.367  70.515  1.00  0.00    -0.171 A  
HETATM   19  C   UNL     1      -7.127   9.538  69.752  1.00  0.00    -0.075 A  
HETATM   20  C   UNL     1      -7.067   9.558  71.151  1.00  0.00     0.049 A  
HETATM   21  C   UNL     1      -9.612   4.082  70.328  1.00  0.00    -0.271 A  
HETATM   22  C   UNL     1      -9.777   3.601  69.021  1.00  0.00    -0.062 A  
HETATM   23  C   UNL     1      -7.555   8.488  71.907  1.00  0.00    -0.139 A  
HETATM   24  C   UNL     1      -9.408   4.377  67.917  1.00  0.00    -0.190 A  
HETATM   25  C   UNL     1      -8.873   5.652  68.097  1.00  0.00    -0.108 A  
ENDBRANCH  10  13
ENDBRANCH   9  10
ENDBRANCH   8   9
ENDBRANCH   7   8
ENDBRANCH   6   7
ENDBRANCH   5   6
ENDBRANCH   4   5
ENDBRANCH   2   4
BRANCH   2  26
HETATM   26  C   UNL     1     -11.091  10.546  66.396  1.00  0.00     0.169 C  
HETATM   27  C   UNL     1     -10.330  12.509  63.333  1.00  0.00    -0.194 A  
HETATM   28  C   UNL     1      -9.939   9.751  65.745  1.00  0.00    -0.349 A  
HETATM   29  C   UNL     1     -11.292  13.512  63.336  1.00  0.00     0.347 A  
HETATM   30  C   UNL     1      -9.530  10.399  64.555  1.00  0.00    -0.342 A  
HETATM   31  C   UNL     1     -10.381  11.543  64.325  1.00  0.00    -0.376 A  
HETATM   32  C   UNL     1      -8.511   9.884  63.766  1.00  0.00    -0.182 A  
HETATM   33  C   UNL     1     -12.337  13.512  64.272  1.00  0.00    -0.392 A  
HETATM   34  C   UNL     1      -9.343   8.545  66.110  1.00  0.00    -0.279 A  
HETATM   35  C   UNL     1     -11.384  11.583  65.318  1.00  0.00    -0.150 A  
HETATM   36  C   UNL     1      -7.882   8.705  64.168  1.00  0.00    -0.141 A  
HETATM   37  C   UNL     1     -12.415  12.515  65.253  1.00  0.00    -0.390 A  
HETATM   38  C   UNL     1      -8.293   8.041  65.329  1.00  0.00    -0.151 A  
ENDBRANCH   2  26
TORSDOF 9
ENDMDL
MODEL      296
REMARK 921   NORMALIZED FREE ENERGY PREDICTED BY IDOCK:   -4.23 KCAL/MOL
REMARK 922        TOTAL FREE ENERGY PREDICTED BY IDOCK:   -8.22 KCAL/MOL
REMARK 923 INTER-LIGAND FREE ENERGY PREDICTED BY IDOCK:   -8.20 KCAL/MOL
REMARK 924 INTRA-LIGAND FREE ENERGY PREDICTED BY IDOCK:   -0.03 KCAL/MOL
REMARK 927      BINDING AFFINITY PREDICTED BY RF-SCORE:    0.00 PKD
ROOT
HETATM    1  C   UNL     1     -12.984  14.810  69.958  1.00  0.00     0.055 C  
HETATM    2  N   UNL     1     -11.582  14.932  69.370  1.00  0.00    -0.291 N  
HETATM    3  C   UNL     1     -10.719  15.774  70.305  1.00  0.00    -0.329 C  
ENDROOT
BRANCH   2   4
HETATM    4  C   UNL     1     -11.004  13.545  69.179  1.00  0.00    -0.177 C  
BRANCH   4   5
HETATM    5  C   UNL     1     -11.821  12.385  69.747  1.00  0.00    -0.387 C  
BRANCH   5   6
HETATM    6  C   UNL     1     -11.999  11.314  68.662  1.00  0.00    -0.314 C  
BRANCH   6   7
HETATM    7  C   UNL     1     -10.676  10.777  68.085  1.00  0.00    -0.257 C  
BRANCH   7   8
HETATM    8  C   UNL     1     -10.545   9.248  68.139  1.00  0.00    -0.248 C  
BRANCH   8   9
HETATM    9  C   UNL     1      -9.956   8.763  66.814  1.00  0.00    -0.268 C  
BRANCH   9  10
HETATM   10  N   UNL     1      -8.803   7.779  66.931  1.00  0.00    -0.126 N  
HETATM   11  C   UNL     1      -8.346   7.297  65.558  1.00  0.00    -0.133 C  
HETATM   12  C   UNL     1      -7.587   8.403  67.598  1.00  0.00    -0.098 C  
BRANCH  10  13
HETATM   13  C   UNL     1      -9.333   6.541  67.806  1.00  0.00    -0.118 C  
HETATM   14  C   UNL     1      -8.509   6.272  69.080  1.00  0.00    -0.120 A  
HETATM   15  C   UNL     1      -7.941   4.979  69.028  1.00  0.00    -0.080 A  
HETATM   16  C   UNL     1      -8.403   4.302  67.840  1.00  0.00    -0.096 A  
HETATM   17  C   UNL     1      -7.105   4.515  70.033  1.00  0.00    -0.049 A  
HETATM   18  C   UNL     1      -9.242   5.167  67.101  1.00  0.00    -0.119 A  
HETATM   19  C   UNL     1      -6.835   5.353  71.114  1.00  0.00    -0.052 A  
HETATM   20  C   UNL     1      -7.422   6.623  71.192  1.00  0.00    -0.084 A  
HETATM   21  C   UNL     1      -9.870   4.698  65.953  1.00  0.00    -0.231 A  
HETATM   22  C   UNL     1      -9.612   3.388  65.525  1.00  0.00    -0.087 A  
HETATM   23  C   UNL     1      -8.280   7.081  70.187  1.00  0.00    -0.133 A  
HETATM   24  C   UNL     1      -8.771   2.544  66.259  1.00  0.00    -0.126 A  
HETATM   25  C   UNL     1      -8.166   2.995  67.431  1.00  0.00    -0.085 A  
ENDBRANCH  10  13
ENDBRANCH   9  10
ENDBRANCH   8   9
ENDBRANCH   7   8
ENDBRANCH   6   7
ENDBRANCH   5   6
ENDBRANCH   4   5
ENDBRANCH   2   4
BRANCH   2  26
HETATM   26  C   UNL     1     -11.641  15.630  67.918  1.00  0.00    -0.190 C  
HETATM   27  C   UNL     1      -8.412  16.291  66.198  1.00  0.00    -0.313 A  
HETATM   28  C   UNL     1     -11.665  14.643  66.731  1.00  0.00    -0.355 A  
HETATM   29  C   UNL     1      -7.871  17.356  66.910  1.00  0.00    -0.258 A  
HETATM   30  C   UNL     1     -10.471  14.775  65.982  1.00  0.00    -0.312 A  
HETATM   31  C   UNL     1      -9.675  15.839  66.547  1.00  0.00    -0.285 A  
HETATM   32  C   UNL     1     -10.241  14.006  64.850  1.00  0.00    -0.377 A  
HETATM   33  C   UNL     1      -8.607  18.010  67.909  1.00  0.00    -0.258 A  
HETATM   34  C   UNL     1     -12.652  13.760  66.299  1.00  0.00    -0.372 A  
HETATM   35  C   UNL     1     -10.389  16.443  67.605  1.00  0.00    -0.284 A  
HETATM   36  C   UNL     1     -11.212  13.085  64.456  1.00  0.00    -0.372 A  
HETATM   37  C   UNL     1      -9.900  17.581  68.238  1.00  0.00    -0.319 A  
HETATM   38  C   UNL     1     -12.407  12.962  65.174  1.00  0.00    -0.547 A  
ENDBRANCH   2  26
TORSDOF 9
ENDMDL
MODEL      297
REMARK 921   NORMALIZED FREE ENERGY PREDICTED BY IDOCK:   -4.22 KCAL/MOL
REMARK 922        TOTAL FREE ENERGY PREDICTED BY IDOCK:   -8.21 KCAL/MOL
REMARK 923 INTER-LIGAND FREE ENERGY PREDICTED BY IDOCK:   -8.39 KCAL/MOL
REMARK 924 INTRA-LIGAND FREE ENERGY PREDICTED BY IDOCK:    0.18 KCAL/MOL
REMARK 927      BINDING AFFINITY PREDICTED BY RF-SCORE:    0.00 PKD
ROOT
HETATM    1  C   UNL     1     -10.616   9.738  67.411  1.00  0.00    -0.267 C  
HETATM    2  N   UNL     1      -9.911  11.043  67.767  1.00  0.00    -0.171 N  
HETATM    3  C   UNL     1     -10.913  11.986  68.428  1.00  0.00    -0.237 C  
ENDROOT
BRANCH   2   4
HETATM    4  C   UNL     1      -8.744  10.741  68.683  1.00  0.00    -0.152 C  
BRANCH   4   5
HETATM    5  C   UNL     1      -8.937   9.593  69.673  1.00  0.00    -0.215 C  
BRANCH   5   6
HETATM    6  C   UNL     1      -9.261   8.309  68.899  1.00  0.00    -0.147 C  
BRANCH   6   7
HETATM    7  C   UNL     1      -8.564   7.051  69.448  1.00  0.00    -0.134 C  
BRANCH   7   8
HETATM    8  C   UNL     1      -7.402   7.348  70.408  1.00  0.00    -0.077 C  
BRANCH   8   9
HETATM    9  C   UNL     1      -7.459   6.351  71.565  1.00  0.00    -0.090 C  
BRANCH   9  10
HETATM   10  N   UNL     1      -7.358   6.956  72.956  1.00  0.00    -0.075 N  
HETATM   11  C   UNL     1      -6.192   6.358  73.737  1.00  0.00    -0.065 C  
HETATM   12  C   UNL     1      -7.121   8.458  72.908  1.00  0.00    -0.067 C  
BRANCH  10  13
HETATM   13  C   UNL     1      -8.744   6.643  73.703  1.00  0.00    -0.125 C  
HETATM   14  C   UNL     1      -9.067   5.142  73.828  1.00  0.00    -0.122 A  
HETATM   15  C   UNL     1     -10.271   4.847  73.149  1.00  0.00    -0.210 A  
HETATM   16  C   UNL     1     -10.849   6.070  72.646  1.00  0.00    -0.280 A  
HETATM   17  C   UNL     1     -10.753   3.548  73.064  1.00  0.00    -0.232 A  
HETATM   18  C   UNL     1     -10.004   7.156  72.967  1.00  0.00    -0.247 A  
HETATM   19  C   UNL     1     -10.026   2.526  73.671  1.00  0.00    -0.161 A  
HETATM   20  C   UNL     1      -8.851   2.815  74.377  1.00  0.00    -0.085 A  
HETATM   21  C   UNL     1     -10.401   8.451  72.650  1.00  0.00    -0.314 A  
HETATM   22  C   UNL     1     -11.612   8.641  71.970  1.00  0.00    -0.440 A  
HETATM   23  C   UNL     1      -8.377   4.127  74.479  1.00  0.00    -0.090 A  
HETATM   24  C   UNL     1     -12.435   7.558  71.649  1.00  0.00    -0.371 A  
HETATM   25  C   UNL     1     -12.062   6.259  71.994  1.00  0.00    -0.321 A  
ENDBRANCH  10  13
ENDBRANCH   9  10
ENDBRANCH   8   9
ENDBRANCH   7   8
ENDBRANCH   6   7
ENDBRANCH   5   6
ENDBRANCH   4   5
ENDBRANCH   2   4
BRANCH   2  26
HETATM   26  C   UNL     1      -9.313  11.739  66.441  1.00  0.00    -0.220 C  
HETATM   27  C   UNL     1      -9.050   9.653  63.376  1.00  0.00    -0.213 A  
HETATM   28  C   UNL     1     -10.375  12.354  65.504  1.00  0.00    -0.298 A  
HETATM   29  C   UNL     1      -7.989   8.797  63.648  1.00  0.00    -0.158 A  
HETATM   30  C   UNL     1     -10.397  11.640  64.282  1.00  0.00    -0.371 A  
HETATM   31  C   UNL     1      -9.368  10.627  64.309  1.00  0.00    -0.298 A  
HETATM   32  C   UNL     1     -11.260  11.995  63.255  1.00  0.00    -0.403 A  
HETATM   33  C   UNL     1      -7.206   8.957  64.802  1.00  0.00    -0.092 A  
HETATM   34  C   UNL     1     -11.199  13.466  65.665  1.00  0.00    -0.307 A  
HETATM   35  C   UNL     1      -8.634  10.742  65.509  1.00  0.00    -0.181 A  
HETATM   36  C   UNL     1     -12.120  13.078  63.445  1.00  0.00    -0.591 A  
HETATM   37  C   UNL     1      -7.500   9.966  65.728  1.00  0.00    -0.110 A  
HETATM   38  C   UNL     1     -12.091  13.806  64.640  1.00  0.00    -0.452 A  
ENDBRANCH   2  26
TORSDOF 9
ENDMDL
MODEL      298
REMARK 921   NORMALIZED FREE ENERGY PREDICTED BY IDOCK:   -4.18 KCAL/MOL
REMARK 922        TOTAL FREE ENERGY PREDICTED BY IDOCK:   -8.15 KCAL/MOL
REMARK 923 INTER-LIGAND FREE ENERGY PREDICTED BY IDOCK:   -8.04 KCAL/MOL
REMARK 924 INTRA-LIGAND FREE ENERGY PREDICTED BY IDOCK:   -0.11 KCAL/MOL
REMARK 927      BINDING AFFINITY PREDICTED BY RF-SCORE:    0.00 PKD
ROOT
HETATM    1  C   UNL     1      -9.787  15.157  65.312  1.00  0.00    -0.214 C  
HETATM    2  N   UNL     1     -10.918  15.068  66.332  1.00  0.00    -0.334 N  
HETATM    3  C   UNL     1     -11.274  16.474  66.806  1.00  0.00     0.335 C  
ENDROOT
BRANCH   2   4
HETATM    4  C   UNL     1     -12.106  14.378  65.694  1.00  0.00    -0.354 C  
BRANCH   4   5
HETATM    5  C   UNL     1     -12.177  12.860  65.855  1.00  0.00    -0.469 C  
BRANCH   5   6
HETATM    6  C   UNL     1     -11.614  12.192  64.593  1.00  0.00    -0.392 C  
BRANCH   6   7
HETATM    7  C   UNL     1     -10.779  10.928  64.870  1.00  0.00    -0.240 C  
BRANCH   7   8
HETATM    8  C   UNL     1      -9.832  11.055  66.073  1.00  0.00    -0.273 C  
BRANCH   8   9
HETATM    9  C   UNL     1     -10.528  10.472  67.303  1.00  0.00    -0.250 C  
BRANCH   9  10
HETATM   10  N   UNL     1      -9.684   9.529  68.147  1.00  0.00    -0.144 N  
HETATM   11  C   UNL     1      -8.560   8.908  67.324  1.00  0.00    -0.118 C  
HETATM   12  C   UNL     1      -9.021  10.247  69.313  1.00  0.00    -0.179 C  
BRANCH  10  13
HETATM   13  C   UNL     1     -10.668   8.386  68.695  1.00  0.00    -0.034 C  
HETATM   14  C   UNL     1     -10.524   8.100  70.203  1.00  0.00    -0.225 A  
HETATM   15  C   UNL     1     -10.127   6.760  70.407  1.00  0.00    -0.200 A  
HETATM   16  C   UNL     1     -10.082   6.075  69.138  1.00  0.00    -0.229 A  
HETATM   17  C   UNL     1      -9.873   6.267  71.679  1.00  0.00    -0.184 A  
HETATM   18  C   UNL     1     -10.416   6.979  68.104  1.00  0.00    -0.242 A  
HETATM   19  C   UNL     1     -10.024   7.125  72.768  1.00  0.00    -0.219 A  
HETATM   20  C   UNL     1     -10.454   8.445  72.577  1.00  0.00    -0.372 A  
HETATM   21  C   UNL     1     -10.516   6.517  66.795  1.00  0.00    -0.300 A  
HETATM   22  C   UNL     1     -10.229   5.172  66.527  1.00  0.00    -0.300 A  
HETATM   23  C   UNL     1     -10.728   8.933  71.296  1.00  0.00    -0.357 A  
HETATM   24  C   UNL     1      -9.890   4.289  67.558  1.00  0.00    -0.162 A  
HETATM   25  C   UNL     1      -9.823   4.735  68.877  1.00  0.00    -0.230 A  
ENDBRANCH  10  13
ENDBRANCH   9  10
ENDBRANCH   8   9
ENDBRANCH   7   8
ENDBRANCH   6   7
ENDBRANCH   5   6
ENDBRANCH   4   5
ENDBRANCH   2   4
BRANCH   2  26
HETATM   26  C   UNL     1     -10.466  14.173  67.595  1.00  0.00    -0.245 C  
HETATM   27  C   UNL     1      -7.766  15.512  69.770  1.00  0.00    -0.049 A  
HETATM   28  C   UNL     1     -11.204  14.502  68.911  1.00  0.00    -0.283 A  
HETATM   29  C   UNL     1      -6.617  15.363  69.000  1.00  0.00    -0.123 A  
HETATM   30  C   UNL     1     -10.287  15.042  69.845  1.00  0.00    -0.141 A  
HETATM   31  C   UNL     1      -8.964  15.032  69.266  1.00  0.00    -0.158 A  
HETATM   32  C   UNL     1     -10.691  15.416  71.118  1.00  0.00    -0.012 A  
HETATM   33  C   UNL     1      -6.648  14.680  67.775  1.00  0.00    -0.189 A  
HETATM   34  C   UNL     1     -12.528  14.295  69.290  1.00  0.00    -0.065 A  
HETATM   35  C   UNL     1      -9.016  14.413  67.998  1.00  0.00    -0.183 A  
HETATM   36  C   UNL     1     -12.031  15.255  71.472  1.00  0.00    -0.429 A  
HETATM   37  C   UNL     1      -7.851  14.159  67.281  1.00  0.00    -0.154 A  
HETATM   38  C   UNL     1     -12.942  14.700  70.566  1.00  0.00    -0.319 A  
ENDBRANCH   2  26
TORSDOF 9
ENDMDL
MODEL      299
REMARK 921   NORMALIZED FREE ENERGY PREDICTED BY IDOCK:   -4.18 KCAL/MOL
REMARK 922        TOTAL FREE ENERGY PREDICTED BY IDOCK:   -8.14 KCAL/MOL
REMARK 923 INTER-LIGAND FREE ENERGY PREDICTED BY IDOCK:   -7.69 KCAL/MOL
REMARK 924 INTRA-LIGAND FREE ENERGY PREDICTED BY IDOCK:   -0.45 KCAL/MOL
REMARK 927      BINDING AFFINITY PREDICTED BY RF-SCORE:    0.00 PKD
ROOT
HETATM    1  C   UNL     1     -10.350  10.351  67.867  1.00  0.00    -0.190 C  
HETATM    2  N   UNL     1      -9.618  11.688  67.915  1.00  0.00    -0.175 N  
HETATM    3  C   UNL     1     -10.535  12.737  68.537  1.00  0.00    -0.238 C  
ENDROOT
BRANCH   2   4
HETATM    4  C   UNL     1      -8.340  11.524  68.713  1.00  0.00    -0.069 C  
BRANCH   4   5
HETATM    5  C   UNL     1      -8.085  10.139  69.307  1.00  0.00    -0.149 C  
BRANCH   5   6
HETATM    6  C   UNL     1      -6.944  10.232  70.329  1.00  0.00    -0.136 C  
BRANCH   6   7
HETATM    7  C   UNL     1      -6.190   8.908  70.552  1.00  0.00    -0.042 C  
BRANCH   7   8
HETATM    8  C   UNL     1      -6.285   8.368  71.987  1.00  0.00    -0.064 C  
BRANCH   8   9
HETATM    9  C   UNL     1      -6.383   6.843  71.929  1.00  0.00    -0.048 C  
BRANCH   9  10
HETATM   10  N   UNL     1      -7.339   6.210  72.927  1.00  0.00    -0.092 N  
HETATM   11  C   UNL     1      -6.594   5.332  73.926  1.00  0.00    -0.074 C  
HETATM   12  C   UNL     1      -8.086   7.255  73.742  1.00  0.00    -0.119 C  
BRANCH  10  13
HETATM   13  C   UNL     1      -8.380   5.328  72.080  1.00  0.00    -0.125 C  
HETATM   14  C   UNL     1      -9.602   6.115  71.568  1.00  0.00    -0.172 A  
HETATM   15  C   UNL     1     -10.790   5.575  72.110  1.00  0.00    -0.293 A  
HETATM   16  C   UNL     1     -10.470   4.402  72.889  1.00  0.00    -0.253 A  
HETATM   17  C   UNL     1     -12.028   6.143  71.846  1.00  0.00    -0.278 A  
HETATM   18  C   UNL     1      -9.071   4.200  72.882  1.00  0.00    -0.126 A  
HETATM   19  C   UNL     1     -12.084   7.265  71.022  1.00  0.00    -0.361 A  
HETATM   20  C   UNL     1     -10.915   7.785  70.451  1.00  0.00    -0.255 A  
HETATM   21  C   UNL     1      -8.538   3.077  73.506  1.00  0.00    -0.073 A  
HETATM   22  C   UNL     1      -9.402   2.197  74.173  1.00  0.00    -0.092 A  
HETATM   23  C   UNL     1      -9.670   7.199  70.702  1.00  0.00    -0.175 A  
HETATM   24  C   UNL     1     -10.784   2.413  74.181  1.00  0.00    -0.232 A  
HETATM   25  C   UNL     1     -11.330   3.518  73.528  1.00  0.00    -0.222 A  
ENDBRANCH  10  13
ENDBRANCH   9  10
ENDBRANCH   8   9
ENDBRANCH   7   8
ENDBRANCH   6   7
ENDBRANCH   5   6
ENDBRANCH   4   5
ENDBRANCH   2   4
BRANCH   2  26
HETATM   26  C   UNL     1      -9.199  12.153  66.429  1.00  0.00    -0.207 C  
HETATM   27  C   UNL     1      -9.151   9.560  63.767  1.00  0.00    -0.153 A  
HETATM   28  C   UNL     1     -10.383  12.555  65.525  1.00  0.00    -0.303 A  
HETATM   29  C   UNL     1      -8.024   8.802  64.064  1.00  0.00    -0.156 A  
HETATM   30  C   UNL     1     -10.497  11.633  64.457  1.00  0.00    -0.359 A  
HETATM   31  C   UNL     1      -9.419  10.675  64.545  1.00  0.00    -0.313 A  
HETATM   32  C   UNL     1     -11.480  11.770  63.487  1.00  0.00    -0.489 A  
HETATM   33  C   UNL     1      -7.134   9.191  65.076  1.00  0.00    -0.092 A  
HETATM   34  C   UNL     1     -11.242  13.650  65.580  1.00  0.00    -0.305 A  
HETATM   35  C   UNL     1      -8.570  11.028  65.616  1.00  0.00    -0.131 A  
HETATM   36  C   UNL     1     -12.370  12.840  63.581  1.00  0.00    -0.553 A  
HETATM   37  C   UNL     1      -7.381  10.341  65.839  1.00  0.00    -0.131 A  
HETATM   38  C   UNL     1     -12.254  13.772  64.618  1.00  0.00    -0.440 A  
ENDBRANCH   2  26
TORSDOF 9
ENDMDL
MODEL      300
REMARK 921   NORMALIZED FREE ENERGY PREDICTED BY IDOCK:   -4.14 KCAL/MOL
REMARK 922        TOTAL FREE ENERGY PREDICTED BY IDOCK:   -8.09 KCAL/MOL
REMARK 923 INTER-LIGAND FREE ENERGY PREDICTED BY IDOCK:   -7.90 KCAL/MOL
REMARK 924 INTRA-LIGAND FREE ENERGY PREDICTED BY IDOCK:   -0.19 KCAL/MOL
REMARK 927      BINDING AFFINITY PREDICTED BY RF-SCORE:    0.00 PKD
ROOT
HETATM    1  C   UNL     1      -6.231   6.783  69.875  1.00  0.00    -0.034 C  
HETATM    2  N   UNL     1      -7.493   7.324  70.540  1.00  0.00    -0.081 N  
HETATM    3  C   UNL     1      -7.191   7.636  72.003  1.00  0.00    -0.070 C  
ENDROOT
BRANCH   2   4
HETATM    4  C   UNL     1      -7.955   8.558  69.792  1.00  0.00    -0.103 C  
BRANCH   4   5
HETATM    5  C   UNL     1      -7.345   8.781  68.409  1.00  0.00    -0.086 C  
BRANCH   5   6
HETATM    6  C   UNL     1      -6.483  10.050  68.436  1.00  0.00    -0.054 C  
BRANCH   6   7
HETATM    7  C   UNL     1      -7.290  11.360  68.386  1.00  0.00    -0.095 C  
BRANCH   7   8
HETATM    8  C   UNL     1      -6.451  12.622  68.640  1.00  0.00    -0.079 C  
BRANCH   8   9
HETATM    9  C   UNL     1      -6.709  13.615  67.507  1.00  0.00    -0.124 C  
BRANCH   9  10
HETATM   10  N   UNL     1      -7.047  15.032  67.942  1.00  0.00    -0.134 N  
HETATM   11  C   UNL     1      -7.146  15.135  69.461  1.00  0.00    -0.195 C  
HETATM   12  C   UNL     1      -5.984  16.030  67.509  1.00  0.00    -0.152 C  
BRANCH  10  13
HETATM   13  C   UNL     1      -8.456  15.404  67.267  1.00  0.00    -0.192 C  
HETATM   14  C   UNL     1      -8.774  16.912  67.265  1.00  0.00    -0.207 A  
HETATM   15  C   UNL     1      -9.953  17.160  68.004  1.00  0.00    -0.295 A  
HETATM   16  C   UNL     1     -10.521  15.906  68.435  1.00  0.00    -0.254 A  
HETATM   17  C   UNL     1     -10.424  18.450  68.201  1.00  0.00    -0.355 A  
HETATM   18  C   UNL     1      -9.693  14.843  68.006  1.00  0.00    -0.212 A  
HETATM   19  C   UNL     1      -9.711  19.512  67.646  1.00  0.00    -0.450 A  
HETATM   20  C   UNL     1      -8.562  19.271  66.881  1.00  0.00    -0.318 A  
HETATM   21  C   UNL     1     -10.088  13.530  68.241  1.00  0.00    -0.247 A  
HETATM   22  C   UNL     1     -11.276  13.294  68.946  1.00  0.00    -0.322 A  
HETATM   23  C   UNL     1      -8.100  17.969  66.667  1.00  0.00    -0.285 A  
HETATM   24  C   UNL     1     -12.082  14.354  69.373  1.00  0.00    -0.338 A  
HETATM   25  C   UNL     1     -11.712  15.673  69.112  1.00  0.00    -0.402 A  
ENDBRANCH  10  13
ENDBRANCH   9  10
ENDBRANCH   8   9
ENDBRANCH   7   8
ENDBRANCH   6   7
ENDBRANCH   5   6
ENDBRANCH   4   5
ENDBRANCH   2   4
BRANCH   2  26
HETATM   26  C   UNL     1      -8.682   6.239  70.455  1.00  0.00    -0.143 C  
HETATM   27  C   UNL     1     -12.174   7.512  70.499  1.00  0.00     0.032 A  
HETATM   28  C   UNL     1      -9.183   5.945  69.025  1.00  0.00    -0.132 A  
HETATM   29  C   UNL     1     -12.363   7.914  71.817  1.00  0.00    -0.352 A  
HETATM   30  C   UNL     1     -10.517   6.395  68.888  1.00  0.00    -0.264 A  
HETATM   31  C   UNL     1     -10.973   6.911  70.158  1.00  0.00    -0.322 A  
HETATM   32  C   UNL     1     -11.212   6.243  67.697  1.00  0.00    -0.225 A  
HETATM   33  C   UNL     1     -11.397   7.653  72.800  1.00  0.00    -0.419 A  
HETATM   34  C   UNL     1      -8.567   5.290  67.960  1.00  0.00    -0.103 A  
HETATM   35  C   UNL     1      -9.964   6.718  71.127  1.00  0.00    -0.194 A  
HETATM   36  C   UNL     1     -10.569   5.634  66.619  1.00  0.00    -0.361 A  
HETATM   37  C   UNL     1     -10.197   7.010  72.467  1.00  0.00    -0.207 A  
HETATM   38  C   UNL     1      -9.258   5.163  66.748  1.00  0.00    -0.123 A  
ENDBRANCH   2  26
TORSDOF 9
ENDMDL
MODEL      301
REMARK 921   NORMALIZED FREE ENERGY PREDICTED BY IDOCK:   -4.14 KCAL/MOL
REMARK 922        TOTAL FREE ENERGY PREDICTED BY IDOCK:   -8.08 KCAL/MOL
REMARK 923 INTER-LIGAND FREE ENERGY PREDICTED BY IDOCK:   -8.00 KCAL/MOL
REMARK 924 INTRA-LIGAND FREE ENERGY PREDICTED BY IDOCK:   -0.08 KCAL/MOL
REMARK 927      BINDING AFFINITY PREDICTED BY RF-SCORE:    0.00 PKD
ROOT
HETATM    1  C   UNL     1      -9.848   4.219  70.187  1.00  0.00    -0.201 C  
HETATM    2  N   UNL     1      -9.746   5.669  69.725  1.00  0.00    -0.157 N  
HETATM    3  C   UNL     1     -10.692   5.886  68.548  1.00  0.00    -0.255 C  
ENDROOT
BRANCH   2   4
HETATM    4  C   UNL     1     -10.083   6.582  70.886  1.00  0.00    -0.185 C  
BRANCH   4   5
HETATM    5  C   UNL     1     -11.287   7.505  70.695  1.00  0.00    -0.301 C  
BRANCH   5   6
HETATM    6  C   UNL     1     -11.280   8.577  71.792  1.00  0.00    -0.379 C  
BRANCH   6   7
HETATM    7  C   UNL     1     -12.531   9.475  71.802  1.00  0.00    -0.484 C  
BRANCH   7   8
HETATM    8  C   UNL     1     -12.603  10.459  70.625  1.00  0.00    -0.435 C  
BRANCH   8   9
HETATM    9  C   UNL     1     -11.200  11.004  70.358  1.00  0.00    -0.015 C  
BRANCH   9  10
HETATM   10  N   UNL     1     -10.900  11.361  68.911  1.00  0.00    -0.205 N  
HETATM   11  C   UNL     1      -9.444  11.779  68.735  1.00  0.00    -0.026 C  
HETATM   12  C   UNL     1     -11.128  10.183  67.975  1.00  0.00    -0.240 C  
BRANCH  10  13
HETATM   13  C   UNL     1     -11.878  12.572  68.517  1.00  0.00    -0.295 C  
HETATM   14  C   UNL     1     -11.770  13.015  67.045  1.00  0.00    -0.441 A  
HETATM   15  C   UNL     1     -11.353  14.363  66.973  1.00  0.00    -0.357 A  
HETATM   16  C   UNL     1     -11.261  14.907  68.307  1.00  0.00    -0.306 A  
HETATM   17  C   UNL     1     -11.125  14.985  65.754  1.00  0.00    -0.346 A  
HETATM   18  C   UNL     1     -11.583  13.903  69.248  1.00  0.00    -0.358 A  
HETATM   19  C   UNL     1     -11.322  14.252  64.585  1.00  0.00    -0.375 A  
HETATM   20  C   UNL     1     -11.770  12.926  64.646  1.00  0.00    -0.407 A  
HETATM   21  C   UNL     1     -11.638  14.223  70.600  1.00  0.00    -0.209 A  
HETATM   22  C   UNL     1     -11.320  15.527  71.002  1.00  0.00    -0.421 A  
HETATM   23  C   UNL     1     -12.019  12.307  65.875  1.00  0.00    -0.358 A  
HETATM   24  C   UNL     1     -10.992  16.510  70.062  1.00  0.00    -0.245 A  
HETATM   25  C   UNL     1     -10.969  16.207  68.701  1.00  0.00    -0.336 A  
ENDBRANCH  10  13
ENDBRANCH   9  10
ENDBRANCH   8   9
ENDBRANCH   7   8
ENDBRANCH   6   7
ENDBRANCH   5   6
ENDBRANCH   4   5
ENDBRANCH   2   4
BRANCH   2  26
HETATM   26  C   UNL     1      -8.236   6.009  69.271  1.00  0.00    -0.115 C  
HETATM   27  C   UNL     1      -5.539   5.546  71.787  1.00  0.00    -0.017 A  
HETATM   28  C   UNL     1      -7.445   4.804  68.721  1.00  0.00    -0.065 A  
HETATM   29  C   UNL     1      -5.725   6.604  72.669  1.00  0.00    -0.038 A  
HETATM   30  C   UNL     1      -6.376   4.499  69.598  1.00  0.00    -0.028 A  
HETATM   31  C   UNL     1      -6.355   5.469  70.669  1.00  0.00    -0.031 A  
HETATM   32  C   UNL     1      -5.498   3.459  69.331  1.00  0.00    -0.016 A  
HETATM   33  C   UNL     1      -6.662   7.614  72.404  1.00  0.00    -0.058 A  
HETATM   34  C   UNL     1      -7.592   4.078  67.540  1.00  0.00    -0.068 A  
HETATM   35  C   UNL     1      -7.353   6.439  70.437  1.00  0.00    -0.089 A  
HETATM   36  C   UNL     1      -5.685   2.703  68.174  1.00  0.00    -0.019 A  
HETATM   37  C   UNL     1      -7.461   7.560  71.254  1.00  0.00    -0.079 A  
HETATM   38  C   UNL     1      -6.724   3.008  67.286  1.00  0.00    -0.045 A  
ENDBRANCH   2  26
TORSDOF 9
ENDMDL
MODEL      302
REMARK 921   NORMALIZED FREE ENERGY PREDICTED BY IDOCK:   -4.13 KCAL/MOL
REMARK 922        TOTAL FREE ENERGY PREDICTED BY IDOCK:   -8.06 KCAL/MOL
REMARK 923 INTER-LIGAND FREE ENERGY PREDICTED BY IDOCK:   -6.04 KCAL/MOL
REMARK 924 INTRA-LIGAND FREE ENERGY PREDICTED BY IDOCK:   -2.02 KCAL/MOL
REMARK 927      BINDING AFFINITY PREDICTED BY RF-SCORE:    0.00 PKD
ROOT
HETATM    1  C   UNL     1     -10.085   4.678  69.175  1.00  0.00    -0.074 C  
HETATM    2  N   UNL     1      -9.383   4.389  70.498  1.00  0.00    -0.128 N  
HETATM    3  C   UNL     1      -9.695   2.957  70.927  1.00  0.00    -0.072 C  
ENDROOT
BRANCH   2   4
HETATM    4  C   UNL     1      -7.894   4.605  70.326  1.00  0.00    -0.057 C  
BRANCH   4   5
HETATM    5  C   UNL     1      -7.472   5.547  69.198  1.00  0.00    -0.078 C  
BRANCH   5   6
HETATM    6  C   UNL     1      -6.225   6.329  69.634  1.00  0.00    -0.033 C  
BRANCH   6   7
HETATM    7  C   UNL     1      -5.888   7.529  68.731  1.00  0.00    -0.023 C  
BRANCH   7   8
HETATM    8  C   UNL     1      -6.804   8.744  68.938  1.00  0.00    -0.061 C  
BRANCH   8   9
HETATM    9  C   UNL     1      -6.182   9.949  68.231  1.00  0.00    -0.050 C  
BRANCH   9  10
HETATM   10  N   UNL     1      -7.160  11.027  67.792  1.00  0.00    -0.084 N  
HETATM   11  C   UNL     1      -7.529  11.945  68.952  1.00  0.00    -0.060 C  
HETATM   12  C   UNL     1      -6.576  11.917  66.704  1.00  0.00     0.078 C  
BRANCH  10  13
HETATM   13  C   UNL     1      -8.467  10.275  67.241  1.00  0.00    -0.125 C  
HETATM   14  C   UNL     1      -8.309   9.695  65.822  1.00  0.00    -0.132 A  
HETATM   15  C   UNL     1      -9.244  10.293  64.947  1.00  0.00    -0.273 A  
HETATM   16  C   UNL     1     -10.102  11.179  65.696  1.00  0.00    -0.304 A  
HETATM   17  C   UNL     1      -9.270   9.982  63.595  1.00  0.00    -0.314 A  
HETATM   18  C   UNL     1      -9.703  11.185  67.052  1.00  0.00    -0.210 A  
HETATM   19  C   UNL     1      -8.351   9.055  63.107  1.00  0.00    -0.195 A  
HETATM   20  C   UNL     1      -7.445   8.430  63.974  1.00  0.00    -0.111 A  
HETATM   21  C   UNL     1     -10.442  11.910  67.981  1.00  0.00    -0.228 A  
HETATM   22  C   UNL     1     -11.538  12.663  67.537  1.00  0.00    -0.418 A  
HETATM   23  C   UNL     1      -7.434   8.730  65.340  1.00  0.00    -0.086 A  
HETATM   24  C   UNL     1     -11.917  12.658  66.191  1.00  0.00    -0.458 A  
HETATM   25  C   UNL     1     -11.203  11.905  65.259  1.00  0.00    -0.351 A  
ENDBRANCH  10  13
ENDBRANCH   9  10
ENDBRANCH   8   9
ENDBRANCH   7   8
ENDBRANCH   6   7
ENDBRANCH   5   6
ENDBRANCH   4   5
ENDBRANCH   2   4
BRANCH   2  26
HETATM   26  C   UNL     1      -9.887   5.412  71.638  1.00  0.00    -0.172 C  
HETATM   27  C   UNL     1      -7.301   7.367  73.456  1.00  0.00    -0.103 A  
HETATM   28  C   UNL     1     -10.125   6.856  71.144  1.00  0.00    -0.204 A  
HETATM   29  C   UNL     1      -6.699   6.428  74.285  1.00  0.00    -0.078 A  
HETATM   30  C   UNL     1      -9.188   7.724  71.753  1.00  0.00    -0.177 A  
HETATM   31  C   UNL     1      -8.378   6.968  72.680  1.00  0.00    -0.119 A  
HETATM   32  C   UNL     1      -9.188   9.086  71.488  1.00  0.00    -0.260 A  
HETATM   33  C   UNL     1      -7.208   5.125  74.395  1.00  0.00    -0.082 A  
HETATM   34  C   UNL     1     -11.100   7.381  70.299  1.00  0.00    -0.278 A  
HETATM   35  C   UNL     1      -8.847   5.637  72.728  1.00  0.00    -0.122 A  
HETATM   36  C   UNL     1     -10.134   9.596  70.599  1.00  0.00    -0.324 A  
HETATM   37  C   UNL     1      -8.322   4.729  73.643  1.00  0.00    -0.106 A  
HETATM   38  C   UNL     1     -11.081   8.752  70.008  1.00  0.00    -0.169 A  
ENDBRANCH   2  26
TORSDOF 9
ENDMDL
MODEL      303
REMARK 921   NORMALIZED FREE ENERGY PREDICTED BY IDOCK:   -4.12 KCAL/MOL
REMARK 922        TOTAL FREE ENERGY PREDICTED BY IDOCK:   -8.05 KCAL/MOL
REMARK 923 INTER-LIGAND FREE ENERGY PREDICTED BY IDOCK:   -7.75 KCAL/MOL
REMARK 924 INTRA-LIGAND FREE ENERGY PREDICTED BY IDOCK:   -0.30 KCAL/MOL
REMARK 927      BINDING AFFINITY PREDICTED BY RF-SCORE:    0.00 PKD
ROOT
HETATM    1  C   UNL     1     -10.786  15.460  65.403  1.00  0.00    -0.400 C  
HETATM    2  N   UNL     1     -10.764  14.627  66.680  1.00  0.00    -0.299 N  
HETATM    3  C   UNL     1     -12.198  14.369  67.133  1.00  0.00    -0.222 C  
ENDROOT
BRANCH   2   4
HETATM    4  C   UNL     1     -10.024  13.332  66.414  1.00  0.00    -0.288 C  
BRANCH   4   5
HETATM    5  C   UNL     1     -10.837  12.204  65.780  1.00  0.00    -0.319 C  
BRANCH   5   6
HETATM    6  C   UNL     1     -10.739  10.953  66.664  1.00  0.00    -0.289 C  
BRANCH   6   7
HETATM    7  C   UNL     1     -10.216  11.227  68.086  1.00  0.00    -0.196 C  
BRANCH   7   8
HETATM    8  C   UNL     1     -11.106  10.658  69.201  1.00  0.00    -0.309 C  
BRANCH   8   9
HETATM    9  C   UNL     1     -10.211   9.989  70.245  1.00  0.00    -0.206 C  
BRANCH   9  10
HETATM   10  N   UNL     1     -10.677   8.625  70.729  1.00  0.00    -0.208 N  
HETATM   11  C   UNL     1     -11.274   8.710  72.130  1.00  0.00    -0.367 C  
HETATM   12  C   UNL     1     -11.757   8.040  69.832  1.00  0.00     0.404 C  
BRANCH  10  13
HETATM   13  C   UNL     1      -9.389   7.667  70.732  1.00  0.00    -0.162 C  
HETATM   14  C   UNL     1      -8.734   7.488  69.349  1.00  0.00    -0.137 A  
HETATM   15  C   UNL     1      -8.771   6.128  68.966  1.00  0.00    -0.124 A  
HETATM   16  C   UNL     1      -9.325   5.343  70.043  1.00  0.00    -0.192 A  
HETATM   17  C   UNL     1      -8.294   5.711  67.732  1.00  0.00    -0.100 A  
HETATM   18  C   UNL     1      -9.680   6.196  71.113  1.00  0.00    -0.199 A  
HETATM   19  C   UNL     1      -7.764   6.666  66.865  1.00  0.00    -0.106 A  
HETATM   20  C   UNL     1      -7.689   8.010  67.252  1.00  0.00    -0.101 A  
HETATM   21  C   UNL     1     -10.162   5.647  72.296  1.00  0.00    -0.241 A  
HETATM   22  C   UNL     1     -10.334   4.259  72.380  1.00  0.00    -0.230 A  
HETATM   23  C   UNL     1      -8.152   8.426  68.504  1.00  0.00    -0.123 A  
HETATM   24  C   UNL     1      -9.988   3.425  71.311  1.00  0.00    -0.101 A  
HETATM   25  C   UNL     1      -9.470   3.964  70.133  1.00  0.00    -0.261 A  
ENDBRANCH  10  13
ENDBRANCH   9  10
ENDBRANCH   8   9
ENDBRANCH   7   8
ENDBRANCH   6   7
ENDBRANCH   5   6
ENDBRANCH   4   5
ENDBRANCH   2   4
BRANCH   2  26
HETATM   26  C   UNL     1      -9.964  15.405  67.845  1.00  0.00    -0.221 C  
HETATM   27  C   UNL     1      -6.295  15.825  67.424  1.00  0.00    -0.173 A  
HETATM   28  C   UNL     1      -9.808  16.923  67.612  1.00  0.00    -0.259 A  
HETATM   29  C   UNL     1      -5.788  14.550  67.652  1.00  0.00    -0.017 A  
HETATM   30  C   UNL     1      -8.440  17.233  67.420  1.00  0.00    -0.210 A  
HETATM   31  C   UNL     1      -7.657  16.030  67.579  1.00  0.00    -0.179 A  
HETATM   32  C   UNL     1      -8.021  18.537  67.199  1.00  0.00    -0.247 A  
HETATM   33  C   UNL     1      -6.616  13.509  68.099  1.00  0.00    -0.121 A  
HETATM   34  C   UNL     1     -10.749  17.950  67.630  1.00  0.00    -0.343 A  
HETATM   35  C   UNL     1      -8.508  14.967  67.952  1.00  0.00    -0.149 A  
HETATM   36  C   UNL     1      -8.977  19.553  67.165  1.00  0.00    -0.363 A  
HETATM   37  C   UNL     1      -7.987  13.724  68.295  1.00  0.00    -0.146 A  
HETATM   38  C   UNL     1     -10.329  19.262  67.377  1.00  0.00    -0.540 A  
ENDBRANCH   2  26
TORSDOF 9
ENDMDL
MODEL      304
REMARK 921   NORMALIZED FREE ENERGY PREDICTED BY IDOCK:   -4.11 KCAL/MOL
REMARK 922        TOTAL FREE ENERGY PREDICTED BY IDOCK:   -8.03 KCAL/MOL
REMARK 923 INTER-LIGAND FREE ENERGY PREDICTED BY IDOCK:   -8.42 KCAL/MOL
REMARK 924 INTRA-LIGAND FREE ENERGY PREDICTED BY IDOCK:    0.39 KCAL/MOL
REMARK 927      BINDING AFFINITY PREDICTED BY RF-SCORE:    0.00 PKD
ROOT
HETATM    1  C   UNL     1      -7.823   6.405  66.868  1.00  0.00    -0.104 C  
HETATM    2  N   UNL     1      -8.466   6.309  68.248  1.00  0.00    -0.115 N  
HETATM    3  C   UNL     1      -7.369   6.255  69.307  1.00  0.00    -0.092 C  
ENDROOT
BRANCH   2   4
HETATM    4  C   UNL     1      -9.378   7.501  68.452  1.00  0.00    -0.141 C  
BRANCH   4   5
HETATM    5  C   UNL     1      -9.065   8.745  67.623  1.00  0.00    -0.145 C  
BRANCH   5   6
HETATM    6  C   UNL     1     -10.357   9.258  66.973  1.00  0.00    -0.325 C  
BRANCH   6   7
HETATM    7  C   UNL     1     -10.142  10.391  65.954  1.00  0.00    -0.326 C  
BRANCH   7   8
HETATM    8  C   UNL     1     -10.604  11.771  66.446  1.00  0.00    -0.293 C  
BRANCH   8   9
HETATM    9  C   UNL     1     -11.478  11.578  67.685  1.00  0.00    -0.285 C  
BRANCH   9  10
HETATM   10  N   UNL     1     -11.042  12.351  68.920  1.00  0.00    -0.251 N  
HETATM   11  C   UNL     1     -11.264  11.534  70.190  1.00  0.00     0.080 C  
HETATM   12  C   UNL     1      -9.562  12.698  68.882  1.00  0.00     0.234 C  
BRANCH  10  13
HETATM   13  C   UNL     1     -11.920  13.694  68.965  1.00  0.00    -0.353 C  
HETATM   14  C   UNL     1     -11.162  14.957  68.509  1.00  0.00    -0.292 A  
HETATM   15  C   UNL     1     -11.102  15.894  69.565  1.00  0.00    -0.315 A  
HETATM   16  C   UNL     1     -11.857  15.397  70.690  1.00  0.00    -0.388 A  
HETATM   17  C   UNL     1     -10.422  17.095  69.427  1.00  0.00    -0.203 A  
HETATM   18  C   UNL     1     -12.378  14.120  70.379  1.00  0.00    -0.428 A  
HETATM   19  C   UNL     1      -9.794  17.370  68.213  1.00  0.00    -0.310 A  
HETATM   20  C   UNL     1      -9.880  16.462  67.149  1.00  0.00    -0.249 A  
HETATM   21  C   UNL     1     -13.210  13.479  71.291  1.00  0.00    -0.290 A  
HETATM   22  C   UNL     1     -13.469  14.095  72.523  1.00  0.00    -0.634 A  
HETATM   23  C   UNL     1     -10.583  15.261  67.284  1.00  0.00    -0.290 A  
HETATM   24  C   UNL     1     -12.940  15.354  72.823  1.00  0.00    -0.551 A  
HETATM   25  C   UNL     1     -12.133  16.020  71.901  1.00  0.00    -0.590 A  
ENDBRANCH  10  13
ENDBRANCH   9  10
ENDBRANCH   8   9
ENDBRANCH   7   8
ENDBRANCH   6   7
ENDBRANCH   5   6
ENDBRANCH   4   5
ENDBRANCH   2   4
BRANCH   2  26
HETATM   26  C   UNL     1      -9.379   4.984  68.351  1.00  0.00    -0.126 C  
HETATM   27  C   UNL     1      -8.801   2.300  65.844  1.00  0.00    -0.124 A  
HETATM   28  C   UNL     1      -8.763   3.844  69.190  1.00  0.00    -0.127 A  
HETATM   29  C   UNL     1      -9.339   2.822  64.673  1.00  0.00    -0.147 A  
HETATM   30  C   UNL     1      -8.473   2.741  68.351  1.00  0.00    -0.097 A  
HETATM   31  C   UNL     1      -8.922   3.039  67.011  1.00  0.00    -0.176 A  
HETATM   32  C   UNL     1      -7.919   1.575  68.858  1.00  0.00    -0.054 A  
HETATM   33  C   UNL     1     -10.052   4.030  64.676  1.00  0.00    -0.215 A  
HETATM   34  C   UNL     1      -8.533   3.742  70.561  1.00  0.00    -0.100 A  
HETATM   35  C   UNL     1      -9.569   4.294  67.005  1.00  0.00    -0.227 A  
HETATM   36  C   UNL     1      -7.642   1.502  70.223  1.00  0.00    -0.036 A  
HETATM   37  C   UNL     1     -10.210   4.760  65.862  1.00  0.00    -0.286 A  
HETATM   38  C   UNL     1      -7.945   2.576  71.068  1.00  0.00    -0.054 A  
ENDBRANCH   2  26
TORSDOF 9
ENDMDL
MODEL      305
REMARK 921   NORMALIZED FREE ENERGY PREDICTED BY IDOCK:   -4.10 KCAL/MOL
REMARK 922        TOTAL FREE ENERGY PREDICTED BY IDOCK:   -8.02 KCAL/MOL
REMARK 923 INTER-LIGAND FREE ENERGY PREDICTED BY IDOCK:   -8.26 KCAL/MOL
REMARK 924 INTRA-LIGAND FREE ENERGY PREDICTED BY IDOCK:    0.24 KCAL/MOL
REMARK 927      BINDING AFFINITY PREDICTED BY RF-SCORE:    0.00 PKD
ROOT
HETATM    1  C   UNL     1     -10.181  11.042  68.856  1.00  0.00    -0.203 C  
HETATM    2  N   UNL     1      -9.478  10.972  67.505  1.00  0.00    -0.163 N  
HETATM    3  C   UNL     1      -8.056  10.455  67.709  1.00  0.00    -0.103 C  
ENDROOT
BRANCH   2   4
HETATM    4  C   UNL     1     -10.270  10.070  66.581  1.00  0.00    -0.223 C  
BRANCH   4   5
HETATM    5  C   UNL     1      -9.548   8.826  66.064  1.00  0.00    -0.297 C  
BRANCH   5   6
HETATM    6  C   UNL     1     -10.087   7.589  66.795  1.00  0.00    -0.313 C  
BRANCH   6   7
HETATM    7  C   UNL     1      -9.479   6.259  66.313  1.00  0.00    -0.135 C  
BRANCH   7   8
HETATM    8  C   UNL     1      -9.129   5.284  67.447  1.00  0.00    -0.112 C  
BRANCH   8   9
HETATM    9  C   UNL     1      -9.122   6.055  68.767  1.00  0.00    -0.124 C  
BRANCH   9  10
HETATM   10  N   UNL     1      -7.857   5.918  69.599  1.00  0.00    -0.096 N  
HETATM   11  C   UNL     1      -7.079   4.662  69.219  1.00  0.00    -0.052 C  
HETATM   12  C   UNL     1      -6.911   7.091  69.395  1.00  0.00    -0.054 C  
BRANCH  10  13
HETATM   13  C   UNL     1      -8.314   5.843  71.136  1.00  0.00    -0.124 C  
HETATM   14  C   UNL     1      -9.621   6.600  71.442  1.00  0.00    -0.174 A  
HETATM   15  C   UNL     1      -9.379   7.628  72.380  1.00  0.00    -0.211 A  
HETATM   16  C   UNL     1      -8.004   7.566  72.814  1.00  0.00    -0.125 A  
HETATM   17  C   UNL     1     -10.386   8.494  72.780  1.00  0.00    -0.123 A  
HETATM   18  C   UNL     1      -7.343   6.518  72.132  1.00  0.00    -0.091 A  
HETATM   19  C   UNL     1     -11.661   8.328  72.239  1.00  0.00    -0.449 A  
HETATM   20  C   UNL     1     -11.918   7.288  71.337  1.00  0.00    -0.354 A  
HETATM   21  C   UNL     1      -6.023   6.219  72.451  1.00  0.00    -0.038 A  
HETATM   22  C   UNL     1      -5.362   7.001  73.408  1.00  0.00    -0.042 A  
HETATM   23  C   UNL     1     -10.906   6.405  70.950  1.00  0.00    -0.316 A  
HETATM   24  C   UNL     1      -6.023   8.041  74.069  1.00  0.00    -0.087 A  
HETATM   25  C   UNL     1      -7.358   8.326  73.781  1.00  0.00    -0.185 A  
ENDBRANCH  10  13
ENDBRANCH   9  10
ENDBRANCH   8   9
ENDBRANCH   7   8
ENDBRANCH   6   7
ENDBRANCH   5   6
ENDBRANCH   4   5
ENDBRANCH   2   4
BRANCH   2  26
HETATM   26  C   UNL     1      -9.426  12.431  66.821  1.00  0.00    -0.228 C  
HETATM   27  C   UNL     1     -12.335  13.461  64.750  1.00  0.00    -0.444 A  
HETATM   28  C   UNL     1     -10.075  13.555  67.658  1.00  0.00    -0.229 A  
HETATM   29  C   UNL     1     -12.207  12.696  63.596  1.00  0.00    -0.624 A  
HETATM   30  C   UNL     1     -11.222  14.042  66.987  1.00  0.00    -0.325 A  
HETATM   31  C   UNL     1     -11.348  13.366  65.717  1.00  0.00    -0.322 A  
HETATM   32  C   UNL     1     -11.988  15.068  67.521  1.00  0.00    -0.078 A  
HETATM   33  C   UNL     1     -11.072  11.901  63.375  1.00  0.00    -0.463 A  
HETATM   34  C   UNL     1      -9.675  14.147  68.854  1.00  0.00    -0.084 A  
HETATM   35  C   UNL     1     -10.242  12.508  65.536  1.00  0.00    -0.295 A  
HETATM   36  C   UNL     1     -11.612  15.619  68.747  1.00  0.00    -0.393 A  
HETATM   37  C   UNL     1     -10.052  11.833  64.334  1.00  0.00    -0.319 A  
HETATM   38  C   UNL     1     -10.466  15.162  69.408  1.00  0.00    -0.259 A  
ENDBRANCH   2  26
TORSDOF 9
ENDMDL
MODEL      306
REMARK 921   NORMALIZED FREE ENERGY PREDICTED BY IDOCK:   -4.10 KCAL/MOL
REMARK 922        TOTAL FREE ENERGY PREDICTED BY IDOCK:   -8.02 KCAL/MOL
REMARK 923 INTER-LIGAND FREE ENERGY PREDICTED BY IDOCK:   -7.87 KCAL/MOL
REMARK 924 INTRA-LIGAND FREE ENERGY PREDICTED BY IDOCK:   -0.14 KCAL/MOL
REMARK 927      BINDING AFFINITY PREDICTED BY RF-SCORE:    0.00 PKD
ROOT
HETATM    1  C   UNL     1     -11.540  15.759  64.647  1.00  0.00    -0.218 C  
HETATM    2  N   UNL     1     -10.731  15.136  65.780  1.00  0.00    -0.333 N  
HETATM    3  C   UNL     1     -11.590  15.089  67.040  1.00  0.00    -0.240 C  
ENDROOT
BRANCH   2   4
HETATM    4  C   UNL     1     -10.281  13.751  65.362  1.00  0.00    -0.326 C  
BRANCH   4   5
HETATM    5  C   UNL     1     -10.912  12.578  66.112  1.00  0.00    -0.318 C  
BRANCH   5   6
HETATM    6  C   UNL     1     -10.055  11.323  65.900  1.00  0.00    -0.291 C  
BRANCH   6   7
HETATM    7  C   UNL     1     -10.495  10.111  66.741  1.00  0.00    -0.270 C  
BRANCH   7   8
HETATM    8  C   UNL     1      -9.503   9.724  67.847  1.00  0.00    -0.146 C  
BRANCH   8   9
HETATM    9  C   UNL     1     -10.295   9.299  69.085  1.00  0.00    -0.211 C  
BRANCH   9  10
HETATM   10  N   UNL     1     -10.322   7.805  69.363  1.00  0.00    -0.215 N  
HETATM   11  C   UNL     1     -10.865   7.512  70.758  1.00  0.00    -0.242 C  
HETATM   12  C   UNL     1     -11.217   7.059  68.385  1.00  0.00     0.099 C  
BRANCH  10  13
HETATM   13  C   UNL     1      -8.811   7.279  69.235  1.00  0.00    -0.136 C  
HETATM   14  C   UNL     1      -8.689   5.756  69.032  1.00  0.00    -0.112 A  
HETATM   15  C   UNL     1      -7.969   5.179  70.102  1.00  0.00    -0.079 A  
HETATM   16  C   UNL     1      -7.502   6.223  70.982  1.00  0.00    -0.085 A  
HETATM   17  C   UNL     1      -7.771   3.808  70.184  1.00  0.00    -0.048 A  
HETATM   18  C   UNL     1      -7.948   7.476  70.503  1.00  0.00    -0.098 A  
HETATM   19  C   UNL     1      -8.294   2.998  69.178  1.00  0.00    -0.086 A  
HETATM   20  C   UNL     1      -8.977   3.565  68.094  1.00  0.00    -0.176 A  
HETATM   21  C   UNL     1      -7.548   8.640  71.152  1.00  0.00    -0.120 A  
HETATM   22  C   UNL     1      -6.752   8.536  72.301  1.00  0.00    -0.092 A  
HETATM   23  C   UNL     1      -9.159   4.948  68.003  1.00  0.00    -0.131 A  
HETATM   24  C   UNL     1      -6.325   7.290  72.771  1.00  0.00    -0.055 A  
HETATM   25  C   UNL     1      -6.692   6.120  72.106  1.00  0.00    -0.068 A  
ENDBRANCH  10  13
ENDBRANCH   9  10
ENDBRANCH   8   9
ENDBRANCH   7   8
ENDBRANCH   6   7
ENDBRANCH   5   6
ENDBRANCH   4   5
ENDBRANCH   2   4
BRANCH   2  26
HETATM   26  C   UNL     1      -9.403  16.004  66.067  1.00  0.00    -0.345 C  
HETATM   27  C   UNL     1      -9.600  18.624  68.697  1.00  0.00    -0.407 A  
HETATM   28  C   UNL     1      -8.501  15.446  67.188  1.00  0.00    -0.241 A  
HETATM   29  C   UNL     1     -10.369  19.623  68.111  1.00  0.00    -0.561 A  
HETATM   30  C   UNL     1      -8.490  16.347  68.279  1.00  0.00    -0.195 A  
HETATM   31  C   UNL     1      -9.272  17.512  67.936  1.00  0.00    -0.265 A  
HETATM   32  C   UNL     1      -7.745  16.090  69.421  1.00  0.00    -0.173 A  
HETATM   33  C   UNL     1     -10.746  19.551  66.762  1.00  0.00    -0.569 A  
HETATM   34  C   UNL     1      -7.711  14.300  67.237  1.00  0.00    -0.145 A  
HETATM   35  C   UNL     1      -9.716  17.398  66.601  1.00  0.00    -0.296 A  
HETATM   36  C   UNL     1      -6.999  14.912  69.483  1.00  0.00    -0.180 A  
HETATM   37  C   UNL     1     -10.383  18.448  65.978  1.00  0.00    -0.397 A  
HETATM   38  C   UNL     1      -6.982  14.024  68.402  1.00  0.00    -0.100 A  
ENDBRANCH   2  26
TORSDOF 9
ENDMDL
MODEL      307
REMARK 921   NORMALIZED FREE ENERGY PREDICTED BY IDOCK:   -4.05 KCAL/MOL
REMARK 922        TOTAL FREE ENERGY PREDICTED BY IDOCK:   -7.95 KCAL/MOL
REMARK 923 INTER-LIGAND FREE ENERGY PREDICTED BY IDOCK:   -7.54 KCAL/MOL
REMARK 924 INTRA-LIGAND FREE ENERGY PREDICTED BY IDOCK:   -0.41 KCAL/MOL
REMARK 927      BINDING AFFINITY PREDICTED BY RF-SCORE:    0.00 PKD
ROOT
HETATM    1  C   UNL     1     -10.219   7.376  73.288  1.00  0.00    -0.335 C  
HETATM    2  N   UNL     1     -10.635   7.636  71.844  1.00  0.00    -0.213 N  
HETATM    3  C   UNL     1     -11.858   6.783  71.516  1.00  0.00    -0.333 C  
ENDROOT
BRANCH   2   4
HETATM    4  C   UNL     1     -10.925   9.112  71.670  1.00  0.00    -0.374 C  
BRANCH   4   5
HETATM    5  C   UNL     1     -12.349   9.480  71.256  1.00  0.00    -0.430 C  
BRANCH   5   6
HETATM    6  C   UNL     1     -12.559  10.987  71.453  1.00  0.00    -0.498 C  
BRANCH   6   7
HETATM    7  C   UNL     1     -12.651  11.787  70.141  1.00  0.00    -0.068 C  
BRANCH   7   8
HETATM    8  C   UNL     1     -11.290  12.080  69.490  1.00  0.00    -0.298 C  
BRANCH   8   9
HETATM    9  C   UNL     1     -11.491  12.217  67.981  1.00  0.00    -0.321 C  
BRANCH   9  10
HETATM   10  N   UNL     1     -11.247  13.606  67.412  1.00  0.00    -0.292 N  
HETATM   11  C   UNL     1     -12.377  14.028  66.479  1.00  0.00    -0.404 C  
HETATM   12  C   UNL     1     -11.167  14.663  68.503  1.00  0.00    -0.271 C  
BRANCH  10  13
HETATM   13  C   UNL     1      -9.858  13.543  66.608  1.00  0.00    -0.279 C  
HETATM   14  C   UNL     1      -9.835  12.502  65.472  1.00  0.00    -0.197 A  
HETATM   15  C   UNL     1      -8.833  11.537  65.717  1.00  0.00    -0.060 A  
HETATM   16  C   UNL     1      -8.098  11.901  66.905  1.00  0.00    -0.146 A  
HETATM   17  C   UNL     1      -8.646  10.456  64.867  1.00  0.00    -0.190 A  
HETATM   18  C   UNL     1      -8.645  13.085  67.451  1.00  0.00    -0.199 A  
HETATM   19  C   UNL     1      -9.469  10.339  63.748  1.00  0.00    -0.352 A  
HETATM   20  C   UNL     1     -10.440  11.312  63.477  1.00  0.00    -0.457 A  
HETATM   21  C   UNL     1      -8.042  13.670  68.559  1.00  0.00    -0.118 A  
HETATM   22  C   UNL     1      -6.934  13.039  69.141  1.00  0.00    -0.020 A  
HETATM   23  C   UNL     1     -10.614  12.410  64.324  1.00  0.00    -0.391 A  
HETATM   24  C   UNL     1      -6.408  11.862  68.598  1.00  0.00    -0.058 A  
HETATM   25  C   UNL     1      -6.984  11.288  67.465  1.00  0.00    -0.091 A  
ENDBRANCH  10  13
ENDBRANCH   9  10
ENDBRANCH   8   9
ENDBRANCH   7   8
ENDBRANCH   6   7
ENDBRANCH   5   6
ENDBRANCH   4   5
ENDBRANCH   2   4
BRANCH   2  26
HETATM   26  C   UNL     1      -9.433   7.261  70.836  1.00  0.00    -0.159 C  
HETATM   27  C   UNL     1      -6.231   6.113  72.334  1.00  0.00    -0.049 A  
HETATM   28  C   UNL     1      -9.371   5.772  70.436  1.00  0.00    -0.186 A  
HETATM   29  C   UNL     1      -5.684   7.272  72.875  1.00  0.00    -0.041 A  
HETATM   30  C   UNL     1      -8.191   5.190  70.958  1.00  0.00    -0.111 A  
HETATM   31  C   UNL     1      -7.418   6.212  71.625  1.00  0.00    -0.094 A  
HETATM   32  C   UNL     1      -7.884   3.856  70.735  1.00  0.00    -0.051 A  
HETATM   33  C   UNL     1      -6.274   8.525  72.649  1.00  0.00    -0.087 A  
HETATM   34  C   UNL     1     -10.220   5.005  69.641  1.00  0.00    -0.306 A  
HETATM   35  C   UNL     1      -8.057   7.460  71.462  1.00  0.00    -0.100 A  
HETATM   36  C   UNL     1      -8.768   3.081  69.983  1.00  0.00    -0.129 A  
HETATM   37  C   UNL     1      -7.452   8.634  71.899  1.00  0.00    -0.099 A  
HETATM   38  C   UNL     1      -9.927   3.649  69.442  1.00  0.00     0.266 A  
ENDBRANCH   2  26
TORSDOF 9
ENDMDL
MODEL      308
REMARK 921   NORMALIZED FREE ENERGY PREDICTED BY IDOCK:   -4.05 KCAL/MOL
REMARK 922        TOTAL FREE ENERGY PREDICTED BY IDOCK:   -7.94 KCAL/MOL
REMARK 923 INTER-LIGAND FREE ENERGY PREDICTED BY IDOCK:   -7.91 KCAL/MOL
REMARK 924 INTRA-LIGAND FREE ENERGY PREDICTED BY IDOCK:   -0.03 KCAL/MOL
REMARK 927      BINDING AFFINITY PREDICTED BY RF-SCORE:    0.00 PKD
ROOT
HETATM    1  C   UNL     1      -9.957  18.633  66.722  1.00  0.00    -0.352 C  
HETATM    2  N   UNL     1      -9.483  17.474  67.592  1.00  0.00    -0.253 N  
HETATM    3  C   UNL     1      -9.825  17.771  69.049  1.00  0.00    -0.225 C  
ENDROOT
BRANCH   2   4
HETATM    4  C   UNL     1     -10.141  16.195  67.117  1.00  0.00    -0.269 C  
BRANCH   4   5
HETATM    5  C   UNL     1     -10.865  15.370  68.179  1.00  0.00    -0.285 C  
BRANCH   5   6
HETATM    6  C   UNL     1     -10.633  13.878  67.904  1.00  0.00    -0.248 C  
BRANCH   6   7
HETATM    7  C   UNL     1      -9.910  13.589  66.576  1.00  0.00    -0.292 C  
BRANCH   7   8
HETATM    8  C   UNL     1      -9.320  12.173  66.480  1.00  0.00    -0.229 C  
BRANCH   8   9
HETATM    9  C   UNL     1     -10.454  11.161  66.650  1.00  0.00    -0.250 C  
BRANCH   9  10
HETATM   10  N   UNL     1     -10.292  10.185  67.804  1.00  0.00    -0.195 N  
HETATM   11  C   UNL     1      -8.955  10.381  68.511  1.00  0.00    -0.139 C  
HETATM   12  C   UNL     1     -11.371  10.368  68.861  1.00  0.00    -0.219 C  
BRANCH  10  13
HETATM   13  C   UNL     1     -10.379   8.708  67.181  1.00  0.00    -0.299 C  
HETATM   14  C   UNL     1     -10.450   7.584  68.234  1.00  0.00    -0.223 A  
HETATM   15  C   UNL     1      -9.336   6.724  68.102  1.00  0.00    -0.122 A  
HETATM   16  C   UNL     1      -8.551   7.130  66.962  1.00  0.00    -0.122 A  
HETATM   17  C   UNL     1      -9.137   5.662  68.972  1.00  0.00    -0.124 A  
HETATM   18  C   UNL     1      -9.135   8.274  66.372  1.00  0.00    -0.226 A  
HETATM   19  C   UNL     1     -10.068   5.448  69.987  1.00  0.00    -0.324 A  
HETATM   20  C   UNL     1     -11.195   6.273  70.101  1.00  0.00    -0.470 A  
HETATM   21  C   UNL     1      -8.590   8.796  65.203  1.00  0.00    -0.209 A  
HETATM   22  C   UNL     1      -7.439   8.203  64.667  1.00  0.00    -0.096 A  
HETATM   23  C   UNL     1     -11.404   7.331  69.212  1.00  0.00     0.117 A  
HETATM   24  C   UNL     1      -6.864   7.076  65.266  1.00  0.00    -0.051 A  
HETATM   25  C   UNL     1      -7.425   6.525  66.417  1.00  0.00    -0.085 A  
ENDBRANCH  10  13
ENDBRANCH   9  10
ENDBRANCH   8   9
ENDBRANCH   7   8
ENDBRANCH   6   7
ENDBRANCH   5   6
ENDBRANCH   4   5
ENDBRANCH   2   4
BRANCH   2  26
HETATM   26  C   UNL     1      -7.889  17.276  67.445  1.00  0.00    -0.180 C  
HETATM   27  C   UNL     1      -5.713  18.930  69.964  1.00  0.00    -0.262 A  
HETATM   28  C   UNL     1      -7.313  16.089  68.246  1.00  0.00    -0.129 A  
HETATM   29  C   UNL     1      -5.778  20.277  69.624  1.00  0.00    -0.354 A  
HETATM   30  C   UNL     1      -6.461  16.576  69.266  1.00  0.00    -0.201 A  
HETATM   31  C   UNL     1      -6.371  18.014  69.158  1.00  0.00    -0.246 A  
HETATM   32  C   UNL     1      -5.803  15.713  70.130  1.00  0.00    -0.152 A  
HETATM   33  C   UNL     1      -6.431  20.699  68.455  1.00  0.00    -0.279 A  
HETATM   34  C   UNL     1      -7.458  14.715  68.071  1.00  0.00    -0.137 A  
HETATM   35  C   UNL     1      -7.095  18.441  68.025  1.00  0.00    -0.237 A  
HETATM   36  C   UNL     1      -5.996  14.339  69.982  1.00  0.00    -0.141 A  
HETATM   37  C   UNL     1      -7.064  19.771  67.618  1.00  0.00    -0.287 A  
HETATM   38  C   UNL     1      -6.817  13.844  68.962  1.00  0.00    -0.111 A  
ENDBRANCH   2  26
TORSDOF 9
ENDMDL
MODEL      309
REMARK 921   NORMALIZED FREE ENERGY PREDICTED BY IDOCK:   -4.04 KCAL/MOL
REMARK 922        TOTAL FREE ENERGY PREDICTED BY IDOCK:   -7.93 KCAL/MOL
REMARK 923 INTER-LIGAND FREE ENERGY PREDICTED BY IDOCK:   -7.52 KCAL/MOL
REMARK 924 INTRA-LIGAND FREE ENERGY PREDICTED BY IDOCK:   -0.40 KCAL/MOL
REMARK 927      BINDING AFFINITY PREDICTED BY RF-SCORE:    0.00 PKD
ROOT
HETATM    1  C   UNL     1      -9.826   8.441  72.306  1.00  0.00    -0.313 C  
HETATM    2  N   UNL     1      -9.887   8.280  70.791  1.00  0.00    -0.177 N  
HETATM    3  C   UNL     1     -11.331   8.010  70.376  1.00  0.00    -0.187 C  
ENDROOT
BRANCH   2   4
HETATM    4  C   UNL     1      -9.346   9.534  70.138  1.00  0.00    -0.247 C  
BRANCH   4   5
HETATM    5  C   UNL     1      -7.866   9.836  70.372  1.00  0.00    -0.144 C  
BRANCH   5   6
HETATM    6  C   UNL     1      -7.167  10.015  69.018  1.00  0.00    -0.076 C  
BRANCH   6   7
HETATM    7  C   UNL     1      -7.564  11.301  68.269  1.00  0.00    -0.114 C  
BRANCH   7   8
HETATM    8  C   UNL     1      -6.636  12.494  68.540  1.00  0.00    -0.077 C  
BRANCH   8   9
HETATM    9  C   UNL     1      -6.882  13.555  67.467  1.00  0.00    -0.143 C  
BRANCH   9  10
HETATM   10  N   UNL     1      -7.112  14.967  67.983  1.00  0.00    -0.121 N  
HETATM   11  C   UNL     1      -7.123  15.003  69.507  1.00  0.00    -0.192 C  
HETATM   12  C   UNL     1      -6.017  15.923  67.535  1.00  0.00    -0.133 C  
BRANCH  10  13
HETATM   13  C   UNL     1      -8.531  15.449  67.406  1.00  0.00    -0.181 C  
HETATM   14  C   UNL     1      -8.764  16.970  67.497  1.00  0.00    -0.215 A  
HETATM   15  C   UNL     1      -9.886  17.241  68.311  1.00  0.00    -0.304 A  
HETATM   16  C   UNL     1     -10.501  15.998  68.708  1.00  0.00    -0.248 A  
HETATM   17  C   UNL     1     -10.273  18.543  68.598  1.00  0.00    -0.363 A  
HETATM   18  C   UNL     1      -9.758  14.917  68.182  1.00  0.00    -0.214 A  
HETATM   19  C   UNL     1      -9.531  19.592  68.059  1.00  0.00    -0.446 A  
HETATM   20  C   UNL     1      -8.439  19.332  67.221  1.00  0.00    -0.314 A  
HETATM   21  C   UNL     1     -10.213  13.616  68.371  1.00  0.00    -0.245 A  
HETATM   22  C   UNL     1     -11.375  13.407  69.127  1.00  0.00    -0.333 A  
HETATM   23  C   UNL     1      -8.063  18.020  66.917  1.00  0.00    -0.255 A  
HETATM   24  C   UNL     1     -12.096  14.484  69.651  1.00  0.00    -0.369 A  
HETATM   25  C   UNL     1     -11.667  15.793  69.436  1.00  0.00    -0.379 A  
ENDBRANCH  10  13
ENDBRANCH   9  10
ENDBRANCH   8   9
ENDBRANCH   7   8
ENDBRANCH   6   7
ENDBRANCH   5   6
ENDBRANCH   4   5
ENDBRANCH   2   4
BRANCH   2  26
HETATM   26  C   UNL     1      -8.954   7.052  70.319  1.00  0.00    -0.149 C  
HETATM   27  C   UNL     1     -10.249   3.608  70.847  1.00  0.00     0.297 A  
HETATM   28  C   UNL     1      -9.227   6.554  68.883  1.00  0.00    -0.129 A  
HETATM   29  C   UNL     1     -10.142   3.422  72.221  1.00  0.00    -0.219 A  
HETATM   30  C   UNL     1      -9.745   5.238  68.930  1.00  0.00    -0.207 A  
HETATM   31  C   UNL     1      -9.772   4.790  70.303  1.00  0.00    -0.296 A  
HETATM   32  C   UNL     1     -10.069   4.548  67.770  1.00  0.00    -0.060 A  
HETATM   33  C   UNL     1      -9.502   4.370  73.034  1.00  0.00    -0.150 A  
HETATM   34  C   UNL     1      -8.990   7.155  67.649  1.00  0.00    -0.125 A  
HETATM   35  C   UNL     1      -9.198   5.783  71.127  1.00  0.00    -0.168 A  
HETATM   36  C   UNL     1      -9.879   5.178  66.540  1.00  0.00    -0.210 A  
HETATM   37  C   UNL     1      -8.983   5.549  72.481  1.00  0.00    -0.134 A  
HETATM   38  C   UNL     1      -9.345   6.470  66.479  1.00  0.00    -0.188 A  
ENDBRANCH   2  26
TORSDOF 9
ENDMDL
MODEL      310
REMARK 921   NORMALIZED FREE ENERGY PREDICTED BY IDOCK:   -4.04 KCAL/MOL
REMARK 922        TOTAL FREE ENERGY PREDICTED BY IDOCK:   -7.92 KCAL/MOL
REMARK 923 INTER-LIGAND FREE ENERGY PREDICTED BY IDOCK:   -6.86 KCAL/MOL
REMARK 924 INTRA-LIGAND FREE ENERGY PREDICTED BY IDOCK:   -1.06 KCAL/MOL
REMARK 927      BINDING AFFINITY PREDICTED BY RF-SCORE:    0.00 PKD
ROOT
HETATM    1  C   UNL     1      -5.356   6.949  67.909  1.00  0.00    -0.015 C  
HETATM    2  N   UNL     1      -6.286   7.691  68.863  1.00  0.00    -0.035 N  
HETATM    3  C   UNL     1      -5.496   8.125  70.094  1.00  0.00    -0.022 C  
ENDROOT
BRANCH   2   4
HETATM    4  C   UNL     1      -6.889   8.878  68.142  1.00  0.00    -0.069 C  
BRANCH   4   5
HETATM    5  C   UNL     1      -6.209   9.297  66.839  1.00  0.00    -0.065 C  
BRANCH   5   6
HETATM    6  C   UNL     1      -7.219  10.052  65.964  1.00  0.00    -0.112 C  
BRANCH   6   7
HETATM    7  C   UNL     1      -8.523   9.278  65.697  1.00  0.00    -0.149 C  
BRANCH   7   8
HETATM    8  C   UNL     1      -9.396   9.886  64.588  1.00  0.00    -0.338 C  
BRANCH   8   9
HETATM    9  C   UNL     1      -9.614  11.367  64.898  1.00  0.00    -0.215 C  
BRANCH   9  10
HETATM   10  N   UNL     1     -10.797  11.680  65.800  1.00  0.00    -0.284 N  
HETATM   11  C   UNL     1     -11.914  12.373  65.026  1.00  0.00    -0.402 C  
HETATM   12  C   UNL     1     -11.404  10.421  66.401  1.00  0.00     0.684 C  
BRANCH  10  13
HETATM   13  C   UNL     1     -10.253  12.638  66.968  1.00  0.00    -0.226 C  
HETATM   14  C   UNL     1     -11.077  12.574  68.269  1.00  0.00    -0.294 A  
HETATM   15  C   UNL     1     -11.627  13.843  68.558  1.00  0.00    -0.367 A  
HETATM   16  C   UNL     1     -11.154  14.802  67.589  1.00  0.00    -0.311 A  
HETATM   17  C   UNL     1     -12.459  14.038  69.651  1.00  0.00    -0.204 A  
HETATM   18  C   UNL     1     -10.324  14.150  66.648  1.00  0.00    -0.277 A  
HETATM   19  C   UNL     1     -12.743  12.950  70.475  1.00  0.00    -0.090 A  
HETATM   20  C   UNL     1     -12.172  11.697  70.216  1.00  0.00    -0.401 A  
HETATM   21  C   UNL     1      -9.688  14.896  65.662  1.00  0.00    -0.326 A  
HETATM   22  C   UNL     1      -9.929  16.275  65.593  1.00  0.00    -0.306 A  
HETATM   23  C   UNL     1     -11.318  11.507  69.126  1.00  0.00    -0.351 A  
HETATM   24  C   UNL     1     -10.759  16.908  66.523  1.00  0.00    -0.087 A  
HETATM   25  C   UNL     1     -11.374  16.173  67.537  1.00  0.00     0.002 A  
ENDBRANCH  10  13
ENDBRANCH   9  10
ENDBRANCH   8   9
ENDBRANCH   7   8
ENDBRANCH   6   7
ENDBRANCH   5   6
ENDBRANCH   4   5
ENDBRANCH   2   4
BRANCH   2  26
HETATM   26  C   UNL     1      -7.504   6.736  69.316  1.00  0.00    -0.095 C  
HETATM   27  C   UNL     1     -10.706   8.370  70.263  1.00  0.00    -0.240 A  
HETATM   28  C   UNL     1      -8.459   6.329  68.174  1.00  0.00    -0.114 A  
HETATM   29  C   UNL     1     -10.431   8.943  71.500  1.00  0.00    -0.393 A  
HETATM   30  C   UNL     1      -9.735   6.900  68.397  1.00  0.00    -0.137 A  
HETATM   31  C   UNL     1      -9.720   7.608  69.656  1.00  0.00    -0.171 A  
HETATM   32  C   UNL     1     -10.787   6.682  67.520  1.00  0.00    -0.417 A  
HETATM   33  C   UNL     1      -9.216   8.700  72.158  1.00  0.00    -0.326 A  
HETATM   34  C   UNL     1      -8.265   5.490  67.078  1.00  0.00    -0.105 A  
HETATM   35  C   UNL     1      -8.466   7.425  70.277  1.00  0.00    -0.136 A  
HETATM   36  C   UNL     1     -10.569   5.884  66.395  1.00  0.00    -0.180 A  
HETATM   37  C   UNL     1      -8.232   7.898  71.565  1.00  0.00    -0.122 A  
HETATM   38  C   UNL     1      -9.319   5.295  66.175  1.00  0.00    -0.164 A  
ENDBRANCH   2  26
TORSDOF 9
ENDMDL
MODEL      311
REMARK 921   NORMALIZED FREE ENERGY PREDICTED BY IDOCK:   -4.03 KCAL/MOL
REMARK 922        TOTAL FREE ENERGY PREDICTED BY IDOCK:   -7.92 KCAL/MOL
REMARK 923 INTER-LIGAND FREE ENERGY PREDICTED BY IDOCK:   -8.04 KCAL/MOL
REMARK 924 INTRA-LIGAND FREE ENERGY PREDICTED BY IDOCK:    0.12 KCAL/MOL
REMARK 927      BINDING AFFINITY PREDICTED BY RF-SCORE:    0.00 PKD
ROOT
HETATM    1  C   UNL     1      -8.969  12.654  67.656  1.00  0.00    -0.186 C  
HETATM    2  N   UNL     1      -8.303  11.326  67.311  1.00  0.00    -0.140 N  
HETATM    3  C   UNL     1      -7.111  11.589  66.395  1.00  0.00     0.064 C  
ENDROOT
BRANCH   2   4
HETATM    4  C   UNL     1      -7.879  10.638  68.591  1.00  0.00    -0.121 C  
BRANCH   4   5
HETATM    5  C   UNL     1      -6.425  10.836  69.019  1.00  0.00    -0.054 C  
BRANCH   5   6
HETATM    6  C   UNL     1      -5.910   9.545  69.669  1.00  0.00    -0.033 C  
BRANCH   6   7
HETATM    7  C   UNL     1      -5.694   9.650  71.190  1.00  0.00    -0.075 C  
BRANCH   7   8
HETATM    8  C   UNL     1      -5.712   8.298  71.920  1.00  0.00    -0.039 C  
BRANCH   8   9
HETATM    9  C   UNL     1      -7.047   8.158  72.651  1.00  0.00    -0.097 C  
BRANCH   9  10
HETATM   10  N   UNL     1      -7.801   6.862  72.394  1.00  0.00    -0.096 N  
HETATM   11  C   UNL     1      -8.129   6.698  70.913  1.00  0.00    -0.119 C  
HETATM   12  C   UNL     1      -6.988   5.641  72.795  1.00  0.00    -0.080 C  
BRANCH  10  13
HETATM   13  C   UNL     1      -9.152   6.929  73.258  1.00  0.00    -0.135 C  
HETATM   14  C   UNL     1      -9.732   5.550  73.628  1.00  0.00    -0.153 A  
HETATM   15  C   UNL     1     -11.022   5.400  73.073  1.00  0.00    -0.348 A  
HETATM   16  C   UNL     1     -11.409   6.629  72.422  1.00  0.00    -0.309 A  
HETATM   17  C   UNL     1     -11.738   4.220  73.214  1.00  0.00    -0.093 A  
HETATM   18  C   UNL     1     -10.356   7.567  72.525  1.00  0.00    -0.291 A  
HETATM   19  C   UNL     1     -11.159   3.172  73.929  1.00  0.00    -0.228 A  
HETATM   20  C   UNL     1      -9.896   3.325  74.514  1.00  0.00    -0.167 A  
HETATM   21  C   UNL     1     -10.537   8.856  72.037  1.00  0.00    -0.388 A  
HETATM   22  C   UNL     1     -11.746   9.180  71.405  1.00  0.00    -0.413 A  
HETATM   23  C   UNL     1      -9.185   4.522  74.387  1.00  0.00    -0.118 A  
HETATM   24  C   UNL     1     -12.777   8.240  71.301  1.00  0.00    -0.209 A  
HETATM   25  C   UNL     1     -12.617   6.956  71.820  1.00  0.00    -0.386 A  
ENDBRANCH  10  13
ENDBRANCH   9  10
ENDBRANCH   8   9
ENDBRANCH   7   8
ENDBRANCH   6   7
ENDBRANCH   5   6
ENDBRANCH   4   5
ENDBRANCH   2   4
BRANCH   2  26
HETATM   26  C   UNL     1      -9.348  10.351  66.566  1.00  0.00    -0.163 C  
HETATM   27  C   UNL     1     -10.999  11.630  63.491  1.00  0.00    -0.485 A  
HETATM   28  C   UNL     1      -8.731   9.484  65.447  1.00  0.00    -0.190 A  
HETATM   29  C   UNL     1     -11.908  12.567  63.969  1.00  0.00    -0.510 A  
HETATM   30  C   UNL     1      -9.266   9.874  64.196  1.00  0.00    -0.312 A  
HETATM   31  C   UNL     1     -10.258  10.903  64.408  1.00  0.00    -0.423 A  
HETATM   32  C   UNL     1      -8.885   9.244  63.020  1.00  0.00    -0.173 A  
HETATM   33  C   UNL     1     -12.129  12.727  65.346  1.00  0.00    -0.512 A  
HETATM   34  C   UNL     1      -7.841   8.413  65.510  1.00  0.00    -0.109 A  
HETATM   35  C   UNL     1     -10.419  11.114  65.795  1.00  0.00    -0.305 A  
HETATM   36  C   UNL     1      -7.951   8.209  63.086  1.00  0.00    -0.151 A  
HETATM   37  C   UNL     1     -11.410  11.965  66.276  1.00  0.00    -0.394 A  
HETATM   38  C   UNL     1      -7.433   7.797  64.319  1.00  0.00    -0.100 A  
ENDBRANCH   2  26
TORSDOF 9
ENDMDL
MODEL      312
REMARK 921   NORMALIZED FREE ENERGY PREDICTED BY IDOCK:   -4.02 KCAL/MOL
REMARK 922        TOTAL FREE ENERGY PREDICTED BY IDOCK:   -7.89 KCAL/MOL
REMARK 923 INTER-LIGAND FREE ENERGY PREDICTED BY IDOCK:   -7.29 KCAL/MOL
REMARK 924 INTRA-LIGAND FREE ENERGY PREDICTED BY IDOCK:   -0.60 KCAL/MOL
REMARK 927      BINDING AFFINITY PREDICTED BY RF-SCORE:    0.00 PKD
ROOT
HETATM    1  C   UNL     1      -7.055   4.596  67.007  1.00  0.00    -0.072 C  
HETATM    2  N   UNL     1      -7.704   5.727  67.799  1.00  0.00    -0.096 N  
HETATM    3  C   UNL     1      -7.161   7.062  67.297  1.00  0.00    -0.084 C  
ENDROOT
BRANCH   2   4
HETATM    4  C   UNL     1      -9.208   5.644  67.639  1.00  0.00    -0.106 C  
BRANCH   4   5
HETATM    5  C   UNL     1      -9.870   6.774  66.852  1.00  0.00    -0.229 C  
BRANCH   5   6
HETATM    6  C   UNL     1     -11.010   7.370  67.688  1.00  0.00    -0.136 C  
BRANCH   6   7
HETATM    7  C   UNL     1     -10.906   8.891  67.901  1.00  0.00    -0.096 C  
BRANCH   7   8
HETATM    8  C   UNL     1      -9.785   9.561  67.090  1.00  0.00    -0.221 C  
BRANCH   8   9
HETATM    9  C   UNL     1      -9.539  10.957  67.661  1.00  0.00    -0.163 C  
BRANCH   9  10
HETATM   10  N   UNL     1      -8.441  11.758  66.981  1.00  0.00    -0.169 N  
HETATM   11  C   UNL     1      -7.349  12.151  67.970  1.00  0.00    -0.105 C  
HETATM   12  C   UNL     1      -7.759  10.966  65.876  1.00  0.00    -0.073 C  
BRANCH  10  13
HETATM   13  C   UNL     1      -9.132  13.071  66.367  1.00  0.00    -0.061 C  
HETATM   14  C   UNL     1      -9.878  13.933  67.404  1.00  0.00    -0.237 A  
HETATM   15  C   UNL     1     -11.249  14.012  67.074  1.00  0.00    -0.325 A  
HETATM   16  C   UNL     1     -11.479  13.338  65.819  1.00  0.00    -0.349 A  
HETATM   17  C   UNL     1     -12.151  14.687  67.885  1.00  0.00    -0.214 A  
HETATM   18  C   UNL     1     -10.263  12.790  65.350  1.00  0.00    -0.299 A  
HETATM   19  C   UNL     1     -11.675  15.299  69.043  1.00  0.00    -0.368 A  
HETATM   20  C   UNL     1     -10.311  15.257  69.359  1.00  0.00    -0.255 A  
HETATM   21  C   UNL     1     -10.227  12.160  64.111  1.00  0.00    -0.370 A  
HETATM   22  C   UNL     1     -11.416  12.037  63.378  1.00  0.00    -0.489 A  
HETATM   23  C   UNL     1      -9.401  14.594  68.530  1.00  0.00    -0.201 A  
HETATM   24  C   UNL     1     -12.615  12.575  63.856  1.00  0.00    -0.485 A  
HETATM   25  C   UNL     1     -12.652  13.239  65.082  1.00  0.00    -0.512 A  
ENDBRANCH  10  13
ENDBRANCH   9  10
ENDBRANCH   8   9
ENDBRANCH   7   8
ENDBRANCH   6   7
ENDBRANCH   5   6
ENDBRANCH   4   5
ENDBRANCH   2   4
BRANCH   2  26
HETATM   26  C   UNL     1      -7.379   5.571  69.370  1.00  0.00    -0.066 C  
HETATM   27  C   UNL     1     -10.253   5.094  71.678  1.00  0.00    -0.276 A  
HETATM   28  C   UNL     1      -7.208   4.114  69.849  1.00  0.00    -0.046 A  
HETATM   29  C   UNL     1     -10.854   6.347  71.722  1.00  0.00    -0.283 A  
HETATM   30  C   UNL     1      -8.257   3.782  70.739  1.00  0.00    -0.079 A  
HETATM   31  C   UNL     1      -9.086   4.947  70.946  1.00  0.00    -0.184 A  
HETATM   32  C   UNL     1      -8.336   2.528  71.327  1.00  0.00    -0.079 A  
HETATM   33  C   UNL     1     -10.260   7.458  71.105  1.00  0.00    -0.199 A  
HETATM   34  C   UNL     1      -6.205   3.182  69.593  1.00  0.00    -0.028 A  
HETATM   35  C   UNL     1      -8.525   6.045  70.257  1.00  0.00    -0.124 A  
HETATM   36  C   UNL     1      -7.356   1.582  71.022  1.00  0.00    -0.033 A  
HETATM   37  C   UNL     1      -9.058   7.322  70.397  1.00  0.00    -0.155 A  
HETATM   38  C   UNL     1      -6.301   1.905  70.162  1.00  0.00    -0.024 A  
ENDBRANCH   2  26
TORSDOF 9
ENDMDL
MODEL      313
REMARK 921   NORMALIZED FREE ENERGY PREDICTED BY IDOCK:   -4.01 KCAL/MOL
REMARK 922        TOTAL FREE ENERGY PREDICTED BY IDOCK:   -7.89 KCAL/MOL
REMARK 923 INTER-LIGAND FREE ENERGY PREDICTED BY IDOCK:   -7.91 KCAL/MOL
REMARK 924 INTRA-LIGAND FREE ENERGY PREDICTED BY IDOCK:    0.02 KCAL/MOL
REMARK 927      BINDING AFFINITY PREDICTED BY RF-SCORE:    0.00 PKD
ROOT
HETATM    1  C   UNL     1     -10.950   6.631  67.976  1.00  0.00    -0.249 C  
HETATM    2  N   UNL     1      -9.676   7.408  67.666  1.00  0.00    -0.140 N  
HETATM    3  C   UNL     1      -8.740   6.526  66.844  1.00  0.00    -0.115 C  
ENDROOT
BRANCH   2   4
HETATM    4  C   UNL     1     -10.039   8.677  66.923  1.00  0.00    -0.285 C  
BRANCH   4   5
HETATM    5  C   UNL     1      -9.049   9.146  65.857  1.00  0.00    -0.256 C  
BRANCH   5   6
HETATM    6  C   UNL     1      -9.457  10.542  65.369  1.00  0.00    -0.273 C  
BRANCH   6   7
HETATM    7  C   UNL     1     -10.973  10.806  65.414  1.00  0.00     0.040 C  
BRANCH   7   8
HETATM    8  C   UNL     1     -11.358  12.280  65.210  1.00  0.00    -0.384 C  
BRANCH   8   9
HETATM    9  C   UNL     1     -11.247  13.002  66.553  1.00  0.00    -0.302 C  
BRANCH   9  10
HETATM   10  N   UNL     1     -10.431  14.285  66.541  1.00  0.00    -0.283 N  
HETATM   11  C   UNL     1      -9.117  14.112  67.294  1.00  0.00    -0.213 C  
HETATM   12  C   UNL     1     -10.068  14.716  65.128  1.00  0.00    -0.324 C  
BRANCH  10  13
HETATM   13  C   UNL     1     -11.329  15.415  67.244  1.00  0.00    -0.220 C  
HETATM   14  C   UNL     1     -10.700  16.822  67.225  1.00  0.00    -0.213 A  
HETATM   15  C   UNL     1     -10.489  17.277  68.546  1.00  0.00    -0.375 A  
HETATM   16  C   UNL     1     -11.024  16.312  69.476  1.00  0.00    -0.339 A  
HETATM   17  C   UNL     1      -9.879  18.497  68.802  1.00  0.00    -0.411 A  
HETATM   18  C   UNL     1     -11.551  15.212  68.761  1.00  0.00    -0.369 A  
HETATM   19  C   UNL     1      -9.478  19.280  67.721  1.00  0.00    -0.387 A  
HETATM   20  C   UNL     1      -9.716  18.853  66.408  1.00  0.00    -0.395 A  
HETATM   21  C   UNL     1     -12.195  14.191  69.451  1.00  0.00    -0.329 A  
HETATM   22  C   UNL     1     -12.259  14.252  70.850  1.00  0.00    -0.425 A  
HETATM   23  C   UNL     1     -10.348  17.633  66.153  1.00  0.00    -0.334 A  
HETATM   24  C   UNL     1     -11.725  15.341  71.548  1.00  0.00    -0.450 A  
HETATM   25  C   UNL     1     -11.109  16.387  70.861  1.00  0.00    -0.073 A  
ENDBRANCH  10  13
ENDBRANCH   9  10
ENDBRANCH   8   9
ENDBRANCH   7   8
ENDBRANCH   6   7
ENDBRANCH   5   6
ENDBRANCH   4   5
ENDBRANCH   2   4
BRANCH   2  26
HETATM   26  C   UNL     1      -8.939   7.847  69.031  1.00  0.00    -0.145 C  
HETATM   27  C   UNL     1      -5.267   7.312  69.250  1.00  0.00    -0.015 A  
HETATM   28  C   UNL     1      -8.372   9.283  69.022  1.00  0.00    -0.123 A  
HETATM   29  C   UNL     1      -5.142   5.934  69.390  1.00  0.00    -0.004 A  
HETATM   30  C   UNL     1      -6.959   9.235  69.088  1.00  0.00    -0.058 A  
HETATM   31  C   UNL     1      -6.540   7.858  69.213  1.00  0.00    -0.036 A  
HETATM   32  C   UNL     1      -6.197  10.394  69.104  1.00  0.00    -0.041 A  
HETATM   33  C   UNL     1      -6.269   5.117  69.565  1.00  0.00    -0.026 A  
HETATM   34  C   UNL     1      -9.017  10.518  69.022  1.00  0.00    -0.183 A  
HETATM   35  C   UNL     1      -7.681   7.032  69.310  1.00  0.00    -0.109 A  
HETATM   36  C   UNL     1      -6.849  11.626  69.049  1.00  0.00    -0.105 A  
HETATM   37  C   UNL     1      -7.556   5.671  69.568  1.00  0.00    -0.072 A  
HETATM   38  C   UNL     1      -8.246  11.689  69.007  1.00  0.00     0.107 A  
ENDBRANCH   2  26
TORSDOF 9
ENDMDL
MODEL      314
REMARK 921   NORMALIZED FREE ENERGY PREDICTED BY IDOCK:   -4.00 KCAL/MOL
REMARK 922        TOTAL FREE ENERGY PREDICTED BY IDOCK:   -7.87 KCAL/MOL
REMARK 923 INTER-LIGAND FREE ENERGY PREDICTED BY IDOCK:   -8.03 KCAL/MOL
REMARK 924 INTRA-LIGAND FREE ENERGY PREDICTED BY IDOCK:    0.17 KCAL/MOL
REMARK 927      BINDING AFFINITY PREDICTED BY RF-SCORE:    0.00 PKD
ROOT
HETATM    1  C   UNL     1     -10.338   7.999  67.612  1.00  0.00    -0.246 C  
HETATM    2  N   UNL     1      -9.394   6.802  67.628  1.00  0.00    -0.120 N  
HETATM    3  C   UNL     1      -8.829   6.593  66.225  1.00  0.00    -0.147 C  
ENDROOT
BRANCH   2   4
HETATM    4  C   UNL     1      -8.294   7.053  68.638  1.00  0.00    -0.122 C  
BRANCH   4   5
HETATM    5  C   UNL     1      -6.895   7.299  68.071  1.00  0.00    -0.070 C  
BRANCH   5   6
HETATM    6  C   UNL     1      -6.578   8.799  68.145  1.00  0.00    -0.061 C  
BRANCH   6   7
HETATM    7  C   UNL     1      -6.768   9.413  69.544  1.00  0.00    -0.048 C  
BRANCH   7   8
HETATM    8  C   UNL     1      -7.248  10.873  69.526  1.00  0.00    -0.113 C  
BRANCH   8   9
HETATM    9  C   UNL     1      -8.478  10.969  68.623  1.00  0.00    -0.157 C  
BRANCH   9  10
HETATM   10  N   UNL     1      -8.353  11.924  67.447  1.00  0.00    -0.155 N  
HETATM   11  C   UNL     1      -6.924  12.438  67.301  1.00  0.00    -0.129 C  
HETATM   12  C   UNL     1      -8.709  11.255  66.128  1.00  0.00    -0.179 C  
BRANCH  10  13
HETATM   13  C   UNL     1      -9.356  13.146  67.729  1.00  0.00    -0.206 C  
HETATM   14  C   UNL     1     -10.471  13.302  66.677  1.00  0.00    -0.279 A  
HETATM   15  C   UNL     1     -10.367  14.560  66.042  1.00  0.00    -0.320 A  
HETATM   16  C   UNL     1      -9.308  15.322  66.660  1.00  0.00    -0.285 A  
HETATM   17  C   UNL     1     -11.223  14.923  65.012  1.00  0.00    -0.408 A  
HETATM   18  C   UNL     1      -8.700  14.546  67.673  1.00  0.00    -0.186 A  
HETATM   19  C   UNL     1     -12.204  14.018  64.611  1.00  0.00    -0.460 A  
HETATM   20  C   UNL     1     -12.338  12.783  65.260  1.00  0.00    -0.546 A  
HETATM   21  C   UNL     1      -7.702  15.108  68.461  1.00  0.00    -0.122 A  
HETATM   22  C   UNL     1      -7.286  16.420  68.195  1.00  0.00    -0.148 A  
HETATM   23  C   UNL     1     -11.487  12.427  66.310  1.00  0.00    -0.423 A  
HETATM   24  C   UNL     1      -7.888  17.175  67.183  1.00  0.00    -0.211 A  
HETATM   25  C   UNL     1      -8.914  16.631  66.411  1.00  0.00    -0.326 A  
ENDBRANCH  10  13
ENDBRANCH   9  10
ENDBRANCH   8   9
ENDBRANCH   7   8
ENDBRANCH   6   7
ENDBRANCH   5   6
ENDBRANCH   4   5
ENDBRANCH   2   4
BRANCH   2  26
HETATM   26  C   UNL     1     -10.178   5.473  68.094  1.00  0.00    -0.177 C  
HETATM   27  C   UNL     1      -8.304   2.263  68.037  1.00  0.00    -0.081 A  
HETATM   28  C   UNL     1     -10.023   5.128  69.591  1.00  0.00    -0.313 A  
HETATM   29  C   UNL     1      -8.198   1.966  66.683  1.00  0.00    -0.083 A  
HETATM   30  C   UNL     1      -9.305   3.916  69.726  1.00  0.00    -0.242 A  
HETATM   31  C   UNL     1      -9.027   3.385  68.412  1.00  0.00    -0.185 A  
HETATM   32  C   UNL     1      -9.035   3.372  70.973  1.00  0.00    -0.161 A  
HETATM   33  C   UNL     1      -8.864   2.736  65.717  1.00  0.00    -0.134 A  
HETATM   34  C   UNL     1     -10.513   5.766  70.729  1.00  0.00    -0.324 A  
HETATM   35  C   UNL     1      -9.634   4.208  67.439  1.00  0.00    -0.222 A  
HETATM   36  C   UNL     1      -9.482   4.046  72.110  1.00  0.00    -0.192 A  
HETATM   37  C   UNL     1      -9.629   3.848  66.095  1.00  0.00    -0.193 A  
HETATM   38  C   UNL     1     -10.214   5.233  71.990  1.00  0.00    -0.259 A  
ENDBRANCH   2  26
TORSDOF 9
ENDMDL
MODEL      315
REMARK 921   NORMALIZED FREE ENERGY PREDICTED BY IDOCK:   -3.99 KCAL/MOL
REMARK 922        TOTAL FREE ENERGY PREDICTED BY IDOCK:   -7.85 KCAL/MOL
REMARK 923 INTER-LIGAND FREE ENERGY PREDICTED BY IDOCK:   -8.12 KCAL/MOL
REMARK 924 INTRA-LIGAND FREE ENERGY PREDICTED BY IDOCK:    0.27 KCAL/MOL
REMARK 927      BINDING AFFINITY PREDICTED BY RF-SCORE:    0.00 PKD
ROOT
HETATM    1  C   UNL     1     -11.764   6.458  70.832  1.00  0.00    -0.303 C  
HETATM    2  N   UNL     1     -10.439   6.665  70.106  1.00  0.00    -0.202 N  
HETATM    3  C   UNL     1     -10.674   6.571  68.601  1.00  0.00    -0.271 C  
ENDROOT
BRANCH   2   4
HETATM    4  C   UNL     1      -9.865   8.011  70.496  1.00  0.00    -0.182 C  
BRANCH   4   5
HETATM    5  C   UNL     1     -10.815   8.972  71.210  1.00  0.00    -0.385 C  
BRANCH   5   6
HETATM    6  C   UNL     1     -10.880  10.291  70.429  1.00  0.00    -0.320 C  
BRANCH   6   7
HETATM    7  C   UNL     1     -12.265  10.963  70.442  1.00  0.00    -0.453 C  
BRANCH   7   8
HETATM    8  C   UNL     1     -12.225  12.475  70.713  1.00  0.00    -0.332 C  
BRANCH   8   9
HETATM    9  C   UNL     1     -12.114  13.206  69.375  1.00  0.00    -0.231 C  
BRANCH   9  10
HETATM   10  N   UNL     1     -11.089  14.328  69.325  1.00  0.00    -0.263 N  
HETATM   11  C   UNL     1     -10.969  15.027  70.675  1.00  0.00    -0.153 C  
HETATM   12  C   UNL     1      -9.699  13.815  68.979  1.00  0.00     0.148 C  
BRANCH  10  13
HETATM   13  C   UNL     1     -11.586  15.365  68.205  1.00  0.00    -0.348 C  
HETATM   14  C   UNL     1     -11.677  14.766  66.788  1.00  0.00    -0.309 A  
HETATM   15  C   UNL     1     -10.802  15.450  65.914  1.00  0.00    -0.328 A  
HETATM   16  C   UNL     1     -10.185  16.548  66.619  1.00  0.00    -0.302 A  
HETATM   17  C   UNL     1     -10.655  15.064  64.590  1.00  0.00    -0.185 A  
HETATM   18  C   UNL     1     -10.631  16.557  67.960  1.00  0.00    -0.328 A  
HETATM   19  C   UNL     1     -11.399  13.980  64.126  1.00  0.00    -0.173 A  
HETATM   20  C   UNL     1     -12.295  13.319  64.975  1.00  0.00    -0.499 A  
HETATM   21  C   UNL     1     -10.227  17.581  68.810  1.00  0.00    -0.373 A  
HETATM   22  C   UNL     1      -9.341  18.554  68.327  1.00  0.00    -0.350 A  
HETATM   23  C   UNL     1     -12.456  13.722  66.304  1.00  0.00    -0.441 A  
HETATM   24  C   UNL     1      -8.899  18.529  67.001  1.00  0.00    -0.278 A  
HETATM   25  C   UNL     1      -9.327  17.526  66.131  1.00  0.00    -0.168 A  
ENDBRANCH  10  13
ENDBRANCH   9  10
ENDBRANCH   8   9
ENDBRANCH   7   8
ENDBRANCH   6   7
ENDBRANCH   5   6
ENDBRANCH   4   5
ENDBRANCH   2   4
BRANCH   2  26
HETATM   26  C   UNL     1      -9.372   5.541  70.553  1.00  0.00    -0.157 C  
HETATM   27  C   UNL     1      -6.013   5.633  68.964  1.00  0.00    -0.024 A  
HETATM   28  C   UNL     1      -8.445   5.963  71.713  1.00  0.00    -0.131 A  
HETATM   29  C   UNL     1      -6.247   5.181  67.670  1.00  0.00    -0.038 A  
HETATM   30  C   UNL     1      -7.112   6.053  71.245  1.00  0.00    -0.074 A  
HETATM   31  C   UNL     1      -7.072   5.650  69.858  1.00  0.00    -0.067 A  
HETATM   32  C   UNL     1      -6.072   6.406  72.092  1.00  0.00    -0.038 A  
HETATM   33  C   UNL     1      -7.503   4.683  67.292  1.00  0.00    -0.085 A  
HETATM   34  C   UNL     1      -8.715   6.184  73.062  1.00  0.00    -0.121 A  
HETATM   35  C   UNL     1      -8.357   5.225  69.460  1.00  0.00    -0.095 A  
HETATM   36  C   UNL     1      -6.359   6.679  73.430  1.00  0.00    -0.064 A  
HETATM   37  C   UNL     1      -8.566   4.663  68.205  1.00  0.00    -0.108 A  
HETATM   38  C   UNL     1      -7.669   6.570  73.911  1.00  0.00    -0.089 A  
ENDBRANCH   2  26
TORSDOF 9
ENDMDL
MODEL      316
REMARK 921   NORMALIZED FREE ENERGY PREDICTED BY IDOCK:   -3.98 KCAL/MOL
REMARK 922        TOTAL FREE ENERGY PREDICTED BY IDOCK:   -7.84 KCAL/MOL
REMARK 923 INTER-LIGAND FREE ENERGY PREDICTED BY IDOCK:   -6.82 KCAL/MOL
REMARK 924 INTRA-LIGAND FREE ENERGY PREDICTED BY IDOCK:   -1.02 KCAL/MOL
REMARK 927      BINDING AFFINITY PREDICTED BY RF-SCORE:    0.00 PKD
ROOT
HETATM    1  C   UNL     1      -8.815   6.428  68.706  1.00  0.00    -0.124 C  
HETATM    2  N   UNL     1      -8.255   7.326  67.609  1.00  0.00    -0.114 N  
HETATM    3  C   UNL     1      -8.360   6.603  66.269  1.00  0.00    -0.125 C  
ENDROOT
BRANCH   2   4
HETATM    4  C   UNL     1      -9.024   8.631  67.597  1.00  0.00    -0.135 C  
BRANCH   4   5
HETATM    5  C   UNL     1      -9.736   9.010  68.895  1.00  0.00    -0.166 C  
BRANCH   5   6
HETATM    6  C   UNL     1     -10.104  10.500  68.853  1.00  0.00    -0.215 C  
BRANCH   6   7
HETATM    7  C   UNL     1     -11.479  10.790  68.224  1.00  0.00    -0.353 C  
BRANCH   7   8
HETATM    8  C   UNL     1     -11.408  11.356  66.798  1.00  0.00    -0.252 C  
BRANCH   8   9
HETATM    9  C   UNL     1     -11.843  12.821  66.834  1.00  0.00    -0.371 C  
BRANCH   9  10
HETATM   10  N   UNL     1     -10.769  13.832  66.464  1.00  0.00    -0.283 N  
HETATM   11  C   UNL     1      -9.835  13.280  65.392  1.00  0.00    -0.108 C  
HETATM   12  C   UNL     1     -11.363  15.115  65.902  1.00  0.00    -0.225 C  
BRANCH  10  13
HETATM   13  C   UNL     1      -9.947  14.151  67.806  1.00  0.00    -0.235 C  
HETATM   14  C   UNL     1     -10.832  14.500  69.019  1.00  0.00    -0.265 A  
HETATM   15  C   UNL     1     -10.546  15.809  69.468  1.00  0.00    -0.272 A  
HETATM   16  C   UNL     1      -9.449  16.350  68.700  1.00  0.00    -0.239 A  
HETATM   17  C   UNL     1     -11.250  16.384  70.516  1.00  0.00    -0.230 A  
HETATM   18  C   UNL     1      -9.046  15.405  67.728  1.00  0.00    -0.178 A  
HETATM   19  C   UNL     1     -12.253  15.638  71.133  1.00  0.00    -0.466 A  
HETATM   20  C   UNL     1     -12.518  14.326  70.718  1.00  0.00    -0.428 A  
HETATM   21  C   UNL     1      -7.946  15.680  66.922  1.00  0.00    -0.278 A  
HETATM   22  C   UNL     1      -7.296  16.914  67.058  1.00  0.00    -0.228 A  
HETATM   23  C   UNL     1     -11.794  13.742  69.675  1.00  0.00    -0.393 A  
HETATM   24  C   UNL     1      -7.711  17.844  68.016  1.00  0.00    -0.245 A  
HETATM   25  C   UNL     1      -8.790  17.563  68.853  1.00  0.00    -0.136 A  
ENDBRANCH  10  13
ENDBRANCH   9  10
ENDBRANCH   8   9
ENDBRANCH   7   8
ENDBRANCH   6   7
ENDBRANCH   5   6
ENDBRANCH   4   5
ENDBRANCH   2   4
BRANCH   2  26
HETATM   26  C   UNL     1      -6.711   7.683  67.907  1.00  0.00    -0.067 C  
HETATM   27  C   UNL     1      -5.845  11.259  68.433  1.00  0.00    -0.045 A  
HETATM   28  C   UNL     1      -6.343   7.740  69.405  1.00  0.00    -0.035 A  
HETATM   29  C   UNL     1      -5.934  11.812  67.160  1.00  0.00    -0.140 A  
HETATM   30  C   UNL     1      -5.999   9.067  69.758  1.00  0.00    -0.035 A  
HETATM   31  C   UNL     1      -6.042   9.895  68.575  1.00  0.00    -0.045 A  
HETATM   32  C   UNL     1      -5.616   9.394  71.051  1.00  0.00    -0.056 A  
HETATM   33  C   UNL     1      -6.145  11.004  66.032  1.00  0.00    -0.094 A  
HETATM   34  C   UNL     1      -6.251   6.730  70.360  1.00  0.00    -0.035 A  
HETATM   35  C   UNL     1      -6.333   9.088  67.453  1.00  0.00    -0.060 A  
HETATM   36  C   UNL     1      -5.579   8.385  72.014  1.00  0.00    -0.042 A  
HETATM   37  C   UNL     1      -6.306   9.619  66.168  1.00  0.00    -0.069 A  
HETATM   38  C   UNL     1      -5.895   7.065  71.673  1.00  0.00    -0.037 A  
ENDBRANCH   2  26
TORSDOF 9
ENDMDL
MODEL      317
REMARK 921   NORMALIZED FREE ENERGY PREDICTED BY IDOCK:   -3.98 KCAL/MOL
REMARK 922        TOTAL FREE ENERGY PREDICTED BY IDOCK:   -7.84 KCAL/MOL
REMARK 923 INTER-LIGAND FREE ENERGY PREDICTED BY IDOCK:   -7.44 KCAL/MOL
REMARK 924 INTRA-LIGAND FREE ENERGY PREDICTED BY IDOCK:   -0.39 KCAL/MOL
REMARK 927      BINDING AFFINITY PREDICTED BY RF-SCORE:    0.00 PKD
ROOT
HETATM    1  C   UNL     1      -7.620   7.380  69.758  1.00  0.00    -0.095 C  
HETATM    2  N   UNL     1      -8.487   6.655  70.782  1.00  0.00    -0.133 N  
HETATM    3  C   UNL     1      -8.325   7.329  72.141  1.00  0.00    -0.105 C  
ENDROOT
BRANCH   2   4
HETATM    4  C   UNL     1      -9.929   6.681  70.317  1.00  0.00    -0.174 C  
BRANCH   4   5
HETATM    5  C   UNL     1     -10.947   7.260  71.299  1.00  0.00    -0.264 C  
BRANCH   5   6
HETATM    6  C   UNL     1     -11.531   8.554  70.716  1.00  0.00    -0.281 C  
BRANCH   6   7
HETATM    7  C   UNL     1     -10.470   9.563  70.239  1.00  0.00    -0.319 C  
BRANCH   7   8
HETATM    8  C   UNL     1     -10.906  10.402  69.028  1.00  0.00    -0.273 C  
BRANCH   8   9
HETATM    9  C   UNL     1     -10.140   9.915  67.798  1.00  0.00    -0.180 C  
BRANCH   9  10
HETATM   10  N   UNL     1      -9.243  10.948  67.134  1.00  0.00    -0.148 N  
HETATM   11  C   UNL     1      -7.807  10.839  67.636  1.00  0.00    -0.109 C  
HETATM   12  C   UNL     1      -9.188  10.768  65.624  1.00  0.00    -0.199 C  
BRANCH  10  13
HETATM   13  C   UNL     1      -9.849  12.391  67.492  1.00  0.00    -0.194 C  
HETATM   14  C   UNL     1     -10.785  12.967  66.413  1.00  0.00    -0.295 A  
HETATM   15  C   UNL     1     -10.261  14.180  65.912  1.00  0.00    -0.332 A  
HETATM   16  C   UNL     1      -9.070  14.527  66.649  1.00  0.00    -0.277 A  
HETATM   17  C   UNL     1     -10.891  14.871  64.887  1.00  0.00    -0.431 A  
HETATM   18  C   UNL     1      -8.799  13.521  67.605  1.00  0.00    -0.202 A  
HETATM   19  C   UNL     1     -12.068  14.347  64.355  1.00  0.00    -0.491 A  
HETATM   20  C   UNL     1     -12.614  13.164  64.871  1.00  0.00    -0.468 A  
HETATM   21  C   UNL     1      -7.737  13.684  68.488  1.00  0.00    -0.129 A  
HETATM   22  C   UNL     1      -6.926  14.822  68.373  1.00  0.00    -0.114 A  
HETATM   23  C   UNL     1     -11.989  12.480  65.917  1.00  0.00    -0.472 A  
HETATM   24  C   UNL     1      -7.199  15.805  67.416  1.00  0.00    -0.235 A  
HETATM   25  C   UNL     1      -8.282  15.667  66.550  1.00  0.00    -0.227 A  
ENDBRANCH  10  13
ENDBRANCH   9  10
ENDBRANCH   8   9
ENDBRANCH   7   8
ENDBRANCH   6   7
ENDBRANCH   5   6
ENDBRANCH   4   5
ENDBRANCH   2   4
BRANCH   2  26
HETATM   26  C   UNL     1      -8.049   5.107  70.894  1.00  0.00    -0.105 C  
HETATM   27  C   UNL     1     -10.656   2.651  71.888  1.00  0.00     0.423 A  
HETATM   28  C   UNL     1      -8.266   4.283  69.607  1.00  0.00    -0.066 A  
HETATM   29  C   UNL     1     -10.848   2.903  73.242  1.00  0.00    -0.279 A  
HETATM   30  C   UNL     1      -9.259   3.301  69.836  1.00  0.00    -0.222 A  
HETATM   31  C   UNL     1      -9.675   3.364  71.218  1.00  0.00    -0.227 A  
HETATM   32  C   UNL     1      -9.640   2.414  68.839  1.00  0.00    -0.067 A  
HETATM   33  C   UNL     1     -10.024   3.801  73.937  1.00  0.00    -0.166 A  
HETATM   34  C   UNL     1      -7.620   4.333  68.373  1.00  0.00    -0.064 A  
HETATM   35  C   UNL     1      -8.895   4.327  71.894  1.00  0.00    -0.137 A  
HETATM   36  C   UNL     1      -9.026   2.507  67.589  1.00  0.00    -0.190 A  
HETATM   37  C   UNL     1      -9.005   4.494  73.271  1.00  0.00    -0.116 A  
HETATM   38  C   UNL     1      -8.027   3.458  67.357  1.00  0.00    -0.081 A  
ENDBRANCH   2  26
TORSDOF 9
ENDMDL
MODEL      318
REMARK 921   NORMALIZED FREE ENERGY PREDICTED BY IDOCK:   -3.98 KCAL/MOL
REMARK 922        TOTAL FREE ENERGY PREDICTED BY IDOCK:   -7.84 KCAL/MOL
REMARK 923 INTER-LIGAND FREE ENERGY PREDICTED BY IDOCK:   -8.01 KCAL/MOL
REMARK 924 INTRA-LIGAND FREE ENERGY PREDICTED BY IDOCK:    0.17 KCAL/MOL
REMARK 927      BINDING AFFINITY PREDICTED BY RF-SCORE:    0.00 PKD
ROOT
HETATM    1  C   UNL     1     -10.597   8.152  70.672  1.00  0.00    -0.215 C  
HETATM    2  N   UNL     1     -10.097   7.047  69.747  1.00  0.00    -0.186 N  
HETATM    3  C   UNL     1     -11.285   6.207  69.285  1.00  0.00    -0.367 C  
ENDROOT
BRANCH   2   4
HETATM    4  C   UNL     1      -9.371   7.674  68.574  1.00  0.00    -0.147 C  
BRANCH   4   5
HETATM    5  C   UNL     1      -8.010   8.301  68.876  1.00  0.00    -0.113 C  
BRANCH   5   6
HETATM    6  C   UNL     1      -7.841   9.570  68.029  1.00  0.00    -0.087 C  
BRANCH   6   7
HETATM    7  C   UNL     1      -9.063  10.507  68.049  1.00  0.00    -0.138 C  
BRANCH   7   8
HETATM    8  C   UNL     1      -8.757  11.922  68.564  1.00  0.00    -0.108 C  
BRANCH   8   9
HETATM    9  C   UNL     1      -9.673  12.911  67.841  1.00  0.00    -0.218 C  
BRANCH   9  10
HETATM   10  N   UNL     1     -10.857  13.417  68.649  1.00  0.00    -0.258 N  
HETATM   11  C   UNL     1     -11.666  12.261  69.228  1.00  0.00    -0.330 C  
HETATM   12  C   UNL     1     -10.419  14.272  69.828  1.00  0.00     0.236 C  
BRANCH  10  13
HETATM   13  C   UNL     1     -11.766  14.285  67.650  1.00  0.00    -0.389 C  
HETATM   14  C   UNL     1     -11.888  13.692  66.233  1.00  0.00    -0.426 A  
HETATM   15  C   UNL     1     -11.362  14.594  65.282  1.00  0.00    -0.354 A  
HETATM   16  C   UNL     1     -10.972  15.815  65.946  1.00  0.00    -0.191 A  
HETATM   17  C   UNL     1     -11.302  14.271  63.934  1.00  0.00     0.282 A  
HETATM   18  C   UNL     1     -11.213  15.694  67.333  1.00  0.00    -0.219 A  
HETATM   19  C   UNL     1     -11.782  13.027  63.526  1.00  0.00    -0.532 A  
HETATM   20  C   UNL     1     -12.340  12.142  64.457  1.00  0.00    -0.395 A  
HETATM   21  C   UNL     1     -10.986  16.785  68.166  1.00  0.00    -0.309 A  
HETATM   22  C   UNL     1     -10.472  17.965  67.613  1.00  0.00    -0.406 A  
HETATM   23  C   UNL     1     -12.417  12.478  65.812  1.00  0.00    -0.040 A  
HETATM   24  C   UNL     1     -10.228  18.070  66.240  1.00  0.00    -0.381 A  
HETATM   25  C   UNL     1     -10.486  16.994  65.392  1.00  0.00    -0.129 A  
ENDBRANCH  10  13
ENDBRANCH   9  10
ENDBRANCH   8   9
ENDBRANCH   7   8
ENDBRANCH   6   7
ENDBRANCH   5   6
ENDBRANCH   4   5
ENDBRANCH   2   4
BRANCH   2  26
HETATM   26  C   UNL     1      -9.039   6.104  70.516  1.00  0.00    -0.154 C  
HETATM   27  C   UNL     1     -10.193   4.399  73.611  1.00  0.00    -0.217 A  
HETATM   28  C   UNL     1      -9.085   4.618  70.103  1.00  0.00    -0.154 A  
HETATM   29  C   UNL     1     -10.264   5.425  74.547  1.00  0.00    -0.293 A  
HETATM   30  C   UNL     1      -9.528   3.836  71.197  1.00  0.00    -0.236 A  
HETATM   31  C   UNL     1      -9.716   4.694  72.344  1.00  0.00    -0.207 A  
HETATM   32  C   UNL     1      -9.651   2.458  71.096  1.00  0.00    -0.215 A  
HETATM   33  C   UNL     1      -9.796   6.713  74.248  1.00  0.00    -0.353 A  
HETATM   34  C   UNL     1      -8.717   3.990  68.915  1.00  0.00    -0.129 A  
HETATM   35  C   UNL     1      -9.318   6.007  72.012  1.00  0.00    -0.158 A  
HETATM   36  C   UNL     1      -9.331   1.843  69.885  1.00  0.00    -0.164 A  
HETATM   37  C   UNL     1      -9.276   7.006  72.980  1.00  0.00    -0.163 A  
HETATM   38  C   UNL     1      -8.870   2.601  68.804  1.00  0.00    -0.154 A  
ENDBRANCH   2  26
TORSDOF 9
ENDMDL
MODEL      319
REMARK 921   NORMALIZED FREE ENERGY PREDICTED BY IDOCK:   -3.97 KCAL/MOL
REMARK 922        TOTAL FREE ENERGY PREDICTED BY IDOCK:   -7.82 KCAL/MOL
REMARK 923 INTER-LIGAND FREE ENERGY PREDICTED BY IDOCK:   -7.84 KCAL/MOL
REMARK 924 INTRA-LIGAND FREE ENERGY PREDICTED BY IDOCK:    0.02 KCAL/MOL
REMARK 927      BINDING AFFINITY PREDICTED BY RF-SCORE:    0.00 PKD
ROOT
HETATM    1  C   UNL     1     -10.464   9.318  69.434  1.00  0.00    -0.219 C  
HETATM    2  N   UNL     1      -9.776   8.435  68.399  1.00  0.00    -0.152 N  
HETATM    3  C   UNL     1     -10.471   8.610  67.052  1.00  0.00    -0.284 C  
ENDROOT
BRANCH   2   4
HETATM    4  C   UNL     1      -8.311   8.812  68.321  1.00  0.00    -0.126 C  
BRANCH   4   5
HETATM    5  C   UNL     1      -7.795   9.250  66.951  1.00  0.00    -0.098 C  
BRANCH   5   6
HETATM    6  C   UNL     1      -7.440  10.742  66.999  1.00  0.00    -0.114 C  
BRANCH   6   7
HETATM    7  C   UNL     1      -6.386  11.104  68.062  1.00  0.00    -0.053 C  
BRANCH   7   8
HETATM    8  C   UNL     1      -6.564  12.504  68.668  1.00  0.00    -0.083 C  
BRANCH   8   9
HETATM    9  C   UNL     1      -6.593  13.527  67.531  1.00  0.00    -0.117 C  
BRANCH   9  10
HETATM   10  N   UNL     1      -6.933  14.951  67.940  1.00  0.00    -0.139 N  
HETATM   11  C   UNL     1      -7.351  15.021  69.405  1.00  0.00    -0.194 C  
HETATM   12  C   UNL     1      -5.745  15.888  67.784  1.00  0.00    -0.145 C  
BRANCH  10  13
HETATM   13  C   UNL     1      -8.139  15.432  66.996  1.00  0.00    -0.230 C  
HETATM   14  C   UNL     1      -8.614  16.873  67.266  1.00  0.00    -0.212 A  
HETATM   15  C   UNL     1      -9.969  16.871  67.667  1.00  0.00    -0.271 A  
HETATM   16  C   UNL     1     -10.486  15.526  67.596  1.00  0.00    -0.279 A  
HETATM   17  C   UNL     1     -10.619  18.044  68.024  1.00  0.00    -0.361 A  
HETATM   18  C   UNL     1      -9.458  14.648  67.183  1.00  0.00    -0.234 A  
HETATM   19  C   UNL     1      -9.907  19.242  67.975  1.00  0.00    -0.454 A  
HETATM   20  C   UNL     1      -8.574  19.257  67.544  1.00  0.00    -0.325 A  
HETATM   21  C   UNL     1      -9.750  13.305  66.967  1.00  0.00    -0.238 A  
HETATM   22  C   UNL     1     -11.050  12.845  67.217  1.00  0.00    -0.309 A  
HETATM   23  C   UNL     1      -7.927  18.078  67.165  1.00  0.00    -0.224 A  
HETATM   24  C   UNL     1     -12.057  13.721  67.635  1.00  0.00    -0.333 A  
HETATM   25  C   UNL     1     -11.782  15.076  67.819  1.00  0.00    -0.294 A  
ENDBRANCH  10  13
ENDBRANCH   9  10
ENDBRANCH   8   9
ENDBRANCH   7   8
ENDBRANCH   6   7
ENDBRANCH   5   6
ENDBRANCH   4   5
ENDBRANCH   2   4
BRANCH   2  26
HETATM   26  C   UNL     1      -9.848   6.886  68.843  1.00  0.00    -0.147 C  
HETATM   27  C   UNL     1      -7.097   5.580  70.974  1.00  0.00    -0.069 A  
HETATM   28  C   UNL     1     -10.541   6.640  70.201  1.00  0.00    -0.264 A  
HETATM   29  C   UNL     1      -6.019   5.486  70.100  1.00  0.00    -0.021 A  
HETATM   30  C   UNL     1      -9.595   6.145  71.131  1.00  0.00    -0.193 A  
HETATM   31  C   UNL     1      -8.324   5.975  70.466  1.00  0.00    -0.128 A  
HETATM   32  C   UNL     1      -9.960   5.830  72.432  1.00  0.00    -0.194 A  
HETATM   33  C   UNL     1      -6.178   5.712  68.725  1.00  0.00    -0.029 A  
HETATM   34  C   UNL     1     -11.875   6.768  70.580  1.00  0.00    -0.442 A  
HETATM   35  C   UNL     1      -8.472   6.281  69.096  1.00  0.00    -0.120 A  
HETATM   36  C   UNL     1     -11.288   6.013  72.819  1.00  0.00    -0.282 A  
HETATM   37  C   UNL     1      -7.426   6.074  68.202  1.00  0.00    -0.089 A  
HETATM   38  C   UNL     1     -12.237   6.479  71.903  1.00  0.00    -0.373 A  
ENDBRANCH   2  26
TORSDOF 9
ENDMDL
MODEL      320
REMARK 921   NORMALIZED FREE ENERGY PREDICTED BY IDOCK:   -3.95 KCAL/MOL
REMARK 922        TOTAL FREE ENERGY PREDICTED BY IDOCK:   -7.80 KCAL/MOL
REMARK 923 INTER-LIGAND FREE ENERGY PREDICTED BY IDOCK:   -7.02 KCAL/MOL
REMARK 924 INTRA-LIGAND FREE ENERGY PREDICTED BY IDOCK:   -0.78 KCAL/MOL
REMARK 927      BINDING AFFINITY PREDICTED BY RF-SCORE:    0.00 PKD
ROOT
HETATM    1  C   UNL     1     -10.271   9.242  67.039  1.00  0.00    -0.262 C  
HETATM    2  N   UNL     1      -8.868   9.755  67.348  1.00  0.00    -0.132 N  
HETATM    3  C   UNL     1      -8.005   9.633  66.096  1.00  0.00    -0.108 C  
ENDROOT
BRANCH   2   4
HETATM    4  C   UNL     1      -8.960  11.191  67.823  1.00  0.00    -0.139 C  
BRANCH   4   5
HETATM    5  C   UNL     1      -8.842  12.269  66.746  1.00  0.00    -0.195 C  
BRANCH   5   6
HETATM    6  C   UNL     1     -10.220  12.907  66.518  1.00  0.00    -0.264 C  
BRANCH   6   7
HETATM    7  C   UNL     1     -10.211  14.083  65.524  1.00  0.00    -0.362 C  
BRANCH   7   8
HETATM    8  C   UNL     1      -9.289  15.242  65.934  1.00  0.00    -0.308 C  
BRANCH   8   9
HETATM    9  C   UNL     1     -10.143  16.493  66.140  1.00  0.00    -0.348 C  
BRANCH   9  10
HETATM   10  N   UNL     1      -9.444  17.657  66.825  1.00  0.00    -0.270 N  
HETATM   11  C   UNL     1      -8.012  17.814  66.324  1.00  0.00    -0.247 C  
HETATM   12  C   UNL     1     -10.144  18.980  66.556  1.00  0.00    -0.403 C  
BRANCH  10  13
HETATM   13  C   UNL     1      -9.450  17.343  68.399  1.00  0.00    -0.293 C  
HETATM   14  C   UNL     1      -8.091  16.874  68.954  1.00  0.00    -0.219 A  
HETATM   15  C   UNL     1      -8.209  15.573  69.491  1.00  0.00    -0.209 A  
HETATM   16  C   UNL     1      -9.588  15.152  69.429  1.00  0.00    -0.195 A  
HETATM   17  C   UNL     1      -7.109  14.900  70.004  1.00  0.00    -0.045 A  
HETATM   18  C   UNL     1     -10.361  16.167  68.819  1.00  0.00    -0.248 A  
HETATM   19  C   UNL     1      -5.870  15.539  69.987  1.00  0.00    -0.144 A  
HETATM   20  C   UNL     1      -5.752  16.844  69.490  1.00  0.00    -0.187 A  
HETATM   21  C   UNL     1     -11.741  16.013  68.725  1.00  0.00    -0.302 A  
HETATM   22  C   UNL     1     -12.325  14.827  69.192  1.00  0.00    -0.114 A  
HETATM   23  C   UNL     1      -6.865  17.527  68.992  1.00  0.00    -0.242 A  
HETATM   24  C   UNL     1     -11.548  13.827  69.784  1.00  0.00    -0.324 A  
HETATM   25  C   UNL     1     -10.169  13.987  69.915  1.00  0.00     0.748 A  
ENDBRANCH  10  13
ENDBRANCH   9  10
ENDBRANCH   8   9
ENDBRANCH   7   8
ENDBRANCH   6   7
ENDBRANCH   5   6
ENDBRANCH   4   5
ENDBRANCH   2   4
BRANCH   2  26
HETATM   26  C   UNL     1      -8.206   8.897  68.543  1.00  0.00    -0.116 C  
HETATM   27  C   UNL     1     -10.472   6.796  70.608  1.00  0.00    -0.243 A  
HETATM   28  C   UNL     1      -7.805   7.459  68.154  1.00  0.00    -0.122 A  
HETATM   29  C   UNL     1     -11.163   7.719  71.385  1.00  0.00    -0.276 A  
HETATM   30  C   UNL     1      -8.607   6.535  68.865  1.00  0.00    -0.125 A  
HETATM   31  C   UNL     1      -9.477   7.259  69.762  1.00  0.00    -0.149 A  
HETATM   32  C   UNL     1      -8.445   5.166  68.707  1.00  0.00    -0.087 A  
HETATM   33  C   UNL     1     -10.817   9.079  71.374  1.00  0.00    -0.400 A  
HETATM   34  C   UNL     1      -6.797   6.989  67.314  1.00  0.00    -0.069 A  
HETATM   35  C   UNL     1      -9.178   8.637  69.688  1.00  0.00    -0.157 A  
HETATM   36  C   UNL     1      -7.469   4.704  67.822  1.00  0.00    -0.077 A  
HETATM   37  C   UNL     1      -9.785   9.545  70.549  1.00  0.00    -0.325 A  
HETATM   38  C   UNL     1      -6.653   5.607  67.131  1.00  0.00    -0.056 A  
ENDBRANCH   2  26
TORSDOF 9
ENDMDL
MODEL      321
REMARK 921   NORMALIZED FREE ENERGY PREDICTED BY IDOCK:   -3.95 KCAL/MOL
REMARK 922        TOTAL FREE ENERGY PREDICTED BY IDOCK:   -7.79 KCAL/MOL
REMARK 923 INTER-LIGAND FREE ENERGY PREDICTED BY IDOCK:   -7.53 KCAL/MOL
REMARK 924 INTRA-LIGAND FREE ENERGY PREDICTED BY IDOCK:   -0.26 KCAL/MOL
REMARK 927      BINDING AFFINITY PREDICTED BY RF-SCORE:    0.00 PKD
ROOT
HETATM    1  C   UNL     1      -9.105  10.933  68.768  1.00  0.00    -0.171 C  
HETATM    2  N   UNL     1     -10.285  10.001  68.517  1.00  0.00    -0.168 N  
HETATM    3  C   UNL     1      -9.984   9.132  67.298  1.00  0.00    -0.211 C  
ENDROOT
BRANCH   2   4
HETATM    4  C   UNL     1     -10.524   9.159  69.753  1.00  0.00    -0.223 C  
BRANCH   4   5
HETATM    5  C   UNL     1      -9.625   7.935  69.925  1.00  0.00    -0.168 C  
BRANCH   5   6
HETATM    6  C   UNL     1     -10.306   6.937  70.870  1.00  0.00    -0.218 C  
BRANCH   6   7
HETATM    7  C   UNL     1      -9.548   5.607  71.033  1.00  0.00    -0.210 C  
BRANCH   7   8
HETATM    8  C   UNL     1     -10.080   4.471  70.145  1.00  0.00    -0.220 C  
BRANCH   8   9
HETATM    9  C   UNL     1      -9.275   4.453  68.845  1.00  0.00    -0.140 C  
BRANCH   9  10
HETATM   10  N   UNL     1      -8.557   3.148  68.539  1.00  0.00    -0.083 N  
HETATM   11  C   UNL     1      -7.946   2.544  69.799  1.00  0.00    -0.041 C  
HETATM   12  C   UNL     1      -9.499   2.099  67.969  1.00  0.00    -0.147 C  
BRANCH  10  13
HETATM   13  C   UNL     1      -7.406   3.488  67.472  1.00  0.00    -0.059 C  
HETATM   14  C   UNL     1      -6.822   4.908  67.607  1.00  0.00    -0.060 A  
HETATM   15  C   UNL     1      -7.048   5.641  66.421  1.00  0.00    -0.072 A  
HETATM   16  C   UNL     1      -7.667   4.784  65.439  1.00  0.00    -0.086 A  
HETATM   17  C   UNL     1      -6.667   6.970  66.309  1.00  0.00    -0.053 A  
HETATM   18  C   UNL     1      -7.876   3.502  65.999  1.00  0.00    -0.089 A  
HETATM   19  C   UNL     1      -6.042   7.578  67.397  1.00  0.00    -0.048 A  
HETATM   20  C   UNL     1      -5.780   6.848  68.563  1.00  0.00    -0.018 A  
HETATM   21  C   UNL     1      -8.390   2.483  65.204  1.00  0.00    -0.094 A  
HETATM   22  C   UNL     1      -8.740   2.768  63.877  1.00  0.00    -0.086 A  
HETATM   23  C   UNL     1      -6.148   5.503  68.667  1.00  0.00    -0.025 A  
HETATM   24  C   UNL     1      -8.538   4.042  63.337  1.00  0.00    -0.100 A  
HETATM   25  C   UNL     1      -7.990   5.061  64.116  1.00  0.00    -0.105 A  
ENDBRANCH  10  13
ENDBRANCH   9  10
ENDBRANCH   8   9
ENDBRANCH   7   8
ENDBRANCH   6   7
ENDBRANCH   5   6
ENDBRANCH   4   5
ENDBRANCH   2   4
BRANCH   2  26
HETATM   26  C   UNL     1     -11.628  10.853  68.250  1.00  0.00    -0.262 C  
HETATM   27  C   UNL     1     -12.273  13.775  70.455  1.00  0.00    -0.433 A  
HETATM   28  C   UNL     1     -11.446  12.057  67.301  1.00  0.00    -0.403 A  
HETATM   29  C   UNL     1     -12.639  13.200  71.667  1.00  0.00    -0.229 A  
HETATM   30  C   UNL     1     -11.652  13.259  68.018  1.00  0.00    -0.371 A  
HETATM   31  C   UNL     1     -12.031  12.940  69.375  1.00  0.00    -0.327 A  
HETATM   32  C   UNL     1     -11.558  14.496  67.396  1.00  0.00    -0.406 A  
HETATM   33  C   UNL     1     -12.833  11.815  71.784  1.00  0.00    -0.403 A  
HETATM   34  C   UNL     1     -11.191  12.109  65.933  1.00  0.00    -0.384 A  
HETATM   35  C   UNL     1     -12.148  11.539  69.508  1.00  0.00    -0.351 A  
HETATM   36  C   UNL     1     -11.249  14.541  66.036  1.00  0.00    -0.337 A  
HETATM   37  C   UNL     1     -12.628  10.972  70.684  1.00  0.00    -0.427 A  
HETATM   38  C   UNL     1     -11.066  13.358  65.311  1.00  0.00    -0.305 A  
ENDBRANCH   2  26
TORSDOF 9
ENDMDL
MODEL      322
REMARK 921   NORMALIZED FREE ENERGY PREDICTED BY IDOCK:   -3.92 KCAL/MOL
REMARK 922        TOTAL FREE ENERGY PREDICTED BY IDOCK:   -7.75 KCAL/MOL
REMARK 923 INTER-LIGAND FREE ENERGY PREDICTED BY IDOCK:   -7.10 KCAL/MOL
REMARK 924 INTRA-LIGAND FREE ENERGY PREDICTED BY IDOCK:   -0.64 KCAL/MOL
REMARK 927      BINDING AFFINITY PREDICTED BY RF-SCORE:    0.00 PKD
ROOT
HETATM    1  C   UNL     1     -10.946   7.204  70.989  1.00  0.00    -0.252 C  
HETATM    2  N   UNL     1     -10.550   7.374  69.526  1.00  0.00    -0.235 N  
HETATM    3  C   UNL     1     -11.461   6.508  68.660  1.00  0.00     0.055 C  
ENDROOT
BRANCH   2   4
HETATM    4  C   UNL     1     -10.655   8.838  69.153  1.00  0.00    -0.184 C  
BRANCH   4   5
HETATM    5  C   UNL     1     -11.007   9.803  70.284  1.00  0.00    -0.352 C  
BRANCH   5   6
HETATM    6  C   UNL     1     -12.075  10.789  69.792  1.00  0.00    -0.389 C  
BRANCH   6   7
HETATM    7  C   UNL     1     -12.873  11.466  70.921  1.00  0.00    -0.323 C  
BRANCH   7   8
HETATM    8  C   UNL     1     -12.894  13.000  70.840  1.00  0.00    -0.222 C  
BRANCH   8   9
HETATM    9  C   UNL     1     -11.495  13.487  70.463  1.00  0.00     0.264 C  
BRANCH   9  10
HETATM   10  N   UNL     1     -11.385  14.964  70.120  1.00  0.00    -0.256 N  
HETATM   11  C   UNL     1     -12.660  15.473  69.455  1.00  0.00     0.145 C  
HETATM   12  C   UNL     1     -11.171  15.822  71.358  1.00  0.00    -0.284 C  
BRANCH  10  13
HETATM   13  C   UNL     1     -10.137  15.120  69.123  1.00  0.00    -0.245 C  
HETATM   14  C   UNL     1     -10.159  16.414  68.285  1.00  0.00    -0.248 A  
HETATM   15  C   UNL     1     -10.215  16.099  66.908  1.00  0.00    -0.283 A  
HETATM   16  C   UNL     1     -10.135  14.668  66.741  1.00  0.00    -0.266 A  
HETATM   17  C   UNL     1     -10.301  17.092  65.943  1.00  0.00    -0.294 A  
HETATM   18  C   UNL     1     -10.062  14.050  68.010  1.00  0.00    -0.239 A  
HETATM   19  C   UNL     1     -10.326  18.423  66.357  1.00  0.00    -0.430 A  
HETATM   20  C   UNL     1     -10.234  18.745  67.717  1.00  0.00    -0.446 A  
HETATM   21  C   UNL     1      -9.897  12.671  68.091  1.00  0.00    -0.226 A  
HETATM   22  C   UNL     1      -9.859  11.921  66.908  1.00  0.00    -0.217 A  
HETATM   23  C   UNL     1     -10.127  17.743  68.687  1.00  0.00    -0.384 A  
HETATM   24  C   UNL     1      -9.942  12.543  65.658  1.00  0.00    -0.259 A  
HETATM   25  C   UNL     1     -10.072  13.929  65.566  1.00  0.00    -0.319 A  
ENDBRANCH  10  13
ENDBRANCH   9  10
ENDBRANCH   8   9
ENDBRANCH   7   8
ENDBRANCH   6   7
ENDBRANCH   5   6
ENDBRANCH   4   5
ENDBRANCH   2   4
BRANCH   2  26
HETATM   26  C   UNL     1      -9.016   6.931  69.303  1.00  0.00    -0.137 C  
HETATM   27  C   UNL     1      -6.375   9.069  70.809  1.00  0.00    -0.055 A  
HETATM   28  C   UNL     1      -8.436   6.040  70.422  1.00  0.00    -0.132 A  
HETATM   29  C   UNL     1      -6.373  10.206  70.007  1.00  0.00    -0.088 A  
HETATM   30  C   UNL     1      -7.411   6.740  71.102  1.00  0.00    -0.087 A  
HETATM   31  C   UNL     1      -7.215   8.022  70.466  1.00  0.00    -0.052 A  
HETATM   32  C   UNL     1      -6.714   6.160  72.152  1.00  0.00    -0.068 A  
HETATM   33  C   UNL     1      -7.144  10.269  68.837  1.00  0.00    -0.075 A  
HETATM   34  C   UNL     1      -8.721   4.723  70.779  1.00  0.00    -0.134 A  
HETATM   35  C   UNL     1      -8.052   8.112  69.333  1.00  0.00    -0.116 A  
HETATM   36  C   UNL     1      -7.043   4.860  72.538  1.00  0.00    -0.077 A  
HETATM   37  C   UNL     1      -7.965   9.196  68.466  1.00  0.00    -0.102 A  
HETATM   38  C   UNL     1      -8.038   4.148  71.859  1.00  0.00    -0.088 A  
ENDBRANCH   2  26
TORSDOF 9
ENDMDL
MODEL      323
REMARK 921   NORMALIZED FREE ENERGY PREDICTED BY IDOCK:   -3.92 KCAL/MOL
REMARK 922        TOTAL FREE ENERGY PREDICTED BY IDOCK:   -7.75 KCAL/MOL
REMARK 923 INTER-LIGAND FREE ENERGY PREDICTED BY IDOCK:   -7.07 KCAL/MOL
REMARK 924 INTRA-LIGAND FREE ENERGY PREDICTED BY IDOCK:   -0.68 KCAL/MOL
REMARK 927      BINDING AFFINITY PREDICTED BY RF-SCORE:    0.00 PKD
ROOT
HETATM    1  C   UNL     1      -8.121  17.527  68.809  1.00  0.00    -0.232 C  
HETATM    2  N   UNL     1      -8.384  16.148  68.213  1.00  0.00    -0.166 N  
HETATM    3  C   UNL     1      -7.574  15.997  66.929  1.00  0.00    -0.233 C  
ENDROOT
BRANCH   2   4
HETATM    4  C   UNL     1      -8.014  15.090  69.232  1.00  0.00    -0.190 C  
BRANCH   4   5
HETATM    5  C   UNL     1      -6.763  14.266  68.930  1.00  0.00    -0.100 C  
BRANCH   5   6
HETATM    6  C   UNL     1      -7.149  12.784  68.822  1.00  0.00    -0.089 C  
BRANCH   6   7
HETATM    7  C   UNL     1      -6.315  11.850  69.718  1.00  0.00    -0.118 C  
BRANCH   7   8
HETATM    8  C   UNL     1      -6.798  10.392  69.722  1.00  0.00    -0.130 C  
BRANCH   8   9
HETATM    9  C   UNL     1      -8.285  10.370  69.368  1.00  0.00    -0.151 C  
BRANCH   9  10
HETATM   10  N   UNL     1      -8.863   9.000  69.053  1.00  0.00    -0.135 N  
HETATM   11  C   UNL     1      -9.688   8.466  70.220  1.00  0.00    -0.172 C  
HETATM   12  C   UNL     1      -9.791   9.035  67.848  1.00  0.00    -0.171 C  
BRANCH  10  13
HETATM   13  C   UNL     1      -7.621   8.026  68.760  1.00  0.00    -0.103 C  
HETATM   14  C   UNL     1      -7.281   7.871  67.265  1.00  0.00    -0.090 A  
HETATM   15  C   UNL     1      -7.423   6.521  66.872  1.00  0.00    -0.084 A  
HETATM   16  C   UNL     1      -7.746   5.718  68.026  1.00  0.00    -0.096 A  
HETATM   17  C   UNL     1      -7.229   6.127  65.555  1.00  0.00    -0.074 A  
HETATM   18  C   UNL     1      -7.848   6.550  69.164  1.00  0.00    -0.110 A  
HETATM   19  C   UNL     1      -6.881   7.095  64.615  1.00  0.00    -0.050 A  
HETATM   20  C   UNL     1      -6.702   8.429  65.003  1.00  0.00    -0.063 A  
HETATM   21  C   UNL     1      -8.075   5.980  70.413  1.00  0.00    -0.111 A  
HETATM   22  C   UNL     1      -8.248   4.592  70.503  1.00  0.00    -0.072 A  
HETATM   23  C   UNL     1      -6.879   8.821  66.334  1.00  0.00    -0.075 A  
HETATM   24  C   UNL     1      -8.154   3.779  69.368  1.00  0.00    -0.062 A  
HETATM   25  C   UNL     1      -7.892   4.339  68.118  1.00  0.00    -0.079 A  
ENDBRANCH  10  13
ENDBRANCH   9  10
ENDBRANCH   8   9
ENDBRANCH   7   8
ENDBRANCH   6   7
ENDBRANCH   5   6
ENDBRANCH   4   5
ENDBRANCH   2   4
BRANCH   2  26
HETATM   26  C   UNL     1      -9.952  15.968  67.883  1.00  0.00    -0.233 C  
HETATM   27  C   UNL     1     -11.133  12.568  66.956  1.00  0.00    -0.326 A  
HETATM   28  C   UNL     1     -10.819  15.554  69.092  1.00  0.00    -0.251 A  
HETATM   29  C   UNL     1     -10.637  12.386  65.669  1.00  0.00    -0.297 A  
HETATM   30  C   UNL     1     -11.333  14.253  68.881  1.00  0.00    -0.302 A  
HETATM   31  C   UNL     1     -10.926  13.791  67.575  1.00  0.00    -0.285 A  
HETATM   32  C   UNL     1     -12.157  13.642  69.816  1.00  0.00    -0.396 A  
HETATM   33  C   UNL     1     -10.006  13.432  64.980  1.00  0.00    -0.179 A  
HETATM   34  C   UNL     1     -11.183  16.260  70.237  1.00  0.00    -0.343 A  
HETATM   35  C   UNL     1     -10.222  14.822  66.916  1.00  0.00    -0.257 A  
HETATM   36  C   UNL     1     -12.473  14.335  70.986  1.00  0.00    -0.432 A  
HETATM   37  C   UNL     1      -9.830  14.682  65.588  1.00  0.00    -0.354 A  
HETATM   38  C   UNL     1     -11.990  15.632  71.195  1.00  0.00    -0.457 A  
ENDBRANCH   2  26
TORSDOF 9
ENDMDL
MODEL      324
REMARK 921   NORMALIZED FREE ENERGY PREDICTED BY IDOCK:   -3.90 KCAL/MOL
REMARK 922        TOTAL FREE ENERGY PREDICTED BY IDOCK:   -7.72 KCAL/MOL
REMARK 923 INTER-LIGAND FREE ENERGY PREDICTED BY IDOCK:   -7.71 KCAL/MOL
REMARK 924 INTRA-LIGAND FREE ENERGY PREDICTED BY IDOCK:   -0.01 KCAL/MOL
REMARK 927      BINDING AFFINITY PREDICTED BY RF-SCORE:    0.00 PKD
ROOT
HETATM    1  C   UNL     1      -8.425   8.368  71.501  1.00  0.00    -0.157 C  
HETATM    2  N   UNL     1      -9.662   8.459  70.613  1.00  0.00    -0.174 N  
HETATM    3  C   UNL     1     -10.787   9.134  71.393  1.00  0.00    -0.349 C  
ENDROOT
BRANCH   2   4
HETATM    4  C   UNL     1      -9.315   9.232  69.358  1.00  0.00    -0.164 C  
BRANCH   4   5
HETATM    5  C   UNL     1      -8.031  10.059  69.404  1.00  0.00    -0.145 C  
BRANCH   5   6
HETATM    6  C   UNL     1      -7.472  10.203  67.982  1.00  0.00    -0.087 C  
BRANCH   6   7
HETATM    7  C   UNL     1      -6.209  11.079  67.888  1.00  0.00    -0.053 C  
BRANCH   7   8
HETATM    8  C   UNL     1      -6.416  12.394  67.121  1.00  0.00    -0.097 C  
BRANCH   8   9
HETATM    9  C   UNL     1      -7.673  13.079  67.658  1.00  0.00    -0.161 C  
BRANCH   9  10
HETATM   10  N   UNL     1      -7.435  14.359  68.443  1.00  0.00    -0.110 N  
HETATM   11  C   UNL     1      -6.735  14.075  69.767  1.00  0.00    -0.038 C  
HETATM   12  C   UNL     1      -6.548  15.335  67.685  1.00  0.00    -0.171 C  
BRANCH  10  13
HETATM   13  C   UNL     1      -8.875  15.019  68.706  1.00  0.00    -0.192 C  
HETATM   14  C   UNL     1     -10.056  14.191  68.163  1.00  0.00    -0.239 A  
HETATM   15  C   UNL     1     -10.764  14.934  67.192  1.00  0.00    -0.296 A  
HETATM   16  C   UNL     1     -10.203  16.261  67.102  1.00  0.00    -0.276 A  
HETATM   17  C   UNL     1     -11.841  14.389  66.508  1.00  0.00    -0.406 A  
HETATM   18  C   UNL     1      -9.108  16.369  67.989  1.00  0.00    -0.200 A  
HETATM   19  C   UNL     1     -12.224  13.081  66.802  1.00  0.00    -0.261 A  
HETATM   20  C   UNL     1     -11.550  12.350  67.789  1.00  0.00    -0.413 A  
HETATM   21  C   UNL     1      -8.459  17.591  68.130  1.00  0.00    -0.254 A  
HETATM   22  C   UNL     1      -8.876  18.676  67.347  1.00  0.00    -0.284 A  
HETATM   23  C   UNL     1     -10.478  12.908  68.491  1.00  0.00    -0.260 A  
HETATM   24  C   UNL     1      -9.955  18.554  66.465  1.00  0.00    -0.401 A  
HETATM   25  C   UNL     1     -10.635  17.342  66.343  1.00  0.00    -0.192 A  
ENDBRANCH  10  13
ENDBRANCH   9  10
ENDBRANCH   8   9
ENDBRANCH   7   8
ENDBRANCH   6   7
ENDBRANCH   5   6
ENDBRANCH   4   5
ENDBRANCH   2   4
BRANCH   2  26
HETATM   26  C   UNL     1     -10.135   6.987  70.155  1.00  0.00    -0.187 C  
HETATM   27  C   UNL     1      -7.556   4.312  70.044  1.00  0.00    -0.049 A  
HETATM   28  C   UNL     1     -10.544   6.054  71.315  1.00  0.00    -0.302 A  
HETATM   29  C   UNL     1      -6.794   4.634  68.927  1.00  0.00    -0.051 A  
HETATM   30  C   UNL     1      -9.629   4.979  71.403  1.00  0.00    -0.220 A  
HETATM   31  C   UNL     1      -8.668   5.089  70.330  1.00  0.00    -0.128 A  
HETATM   32  C   UNL     1      -9.773   3.985  72.360  1.00  0.00    -0.210 A  
HETATM   33  C   UNL     1      -7.176   5.671  68.062  1.00  0.00    -0.072 A  
HETATM   34  C   UNL     1     -11.642   6.094  72.173  1.00  0.00    -0.369 A  
HETATM   35  C   UNL     1      -9.012   6.184  69.508  1.00  0.00    -0.133 A  
HETATM   36  C   UNL     1     -10.845   4.061  73.251  1.00  0.00    -0.301 A  
HETATM   37  C   UNL     1      -8.322   6.433  68.327  1.00  0.00    -0.116 A  
HETATM   38  C   UNL     1     -11.770   5.107  73.159  1.00  0.00    -0.189 A  
ENDBRANCH   2  26
TORSDOF 9
ENDMDL
MODEL      325
REMARK 921   NORMALIZED FREE ENERGY PREDICTED BY IDOCK:   -3.88 KCAL/MOL
REMARK 922        TOTAL FREE ENERGY PREDICTED BY IDOCK:   -7.69 KCAL/MOL
REMARK 923 INTER-LIGAND FREE ENERGY PREDICTED BY IDOCK:   -7.27 KCAL/MOL
REMARK 924 INTRA-LIGAND FREE ENERGY PREDICTED BY IDOCK:   -0.41 KCAL/MOL
REMARK 927      BINDING AFFINITY PREDICTED BY RF-SCORE:    0.00 PKD
ROOT
HETATM    1  C   UNL     1     -12.363  13.168  69.789  1.00  0.00    -0.102 C  
HETATM    2  N   UNL     1     -11.191  13.955  69.212  1.00  0.00    -0.258 N  
HETATM    3  C   UNL     1     -10.634  14.882  70.289  1.00  0.00     0.009 C  
ENDROOT
BRANCH   2   4
HETATM    4  C   UNL     1     -10.140  12.983  68.717  1.00  0.00    -0.055 C  
BRANCH   4   5
HETATM    5  C   UNL     1     -10.494  11.499  68.801  1.00  0.00    -0.227 C  
BRANCH   5   6
HETATM    6  C   UNL     1      -9.685  10.727  67.750  1.00  0.00    -0.179 C  
BRANCH   6   7
HETATM    7  C   UNL     1     -10.538   9.835  66.829  1.00  0.00    -0.208 C  
BRANCH   7   8
HETATM    8  C   UNL     1     -10.436   8.335  67.141  1.00  0.00    -0.386 C  
BRANCH   8   9
HETATM    9  C   UNL     1      -9.418   8.139  68.265  1.00  0.00    -0.141 C  
BRANCH   9  10
HETATM   10  N   UNL     1      -9.847   7.201  69.382  1.00  0.00    -0.160 N  
HETATM   11  C   UNL     1     -10.242   7.977  70.634  1.00  0.00    -0.196 C  
HETATM   12  C   UNL     1     -11.057   6.366  68.991  1.00  0.00    -0.358 C  
BRANCH  10  13
HETATM   13  C   UNL     1      -8.597   6.243  69.693  1.00  0.00    -0.133 C  
HETATM   14  C   UNL     1      -7.563   6.851  70.660  1.00  0.00    -0.094 A  
HETATM   15  C   UNL     1      -6.309   6.970  70.019  1.00  0.00    -0.035 A  
HETATM   16  C   UNL     1      -6.390   6.391  68.700  1.00  0.00    -0.038 A  
HETATM   17  C   UNL     1      -5.221   7.543  70.661  1.00  0.00    -0.023 A  
HETATM   18  C   UNL     1      -7.706   5.927  68.470  1.00  0.00    -0.094 A  
HETATM   19  C   UNL     1      -5.383   8.002  71.967  1.00  0.00    -0.035 A  
HETATM   20  C   UNL     1      -6.612   7.855  72.623  1.00  0.00    -0.073 A  
HETATM   21  C   UNL     1      -7.999   5.256  67.287  1.00  0.00    -0.101 A  
HETATM   22  C   UNL     1      -6.989   5.101  66.327  1.00  0.00    -0.067 A  
HETATM   23  C   UNL     1      -7.702   7.259  71.982  1.00  0.00    -0.089 A  
HETATM   24  C   UNL     1      -5.694   5.573  66.562  1.00  0.00    -0.017 A  
HETATM   25  C   UNL     1      -5.382   6.216  67.760  1.00  0.00    -0.005 A  
ENDBRANCH  10  13
ENDBRANCH   9  10
ENDBRANCH   8   9
ENDBRANCH   7   8
ENDBRANCH   6   7
ENDBRANCH   5   6
ENDBRANCH   4   5
ENDBRANCH   2   4
BRANCH   2  26
HETATM   26  C   UNL     1     -11.670  14.830  67.945  1.00  0.00    -0.341 C  
HETATM   27  C   UNL     1      -9.075  16.756  66.109  1.00  0.00    -0.288 A  
HETATM   28  C   UNL     1     -11.581  14.098  66.589  1.00  0.00    -0.399 A  
HETATM   29  C   UNL     1      -8.770  17.804  66.971  1.00  0.00    -0.254 A  
HETATM   30  C   UNL     1     -10.606  14.724  65.776  1.00  0.00    -0.338 A  
HETATM   31  C   UNL     1     -10.082  15.876  66.473  1.00  0.00    -0.293 A  
HETATM   32  C   UNL     1     -10.333  14.267  64.495  1.00  0.00    -0.071 A  
HETATM   33  C   UNL     1      -9.507  18.015  68.146  1.00  0.00    -0.292 A  
HETATM   34  C   UNL     1     -12.318  13.031  66.078  1.00  0.00    -0.387 A  
HETATM   35  C   UNL     1     -10.775  16.037  67.692  1.00  0.00    -0.320 A  
HETATM   36  C   UNL     1     -11.038  13.164  64.012  1.00  0.00    -0.395 A  
HETATM   37  C   UNL     1     -10.552  17.150  68.497  1.00  0.00    -0.361 A  
HETATM   38  C   UNL     1     -12.021  12.551  64.796  1.00  0.00    -0.469 A  
ENDBRANCH   2  26
TORSDOF 9
ENDMDL
MODEL      326
REMARK 921   NORMALIZED FREE ENERGY PREDICTED BY IDOCK:   -3.88 KCAL/MOL
REMARK 922        TOTAL FREE ENERGY PREDICTED BY IDOCK:   -7.68 KCAL/MOL
REMARK 923 INTER-LIGAND FREE ENERGY PREDICTED BY IDOCK:   -7.56 KCAL/MOL
REMARK 924 INTRA-LIGAND FREE ENERGY PREDICTED BY IDOCK:   -0.12 KCAL/MOL
REMARK 927      BINDING AFFINITY PREDICTED BY RF-SCORE:    0.00 PKD
ROOT
HETATM    1  C   UNL     1     -11.570  16.486  65.705  1.00  0.00     0.900 C  
HETATM    2  N   UNL     1     -10.352  15.694  66.169  1.00  0.00    -0.299 N  
HETATM    3  C   UNL     1     -10.603  15.175  67.582  1.00  0.00    -0.263 C  
ENDROOT
BRANCH   2   4
HETATM    4  C   UNL     1     -10.099  14.560  65.197  1.00  0.00    -0.327 C  
BRANCH   4   5
HETATM    5  C   UNL     1     -11.308  14.067  64.402  1.00  0.00    -0.330 C  
BRANCH   5   6
HETATM    6  C   UNL     1     -11.256  12.536  64.303  1.00  0.00    -0.407 C  
BRANCH   6   7
HETATM    7  C   UNL     1     -10.714  11.843  65.566  1.00  0.00    -0.329 C  
BRANCH   7   8
HETATM    8  C   UNL     1      -9.593  10.829  65.291  1.00  0.00    -0.278 C  
BRANCH   8   9
HETATM    9  C   UNL     1      -8.533  10.967  66.384  1.00  0.00    -0.164 C  
BRANCH   9  10
HETATM   10  N   UNL     1      -8.039   9.662  66.986  1.00  0.00    -0.112 N  
HETATM   11  C   UNL     1      -6.884   9.081  66.177  1.00  0.00    -0.081 C  
HETATM   12  C   UNL     1      -7.523   9.848  68.405  1.00  0.00    -0.082 C  
BRANCH  10  13
HETATM   13  C   UNL     1      -9.283   8.647  66.985  1.00  0.00    -0.151 C  
HETATM   14  C   UNL     1     -10.021   8.554  68.334  1.00  0.00    -0.208 A  
HETATM   15  C   UNL     1      -9.954   7.234  68.834  1.00  0.00    -0.166 A  
HETATM   16  C   UNL     1      -9.298   6.388  67.866  1.00  0.00    -0.114 A  
HETATM   17  C   UNL     1     -10.495   6.900  70.067  1.00  0.00    -0.231 A  
HETATM   18  C   UNL     1      -8.908   7.165  66.751  1.00  0.00    -0.137 A  
HETATM   19  C   UNL     1     -11.121   7.898  70.813  1.00  0.00    -0.264 A  
HETATM   20  C   UNL     1     -11.225   9.200  70.308  1.00  0.00    -0.249 A  
HETATM   21  C   UNL     1      -8.325   6.543  65.652  1.00  0.00    -0.144 A  
HETATM   22  C   UNL     1      -8.092   5.161  65.700  1.00  0.00    -0.115 A  
HETATM   23  C   UNL     1     -10.696   9.531  69.057  1.00  0.00    -0.224 A  
HETATM   24  C   UNL     1      -8.474   4.405  66.813  1.00  0.00    -0.105 A  
HETATM   25  C   UNL     1      -9.090   5.015  67.904  1.00  0.00    -0.126 A  
ENDBRANCH  10  13
ENDBRANCH   9  10
ENDBRANCH   8   9
ENDBRANCH   7   8
ENDBRANCH   6   7
ENDBRANCH   5   6
ENDBRANCH   4   5
ENDBRANCH   2   4
BRANCH   2  26
HETATM   26  C   UNL     1      -9.038  16.630  66.166  1.00  0.00    -0.283 C  
HETATM   27  C   UNL     1      -8.977  19.513  68.511  1.00  0.00    -0.395 A  
HETATM   28  C   UNL     1      -7.960  16.225  67.194  1.00  0.00    -0.220 A  
HETATM   29  C   UNL     1      -9.868  20.418  67.945  1.00  0.00    -0.433 A  
HETATM   30  C   UNL     1      -7.835  17.240  68.173  1.00  0.00    -0.220 A  
HETATM   31  C   UNL     1      -8.711  18.336  67.829  1.00  0.00    -0.263 A  
HETATM   32  C   UNL     1      -6.923  17.131  69.213  1.00  0.00    -0.186 A  
HETATM   33  C   UNL     1     -10.430  20.188  66.680  1.00  0.00    -0.435 A  
HETATM   34  C   UNL     1      -7.119  15.115  67.244  1.00  0.00    -0.161 A  
HETATM   35  C   UNL     1      -9.335  18.062  66.593  1.00  0.00    -0.297 A  
HETATM   36  C   UNL     1      -6.122  15.991  69.286  1.00  0.00    -0.138 A  
HETATM   37  C   UNL     1     -10.133  19.017  65.970  1.00  0.00    -0.401 A  
HETATM   38  C   UNL     1      -6.220  14.991  68.311  1.00  0.00    -0.124 A  
ENDBRANCH   2  26
TORSDOF 9
ENDMDL
MODEL      327
REMARK 921   NORMALIZED FREE ENERGY PREDICTED BY IDOCK:   -3.87 KCAL/MOL
REMARK 922        TOTAL FREE ENERGY PREDICTED BY IDOCK:   -7.67 KCAL/MOL
REMARK 923 INTER-LIGAND FREE ENERGY PREDICTED BY IDOCK:   -7.23 KCAL/MOL
REMARK 924 INTRA-LIGAND FREE ENERGY PREDICTED BY IDOCK:   -0.45 KCAL/MOL
REMARK 927      BINDING AFFINITY PREDICTED BY RF-SCORE:    0.00 PKD
ROOT
HETATM    1  C   UNL     1     -10.461   8.011  70.852  1.00  0.00    -0.202 C  
HETATM    2  N   UNL     1     -10.289   6.784  69.963  1.00  0.00    -0.194 N  
HETATM    3  C   UNL     1     -11.504   6.656  69.048  1.00  0.00    -0.073 C  
ENDROOT
BRANCH   2   4
HETATM    4  C   UNL     1      -9.007   6.924  69.169  1.00  0.00    -0.133 C  
BRANCH   4   5
HETATM    5  C   UNL     1      -8.018   7.981  69.659  1.00  0.00    -0.117 C  
BRANCH   5   6
HETATM    6  C   UNL     1      -7.164   8.460  68.478  1.00  0.00    -0.081 C  
BRANCH   6   7
HETATM    7  C   UNL     1      -7.702   9.725  67.785  1.00  0.00    -0.091 C  
BRANCH   7   8
HETATM    8  C   UNL     1      -8.640  10.568  68.662  1.00  0.00    -0.139 C  
BRANCH   8   9
HETATM    9  C   UNL     1      -9.388  11.555  67.766  1.00  0.00    -0.168 C  
BRANCH   9  10
HETATM   10  N   UNL     1     -10.617  10.999  67.063  1.00  0.00    -0.243 N  
HETATM   11  C   UNL     1     -10.437  11.004  65.549  1.00  0.00    -0.238 C  
HETATM   12  C   UNL     1     -10.898   9.558  67.461  1.00  0.00    -0.170 C  
BRANCH  10  13
HETATM   13  C   UNL     1     -11.855  11.934  67.478  1.00  0.00    -0.179 C  
HETATM   14  C   UNL     1     -11.582  13.443  67.328  1.00  0.00    -0.400 A  
HETATM   15  C   UNL     1     -11.691  14.084  68.583  1.00  0.00    -0.389 A  
HETATM   16  C   UNL     1     -12.117  13.125  69.574  1.00  0.00    -0.296 A  
HETATM   17  C   UNL     1     -11.435  15.440  68.727  1.00  0.00    -0.352 A  
HETATM   18  C   UNL     1     -12.252  11.854  68.971  1.00  0.00    -0.103 A  
HETATM   19  C   UNL     1     -11.070  16.172  67.599  1.00  0.00    -0.212 A  
HETATM   20  C   UNL     1     -10.996  15.553  66.344  1.00  0.00    -0.238 A  
HETATM   21  C   UNL     1     -12.733  10.786  69.722  1.00  0.00    -0.004 A  
HETATM   22  C   UNL     1     -13.023  10.987  71.079  1.00  0.00    -0.369 A  
HETATM   23  C   UNL     1     -11.273  14.190  66.198  1.00  0.00    -0.326 A  
HETATM   24  C   UNL     1     -12.876  12.248  71.667  1.00  0.00    -0.378 A  
HETATM   25  C   UNL     1     -12.429  13.332  70.912  1.00  0.00    -0.424 A  
ENDBRANCH  10  13
ENDBRANCH   9  10
ENDBRANCH   8   9
ENDBRANCH   7   8
ENDBRANCH   6   7
ENDBRANCH   5   6
ENDBRANCH   4   5
ENDBRANCH   2   4
BRANCH   2  26
HETATM   26  C   UNL     1     -10.152   5.453  70.863  1.00  0.00    -0.219 C  
HETATM   27  C   UNL     1      -7.042   3.449  70.502  1.00  0.00    -0.034 A  
HETATM   28  C   UNL     1      -9.438   5.663  72.215  1.00  0.00    -0.160 A  
HETATM   29  C   UNL     1      -7.185   2.837  69.261  1.00  0.00    -0.044 A  
HETATM   30  C   UNL     1      -8.211   4.957  72.218  1.00  0.00    -0.119 A  
HETATM   31  C   UNL     1      -8.086   4.226  70.978  1.00  0.00    -0.072 A  
HETATM   32  C   UNL     1      -7.373   4.969  73.323  1.00  0.00    -0.087 A  
HETATM   33  C   UNL     1      -8.382   2.938  68.536  1.00  0.00    -0.085 A  
HETATM   34  C   UNL     1      -9.840   6.345  73.362  1.00  0.00    -0.190 A  
HETATM   35  C   UNL     1      -9.263   4.396  70.217  1.00  0.00    -0.193 A  
HETATM   36  C   UNL     1      -7.758   5.700  74.448  1.00  0.00    -0.098 A  
HETATM   37  C   UNL     1      -9.455   3.690  69.033  1.00  0.00    -0.226 A  
HETATM   38  C   UNL     1      -8.980   6.384  74.467  1.00  0.00    -0.180 A  
ENDBRANCH   2  26
TORSDOF 9
ENDMDL
MODEL      328
REMARK 921   NORMALIZED FREE ENERGY PREDICTED BY IDOCK:   -3.86 KCAL/MOL
REMARK 922        TOTAL FREE ENERGY PREDICTED BY IDOCK:   -7.66 KCAL/MOL
REMARK 923 INTER-LIGAND FREE ENERGY PREDICTED BY IDOCK:   -7.13 KCAL/MOL
REMARK 924 INTRA-LIGAND FREE ENERGY PREDICTED BY IDOCK:   -0.53 KCAL/MOL
REMARK 927      BINDING AFFINITY PREDICTED BY RF-SCORE:    0.00 PKD
ROOT
HETATM    1  C   UNL     1      -9.638   9.541  65.566  1.00  0.00    -0.279 C  
HETATM    2  N   UNL     1      -9.799  10.501  66.741  1.00  0.00    -0.186 N  
HETATM    3  C   UNL     1     -11.285  10.751  66.981  1.00  0.00    -0.089 C  
ENDROOT
BRANCH   2   4
HETATM    4  C   UNL     1      -9.130   9.905  67.962  1.00  0.00    -0.121 C  
BRANCH   4   5
HETATM    5  C   UNL     1      -9.189   8.383  68.092  1.00  0.00    -0.141 C  
BRANCH   5   6
HETATM    6  C   UNL     1     -10.575   7.973  68.609  1.00  0.00    -0.143 C  
BRANCH   6   7
HETATM    7  C   UNL     1     -10.630   6.555  69.205  1.00  0.00    -0.286 C  
BRANCH   7   8
HETATM    8  C   UNL     1      -9.860   5.504  68.390  1.00  0.00    -0.186 C  
BRANCH   8   9
HETATM    9  C   UNL     1      -9.525   4.327  69.307  1.00  0.00    -0.184 C  
BRANCH   9  10
HETATM   10  N   UNL     1      -8.090   4.275  69.807  1.00  0.00    -0.059 N  
HETATM   11  C   UNL     1      -7.468   2.905  69.560  1.00  0.00    -0.044 C  
HETATM   12  C   UNL     1      -7.203   5.288  69.100  1.00  0.00    -0.058 C  
BRANCH  10  13
HETATM   13  C   UNL     1      -8.134   4.589  71.381  1.00  0.00    -0.095 C  
HETATM   14  C   UNL     1      -9.190   3.777  72.156  1.00  0.00    -0.169 A  
HETATM   15  C   UNL     1     -10.129   4.648  72.754  1.00  0.00    -0.220 A  
HETATM   16  C   UNL     1      -9.730   6.015  72.519  1.00  0.00    -0.169 A  
HETATM   17  C   UNL     1     -11.217   4.161  73.463  1.00  0.00    -0.341 A  
HETATM   18  C   UNL     1      -8.551   6.034  71.740  1.00  0.00    -0.134 A  
HETATM   19  C   UNL     1     -11.369   2.780  73.585  1.00  0.00    -0.270 A  
HETATM   20  C   UNL     1     -10.422   1.911  73.027  1.00  0.00    -0.223 A  
HETATM   21  C   UNL     1      -7.936   7.249  71.456  1.00  0.00    -0.100 A  
HETATM   22  C   UNL     1      -8.534   8.434  71.909  1.00  0.00    -0.237 A  
HETATM   23  C   UNL     1      -9.316   2.404  72.329  1.00  0.00    -0.153 A  
HETATM   24  C   UNL     1      -9.706   8.403  72.672  1.00  0.00    -0.332 A  
HETATM   25  C   UNL     1     -10.310   7.187  72.991  1.00  0.00    -0.310 A  
ENDBRANCH  10  13
ENDBRANCH   9  10
ENDBRANCH   8   9
ENDBRANCH   7   8
ENDBRANCH   6   7
ENDBRANCH   5   6
ENDBRANCH   4   5
ENDBRANCH   2   4
BRANCH   2  26
HETATM   26  C   UNL     1      -9.062  11.901  66.427  1.00  0.00    -0.208 C  
HETATM   27  C   UNL     1      -9.955  14.823  68.545  1.00  0.00    -0.228 A  
HETATM   28  C   UNL     1      -7.778  12.148  67.247  1.00  0.00    -0.168 A  
HETATM   29  C   UNL     1     -11.230  15.167  68.112  1.00  0.00    -0.326 A  
HETATM   30  C   UNL     1      -7.977  13.242  68.122  1.00  0.00    -0.150 A  
HETATM   31  C   UNL     1      -9.293  13.794  67.894  1.00  0.00    -0.211 A  
HETATM   32  C   UNL     1      -6.971  13.682  68.969  1.00  0.00    -0.098 A  
HETATM   33  C   UNL     1     -11.811  14.544  66.997  1.00  0.00    -0.408 A  
HETATM   34  C   UNL     1      -6.530  11.528  67.196  1.00  0.00    -0.123 A  
HETATM   35  C   UNL     1      -9.904  13.109  66.821  1.00  0.00    -0.251 A  
HETATM   36  C   UNL     1      -5.742  13.022  68.950  1.00  0.00    -0.074 A  
HETATM   37  C   UNL     1     -11.128  13.530  66.311  1.00  0.00    -0.308 A  
HETATM   38  C   UNL     1      -5.523  11.953  68.073  1.00  0.00    -0.049 A  
ENDBRANCH   2  26
TORSDOF 9
ENDMDL
MODEL      329
REMARK 921   NORMALIZED FREE ENERGY PREDICTED BY IDOCK:   -3.84 KCAL/MOL
REMARK 922        TOTAL FREE ENERGY PREDICTED BY IDOCK:   -7.63 KCAL/MOL
REMARK 923 INTER-LIGAND FREE ENERGY PREDICTED BY IDOCK:   -7.55 KCAL/MOL
REMARK 924 INTRA-LIGAND FREE ENERGY PREDICTED BY IDOCK:   -0.08 KCAL/MOL
REMARK 927      BINDING AFFINITY PREDICTED BY RF-SCORE:    0.00 PKD
ROOT
HETATM    1  C   UNL     1      -5.856   7.275  69.169  1.00  0.00    -0.019 C  
HETATM    2  N   UNL     1      -7.051   7.463  70.097  1.00  0.00    -0.063 N  
HETATM    3  C   UNL     1      -6.777   8.638  71.031  1.00  0.00    -0.063 C  
ENDROOT
BRANCH   2   4
HETATM    4  C   UNL     1      -8.294   7.695  69.262  1.00  0.00    -0.134 C  
BRANCH   4   5
HETATM    5  C   UNL     1      -9.208   8.835  69.709  1.00  0.00    -0.155 C  
BRANCH   5   6
HETATM    6  C   UNL     1      -9.356   9.842  68.560  1.00  0.00    -0.143 C  
BRANCH   6   7
HETATM    7  C   UNL     1      -8.799  11.243  68.876  1.00  0.00    -0.055 C  
BRANCH   7   8
HETATM    8  C   UNL     1      -9.456  12.374  68.069  1.00  0.00    -0.208 C  
BRANCH   8   9
HETATM    9  C   UNL     1      -8.369  13.361  67.642  1.00  0.00    -0.179 C  
BRANCH   9  10
HETATM   10  N   UNL     1      -8.619  14.812  68.019  1.00  0.00    -0.160 N  
HETATM   11  C   UNL     1      -9.933  14.969  68.776  1.00  0.00    -0.228 C  
HETATM   12  C   UNL     1      -7.528  15.362  68.926  1.00  0.00    -0.152 C  
BRANCH  10  13
HETATM   13  C   UNL     1      -8.665  15.649  66.649  1.00  0.00    -0.298 C  
HETATM   14  C   UNL     1      -8.879  17.162  66.842  1.00  0.00    -0.255 A  
HETATM   15  C   UNL     1     -10.079  17.567  66.214  1.00  0.00    -0.341 A  
HETATM   16  C   UNL     1     -10.656  16.443  65.516  1.00  0.00    -0.346 A  
HETATM   17  C   UNL     1     -10.529  18.877  66.291  1.00  0.00    -0.510 A  
HETATM   18  C   UNL     1      -9.850  15.300  65.719  1.00  0.00    -0.395 A  
HETATM   19  C   UNL     1      -9.766  19.803  67.002  1.00  0.00    -0.503 A  
HETATM   20  C   UNL     1      -8.558  19.418  67.597  1.00  0.00    -0.343 A  
HETATM   21  C   UNL     1     -10.171  14.111  65.071  1.00  0.00    -0.399 A  
HETATM   22  C   UNL     1     -11.321  14.064  64.271  1.00  0.00    -0.277 A  
HETATM   23  C   UNL     1      -8.096  18.102  67.501  1.00  0.00    -0.238 A  
HETATM   24  C   UNL     1     -12.116  15.200  64.085  1.00  0.00    -0.195 A  
HETATM   25  C   UNL     1     -11.781  16.405  64.702  1.00  0.00     0.197 A  
ENDBRANCH  10  13
ENDBRANCH   9  10
ENDBRANCH   8   9
ENDBRANCH   7   8
ENDBRANCH   6   7
ENDBRANCH   5   6
ENDBRANCH   4   5
ENDBRANCH   2   4
BRANCH   2  26
HETATM   26  C   UNL     1      -7.301   6.130  70.969  1.00  0.00    -0.083 C  
HETATM   27  C   UNL     1     -10.785   5.413  72.050  1.00  0.00    -0.281 A  
HETATM   28  C   UNL     1      -7.677   4.883  70.141  1.00  0.00    -0.062 A  
HETATM   29  C   UNL     1     -11.020   6.352  73.048  1.00  0.00    -0.269 A  
HETATM   30  C   UNL     1      -9.005   4.497  70.443  1.00  0.00    -0.144 A  
HETATM   31  C   UNL     1      -9.524   5.364  71.476  1.00  0.00    -0.185 A  
HETATM   32  C   UNL     1      -9.591   3.393  69.841  1.00  0.00    -0.198 A  
HETATM   33  C   UNL     1      -9.993   7.182  73.521  1.00  0.00    -0.344 A  
HETATM   34  C   UNL     1      -6.923   4.113  69.257  1.00  0.00    -0.046 A  
HETATM   35  C   UNL     1      -8.507   6.250  71.893  1.00  0.00    -0.124 A  
HETATM   36  C   UNL     1      -8.846   2.659  68.916  1.00  0.00    -0.151 A  
HETATM   37  C   UNL     1      -8.706   7.106  72.971  1.00  0.00    -0.150 A  
HETATM   38  C   UNL     1      -7.525   3.016  68.626  1.00  0.00    -0.049 A  
ENDBRANCH   2  26
TORSDOF 9
ENDMDL
MODEL      330
REMARK 921   NORMALIZED FREE ENERGY PREDICTED BY IDOCK:   -3.84 KCAL/MOL
REMARK 922        TOTAL FREE ENERGY PREDICTED BY IDOCK:   -7.63 KCAL/MOL
REMARK 923 INTER-LIGAND FREE ENERGY PREDICTED BY IDOCK:   -7.03 KCAL/MOL
REMARK 924 INTRA-LIGAND FREE ENERGY PREDICTED BY IDOCK:   -0.60 KCAL/MOL
REMARK 927      BINDING AFFINITY PREDICTED BY RF-SCORE:    0.00 PKD
ROOT
HETATM    1  C   UNL     1      -9.140  10.932  68.753  1.00  0.00    -0.171 C  
HETATM    2  N   UNL     1     -10.256   9.950  68.411  1.00  0.00    -0.170 N  
HETATM    3  C   UNL     1      -9.883   9.195  67.138  1.00  0.00    -0.195 C  
ENDROOT
BRANCH   2   4
HETATM    4  C   UNL     1     -10.459   9.005  69.577  1.00  0.00    -0.219 C  
BRANCH   4   5
HETATM    5  C   UNL     1      -9.543   7.783  69.628  1.00  0.00    -0.163 C  
BRANCH   5   6
HETATM    6  C   UNL     1     -10.399   6.509  69.607  1.00  0.00    -0.234 C  
BRANCH   6   7
HETATM    7  C   UNL     1      -9.594   5.214  69.394  1.00  0.00    -0.225 C  
BRANCH   7   8
HETATM    8  C   UNL     1      -9.604   4.704  67.944  1.00  0.00    -0.205 C  
BRANCH   8   9
HETATM    9  C   UNL     1      -8.499   5.421  67.168  1.00  0.00    -0.106 C  
BRANCH   9  10
HETATM   10  N   UNL     1      -7.446   4.520  66.544  1.00  0.00    -0.081 N  
HETATM   11  C   UNL     1      -7.032   3.408  67.502  1.00  0.00    -0.050 C  
HETATM   12  C   UNL     1      -7.955   3.837  65.283  1.00  0.00    -0.093 C  
BRANCH  10  13
HETATM   13  C   UNL     1      -6.185   5.449  66.193  1.00  0.00    -0.034 C  
HETATM   14  C   UNL     1      -6.008   6.654  67.137  1.00  0.00    -0.021 A  
HETATM   15  C   UNL     1      -6.106   7.861  66.407  1.00  0.00    -0.045 A  
HETATM   16  C   UNL     1      -6.242   7.560  65.002  1.00  0.00    -0.038 A  
HETATM   17  C   UNL     1      -6.038   9.095  67.038  1.00  0.00    -0.057 A  
HETATM   18  C   UNL     1      -6.268   6.159  64.821  1.00  0.00    -0.030 A  
HETATM   19  C   UNL     1      -5.863   9.127  68.421  1.00  0.00    -0.041 A  
HETATM   20  C   UNL     1      -5.729   7.936  69.147  1.00  0.00    -0.030 A  
HETATM   21  C   UNL     1      -6.312   5.634  63.534  1.00  0.00    -0.025 A  
HETATM   22  C   UNL     1      -6.383   6.514  62.445  1.00  0.00    -0.031 A  
HETATM   23  C   UNL     1      -5.778   6.694  68.507  1.00  0.00    -0.017 A  
HETATM   24  C   UNL     1      -6.367   7.900  62.637  1.00  0.00    -0.077 A  
HETATM   25  C   UNL     1      -6.286   8.434  63.923  1.00  0.00    -0.072 A  
ENDBRANCH  10  13
ENDBRANCH   9  10
ENDBRANCH   8   9
ENDBRANCH   7   8
ENDBRANCH   6   7
ENDBRANCH   5   6
ENDBRANCH   4   5
ENDBRANCH   2   4
BRANCH   2  26
HETATM   26  C   UNL     1     -11.645  10.735  68.182  1.00  0.00    -0.197 C  
HETATM   27  C   UNL     1     -12.522  13.416  70.603  1.00  0.00    -0.385 A  
HETATM   28  C   UNL     1     -11.524  12.023  67.340  1.00  0.00    -0.406 A  
HETATM   29  C   UNL     1     -12.874  12.719  71.754  1.00  0.00    -0.342 A  
HETATM   30  C   UNL     1     -11.821  13.146  68.148  1.00  0.00    -0.386 A  
HETATM   31  C   UNL     1     -12.205  12.691  69.465  1.00  0.00    -0.149 A  
HETATM   32  C   UNL     1     -11.795  14.434  67.633  1.00  0.00    -0.412 A  
HETATM   33  C   UNL     1     -12.980  11.320  71.751  1.00  0.00    -0.519 A  
HETATM   34  C   UNL     1     -11.246  12.205  65.987  1.00  0.00    -0.382 A  
HETATM   35  C   UNL     1     -12.234  11.280  69.478  1.00  0.00    -0.325 A  
HETATM   36  C   UNL     1     -11.463  14.612  66.289  1.00  0.00    -0.351 A  
HETATM   37  C   UNL     1     -12.699  10.587  70.591  1.00  0.00    -0.441 A  
HETATM   38  C   UNL     1     -11.190  13.508  65.473  1.00  0.00    -0.304 A  
ENDBRANCH   2  26
TORSDOF 9
ENDMDL
MODEL      331
REMARK 921   NORMALIZED FREE ENERGY PREDICTED BY IDOCK:   -3.82 KCAL/MOL
REMARK 922        TOTAL FREE ENERGY PREDICTED BY IDOCK:   -7.60 KCAL/MOL
REMARK 923 INTER-LIGAND FREE ENERGY PREDICTED BY IDOCK:   -7.41 KCAL/MOL
REMARK 924 INTRA-LIGAND FREE ENERGY PREDICTED BY IDOCK:   -0.19 KCAL/MOL
REMARK 927      BINDING AFFINITY PREDICTED BY RF-SCORE:    0.00 PKD
ROOT
HETATM    1  C   UNL     1      -9.554   7.863  69.126  1.00  0.00    -0.153 C  
HETATM    2  N   UNL     1      -8.814   8.315  70.380  1.00  0.00    -0.138 N  
HETATM    3  C   UNL     1      -7.669   9.241  69.977  1.00  0.00    -0.104 C  
ENDROOT
BRANCH   2   4
HETATM    4  C   UNL     1      -9.789   9.009  71.308  1.00  0.00    -0.306 C  
BRANCH   4   5
HETATM    5  C   UNL     1     -11.225   9.146  70.803  1.00  0.00    -0.336 C  
BRANCH   5   6
HETATM    6  C   UNL     1     -12.110   9.680  71.937  1.00  0.00    -0.380 C  
BRANCH   6   7
HETATM    7  C   UNL     1     -13.272  10.571  71.461  1.00  0.00    -0.470 C  
BRANCH   7   8
HETATM    8  C   UNL     1     -13.044  12.073  71.690  1.00  0.00    -0.422 C  
BRANCH   8   9
HETATM    9  C   UNL     1     -12.212  12.621  70.530  1.00  0.00    -0.299 C  
BRANCH   9  10
HETATM   10  N   UNL     1     -12.200  14.136  70.392  1.00  0.00    -0.334 N  
HETATM   11  C   UNL     1     -13.595  14.720  70.582  1.00  0.00     0.011 C  
HETATM   12  C   UNL     1     -11.309  14.795  71.434  1.00  0.00    -0.074 C  
BRANCH  10  13
HETATM   13  C   UNL     1     -11.656  14.466  68.918  1.00  0.00    -0.306 C  
HETATM   14  C   UNL     1     -10.711  13.394  68.341  1.00  0.00    -0.271 A  
HETATM   15  C   UNL     1      -9.440  13.954  68.085  1.00  0.00    -0.207 A  
HETATM   16  C   UNL     1      -9.476  15.370  68.359  1.00  0.00    -0.200 A  
HETATM   17  C   UNL     1      -8.390  13.178  67.612  1.00  0.00    -0.174 A  
HETATM   18  C   UNL     1     -10.762  15.725  68.827  1.00  0.00    -0.253 A  
HETATM   19  C   UNL     1      -8.614  11.821  67.385  1.00  0.00    -0.160 A  
HETATM   20  C   UNL     1      -9.882  11.266  67.602  1.00  0.00    -0.190 A  
HETATM   21  C   UNL     1     -11.055  17.061  69.080  1.00  0.00     0.067 A  
HETATM   22  C   UNL     1     -10.046  18.020  68.914  1.00  0.00    -0.352 A  
HETATM   23  C   UNL     1     -10.943  12.053  68.059  1.00  0.00    -0.267 A  
HETATM   24  C   UNL     1      -8.774  17.655  68.460  1.00  0.00    -0.285 A  
HETATM   25  C   UNL     1      -8.483  16.323  68.169  1.00  0.00    -0.174 A  
ENDBRANCH  10  13
ENDBRANCH   9  10
ENDBRANCH   8   9
ENDBRANCH   7   8
ENDBRANCH   6   7
ENDBRANCH   5   6
ENDBRANCH   4   5
ENDBRANCH   2   4
BRANCH   2  26
HETATM   26  C   UNL     1      -8.221   7.042  71.172  1.00  0.00    -0.113 C  
HETATM   27  C   UNL     1     -10.654   4.610  72.580  1.00  0.00    -0.259 A  
HETATM   28  C   UNL     1      -8.008   5.786  70.301  1.00  0.00    -0.104 A  
HETATM   29  C   UNL     1     -11.203   5.283  73.666  1.00  0.00    -0.142 A  
HETATM   30  C   UNL     1      -8.892   4.763  70.721  1.00  0.00    -0.153 A  
HETATM   31  C   UNL     1      -9.639   5.228  71.867  1.00  0.00    -0.191 A  
HETATM   32  C   UNL     1      -8.901   3.519  70.107  1.00  0.00    -0.149 A  
HETATM   33  C   UNL     1     -10.697   6.524  74.082  1.00  0.00     0.046 A  
HETATM   34  C   UNL     1      -7.092   5.526  69.284  1.00  0.00    -0.064 A  
HETATM   35  C   UNL     1      -9.179   6.511  72.233  1.00  0.00    -0.138 A  
HETATM   36  C   UNL     1      -8.017   3.286  69.053  1.00  0.00    -0.061 A  
HETATM   37  C   UNL     1      -9.644   7.133  73.387  1.00  0.00    -0.249 A  
HETATM   38  C   UNL     1      -7.121   4.280  68.643  1.00  0.00    -0.052 A  
ENDBRANCH   2  26
TORSDOF 9
ENDMDL
MODEL      332
REMARK 921   NORMALIZED FREE ENERGY PREDICTED BY IDOCK:   -3.81 KCAL/MOL
REMARK 922        TOTAL FREE ENERGY PREDICTED BY IDOCK:   -7.58 KCAL/MOL
REMARK 923 INTER-LIGAND FREE ENERGY PREDICTED BY IDOCK:   -7.92 KCAL/MOL
REMARK 924 INTRA-LIGAND FREE ENERGY PREDICTED BY IDOCK:    0.34 KCAL/MOL
REMARK 927      BINDING AFFINITY PREDICTED BY RF-SCORE:    0.00 PKD
ROOT
HETATM    1  C   UNL     1     -12.435   6.399  71.371  1.00  0.00     0.012 C  
HETATM    2  N   UNL     1     -11.268   6.908  70.531  1.00  0.00    -0.288 N  
HETATM    3  C   UNL     1     -11.205   6.111  69.230  1.00  0.00    -0.367 C  
ENDROOT
BRANCH   2   4
HETATM    4  C   UNL     1     -11.455   8.388  70.268  1.00  0.00    -0.062 C  
BRANCH   4   5
HETATM    5  C   UNL     1     -12.598   9.070  71.018  1.00  0.00    -0.173 C  
BRANCH   5   6
HETATM    6  C   UNL     1     -12.121  10.436  71.530  1.00  0.00    -0.364 C  
BRANCH   6   7
HETATM    7  C   UNL     1     -11.966  11.501  70.429  1.00  0.00    -0.459 C  
BRANCH   7   8
HETATM    8  C   UNL     1     -12.491  12.890  70.823  1.00  0.00    -0.370 C  
BRANCH   8   9
HETATM    9  C   UNL     1     -12.513  13.774  69.576  1.00  0.00    -0.076 C  
BRANCH   9  10
HETATM   10  N   UNL     1     -11.619  15.003  69.630  1.00  0.00    -0.284 N  
HETATM   11  C   UNL     1     -12.435  16.286  69.506  1.00  0.00     0.838 C  
HETATM   12  C   UNL     1     -10.860  15.098  70.944  1.00  0.00    -0.114 C  
BRANCH  10  13
HETATM   13  C   UNL     1     -10.585  14.882  68.407  1.00  0.00    -0.244 C  
HETATM   14  C   UNL     1     -10.012  16.231  67.932  1.00  0.00    -0.241 A  
HETATM   15  C   UNL     1     -10.366  16.461  66.584  1.00  0.00    -0.292 A  
HETATM   16  C   UNL     1     -11.067  15.309  66.070  1.00  0.00    -0.278 A  
HETATM   17  C   UNL     1     -10.017  17.637  65.935  1.00  0.00    -0.139 A  
HETATM   18  C   UNL     1     -11.199  14.344  67.094  1.00  0.00    -0.337 A  
HETATM   19  C   UNL     1      -9.296  18.599  66.642  1.00  0.00    -0.318 A  
HETATM   20  C   UNL     1      -8.909  18.363  67.967  1.00  0.00    -0.302 A  
HETATM   21  C   UNL     1     -11.775  13.112  66.803  1.00  0.00    -0.439 A  
HETATM   22  C   UNL     1     -12.259  12.877  65.509  1.00  0.00    -0.527 A  
HETATM   23  C   UNL     1      -9.244  17.169  68.613  1.00  0.00    -0.263 A  
HETATM   24  C   UNL     1     -12.131  13.844  64.506  1.00  0.00    -0.473 A  
HETATM   25  C   UNL     1     -11.524  15.069  64.779  1.00  0.00    -0.403 A  
ENDBRANCH  10  13
ENDBRANCH   9  10
ENDBRANCH   8   9
ENDBRANCH   7   8
ENDBRANCH   6   7
ENDBRANCH   5   6
ENDBRANCH   4   5
ENDBRANCH   2   4
BRANCH   2  26
HETATM   26  C   UNL     1      -9.880   6.736  71.334  1.00  0.00    -0.178 C  
HETATM   27  C   UNL     1      -8.944   3.311  72.433  1.00  0.00    -0.124 A  
HETATM   28  C   UNL     1      -8.662   6.401  70.446  1.00  0.00    -0.147 A  
HETATM   29  C   UNL     1      -9.816   3.051  73.484  1.00  0.00    -0.155 A  
HETATM   30  C   UNL     1      -8.199   5.099  70.750  1.00  0.00    -0.105 A  
HETATM   31  C   UNL     1      -8.984   4.561  71.836  1.00  0.00    -0.148 A  
HETATM   32  C   UNL     1      -7.102   4.553  70.099  1.00  0.00    -0.049 A  
HETATM   33  C   UNL     1     -10.667   4.049  73.984  1.00  0.00    -0.298 A  
HETATM   34  C   UNL     1      -7.977   7.173  69.510  1.00  0.00    -0.128 A  
HETATM   35  C   UNL     1      -9.893   5.544  72.284  1.00  0.00    -0.192 A  
HETATM   36  C   UNL     1      -6.454   5.313  69.124  1.00  0.00    -0.042 A  
HETATM   37  C   UNL     1     -10.682   5.326  73.409  1.00  0.00    -0.329 A  
HETATM   38  C   UNL     1      -6.888   6.611  68.831  1.00  0.00    -0.062 A  
ENDBRANCH   2  26
TORSDOF 9
ENDMDL
MODEL      333
REMARK 921   NORMALIZED FREE ENERGY PREDICTED BY IDOCK:   -3.80 KCAL/MOL
REMARK 922        TOTAL FREE ENERGY PREDICTED BY IDOCK:   -7.57 KCAL/MOL
REMARK 923 INTER-LIGAND FREE ENERGY PREDICTED BY IDOCK:   -7.04 KCAL/MOL
REMARK 924 INTRA-LIGAND FREE ENERGY PREDICTED BY IDOCK:   -0.53 KCAL/MOL
REMARK 927      BINDING AFFINITY PREDICTED BY RF-SCORE:    0.00 PKD
ROOT
HETATM    1  C   UNL     1     -10.086   6.331  70.386  1.00  0.00    -0.185 C  
HETATM    2  N   UNL     1     -10.148   7.128  69.087  1.00  0.00    -0.178 N  
HETATM    3  C   UNL     1     -11.270   6.573  68.214  1.00  0.00    -0.162 C  
ENDROOT
BRANCH   2   4
HETATM    4  C   UNL     1     -10.369   8.590  69.413  1.00  0.00    -0.215 C  
BRANCH   4   5
HETATM    5  C   UNL     1     -11.341   8.891  70.554  1.00  0.00    -0.268 C  
BRANCH   5   6
HETATM    6  C   UNL     1     -11.284  10.388  70.883  1.00  0.00    -0.205 C  
BRANCH   6   7
HETATM    7  C   UNL     1     -11.991  11.286  69.851  1.00  0.00    -0.440 C  
BRANCH   7   8
HETATM    8  C   UNL     1     -11.667  12.781  69.996  1.00  0.00    -0.282 C  
BRANCH   8   9
HETATM    9  C   UNL     1     -10.835  13.217  68.790  1.00  0.00    -0.246 C  
BRANCH   9  10
HETATM   10  N   UNL     1     -11.096  14.629  68.291  1.00  0.00    -0.261 N  
HETATM   11  C   UNL     1     -12.145  14.640  67.183  1.00  0.00    -0.188 C  
HETATM   12  C   UNL     1     -11.622  15.535  69.394  1.00  0.00    -0.355 C  
BRANCH  10  13
HETATM   13  C   UNL     1      -9.699  15.195  67.738  1.00  0.00    -0.211 C  
HETATM   14  C   UNL     1      -8.459  14.594  68.428  1.00  0.00    -0.160 A  
HETATM   15  C   UNL     1      -7.719  15.613  69.070  1.00  0.00    -0.199 A  
HETATM   16  C   UNL     1      -8.320  16.893  68.783  1.00  0.00    -0.240 A  
HETATM   17  C   UNL     1      -6.584  15.323  69.813  1.00  0.00    -0.177 A  
HETATM   18  C   UNL     1      -9.471  16.704  67.984  1.00  0.00    -0.224 A  
HETATM   19  C   UNL     1      -6.175  13.994  69.914  1.00  0.00    -0.142 A  
HETATM   20  C   UNL     1      -6.881  12.983  69.250  1.00  0.00    -0.019 A  
HETATM   21  C   UNL     1     -10.169  17.812  67.516  1.00  0.00    -0.356 A  
HETATM   22  C   UNL     1      -9.743  19.093  67.894  1.00  0.00    -0.403 A  
HETATM   23  C   UNL     1      -8.013  13.279  68.485  1.00  0.00    -0.097 A  
HETATM   24  C   UNL     1      -8.609  19.267  68.693  1.00  0.00    -0.401 A  
HETATM   25  C   UNL     1      -7.881  18.163  69.138  1.00  0.00    -0.001 A  
ENDBRANCH  10  13
ENDBRANCH   9  10
ENDBRANCH   8   9
ENDBRANCH   7   8
ENDBRANCH   6   7
ENDBRANCH   5   6
ENDBRANCH   4   5
ENDBRANCH   2   4
BRANCH   2  26
HETATM   26  C   UNL     1      -8.748   7.020  68.294  1.00  0.00    -0.127 C  
HETATM   27  C   UNL     1      -7.290  10.165  66.950  1.00  0.00    -0.092 A  
HETATM   28  C   UNL     1      -7.496   7.232  69.172  1.00  0.00    -0.093 A  
HETATM   29  C   UNL     1      -8.108  10.472  65.868  1.00  0.00    -0.154 A  
HETATM   30  C   UNL     1      -6.835   8.420  68.776  1.00  0.00    -0.062 A  
HETATM   31  C   UNL     1      -7.525   8.986  67.640  1.00  0.00    -0.085 A  
HETATM   32  C   UNL     1      -5.670   8.840  69.400  1.00  0.00    -0.034 A  
HETATM   33  C   UNL     1      -9.101   9.581  65.433  1.00  0.00    -0.273 A  
HETATM   34  C   UNL     1      -6.941   6.440  70.175  1.00  0.00    -0.063 A  
HETATM   35  C   UNL     1      -8.574   8.123  67.255  1.00  0.00    -0.124 A  
HETATM   36  C   UNL     1      -5.150   8.069  70.441  1.00  0.00    -0.023 A  
HETATM   37  C   UNL     1      -9.315   8.370  66.104  1.00  0.00    -0.267 A  
HETATM   38  C   UNL     1      -5.780   6.880  70.826  1.00  0.00    -0.027 A  
ENDBRANCH   2  26
TORSDOF 9
ENDMDL
MODEL      334
REMARK 921   NORMALIZED FREE ENERGY PREDICTED BY IDOCK:   -3.80 KCAL/MOL
REMARK 922        TOTAL FREE ENERGY PREDICTED BY IDOCK:   -7.57 KCAL/MOL
REMARK 923 INTER-LIGAND FREE ENERGY PREDICTED BY IDOCK:   -6.21 KCAL/MOL
REMARK 924 INTRA-LIGAND FREE ENERGY PREDICTED BY IDOCK:   -1.36 KCAL/MOL
REMARK 927      BINDING AFFINITY PREDICTED BY RF-SCORE:    0.00 PKD
ROOT
HETATM    1  C   UNL     1     -10.823   6.512  67.789  1.00  0.00    -0.314 C  
HETATM    2  N   UNL     1      -9.984   5.336  68.277  1.00  0.00    -0.155 N  
HETATM    3  C   UNL     1     -10.145   4.170  67.305  1.00  0.00     0.090 C  
ENDROOT
BRANCH   2   4
HETATM    4  C   UNL     1      -8.537   5.771  68.387  1.00  0.00    -0.112 C  
BRANCH   4   5
HETATM    5  C   UNL     1      -8.263   7.264  68.205  1.00  0.00    -0.124 C  
BRANCH   5   6
HETATM    6  C   UNL     1      -7.513   7.793  69.435  1.00  0.00    -0.088 C  
BRANCH   6   7
HETATM    7  C   UNL     1      -8.180   9.009  70.103  1.00  0.00    -0.140 C  
BRANCH   7   8
HETATM    8  C   UNL     1      -9.218   9.717  69.220  1.00  0.00    -0.186 C  
BRANCH   8   9
HETATM    9  C   UNL     1      -8.620  11.035  68.727  1.00  0.00    -0.144 C  
BRANCH   9  10
HETATM   10  N   UNL     1      -9.576  11.948  67.976  1.00  0.00    -0.187 N  
HETATM   11  C   UNL     1      -9.430  11.780  66.467  1.00  0.00    -0.214 C  
HETATM   12  C   UNL     1     -11.030  11.645  68.307  1.00  0.00    -0.226 C  
BRANCH  10  13
HETATM   13  C   UNL     1      -9.218  13.453  68.405  1.00  0.00    -0.149 C  
HETATM   14  C   UNL     1      -9.785  14.529  67.458  1.00  0.00    -0.211 A  
HETATM   15  C   UNL     1      -8.731  15.275  66.884  1.00  0.00    -0.288 A  
HETATM   16  C   UNL     1      -7.476  14.844  67.450  1.00  0.00    -0.228 A  
HETATM   17  C   UNL     1      -8.976  16.271  65.950  1.00  0.00    -0.222 A  
HETATM   18  C   UNL     1      -7.710  13.793  68.367  1.00  0.00    -0.134 A  
HETATM   19  C   UNL     1     -10.296  16.532  65.585  1.00  0.00    -0.342 A  
HETATM   20  C   UNL     1     -11.349  15.823  66.177  1.00  0.00     0.143 A  
HETATM   21  C   UNL     1      -6.647  13.272  69.097  1.00  0.00    -0.105 A  
HETATM   22  C   UNL     1      -5.357  13.768  68.866  1.00  0.00    -0.071 A  
HETATM   23  C   UNL     1     -11.102  14.833  67.133  1.00  0.00    -0.333 A  
HETATM   24  C   UNL     1      -5.136  14.801  67.950  1.00  0.00    -0.065 A  
HETATM   25  C   UNL     1      -6.201  15.354  67.239  1.00  0.00     0.099 A  
ENDBRANCH  10  13
ENDBRANCH   9  10
ENDBRANCH   8   9
ENDBRANCH   7   8
ENDBRANCH   6   7
ENDBRANCH   5   6
ENDBRANCH   4   5
ENDBRANCH   2   4
BRANCH   2  26
HETATM   26  C   UNL     1     -10.459   4.878  69.748  1.00  0.00    -0.003 C  
HETATM   27  C   UNL     1      -7.816   4.141  72.256  1.00  0.00    -0.082 A  
HETATM   28  C   UNL     1     -10.606   6.032  70.763  1.00  0.00    -0.316 A  
HETATM   29  C   UNL     1      -7.287   2.928  71.831  1.00  0.00    -0.043 A  
HETATM   30  C   UNL     1      -9.638   5.887  71.786  1.00  0.00    -0.171 A  
HETATM   31  C   UNL     1      -8.894   4.669  71.563  1.00  0.00    -0.149 A  
HETATM   32  C   UNL     1      -9.557   6.791  72.836  1.00  0.00    -0.167 A  
HETATM   33  C   UNL     1      -7.869   2.212  70.774  1.00  0.00    -0.041 A  
HETATM   34  C   UNL     1     -11.529   7.072  70.834  1.00  0.00    -0.349 A  
HETATM   35  C   UNL     1      -9.435   3.992  70.448  1.00  0.00    -0.252 A  
HETATM   36  C   UNL     1     -10.452   7.861  72.870  1.00  0.00    -0.422 A  
HETATM   37  C   UNL     1      -8.984   2.724  70.096  1.00  0.00    -0.169 A  
HETATM   38  C   UNL     1     -11.428   8.002  71.878  1.00  0.00    -0.341 A  
ENDBRANCH   2  26
TORSDOF 9
ENDMDL
MODEL      335
REMARK 921   NORMALIZED FREE ENERGY PREDICTED BY IDOCK:   -3.80 KCAL/MOL
REMARK 922        TOTAL FREE ENERGY PREDICTED BY IDOCK:   -7.56 KCAL/MOL
REMARK 923 INTER-LIGAND FREE ENERGY PREDICTED BY IDOCK:   -6.45 KCAL/MOL
REMARK 924 INTRA-LIGAND FREE ENERGY PREDICTED BY IDOCK:   -1.12 KCAL/MOL
REMARK 927      BINDING AFFINITY PREDICTED BY RF-SCORE:    0.00 PKD
ROOT
HETATM    1  C   UNL     1      -9.971   4.681  69.182  1.00  0.00    -0.138 C  
HETATM    2  N   UNL     1      -9.206   4.557  70.495  1.00  0.00    -0.114 N  
HETATM    3  C   UNL     1      -9.093   3.081  70.869  1.00  0.00    -0.114 C  
ENDROOT
BRANCH   2   4
HETATM    4  C   UNL     1      -7.841   5.195  70.335  1.00  0.00    -0.075 C  
BRANCH   4   5
HETATM    5  C   UNL     1      -7.668   6.134  69.142  1.00  0.00    -0.100 C  
BRANCH   5   6
HETATM    6  C   UNL     1      -6.888   7.378  69.588  1.00  0.00    -0.052 C  
BRANCH   6   7
HETATM    7  C   UNL     1      -6.726   8.446  68.491  1.00  0.00    -0.063 C  
BRANCH   7   8
HETATM    8  C   UNL     1      -7.968   9.326  68.286  1.00  0.00    -0.102 C  
BRANCH   8   9
HETATM    9  C   UNL     1      -7.576  10.531  67.431  1.00  0.00    -0.094 C  
BRANCH   9  10
HETATM   10  N   UNL     1      -7.902  11.891  68.028  1.00  0.00    -0.130 N  
HETATM   11  C   UNL     1      -7.586  11.930  69.520  1.00  0.00     0.493 C  
HETATM   12  C   UNL     1      -7.090  13.005  67.385  1.00  0.00    -0.117 C  
BRANCH  10  13
HETATM   13  C   UNL     1      -9.468  12.144  67.786  1.00  0.00    -0.192 C  
HETATM   14  C   UNL     1      -9.918  11.954  66.324  1.00  0.00    -0.245 A  
HETATM   15  C   UNL     1     -10.445  13.163  65.816  1.00  0.00    -0.291 A  
HETATM   16  C   UNL     1     -10.476  14.150  66.869  1.00  0.00    -0.272 A  
HETATM   17  C   UNL     1     -10.868  13.270  64.500  1.00  0.00    -0.409 A  
HETATM   18  C   UNL     1      -9.937  13.594  68.051  1.00  0.00    -0.247 A  
HETATM   19  C   UNL     1     -10.771  12.151  63.675  1.00  0.00    -0.518 A  
HETATM   20  C   UNL     1     -10.285  10.938  64.180  1.00  0.00    -0.424 A  
HETATM   21  C   UNL     1      -9.940  14.342  69.224  1.00  0.00     0.058 A  
HETATM   22  C   UNL     1     -10.431  15.654  69.190  1.00  0.00    -0.236 A  
HETATM   23  C   UNL     1      -9.877  10.826  65.512  1.00  0.00    -0.309 A  
HETATM   24  C   UNL     1     -10.953  16.197  68.011  1.00  0.00    -0.338 A  
HETATM   25  C   UNL     1     -10.987  15.442  66.840  1.00  0.00    -0.294 A  
ENDBRANCH  10  13
ENDBRANCH   9  10
ENDBRANCH   8   9
ENDBRANCH   7   8
ENDBRANCH   6   7
ENDBRANCH   5   6
ENDBRANCH   4   5
ENDBRANCH   2   4
BRANCH   2  26
HETATM   26  C   UNL     1      -9.972   5.352  71.670  1.00  0.00    -0.186 C  
HETATM   27  C   UNL     1      -8.009   7.824  73.633  1.00  0.00    -0.215 A  
HETATM   28  C   UNL     1     -10.578   6.705  71.240  1.00  0.00    -0.256 A  
HETATM   29  C   UNL     1      -7.186   7.035  74.429  1.00  0.00    -0.107 A  
HETATM   30  C   UNL     1      -9.909   7.757  71.909  1.00  0.00    -0.217 A  
HETATM   31  C   UNL     1      -8.936   7.195  72.817  1.00  0.00    -0.157 A  
HETATM   32  C   UNL     1     -10.266   9.083  71.709  1.00  0.00    -0.389 A  
HETATM   33  C   UNL     1      -7.334   5.641  74.468  1.00  0.00    -0.088 A  
HETATM   34  C   UNL     1     -11.651   6.997  70.400  1.00  0.00    -0.341 A  
HETATM   35  C   UNL     1      -9.036   5.787  72.792  1.00  0.00    -0.133 A  
HETATM   36  C   UNL     1     -11.307   9.370  70.824  1.00  0.00    -0.363 A  
HETATM   37  C   UNL     1      -8.297   5.005  73.674  1.00  0.00    -0.106 A  
HETATM   38  C   UNL     1     -11.992   8.338  70.174  1.00  0.00     0.436 A  
ENDBRANCH   2  26
TORSDOF 9
ENDMDL
MODEL      336
REMARK 921   NORMALIZED FREE ENERGY PREDICTED BY IDOCK:   -3.77 KCAL/MOL
REMARK 922        TOTAL FREE ENERGY PREDICTED BY IDOCK:   -7.53 KCAL/MOL
REMARK 923 INTER-LIGAND FREE ENERGY PREDICTED BY IDOCK:   -7.69 KCAL/MOL
REMARK 924 INTRA-LIGAND FREE ENERGY PREDICTED BY IDOCK:    0.16 KCAL/MOL
REMARK 927      BINDING AFFINITY PREDICTED BY RF-SCORE:    0.00 PKD
ROOT
HETATM    1  C   UNL     1      -9.818   8.645  71.485  1.00  0.00    -0.272 C  
HETATM    2  N   UNL     1      -9.530   7.918  70.176  1.00  0.00    -0.160 N  
HETATM    3  C   UNL     1     -10.690   6.977  69.862  1.00  0.00    -0.240 C  
ENDROOT
BRANCH   2   4
HETATM    4  C   UNL     1      -9.329   8.939  69.076  1.00  0.00    -0.144 C  
BRANCH   4   5
HETATM    5  C   UNL     1      -7.952   9.599  69.005  1.00  0.00    -0.088 C  
BRANCH   5   6
HETATM    6  C   UNL     1      -8.108  11.041  68.504  1.00  0.00    -0.140 C  
BRANCH   6   7
HETATM    7  C   UNL     1      -6.819  11.878  68.585  1.00  0.00    -0.086 C  
BRANCH   7   8
HETATM    8  C   UNL     1      -6.900  13.224  67.850  1.00  0.00    -0.140 C  
BRANCH   8   9
HETATM    9  C   UNL     1      -7.919  14.110  68.567  1.00  0.00    -0.145 C  
BRANCH   9  10
HETATM   10  N   UNL     1      -7.815  15.598  68.272  1.00  0.00    -0.126 N  
HETATM   11  C   UNL     1      -7.124  16.340  69.412  1.00  0.00    -0.204 C  
HETATM   12  C   UNL     1      -6.999  15.875  67.018  1.00  0.00    -0.138 C  
BRANCH  10  13
HETATM   13  C   UNL     1      -9.313  16.143  68.083  1.00  0.00    -0.201 C  
HETATM   14  C   UNL     1     -10.105  15.433  66.968  1.00  0.00    -0.249 A  
HETATM   15  C   UNL     1     -10.478  16.361  65.971  1.00  0.00    -0.333 A  
HETATM   16  C   UNL     1     -10.077  17.687  66.377  1.00  0.00    -0.356 A  
HETATM   17  C   UNL     1     -11.154  15.961  64.827  1.00  0.00    -0.397 A  
HETATM   18  C   UNL     1      -9.411  17.615  67.622  1.00  0.00    -0.258 A  
HETATM   19  C   UNL     1     -11.468  14.612  64.676  1.00  0.00    -0.389 A  
HETATM   20  C   UNL     1     -11.134  13.690  65.677  1.00  0.00    -0.300 A  
HETATM   21  C   UNL     1      -9.004  18.788  68.249  1.00  0.00    -0.355 A  
HETATM   22  C   UNL     1      -9.218  20.013  67.603  1.00  0.00    -0.457 A  
HETATM   23  C   UNL     1     -10.471  14.098  66.838  1.00  0.00    -0.272 A  
HETATM   24  C   UNL     1      -9.869  20.070  66.366  1.00  0.00    -0.578 A  
HETATM   25  C   UNL     1     -10.313  18.902  65.747  1.00  0.00    -0.285 A  
ENDBRANCH  10  13
ENDBRANCH   9  10
ENDBRANCH   8   9
ENDBRANCH   7   8
ENDBRANCH   6   7
ENDBRANCH   5   6
ENDBRANCH   4   5
ENDBRANCH   2   4
BRANCH   2  26
HETATM   26  C   UNL     1      -8.165   7.067  70.295  1.00  0.00    -0.128 C  
HETATM   27  C   UNL     1      -7.224   5.788  73.656  1.00  0.00    -0.086 A  
HETATM   28  C   UNL     1      -8.346   5.540  70.154  1.00  0.00    -0.116 A  
HETATM   29  C   UNL     1      -6.810   6.926  74.338  1.00  0.00    -0.086 A  
HETATM   30  C   UNL     1      -8.031   4.912  71.382  1.00  0.00    -0.105 A  
HETATM   31  C   UNL     1      -7.580   5.912  72.322  1.00  0.00    -0.101 A  
HETATM   32  C   UNL     1      -8.102   3.533  71.527  1.00  0.00    -0.061 A  
HETATM   33  C   UNL     1      -6.680   8.160  73.681  1.00  0.00    -0.140 A  
HETATM   34  C   UNL     1      -8.687   4.760  69.051  1.00  0.00    -0.108 A  
HETATM   35  C   UNL     1      -7.528   7.166  71.676  1.00  0.00    -0.086 A  
HETATM   36  C   UNL     1      -8.497   2.764  70.432  1.00  0.00    -0.094 A  
HETATM   37  C   UNL     1      -7.001   8.280  72.323  1.00  0.00    -0.104 A  
HETATM   38  C   UNL     1      -8.789   3.371  69.205  1.00  0.00    -0.158 A  
ENDBRANCH   2  26
TORSDOF 9
ENDMDL
MODEL      337
REMARK 921   NORMALIZED FREE ENERGY PREDICTED BY IDOCK:   -3.76 KCAL/MOL
REMARK 922        TOTAL FREE ENERGY PREDICTED BY IDOCK:   -7.50 KCAL/MOL
REMARK 923 INTER-LIGAND FREE ENERGY PREDICTED BY IDOCK:   -6.92 KCAL/MOL
REMARK 924 INTRA-LIGAND FREE ENERGY PREDICTED BY IDOCK:   -0.57 KCAL/MOL
REMARK 927      BINDING AFFINITY PREDICTED BY RF-SCORE:    0.00 PKD
ROOT
HETATM    1  C   UNL     1      -6.433  13.864  67.731  1.00  0.00    -0.168 C  
HETATM    2  N   UNL     1      -7.931  14.148  67.698  1.00  0.00    -0.163 N  
HETATM    3  C   UNL     1      -8.249  15.017  66.484  1.00  0.00     0.150 C  
ENDROOT
BRANCH   2   4
HETATM    4  C   UNL     1      -8.684  12.835  67.654  1.00  0.00    -0.180 C  
BRANCH   4   5
HETATM    5  C   UNL     1      -9.624  12.631  66.466  1.00  0.00    -0.248 C  
BRANCH   5   6
HETATM    6  C   UNL     1      -9.923  11.134  66.309  1.00  0.00    -0.261 C  
BRANCH   6   7
HETATM    7  C   UNL     1      -9.037  10.421  65.271  1.00  0.00    -0.227 C  
BRANCH   7   8
HETATM    8  C   UNL     1      -9.014   8.892  65.413  1.00  0.00    -0.232 C  
BRANCH   8   9
HETATM    9  C   UNL     1      -9.022   8.541  66.901  1.00  0.00    -0.143 C  
BRANCH   9  10
HETATM   10  N   UNL     1      -7.661   8.251  67.513  1.00  0.00    -0.098 N  
HETATM   11  C   UNL     1      -6.917   7.179  66.723  1.00  0.00    -0.073 C  
HETATM   12  C   UNL     1      -6.767   9.481  67.523  1.00  0.00    -0.067 C  
BRANCH  10  13
HETATM   13  C   UNL     1      -7.922   7.750  69.016  1.00  0.00    -0.123 C  
HETATM   14  C   UNL     1      -8.293   6.259  69.128  1.00  0.00    -0.120 A  
HETATM   15  C   UNL     1      -9.581   6.119  69.692  1.00  0.00    -0.171 A  
HETATM   16  C   UNL     1     -10.083   7.419  70.066  1.00  0.00    -0.191 A  
HETATM   17  C   UNL     1     -10.170   4.873  69.848  1.00  0.00    -0.299 A  
HETATM   18  C   UNL     1      -9.136   8.408  69.713  1.00  0.00    -0.153 A  
HETATM   19  C   UNL     1      -9.461   3.744  69.439  1.00  0.00    -0.257 A  
HETATM   20  C   UNL     1      -8.169   3.871  68.913  1.00  0.00    -0.083 A  
HETATM   21  C   UNL     1      -9.373   9.736  70.054  1.00  0.00    -0.274 A  
HETATM   22  C   UNL     1     -10.575  10.068  70.694  1.00  0.00    -0.272 A  
HETATM   23  C   UNL     1      -7.568   5.126  68.775  1.00  0.00    -0.078 A  
HETATM   24  C   UNL     1     -11.508   9.082  71.029  1.00  0.00    -0.358 A  
HETATM   25  C   UNL     1     -11.263   7.744  70.724  1.00  0.00    -0.281 A  
ENDBRANCH  10  13
ENDBRANCH   9  10
ENDBRANCH   8   9
ENDBRANCH   7   8
ENDBRANCH   6   7
ENDBRANCH   5   6
ENDBRANCH   4   5
ENDBRANCH   2   4
BRANCH   2  26
HETATM   26  C   UNL     1      -8.387  14.916  69.041  1.00  0.00    -0.175 C  
HETATM   27  C   UNL     1      -9.676  18.384  68.684  1.00  0.00    -0.387 A  
HETATM   28  C   UNL     1      -9.885  14.772  69.386  1.00  0.00    -0.072 A  
HETATM   29  C   UNL     1      -8.538  19.132  68.404  1.00  0.00    -0.387 A  
HETATM   30  C   UNL     1     -10.518  16.033  69.277  1.00  0.00    -0.257 A  
HETATM   31  C   UNL     1      -9.527  17.032  68.950  1.00  0.00    -0.235 A  
HETATM   32  C   UNL     1     -11.871  16.187  69.544  1.00  0.00    -0.140 A  
HETATM   33  C   UNL     1      -7.259  18.557  68.458  1.00  0.00    -0.306 A  
HETATM   34  C   UNL     1     -10.620  13.670  69.817  1.00  0.00     0.475 A  
HETATM   35  C   UNL     1      -8.250  16.430  68.929  1.00  0.00    -0.235 A  
HETATM   36  C   UNL     1     -12.611  15.066  69.923  1.00  0.00    -0.201 A  
HETATM   37  C   UNL     1      -7.102  17.199  68.766  1.00  0.00    -0.229 A  
HETATM   38  C   UNL     1     -11.992  13.818  70.057  1.00  0.00    -0.407 A  
ENDBRANCH   2  26
TORSDOF 9
ENDMDL
MODEL      338
REMARK 921   NORMALIZED FREE ENERGY PREDICTED BY IDOCK:   -3.76 KCAL/MOL
REMARK 922        TOTAL FREE ENERGY PREDICTED BY IDOCK:   -7.50 KCAL/MOL
REMARK 923 INTER-LIGAND FREE ENERGY PREDICTED BY IDOCK:   -7.54 KCAL/MOL
REMARK 924 INTRA-LIGAND FREE ENERGY PREDICTED BY IDOCK:    0.04 KCAL/MOL
REMARK 927      BINDING AFFINITY PREDICTED BY RF-SCORE:    0.00 PKD
ROOT
HETATM    1  C   UNL     1      -8.938  13.591  68.155  1.00  0.00    -0.187 C  
HETATM    2  N   UNL     1     -10.139  12.658  68.038  1.00  0.00    -0.223 N  
HETATM    3  C   UNL     1      -9.824  11.564  67.022  1.00  0.00    -0.192 C  
ENDROOT
BRANCH   2   4
HETATM    4  C   UNL     1     -10.448  12.077  69.402  1.00  0.00     0.249 C  
BRANCH   4   5
HETATM    5  C   UNL     1     -10.764  10.582  69.446  1.00  0.00    -0.277 C  
BRANCH   5   6
HETATM    6  C   UNL     1     -11.992  10.352  70.338  1.00  0.00    -0.409 C  
BRANCH   6   7
HETATM    7  C   UNL     1     -11.796   9.262  71.408  1.00  0.00    -0.428 C  
BRANCH   7   8
HETATM    8  C   UNL     1     -10.666   8.270  71.091  1.00  0.00    -0.270 C  
BRANCH   8   9
HETATM    9  C   UNL     1     -11.271   7.050  70.397  1.00  0.00    -0.299 C  
BRANCH   9  10
HETATM   10  N   UNL     1     -10.568   6.605  69.124  1.00  0.00    -0.224 N  
HETATM   11  C   UNL     1     -11.331   7.059  67.884  1.00  0.00     0.225 C  
HETATM   12  C   UNL     1      -9.170   7.193  69.011  1.00  0.00    -0.135 C  
BRANCH  10  13
HETATM   13  C   UNL     1     -10.488   5.003  69.171  1.00  0.00    -0.016 C  
HETATM   14  C   UNL     1      -9.716   4.446  70.383  1.00  0.00    -0.284 A  
HETATM   15  C   UNL     1      -8.593   3.707  69.946  1.00  0.00    -0.105 A  
HETATM   16  C   UNL     1      -8.597   3.638  68.504  1.00  0.00    -0.118 A  
HETATM   17  C   UNL     1      -7.700   3.148  70.849  1.00  0.00    -0.043 A  
HETATM   18  C   UNL     1      -9.703   4.362  68.002  1.00  0.00    -0.182 A  
HETATM   19  C   UNL     1      -7.934   3.322  72.212  1.00  0.00    -0.059 A  
HETATM   20  C   UNL     1      -9.064   4.021  72.654  1.00  0.00    -0.131 A  
HETATM   21  C   UNL     1      -9.954   4.366  66.634  1.00  0.00    -0.234 A  
HETATM   22  C   UNL     1      -9.070   3.693  65.780  1.00  0.00    -0.152 A  
HETATM   23  C   UNL     1      -9.974   4.567  71.743  1.00  0.00    -0.264 A  
HETATM   24  C   UNL     1      -7.974   2.989  66.288  1.00  0.00    -0.081 A  
HETATM   25  C   UNL     1      -7.734   2.950  67.661  1.00  0.00    -0.064 A  
ENDBRANCH  10  13
ENDBRANCH   9  10
ENDBRANCH   8   9
ENDBRANCH   7   8
ENDBRANCH   6   7
ENDBRANCH   5   6
ENDBRANCH   4   5
ENDBRANCH   2   4
BRANCH   2  26
HETATM   26  C   UNL     1     -11.442  13.477  67.559  1.00  0.00    -0.329 C  
HETATM   27  C   UNL     1     -10.906  16.835  66.056  1.00  0.00    -0.026 A  
HETATM   28  C   UNL     1     -11.825  13.266  66.078  1.00  0.00    -0.440 A  
HETATM   29  C   UNL     1     -10.558  17.631  67.142  1.00  0.00    -0.277 A  
HETATM   30  C   UNL     1     -11.654  14.478  65.368  1.00  0.00    -0.355 A  
HETATM   31  C   UNL     1     -11.248  15.512  66.291  1.00  0.00    -0.096 A  
HETATM   32  C   UNL     1     -11.938  14.567  64.013  1.00  0.00    -0.238 A  
HETATM   33  C   UNL     1     -10.622  17.137  68.454  1.00  0.00    -0.371 A  
HETATM   34  C   UNL     1     -12.335  12.150  65.418  1.00  0.00     0.002 A  
HETATM   35  C   UNL     1     -11.237  14.987  67.602  1.00  0.00    -0.331 A  
HETATM   36  C   UNL     1     -12.397  13.429  63.348  1.00  0.00    -0.343 A  
HETATM   37  C   UNL     1     -11.006  15.812  68.698  1.00  0.00    -0.307 A  
HETATM   38  C   UNL     1     -12.593  12.231  64.043  1.00  0.00    -0.521 A  
ENDBRANCH   2  26
TORSDOF 9
ENDMDL
MODEL      339
REMARK 921   NORMALIZED FREE ENERGY PREDICTED BY IDOCK:   -3.75 KCAL/MOL
REMARK 922        TOTAL FREE ENERGY PREDICTED BY IDOCK:   -7.49 KCAL/MOL
REMARK 923 INTER-LIGAND FREE ENERGY PREDICTED BY IDOCK:   -7.19 KCAL/MOL
REMARK 924 INTRA-LIGAND FREE ENERGY PREDICTED BY IDOCK:   -0.30 KCAL/MOL
REMARK 927      BINDING AFFINITY PREDICTED BY RF-SCORE:    0.00 PKD
ROOT
HETATM    1  C   UNL     1     -11.246  15.691  64.756  1.00  0.00    -0.382 C  
HETATM    2  N   UNL     1     -11.210  14.409  65.581  1.00  0.00    -0.316 N  
HETATM    3  C   UNL     1     -12.640  13.960  65.867  1.00  0.00    -0.456 C  
ENDROOT
BRANCH   2   4
HETATM    4  C   UNL     1     -10.437  13.352  64.820  1.00  0.00    -0.403 C  
BRANCH   4   5
HETATM    5  C   UNL     1     -10.820  11.899  65.099  1.00  0.00    -0.350 C  
BRANCH   5   6
HETATM    6  C   UNL     1      -9.991  11.377  66.280  1.00  0.00    -0.259 C  
BRANCH   6   7
HETATM    7  C   UNL     1      -8.478  11.624  66.144  1.00  0.00    -0.008 C  
BRANCH   7   8
HETATM    8  C   UNL     1      -7.820  12.191  67.411  1.00  0.00    -0.168 C  
BRANCH   8   9
HETATM    9  C   UNL     1      -6.514  11.437  67.662  1.00  0.00    -0.063 C  
BRANCH   9  10
HETATM   10  N   UNL     1      -6.452  10.649  68.961  1.00  0.00    -0.049 N  
HETATM   11  C   UNL     1      -5.962  11.521  70.112  1.00  0.00    -0.159 C  
HETATM   12  C   UNL     1      -7.817  10.117  69.371  1.00  0.00    -0.150 C  
BRANCH  10  13
HETATM   13  C   UNL     1      -5.438   9.429  68.719  1.00  0.00    -0.037 C  
HETATM   14  C   UNL     1      -5.634   8.705  67.372  1.00  0.00    -0.039 A  
HETATM   15  C   UNL     1      -5.973   7.351  67.594  1.00  0.00    -0.038 A  
HETATM   16  C   UNL     1      -5.929   7.072  69.009  1.00  0.00    -0.022 A  
HETATM   17  C   UNL     1      -6.258   6.495  66.539  1.00  0.00    -0.040 A  
HETATM   18  C   UNL     1      -5.594   8.253  69.711  1.00  0.00    -0.026 A  
HETATM   19  C   UNL     1      -6.197   6.997  65.240  1.00  0.00    -0.037 A  
HETATM   20  C   UNL     1      -5.825   8.327  65.009  1.00  0.00    -0.045 A  
HETATM   21  C   UNL     1      -5.415   8.203  71.089  1.00  0.00    -0.033 A  
HETATM   22  C   UNL     1      -5.623   6.988  71.757  1.00  0.00    -0.036 A  
HETATM   23  C   UNL     1      -5.519   9.183  66.072  1.00  0.00    -0.041 A  
HETATM   24  C   UNL     1      -5.963   5.829  71.053  1.00  0.00    -0.032 A  
HETATM   25  C   UNL     1      -6.110   5.861  69.666  1.00  0.00    -0.026 A  
ENDBRANCH  10  13
ENDBRANCH   9  10
ENDBRANCH   8   9
ENDBRANCH   7   8
ENDBRANCH   6   7
ENDBRANCH   5   6
ENDBRANCH   4   5
ENDBRANCH   2   4
BRANCH   2  26
HETATM   26  C   UNL     1     -10.436  14.659  66.973  1.00  0.00    -0.269 C  
HETATM   27  C   UNL     1     -10.524  18.092  68.396  1.00  0.00    -0.326 A  
HETATM   28  C   UNL     1     -11.313  14.496  68.233  1.00  0.00    -0.319 A  
HETATM   29  C   UNL     1      -9.677  18.816  67.565  1.00  0.00    -0.343 A  
HETATM   30  C   UNL     1     -11.448  15.747  68.881  1.00  0.00    -0.381 A  
HETATM   31  C   UNL     1     -10.658  16.730  68.176  1.00  0.00    -0.350 A  
HETATM   32  C   UNL     1     -12.183  15.879  70.050  1.00  0.00    -0.213 A  
HETATM   33  C   UNL     1      -8.915  18.179  66.573  1.00  0.00    -0.288 A  
HETATM   34  C   UNL     1     -11.888  13.362  68.804  1.00  0.00    -0.386 A  
HETATM   35  C   UNL     1      -9.954  16.097  67.129  1.00  0.00    -0.251 A  
HETATM   36  C   UNL     1     -12.800  14.748  70.586  1.00  0.00    -0.398 A  
HETATM   37  C   UNL     1      -9.018  16.796  66.374  1.00  0.00    -0.325 A  
HETATM   38  C   UNL     1     -12.655  13.501  69.968  1.00  0.00    -0.131 A  
ENDBRANCH   2  26
TORSDOF 9
ENDMDL
MODEL      340
REMARK 921   NORMALIZED FREE ENERGY PREDICTED BY IDOCK:   -3.75 KCAL/MOL
REMARK 922        TOTAL FREE ENERGY PREDICTED BY IDOCK:   -7.49 KCAL/MOL
REMARK 923 INTER-LIGAND FREE ENERGY PREDICTED BY IDOCK:   -7.53 KCAL/MOL
REMARK 924 INTRA-LIGAND FREE ENERGY PREDICTED BY IDOCK:    0.03 KCAL/MOL
REMARK 927      BINDING AFFINITY PREDICTED BY RF-SCORE:    0.00 PKD
ROOT
HETATM    1  C   UNL     1     -10.528   5.740  69.689  1.00  0.00    -0.293 C  
HETATM    2  N   UNL     1     -10.098   6.617  68.517  1.00  0.00    -0.153 N  
HETATM    3  C   UNL     1     -11.157   6.540  67.421  1.00  0.00    -0.327 C  
ENDROOT
BRANCH   2   4
HETATM    4  C   UNL     1      -9.908   8.038  69.007  1.00  0.00    -0.178 C  
BRANCH   4   5
HETATM    5  C   UNL     1     -10.879   8.520  70.084  1.00  0.00    -0.238 C  
BRANCH   5   6
HETATM    6  C   UNL     1     -10.849  10.054  70.141  1.00  0.00    -0.365 C  
BRANCH   6   7
HETATM    7  C   UNL     1     -11.697  10.741  69.055  1.00  0.00    -0.357 C  
BRANCH   7   8
HETATM    8  C   UNL     1     -11.461  12.254  68.941  1.00  0.00    -0.355 C  
BRANCH   8   9
HETATM    9  C   UNL     1     -10.949  12.563  67.534  1.00  0.00    -0.251 C  
BRANCH   9  10
HETATM   10  N   UNL     1     -11.267  13.955  67.013  1.00  0.00    -0.304 N  
HETATM   11  C   UNL     1     -12.250  13.898  65.848  1.00  0.00    -0.467 C  
HETATM   12  C   UNL     1     -11.909  14.830  68.079  1.00  0.00    -0.294 C  
BRANCH  10  13
HETATM   13  C   UNL     1      -9.878  14.603  66.535  1.00  0.00    -0.275 C  
HETATM   14  C   UNL     1      -8.682  14.275  67.450  1.00  0.00    -0.217 A  
HETATM   15  C   UNL     1      -8.147  15.463  67.995  1.00  0.00    -0.143 A  
HETATM   16  C   UNL     1      -8.838  16.600  67.435  1.00  0.00    -0.198 A  
HETATM   17  C   UNL     1      -7.095  15.434  68.899  1.00  0.00    -0.131 A  
HETATM   18  C   UNL     1      -9.847  16.149  66.554  1.00  0.00    -0.283 A  
HETATM   19  C   UNL     1      -6.563  14.198  69.262  1.00  0.00    -0.120 A  
HETATM   20  C   UNL     1      -7.063  13.017  68.699  1.00  0.00    -0.103 A  
HETATM   21  C   UNL     1     -10.593  17.077  65.834  1.00  0.00    -0.221 A  
HETATM   22  C   UNL     1     -10.359  18.443  66.042  1.00  0.00    -0.397 A  
HETATM   23  C   UNL     1      -8.110  13.050  67.773  1.00  0.00    -0.168 A  
HETATM   24  C   UNL     1      -9.365  18.877  66.925  1.00  0.00    -0.333 A  
HETATM   25  C   UNL     1      -8.588  17.954  67.624  1.00  0.00    -0.242 A  
ENDBRANCH  10  13
ENDBRANCH   9  10
ENDBRANCH   8   9
ENDBRANCH   7   8
ENDBRANCH   6   7
ENDBRANCH   5   6
ENDBRANCH   4   5
ENDBRANCH   2   4
BRANCH   2  26
HETATM   26  C   UNL     1      -8.681   6.118  67.932  1.00  0.00    -0.113 C  
HETATM   27  C   UNL     1      -8.267   6.076  64.238  1.00  0.00    -0.069 A  
HETATM   28  C   UNL     1      -7.658   7.246  67.679  1.00  0.00    -0.110 A  
HETATM   29  C   UNL     1      -9.042   4.996  63.831  1.00  0.00     0.095 A  
HETATM   30  C   UNL     1      -7.409   7.357  66.291  1.00  0.00    -0.082 A  
HETATM   31  C   UNL     1      -8.146   6.327  65.596  1.00  0.00    -0.129 A  
HETATM   32  C   UNL     1      -6.515   8.293  65.790  1.00  0.00    -0.052 A  
HETATM   33  C   UNL     1      -9.631   4.132  64.767  1.00  0.00    -0.176 A  
HETATM   34  C   UNL     1      -6.957   8.058  68.569  1.00  0.00    -0.072 A  
HETATM   35  C   UNL     1      -8.801   5.507  66.541  1.00  0.00    -0.121 A  
HETATM   36  C   UNL     1      -5.858   9.138  66.684  1.00  0.00    -0.058 A  
HETATM   37  C   UNL     1      -9.478   4.359  66.141  1.00  0.00    -0.175 A  
HETATM   38  C   UNL     1      -6.078   9.024  68.062  1.00  0.00    -0.050 A  
ENDBRANCH   2  26
TORSDOF 9
ENDMDL
MODEL      341
REMARK 921   NORMALIZED FREE ENERGY PREDICTED BY IDOCK:   -3.75 KCAL/MOL
REMARK 922        TOTAL FREE ENERGY PREDICTED BY IDOCK:   -7.49 KCAL/MOL
REMARK 923 INTER-LIGAND FREE ENERGY PREDICTED BY IDOCK:   -7.67 KCAL/MOL
REMARK 924 INTRA-LIGAND FREE ENERGY PREDICTED BY IDOCK:    0.18 KCAL/MOL
REMARK 927      BINDING AFFINITY PREDICTED BY RF-SCORE:    0.00 PKD
ROOT
HETATM    1  C   UNL     1     -10.219   7.376  73.288  1.00  0.00    -0.335 C  
HETATM    2  N   UNL     1     -10.635   7.636  71.844  1.00  0.00    -0.213 N  
HETATM    3  C   UNL     1     -11.858   6.783  71.516  1.00  0.00    -0.333 C  
ENDROOT
BRANCH   2   4
HETATM    4  C   UNL     1     -10.925   9.112  71.670  1.00  0.00    -0.374 C  
BRANCH   4   5
HETATM    5  C   UNL     1     -12.349   9.480  71.256  1.00  0.00    -0.430 C  
BRANCH   5   6
HETATM    6  C   UNL     1     -12.559  10.987  71.453  1.00  0.00    -0.498 C  
BRANCH   6   7
HETATM    7  C   UNL     1     -12.651  11.787  70.141  1.00  0.00    -0.068 C  
BRANCH   7   8
HETATM    8  C   UNL     1     -11.290  12.080  69.490  1.00  0.00    -0.298 C  
BRANCH   8   9
HETATM    9  C   UNL     1     -11.491  12.217  67.981  1.00  0.00    -0.321 C  
BRANCH   9  10
HETATM   10  N   UNL     1     -11.247  13.606  67.412  1.00  0.00    -0.292 N  
HETATM   11  C   UNL     1     -12.377  14.028  66.479  1.00  0.00    -0.404 C  
HETATM   12  C   UNL     1     -11.167  14.663  68.503  1.00  0.00    -0.271 C  
BRANCH  10  13
HETATM   13  C   UNL     1      -9.858  13.543  66.608  1.00  0.00    -0.279 C  
HETATM   14  C   UNL     1      -8.832  12.557  67.200  1.00  0.00    -0.202 A  
HETATM   15  C   UNL     1      -7.667  13.250  67.598  1.00  0.00    -0.171 A  
HETATM   16  C   UNL     1      -7.787  14.640  67.228  1.00  0.00    -0.213 A  
HETATM   17  C   UNL     1      -6.611  12.595  68.215  1.00  0.00    -0.079 A  
HETATM   18  C   UNL     1      -9.045  14.858  66.621  1.00  0.00    -0.309 A  
HETATM   19  C   UNL     1      -6.716  11.222  68.434  1.00  0.00    -0.061 A  
HETATM   20  C   UNL     1      -7.852  10.521  68.009  1.00  0.00    -0.105 A  
HETATM   21  C   UNL     1      -9.350  16.115  66.109  1.00  0.00    -0.372 A  
HETATM   22  C   UNL     1      -8.419  17.152  66.255  1.00  0.00    -0.279 A  
HETATM   23  C   UNL     1      -8.906  11.180  67.370  1.00  0.00    -0.139 A  
HETATM   24  C   UNL     1      -7.181  16.926  66.867  1.00  0.00    -0.251 A  
HETATM   25  C   UNL     1      -6.852  15.661  67.351  1.00  0.00    -0.231 A  
ENDBRANCH  10  13
ENDBRANCH   9  10
ENDBRANCH   8   9
ENDBRANCH   7   8
ENDBRANCH   6   7
ENDBRANCH   5   6
ENDBRANCH   4   5
ENDBRANCH   2   4
BRANCH   2  26
HETATM   26  C   UNL     1      -9.433   7.261  70.836  1.00  0.00    -0.159 C  
HETATM   27  C   UNL     1      -6.231   6.113  72.334  1.00  0.00    -0.049 A  
HETATM   28  C   UNL     1      -9.371   5.772  70.436  1.00  0.00    -0.186 A  
HETATM   29  C   UNL     1      -5.684   7.272  72.875  1.00  0.00    -0.041 A  
HETATM   30  C   UNL     1      -8.191   5.190  70.958  1.00  0.00    -0.111 A  
HETATM   31  C   UNL     1      -7.418   6.212  71.625  1.00  0.00    -0.094 A  
HETATM   32  C   UNL     1      -7.884   3.856  70.735  1.00  0.00    -0.051 A  
HETATM   33  C   UNL     1      -6.274   8.525  72.649  1.00  0.00    -0.087 A  
HETATM   34  C   UNL     1     -10.220   5.005  69.641  1.00  0.00    -0.306 A  
HETATM   35  C   UNL     1      -8.057   7.460  71.462  1.00  0.00    -0.100 A  
HETATM   36  C   UNL     1      -8.768   3.081  69.983  1.00  0.00    -0.129 A  
HETATM   37  C   UNL     1      -7.452   8.634  71.899  1.00  0.00    -0.099 A  
HETATM   38  C   UNL     1      -9.927   3.649  69.442  1.00  0.00     0.266 A  
ENDBRANCH   2  26
TORSDOF 9
ENDMDL
MODEL      342
REMARK 921   NORMALIZED FREE ENERGY PREDICTED BY IDOCK:   -3.69 KCAL/MOL
REMARK 922        TOTAL FREE ENERGY PREDICTED BY IDOCK:   -7.40 KCAL/MOL
REMARK 923 INTER-LIGAND FREE ENERGY PREDICTED BY IDOCK:   -7.63 KCAL/MOL
REMARK 924 INTRA-LIGAND FREE ENERGY PREDICTED BY IDOCK:    0.23 KCAL/MOL
REMARK 927      BINDING AFFINITY PREDICTED BY RF-SCORE:    0.00 PKD
ROOT
HETATM    1  C   UNL     1      -7.378  16.537  67.782  1.00  0.00    -0.138 C  
HETATM    2  N   UNL     1      -8.348  15.360  67.807  1.00  0.00    -0.143 N  
HETATM    3  C   UNL     1      -8.057  14.448  66.618  1.00  0.00     0.401 C  
ENDROOT
BRANCH   2   4
HETATM    4  C   UNL     1      -8.199  14.623  69.122  1.00  0.00    -0.068 C  
BRANCH   4   5
HETATM    5  C   UNL     1      -7.020  13.657  69.227  1.00  0.00    -0.025 C  
BRANCH   5   6
HETATM    6  C   UNL     1      -7.416  12.309  68.611  1.00  0.00    -0.100 C  
BRANCH   6   7
HETATM    7  C   UNL     1      -7.118  11.094  69.509  1.00  0.00    -0.088 C  
BRANCH   7   8
HETATM    8  C   UNL     1      -7.634   9.760  68.949  1.00  0.00    -0.081 C  
BRANCH   8   9
HETATM    9  C   UNL     1      -8.570   9.129  69.980  1.00  0.00    -0.163 C  
BRANCH   9  10
HETATM   10  N   UNL     1     -10.046   9.453  69.810  1.00  0.00    -0.198 N  
HETATM   11  C   UNL     1     -10.850   9.031  71.036  1.00  0.00    -0.276 C  
HETATM   12  C   UNL     1     -10.284  10.945  69.629  1.00  0.00     0.021 C  
BRANCH  10  13
HETATM   13  C   UNL     1     -10.552   8.656  68.512  1.00  0.00    -0.119 C  
HETATM   14  C   UNL     1      -9.978   7.232  68.383  1.00  0.00    -0.172 A  
HETATM   15  C   UNL     1      -9.224   7.118  67.193  1.00  0.00    -0.153 A  
HETATM   16  C   UNL     1      -9.324   8.347  66.444  1.00  0.00    -0.274 A  
HETATM   17  C   UNL     1      -8.553   5.947  66.872  1.00  0.00    -0.111 A  
HETATM   18  C   UNL     1     -10.114   9.273  67.164  1.00  0.00    -0.299 A  
HETATM   19  C   UNL     1      -8.639   4.867  67.750  1.00  0.00    -0.103 A  
HETATM   20  C   UNL     1      -9.414   4.960  68.913  1.00  0.00    -0.202 A  
HETATM   21  C   UNL     1     -10.414  10.506  66.594  1.00  0.00    -0.290 A  
HETATM   22  C   UNL     1      -9.880  10.821  65.337  1.00  0.00    -0.317 A  
HETATM   23  C   UNL     1     -10.106   6.134  69.226  1.00  0.00    -0.218 A  
HETATM   24  C   UNL     1      -9.092   9.900  64.639  1.00  0.00    -0.288 A  
HETATM   25  C   UNL     1      -8.815   8.648  65.187  1.00  0.00    -0.147 A  
ENDBRANCH  10  13
ENDBRANCH   9  10
ENDBRANCH   8   9
ENDBRANCH   7   8
ENDBRANCH   6   7
ENDBRANCH   5   6
ENDBRANCH   4   5
ENDBRANCH   2   4
BRANCH   2  26
HETATM   26  C   UNL     1      -9.871  15.884  67.721  1.00  0.00    -0.222 C  
HETATM   27  C   UNL     1     -12.436  13.508  66.460  1.00  0.00    -0.309 A  
HETATM   28  C   UNL     1     -10.723  15.588  68.974  1.00  0.00    -0.243 A  
HETATM   29  C   UNL     1     -12.175  13.433  65.096  1.00  0.00    -0.473 A  
HETATM   30  C   UNL     1     -11.749  14.671  68.642  1.00  0.00    -0.362 A  
HETATM   31  C   UNL     1     -11.686  14.385  67.228  1.00  0.00    -0.429 A  
HETATM   32  C   UNL     1     -12.667  14.242  69.589  1.00  0.00     0.070 A  
HETATM   33  C   UNL     1     -11.227  14.273  64.492  1.00  0.00    -0.331 A  
HETATM   34  C   UNL     1     -10.659  16.110  70.264  1.00  0.00    -0.151 A  
HETATM   35  C   UNL     1     -10.676  15.176  66.638  1.00  0.00    -0.310 A  
HETATM   36  C   UNL     1     -12.563  14.729  70.893  1.00  0.00    -0.401 A  
HETATM   37  C   UNL     1     -10.495  15.188  65.259  1.00  0.00    -0.434 A  
HETATM   38  C   UNL     1     -11.568  15.654  71.228  1.00  0.00    -0.485 A  
ENDBRANCH   2  26
TORSDOF 9
ENDMDL
MODEL      343
REMARK 921   NORMALIZED FREE ENERGY PREDICTED BY IDOCK:   -3.68 KCAL/MOL
REMARK 922        TOTAL FREE ENERGY PREDICTED BY IDOCK:   -7.38 KCAL/MOL
REMARK 923 INTER-LIGAND FREE ENERGY PREDICTED BY IDOCK:   -7.84 KCAL/MOL
REMARK 924 INTRA-LIGAND FREE ENERGY PREDICTED BY IDOCK:    0.46 KCAL/MOL
REMARK 927      BINDING AFFINITY PREDICTED BY RF-SCORE:    0.00 PKD
ROOT
HETATM    1  C   UNL     1     -10.900  10.879  67.431  1.00  0.00    -0.279 C  
HETATM    2  N   UNL     1     -10.116  12.093  67.918  1.00  0.00    -0.192 N  
HETATM    3  C   UNL     1     -11.069  13.051  68.628  1.00  0.00    -0.269 C  
ENDROOT
BRANCH   2   4
HETATM    4  C   UNL     1      -9.006  11.629  68.838  1.00  0.00     0.085 C  
BRANCH   4   5
HETATM    5  C   UNL     1      -9.142  10.217  69.406  1.00  0.00    -0.217 C  
BRANCH   5   6
HETATM    6  C   UNL     1      -7.814   9.805  70.056  1.00  0.00    -0.188 C  
BRANCH   6   7
HETATM    7  C   UNL     1      -7.894   8.506  70.880  1.00  0.00    -0.113 C  
BRANCH   7   8
HETATM    8  C   UNL     1      -6.688   8.276  71.803  1.00  0.00    -0.070 C  
BRANCH   8   9
HETATM    9  C   UNL     1      -7.189   7.685  73.121  1.00  0.00    -0.085 C  
BRANCH   9  10
HETATM   10  N   UNL     1      -7.098   6.172  73.237  1.00  0.00    -0.083 N  
HETATM   11  C   UNL     1      -6.798   5.531  71.886  1.00  0.00    -0.063 C  
HETATM   12  C   UNL     1      -5.985   5.738  74.179  1.00  0.00    -0.058 C  
BRANCH  10  13
HETATM   13  C   UNL     1      -8.515   5.660  73.791  1.00  0.00    -0.113 C  
HETATM   14  C   UNL     1      -8.802   4.173  73.508  1.00  0.00    -0.093 A  
HETATM   15  C   UNL     1      -9.957   4.047  72.702  1.00  0.00    -0.214 A  
HETATM   16  C   UNL     1     -10.539   5.350  72.493  1.00  0.00    -0.277 A  
HETATM   17  C   UNL     1     -10.396   2.808  72.258  1.00  0.00    -0.125 A  
HETATM   18  C   UNL     1      -9.745   6.329  73.133  1.00  0.00    -0.164 A  
HETATM   19  C   UNL     1      -9.676   1.673  72.629  1.00  0.00    -0.145 A  
HETATM   20  C   UNL     1      -8.552   1.786  73.458  1.00  0.00    -0.054 A  
HETATM   21  C   UNL     1     -10.160   7.656  73.132  1.00  0.00    -0.382 A  
HETATM   22  C   UNL     1     -11.335   7.999  72.449  1.00  0.00    -0.443 A  
HETATM   23  C   UNL     1      -8.122   3.034  73.920  1.00  0.00    -0.069 A  
HETATM   24  C   UNL     1     -12.107   7.024  71.811  1.00  0.00    -0.371 A  
HETATM   25  C   UNL     1     -11.717   5.685  71.837  1.00  0.00    -0.007 A  
ENDBRANCH  10  13
ENDBRANCH   9  10
ENDBRANCH   8   9
ENDBRANCH   7   8
ENDBRANCH   6   7
ENDBRANCH   5   6
ENDBRANCH   4   5
ENDBRANCH   2   4
BRANCH   2  26
HETATM   26  C   UNL     1      -9.422  12.850  66.674  1.00  0.00    -0.255 C  
HETATM   27  C   UNL     1     -11.564  13.665  63.748  1.00  0.00    -0.205 A  
HETATM   28  C   UNL     1      -9.518  14.390  66.726  1.00  0.00    -0.280 A  
HETATM   29  C   UNL     1     -11.775  12.432  63.139  1.00  0.00    -0.323 A  
HETATM   30  C   UNL     1     -10.328  14.849  65.660  1.00  0.00    -0.370 A  
HETATM   31  C   UNL     1     -10.727  13.721  64.851  1.00  0.00    -0.410 A  
HETATM   32  C   UNL     1     -10.571  16.202  65.469  1.00  0.00    -0.394 A  
HETATM   33  C   UNL     1     -11.102  11.282  63.578  1.00  0.00    -0.261 A  
HETATM   34  C   UNL     1      -8.910  15.313  67.573  1.00  0.00    -0.188 A  
HETATM   35  C   UNL     1     -10.110  12.552  65.347  1.00  0.00    -0.284 A  
HETATM   36  C   UNL     1     -10.001  17.117  66.355  1.00  0.00    -0.315 A  
HETATM   37  C   UNL     1     -10.225  11.342  64.669  1.00  0.00    -0.347 A  
HETATM   38  C   UNL     1      -9.179  16.677  67.399  1.00  0.00    -0.216 A  
ENDBRANCH   2  26
TORSDOF 9
ENDMDL
MODEL      344
REMARK 921   NORMALIZED FREE ENERGY PREDICTED BY IDOCK:   -3.66 KCAL/MOL
REMARK 922        TOTAL FREE ENERGY PREDICTED BY IDOCK:   -7.35 KCAL/MOL
REMARK 923 INTER-LIGAND FREE ENERGY PREDICTED BY IDOCK:   -6.48 KCAL/MOL
REMARK 924 INTRA-LIGAND FREE ENERGY PREDICTED BY IDOCK:   -0.87 KCAL/MOL
REMARK 927      BINDING AFFINITY PREDICTED BY RF-SCORE:    0.00 PKD
ROOT
HETATM    1  C   UNL     1     -12.578  13.507  69.342  1.00  0.00     0.261 C  
HETATM    2  N   UNL     1     -11.450  14.508  69.111  1.00  0.00    -0.276 N  
HETATM    3  C   UNL     1     -11.452  15.531  70.244  1.00  0.00    -0.334 C  
ENDROOT
BRANCH   2   4
HETATM    4  C   UNL     1     -10.134  13.762  69.039  1.00  0.00     0.019 C  
BRANCH   4   5
HETATM    5  C   UNL     1     -10.207  12.297  68.609  1.00  0.00    -0.177 C  
BRANCH   5   6
HETATM    6  C   UNL     1      -8.935  11.934  67.833  1.00  0.00    -0.179 C  
BRANCH   6   7
HETATM    7  C   UNL     1      -9.196  11.196  66.507  1.00  0.00    -0.194 C  
BRANCH   7   8
HETATM    8  C   UNL     1      -9.470   9.693  66.671  1.00  0.00    -0.221 C  
BRANCH   8   9
HETATM    9  C   UNL     1      -8.234   9.037  67.287  1.00  0.00    -0.103 C  
BRANCH   9  10
HETATM   10  N   UNL     1      -8.494   7.768  68.082  1.00  0.00    -0.124 N  
HETATM   11  C   UNL     1      -8.888   8.087  69.520  1.00  0.00    -0.144 C  
HETATM   12  C   UNL     1      -9.633   6.950  67.492  1.00  0.00    -0.128 C  
BRANCH  10  13
HETATM   13  C   UNL     1      -7.135   6.913  68.054  1.00  0.00    -0.086 C  
HETATM   14  C   UNL     1      -6.898   6.148  66.738  1.00  0.00    -0.062 A  
HETATM   15  C   UNL     1      -6.844   4.758  66.987  1.00  0.00    -0.056 A  
HETATM   16  C   UNL     1      -6.932   4.523  68.408  1.00  0.00    -0.052 A  
HETATM   17  C   UNL     1      -6.695   3.844  65.954  1.00  0.00    -0.045 A  
HETATM   18  C   UNL     1      -7.078   5.758  69.081  1.00  0.00    -0.065 A  
HETATM   19  C   UNL     1      -6.593   4.324  64.649  1.00  0.00    -0.043 A  
HETATM   20  C   UNL     1      -6.608   5.702  64.397  1.00  0.00    -0.045 A  
HETATM   21  C   UNL     1      -7.102   5.782  70.471  1.00  0.00    -0.067 A  
HETATM   22  C   UNL     1      -7.033   4.570  71.172  1.00  0.00    -0.036 A  
HETATM   23  C   UNL     1      -6.738   6.623  65.441  1.00  0.00    -0.050 A  
HETATM   24  C   UNL     1      -6.898   3.354  70.495  1.00  0.00    -0.033 A  
HETATM   25  C   UNL     1      -6.837   3.323  69.102  1.00  0.00    -0.041 A  
ENDBRANCH  10  13
ENDBRANCH   9  10
ENDBRANCH   8   9
ENDBRANCH   7   8
ENDBRANCH   6   7
ENDBRANCH   5   6
ENDBRANCH   4   5
ENDBRANCH   2   4
BRANCH   2  26
HETATM   26  C   UNL     1     -11.650  15.265  67.702  1.00  0.00    -0.239 C  
HETATM   27  C   UNL     1      -8.592  16.273  65.844  1.00  0.00    -0.064 A  
HETATM   28  C   UNL     1     -11.664  14.336  66.470  1.00  0.00    -0.409 A  
HETATM   29  C   UNL     1      -8.098  17.345  66.579  1.00  0.00    -0.312 A  
HETATM   30  C   UNL     1     -10.531  14.601  65.664  1.00  0.00    -0.358 A  
HETATM   31  C   UNL     1      -9.792  15.701  66.239  1.00  0.00    -0.318 A  
HETATM   32  C   UNL     1     -10.306  13.907  64.484  1.00  0.00    -0.260 A  
HETATM   33  C   UNL     1      -8.825  17.889  67.648  1.00  0.00    -0.250 A  
HETATM   34  C   UNL     1     -12.600  13.393  66.049  1.00  0.00    -0.361 A  
HETATM   35  C   UNL     1     -10.489  16.193  67.363  1.00  0.00    -0.310 A  
HETATM   36  C   UNL     1     -11.221  12.927  64.097  1.00  0.00    -0.432 A  
HETATM   37  C   UNL     1     -10.057  17.338  68.025  1.00  0.00    -0.324 A  
HETATM   38  C   UNL     1     -12.358  12.671  64.873  1.00  0.00    -0.563 A  
ENDBRANCH   2  26
TORSDOF 9
ENDMDL
MODEL      345
REMARK 921   NORMALIZED FREE ENERGY PREDICTED BY IDOCK:   -3.64 KCAL/MOL
REMARK 922        TOTAL FREE ENERGY PREDICTED BY IDOCK:   -7.32 KCAL/MOL
REMARK 923 INTER-LIGAND FREE ENERGY PREDICTED BY IDOCK:   -7.46 KCAL/MOL
REMARK 924 INTRA-LIGAND FREE ENERGY PREDICTED BY IDOCK:    0.13 KCAL/MOL
REMARK 927      BINDING AFFINITY PREDICTED BY RF-SCORE:    0.00 PKD
ROOT
HETATM    1  C   UNL     1      -8.454  12.689  68.451  1.00  0.00    -0.121 C  
HETATM    2  N   UNL     1      -9.263  12.219  67.247  1.00  0.00    -0.179 N  
HETATM    3  C   UNL     1      -8.855  10.790  66.899  1.00  0.00    -0.140 C  
ENDROOT
BRANCH   2   4
HETATM    4  C   UNL     1     -10.738  12.311  67.576  1.00  0.00    -0.225 C  
BRANCH   4   5
HETATM    5  C   UNL     1     -11.140  11.934  69.002  1.00  0.00    -0.300 C  
BRANCH   5   6
HETATM    6  C   UNL     1     -11.453  10.433  69.058  1.00  0.00    -0.258 C  
BRANCH   6   7
HETATM    7  C   UNL     1     -11.769   9.909  70.471  1.00  0.00    -0.373 C  
BRANCH   7   8
HETATM    8  C   UNL     1     -10.530   9.461  71.263  1.00  0.00    -0.385 C  
BRANCH   8   9
HETATM    9  C   UNL     1     -10.207   8.016  70.885  1.00  0.00    -0.192 C  
BRANCH   9  10
HETATM   10  N   UNL     1      -9.814   7.109  72.041  1.00  0.00    -0.159 N  
HETATM   11  C   UNL     1      -9.981   7.818  73.381  1.00  0.00    -0.284 C  
HETATM   12  C   UNL     1     -10.677   5.858  72.102  1.00  0.00    -0.231 C  
BRANCH  10  13
HETATM   13  C   UNL     1      -8.277   6.705  71.815  1.00  0.00    -0.110 C  
HETATM   14  C   UNL     1      -7.455   7.756  71.044  1.00  0.00    -0.074 A  
HETATM   15  C   UNL     1      -6.962   7.202  69.842  1.00  0.00    -0.057 A  
HETATM   16  C   UNL     1      -7.311   5.803  69.781  1.00  0.00    -0.071 A  
HETATM   17  C   UNL     1      -6.237   7.965  68.938  1.00  0.00    -0.039 A  
HETATM   18  C   UNL     1      -8.062   5.456  70.928  1.00  0.00    -0.112 A  
HETATM   19  C   UNL     1      -5.993   9.303  69.241  1.00  0.00    -0.038 A  
HETATM   20  C   UNL     1      -6.447   9.851  70.448  1.00  0.00    -0.115 A  
HETATM   21  C   UNL     1      -8.441   4.132  71.124  1.00  0.00    -0.103 A  
HETATM   22  C   UNL     1      -8.112   3.181  70.149  1.00  0.00    -0.059 A  
HETATM   23  C   UNL     1      -7.160   9.076  71.366  1.00  0.00    -0.069 A  
HETATM   24  C   UNL     1      -7.377   3.538  69.013  1.00  0.00    -0.049 A  
HETATM   25  C   UNL     1      -6.963   4.856  68.826  1.00  0.00    -0.052 A  
ENDBRANCH  10  13
ENDBRANCH   9  10
ENDBRANCH   8   9
ENDBRANCH   7   8
ENDBRANCH   6   7
ENDBRANCH   5   6
ENDBRANCH   4   5
ENDBRANCH   2   4
BRANCH   2  26
HETATM   26  C   UNL     1      -8.994  13.179  65.980  1.00  0.00     0.343 C  
HETATM   27  C   UNL     1     -11.949  14.334  64.043  1.00  0.00    -0.328 A  
HETATM   28  C   UNL     1      -9.053  14.689  66.294  1.00  0.00    -0.196 A  
HETATM   29  C   UNL     1     -12.355  13.199  63.351  1.00  0.00    -0.443 A  
HETATM   30  C   UNL     1     -10.156  15.269  65.624  1.00  0.00    -0.401 A  
HETATM   31  C   UNL     1     -10.803  14.259  64.820  1.00  0.00    -0.420 A  
HETATM   32  C   UNL     1     -10.433  16.625  65.729  1.00  0.00    -0.324 A  
HETATM   33  C   UNL     1     -11.589  12.023  63.373  1.00  0.00    -0.495 A  
HETATM   34  C   UNL     1      -8.197  15.500  67.037  1.00  0.00    -0.275 A  
HETATM   35  C   UNL     1     -10.072  13.055  64.909  1.00  0.00    -0.233 A  
HETATM   36  C   UNL     1      -9.602  17.420  66.519  1.00  0.00    -0.292 A  
HETATM   37  C   UNL     1     -10.409  11.956  64.125  1.00  0.00    -0.377 A  
HETATM   38  C   UNL     1      -8.494  16.863  67.168  1.00  0.00    -0.218 A  
ENDBRANCH   2  26
TORSDOF 9
ENDMDL
MODEL      346
REMARK 921   NORMALIZED FREE ENERGY PREDICTED BY IDOCK:   -3.63 KCAL/MOL
REMARK 922        TOTAL FREE ENERGY PREDICTED BY IDOCK:   -7.31 KCAL/MOL
REMARK 923 INTER-LIGAND FREE ENERGY PREDICTED BY IDOCK:   -7.56 KCAL/MOL
REMARK 924 INTRA-LIGAND FREE ENERGY PREDICTED BY IDOCK:    0.26 KCAL/MOL
REMARK 927      BINDING AFFINITY PREDICTED BY RF-SCORE:    0.00 PKD
ROOT
HETATM    1  C   UNL     1     -10.528   5.740  69.689  1.00  0.00    -0.293 C  
HETATM    2  N   UNL     1     -10.098   6.617  68.517  1.00  0.00    -0.153 N  
HETATM    3  C   UNL     1     -11.157   6.540  67.421  1.00  0.00    -0.327 C  
ENDROOT
BRANCH   2   4
HETATM    4  C   UNL     1      -9.908   8.038  69.007  1.00  0.00    -0.178 C  
BRANCH   4   5
HETATM    5  C   UNL     1     -10.879   8.520  70.084  1.00  0.00    -0.238 C  
BRANCH   5   6
HETATM    6  C   UNL     1     -10.849  10.054  70.141  1.00  0.00    -0.365 C  
BRANCH   6   7
HETATM    7  C   UNL     1     -11.697  10.741  69.055  1.00  0.00    -0.357 C  
BRANCH   7   8
HETATM    8  C   UNL     1     -11.461  12.254  68.941  1.00  0.00    -0.355 C  
BRANCH   8   9
HETATM    9  C   UNL     1     -10.949  12.563  67.534  1.00  0.00    -0.251 C  
BRANCH   9  10
HETATM   10  N   UNL     1     -11.267  13.955  67.013  1.00  0.00    -0.304 N  
HETATM   11  C   UNL     1     -12.250  13.898  65.848  1.00  0.00    -0.467 C  
HETATM   12  C   UNL     1     -11.909  14.830  68.079  1.00  0.00    -0.294 C  
BRANCH  10  13
HETATM   13  C   UNL     1      -9.878  14.603  66.535  1.00  0.00    -0.275 C  
HETATM   14  C   UNL     1      -8.682  14.275  67.450  1.00  0.00    -0.217 A  
HETATM   15  C   UNL     1      -8.147  15.463  67.995  1.00  0.00    -0.143 A  
HETATM   16  C   UNL     1      -8.838  16.600  67.435  1.00  0.00    -0.198 A  
HETATM   17  C   UNL     1      -7.095  15.434  68.899  1.00  0.00    -0.131 A  
HETATM   18  C   UNL     1      -9.847  16.149  66.554  1.00  0.00    -0.283 A  
HETATM   19  C   UNL     1      -6.563  14.198  69.262  1.00  0.00    -0.120 A  
HETATM   20  C   UNL     1      -7.063  13.017  68.699  1.00  0.00    -0.103 A  
HETATM   21  C   UNL     1     -10.593  17.077  65.834  1.00  0.00    -0.221 A  
HETATM   22  C   UNL     1     -10.359  18.443  66.042  1.00  0.00    -0.397 A  
HETATM   23  C   UNL     1      -8.110  13.050  67.773  1.00  0.00    -0.168 A  
HETATM   24  C   UNL     1      -9.365  18.877  66.925  1.00  0.00    -0.333 A  
HETATM   25  C   UNL     1      -8.588  17.954  67.624  1.00  0.00    -0.242 A  
ENDBRANCH  10  13
ENDBRANCH   9  10
ENDBRANCH   8   9
ENDBRANCH   7   8
ENDBRANCH   6   7
ENDBRANCH   5   6
ENDBRANCH   4   5
ENDBRANCH   2   4
BRANCH   2  26
HETATM   26  C   UNL     1      -8.681   6.118  67.932  1.00  0.00    -0.113 C  
HETATM   27  C   UNL     1      -7.081   3.191  69.572  1.00  0.00    -0.041 A  
HETATM   28  C   UNL     1      -8.783   5.014  66.859  1.00  0.00    -0.107 A  
HETATM   29  C   UNL     1      -6.628   3.699  70.785  1.00  0.00    -0.032 A  
HETATM   30  C   UNL     1      -8.216   3.816  67.357  1.00  0.00    -0.090 A  
HETATM   31  C   UNL     1      -7.673   4.064  68.672  1.00  0.00    -0.058 A  
HETATM   32  C   UNL     1      -8.169   2.664  66.585  1.00  0.00    -0.085 A  
HETATM   33  C   UNL     1      -6.698   5.071  71.069  1.00  0.00    -0.042 A  
HETATM   34  C   UNL     1      -9.261   5.055  65.551  1.00  0.00    -0.157 A  
HETATM   35  C   UNL     1      -7.818   5.432  68.985  1.00  0.00    -0.090 A  
HETATM   36  C   UNL     1      -8.699   2.700  65.295  1.00  0.00    -0.115 A  
HETATM   37  C   UNL     1      -7.261   5.962  70.145  1.00  0.00    -0.072 A  
HETATM   38  C   UNL     1      -9.242   3.883  64.782  1.00  0.00    -0.149 A  
ENDBRANCH   2  26
TORSDOF 9
ENDMDL
MODEL      347
REMARK 921   NORMALIZED FREE ENERGY PREDICTED BY IDOCK:   -3.61 KCAL/MOL
REMARK 922        TOTAL FREE ENERGY PREDICTED BY IDOCK:   -7.27 KCAL/MOL
REMARK 923 INTER-LIGAND FREE ENERGY PREDICTED BY IDOCK:   -7.96 KCAL/MOL
REMARK 924 INTRA-LIGAND FREE ENERGY PREDICTED BY IDOCK:    0.69 KCAL/MOL
REMARK 927      BINDING AFFINITY PREDICTED BY RF-SCORE:    0.00 PKD
ROOT
HETATM    1  C   UNL     1     -10.015  10.060  65.160  1.00  0.00    -0.280 C  
HETATM    2  N   UNL     1      -8.792   9.304  65.669  1.00  0.00    -0.168 N  
HETATM    3  C   UNL     1      -7.546   9.841  64.970  1.00  0.00    -0.127 C  
ENDROOT
BRANCH   2   4
HETATM    4  C   UNL     1      -8.700   9.468  67.172  1.00  0.00    -0.132 C  
BRANCH   4   5
HETATM    5  C   UNL     1      -9.601  10.534  67.795  1.00  0.00    -0.173 C  
BRANCH   5   6
HETATM    6  C   UNL     1     -10.313   9.941  69.018  1.00  0.00    -0.224 C  
BRANCH   6   7
HETATM    7  C   UNL     1     -11.080  10.975  69.862  1.00  0.00    -0.276 C  
BRANCH   7   8
HETATM    8  C   UNL     1     -12.035  11.862  69.048  1.00  0.00    -0.321 C  
BRANCH   8   9
HETATM    9  C   UNL     1     -12.092  13.243  69.701  1.00  0.00    -0.270 C  
BRANCH   9  10
HETATM   10  N   UNL     1     -11.012  14.220  69.263  1.00  0.00    -0.254 N  
HETATM   11  C   UNL     1     -10.481  15.024  70.445  1.00  0.00     0.022 C  
HETATM   12  C   UNL     1      -9.815  13.509  68.650  1.00  0.00    -0.125 C  
BRANCH  10  13
HETATM   13  C   UNL     1     -11.681  15.200  68.181  1.00  0.00    -0.302 C  
HETATM   14  C   UNL     1     -11.799  14.592  66.769  1.00  0.00    -0.334 A  
HETATM   15  C   UNL     1     -11.054  15.361  65.846  1.00  0.00    -0.247 A  
HETATM   16  C   UNL     1     -10.509  16.517  66.516  1.00  0.00    -0.270 A  
HETATM   17  C   UNL     1     -10.952  14.990  64.513  1.00  0.00    -0.209 A  
HETATM   18  C   UNL     1     -10.869  16.482  67.883  1.00  0.00    -0.326 A  
HETATM   19  C   UNL     1     -11.608  13.835  64.091  1.00  0.00    -0.360 A  
HETATM   20  C   UNL     1     -12.379  13.088  64.991  1.00  0.00    -0.526 A  
HETATM   21  C   UNL     1     -10.519  17.543  68.711  1.00  0.00    -0.318 A  
HETATM   22  C   UNL     1      -9.769  18.600  68.179  1.00  0.00    -0.372 A  
HETATM   23  C   UNL     1     -12.497  13.474  66.330  1.00  0.00    -0.384 A  
HETATM   24  C   UNL     1      -9.410  18.619  66.828  1.00  0.00    -0.312 A  
HETATM   25  C   UNL     1      -9.787  17.577  65.982  1.00  0.00    -0.195 A  
ENDBRANCH  10  13
ENDBRANCH   9  10
ENDBRANCH   8   9
ENDBRANCH   7   8
ENDBRANCH   6   7
ENDBRANCH   5   6
ENDBRANCH   4   5
ENDBRANCH   2   4
BRANCH   2  26
HETATM   26  C   UNL     1      -8.940   7.727  65.367  1.00  0.00     0.138 C  
HETATM   27  C   UNL     1      -6.108   5.521  66.330  1.00  0.00    -0.030 A  
HETATM   28  C   UNL     1      -9.518   6.901  66.536  1.00  0.00    -0.199 A  
HETATM   29  C   UNL     1      -5.127   5.813  65.388  1.00  0.00    -0.009 A  
HETATM   30  C   UNL     1      -8.530   6.011  67.021  1.00  0.00    -0.108 A  
HETATM   31  C   UNL     1      -7.344   6.136  66.206  1.00  0.00    -0.084 A  
HETATM   32  C   UNL     1      -8.794   5.142  68.070  1.00  0.00    -0.106 A  
HETATM   33  C   UNL     1      -5.396   6.650  64.295  1.00  0.00    -0.027 A  
HETATM   34  C   UNL     1     -10.798   6.873  67.087  1.00  0.00    -0.447 A  
HETATM   35  C   UNL     1      -7.596   7.041  65.152  1.00  0.00    -0.102 A  
HETATM   36  C   UNL     1     -10.062   5.159  68.652  1.00  0.00    -0.220 A  
HETATM   37  C   UNL     1      -6.658   7.242  64.145  1.00  0.00    -0.044 A  
HETATM   38  C   UNL     1     -11.055   6.017  68.167  1.00  0.00    -0.246 A  
ENDBRANCH   2  26
TORSDOF 9
ENDMDL
MODEL      348
REMARK 921   NORMALIZED FREE ENERGY PREDICTED BY IDOCK:   -3.58 KCAL/MOL
REMARK 922        TOTAL FREE ENERGY PREDICTED BY IDOCK:   -7.24 KCAL/MOL
REMARK 923 INTER-LIGAND FREE ENERGY PREDICTED BY IDOCK:   -7.76 KCAL/MOL
REMARK 924 INTRA-LIGAND FREE ENERGY PREDICTED BY IDOCK:    0.52 KCAL/MOL
REMARK 927      BINDING AFFINITY PREDICTED BY RF-SCORE:    0.00 PKD
ROOT
HETATM    1  C   UNL     1      -7.383   5.791  68.441  1.00  0.00    -0.080 C  
HETATM    2  N   UNL     1      -7.885   6.302  69.788  1.00  0.00    -0.108 N  
HETATM    3  C   UNL     1      -6.939   5.826  70.886  1.00  0.00    -0.066 C  
ENDROOT
BRANCH   2   4
HETATM    4  C   UNL     1      -7.969   7.814  69.744  1.00  0.00    -0.115 C  
BRANCH   4   5
HETATM    5  C   UNL     1      -8.631   8.420  68.507  1.00  0.00    -0.136 C  
BRANCH   5   6
HETATM    6  C   UNL     1      -7.553   9.056  67.618  1.00  0.00    -0.093 C  
BRANCH   6   7
HETATM    7  C   UNL     1      -6.545   9.933  68.383  1.00  0.00    -0.055 C  
BRANCH   7   8
HETATM    8  C   UNL     1      -6.066  11.164  67.599  1.00  0.00    -0.049 C  
BRANCH   8   9
HETATM    9  C   UNL     1      -7.287  11.866  67.003  1.00  0.00    -0.118 C  
BRANCH   9  10
HETATM   10  N   UNL     1      -7.763  13.100  67.753  1.00  0.00    -0.138 N  
HETATM   11  C   UNL     1      -7.558  12.947  69.257  1.00  0.00     0.388 C  
HETATM   12  C   UNL     1      -7.000  14.349  67.337  1.00  0.00    -0.064 C  
BRANCH  10  13
HETATM   13  C   UNL     1      -9.324  13.276  67.421  1.00  0.00    -0.217 C  
HETATM   14  C   UNL     1      -9.814  12.426  66.232  1.00  0.00    -0.257 A  
HETATM   15  C   UNL     1     -10.304  13.265  65.206  1.00  0.00    -0.324 A  
HETATM   16  C   UNL     1     -10.273  14.636  65.653  1.00  0.00    -0.382 A  
HETATM   17  C   UNL     1     -10.754  12.744  64.000  1.00  0.00    -0.457 A  
HETATM   18  C   UNL     1      -9.729  14.694  66.956  1.00  0.00    -0.247 A  
HETATM   19  C   UNL     1     -10.719  11.363  63.817  1.00  0.00    -0.470 A  
HETATM   20  C   UNL     1     -10.269  10.522  64.843  1.00  0.00    -0.371 A  
HETATM   21  C   UNL     1      -9.676  15.913  67.623  1.00  0.00    -0.223 A  
HETATM   22  C   UNL     1     -10.117  17.068  66.962  1.00  0.00    -0.295 A  
HETATM   23  C   UNL     1      -9.835  11.047  66.064  1.00  0.00    -0.273 A  
HETATM   24  C   UNL     1     -10.644  17.000  65.669  1.00  0.00    -0.206 A  
HETATM   25  C   UNL     1     -10.734  15.776  65.006  1.00  0.00    -0.443 A  
ENDBRANCH  10  13
ENDBRANCH   9  10
ENDBRANCH   8   9
ENDBRANCH   7   8
ENDBRANCH   6   7
ENDBRANCH   5   6
ENDBRANCH   4   5
ENDBRANCH   2   4
BRANCH   2  26
HETATM   26  C   UNL     1      -9.371   5.748  70.081  1.00  0.00    -0.155 C  
HETATM   27  C   UNL     1      -9.697   2.217  71.198  1.00  0.00    -0.181 A  
HETATM   28  C   UNL     1      -9.828   5.883  71.549  1.00  0.00    -0.201 A  
HETATM   29  C   UNL     1      -9.433   1.481  70.047  1.00  0.00    -0.145 A  
HETATM   30  C   UNL     1      -9.983   4.596  72.117  1.00  0.00    -0.241 A  
HETATM   31  C   UNL     1      -9.727   3.600  71.103  1.00  0.00    -0.245 A  
HETATM   32  C   UNL     1     -10.398   4.432  73.431  1.00  0.00    -0.237 A  
HETATM   33  C   UNL     1      -9.274   2.111  68.804  1.00  0.00    -0.221 A  
HETATM   34  C   UNL     1     -10.144   7.010  72.306  1.00  0.00    -0.195 A  
HETATM   35  C   UNL     1      -9.490   4.243  69.869  1.00  0.00    -0.260 A  
HETATM   36  C   UNL     1     -10.660   5.567  74.198  1.00  0.00    -0.249 A  
HETATM   37  C   UNL     1      -9.343   3.506  68.698  1.00  0.00    -0.230 A  
HETATM   38  C   UNL     1     -10.534   6.845  73.642  1.00  0.00    -0.400 A  
ENDBRANCH   2  26
TORSDOF 9
ENDMDL
MODEL      349
REMARK 921   NORMALIZED FREE ENERGY PREDICTED BY IDOCK:   -3.55 KCAL/MOL
REMARK 922        TOTAL FREE ENERGY PREDICTED BY IDOCK:   -7.19 KCAL/MOL
REMARK 923 INTER-LIGAND FREE ENERGY PREDICTED BY IDOCK:   -5.85 KCAL/MOL
REMARK 924 INTRA-LIGAND FREE ENERGY PREDICTED BY IDOCK:   -1.34 KCAL/MOL
REMARK 927      BINDING AFFINITY PREDICTED BY RF-SCORE:    0.00 PKD
ROOT
HETATM    1  C   UNL     1      -6.903   5.672  68.413  1.00  0.00    -0.063 C  
HETATM    2  N   UNL     1      -7.380   6.428  69.649  1.00  0.00    -0.078 N  
HETATM    3  C   UNL     1      -6.519   6.026  70.844  1.00  0.00    -0.041 C  
ENDROOT
BRANCH   2   4
HETATM    4  C   UNL     1      -7.297   7.917  69.382  1.00  0.00    -0.081 C  
BRANCH   4   5
HETATM    5  C   UNL     1      -8.273   8.475  68.346  1.00  0.00    -0.123 C  
BRANCH   5   6
HETATM    6  C   UNL     1      -7.579   9.584  67.545  1.00  0.00    -0.095 C  
BRANCH   6   7
HETATM    7  C   UNL     1      -6.592  10.431  68.369  1.00  0.00    -0.059 C  
BRANCH   7   8
HETATM    8  C   UNL     1      -6.264  11.795  67.743  1.00  0.00    -0.061 C  
BRANCH   8   9
HETATM    9  C   UNL     1      -7.556  12.402  67.194  1.00  0.00    -0.104 C  
BRANCH   9  10
HETATM   10  N   UNL     1      -8.027  13.673  67.884  1.00  0.00    -0.145 N  
HETATM   11  C   UNL     1      -7.419  13.804  69.277  1.00  0.00     0.142 C  
HETATM   12  C   UNL     1      -7.621  14.922  67.116  1.00  0.00    -0.110 C  
BRANCH  10  13
HETATM   13  C   UNL     1      -9.627  13.585  67.982  1.00  0.00    -0.221 C  
HETATM   14  C   UNL     1     -10.151  12.247  68.540  1.00  0.00    -0.192 A  
HETATM   15  C   UNL     1     -10.959  11.602  67.576  1.00  0.00    -0.312 A  
HETATM   16  C   UNL     1     -11.103  12.459  66.423  1.00  0.00    -0.343 A  
HETATM   17  C   UNL     1     -11.507  10.350  67.814  1.00  0.00    -0.055 A  
HETATM   18  C   UNL     1     -10.361  13.645  66.623  1.00  0.00    -0.275 A  
HETATM   19  C   UNL     1     -11.251   9.732  69.036  1.00  0.00    -0.080 A  
HETATM   20  C   UNL     1     -10.482  10.380  70.012  1.00  0.00    -0.235 A  
HETATM   21  C   UNL     1     -10.418  14.657  65.670  1.00  0.00    -0.358 A  
HETATM   22  C   UNL     1     -11.173  14.452  64.507  1.00  0.00    -0.314 A  
HETATM   23  C   UNL     1      -9.946  11.650  69.778  1.00  0.00     1.076 A  
HETATM   24  C   UNL     1     -11.895  13.270  64.316  1.00  0.00    -0.469 A  
HETATM   25  C   UNL     1     -11.872  12.264  65.282  1.00  0.00    -0.411 A  
ENDBRANCH  10  13
ENDBRANCH   9  10
ENDBRANCH   8   9
ENDBRANCH   7   8
ENDBRANCH   6   7
ENDBRANCH   5   6
ENDBRANCH   4   5
ENDBRANCH   2   4
BRANCH   2  26
HETATM   26  C   UNL     1      -8.924   6.082  69.959  1.00  0.00    -0.146 C  
HETATM   27  C   UNL     1      -9.689   2.703  71.307  1.00  0.00    -0.202 A  
HETATM   28  C   UNL     1      -9.369   6.373  71.408  1.00  0.00    -0.157 A  
HETATM   29  C   UNL     1      -9.512   1.863  70.213  1.00  0.00    -0.143 A  
HETATM   30  C   UNL     1      -9.684   5.157  72.060  1.00  0.00    -0.205 A  
HETATM   31  C   UNL     1      -9.548   4.069  71.119  1.00  0.00    -0.242 A  
HETATM   32  C   UNL     1     -10.123   5.136  73.376  1.00  0.00    -0.203 A  
HETATM   33  C   UNL     1      -9.269   2.381  68.932  1.00  0.00    -0.214 A  
HETATM   34  C   UNL     1      -9.548   7.579  72.082  1.00  0.00    -0.190 A  
HETATM   35  C   UNL     1      -9.226   4.592  69.847  1.00  0.00    -0.193 A  
HETATM   36  C   UNL     1     -10.248   6.345  74.060  1.00  0.00    -0.349 A  
HETATM   37  C   UNL     1      -9.166   3.764  68.731  1.00  0.00    -0.218 A  
HETATM   38  C   UNL     1      -9.962   7.556  73.420  1.00  0.00    -0.378 A  
ENDBRANCH   2  26
TORSDOF 9
ENDMDL
MODEL      350
REMARK 921   NORMALIZED FREE ENERGY PREDICTED BY IDOCK:   -3.51 KCAL/MOL
REMARK 922        TOTAL FREE ENERGY PREDICTED BY IDOCK:   -7.13 KCAL/MOL
REMARK 923 INTER-LIGAND FREE ENERGY PREDICTED BY IDOCK:   -7.24 KCAL/MOL
REMARK 924 INTRA-LIGAND FREE ENERGY PREDICTED BY IDOCK:    0.11 KCAL/MOL
REMARK 927      BINDING AFFINITY PREDICTED BY RF-SCORE:    0.00 PKD
ROOT
HETATM    1  C   UNL     1     -11.737  12.291  68.202  1.00  0.00    -0.349 C  
HETATM    2  N   UNL     1     -10.736  11.190  67.870  1.00  0.00    -0.202 N  
HETATM    3  C   UNL     1      -9.339  11.798  67.775  1.00  0.00    -0.181 C  
ENDROOT
BRANCH   2   4
HETATM    4  C   UNL     1     -10.804  10.120  68.940  1.00  0.00    -0.223 C  
BRANCH   4   5
HETATM    5  C   UNL     1     -11.193  10.587  70.343  1.00  0.00    -0.378 C  
BRANCH   5   6
HETATM    6  C   UNL     1     -12.535   9.951  70.732  1.00  0.00    -0.344 C  
BRANCH   6   7
HETATM    7  C   UNL     1     -12.598   9.460  72.190  1.00  0.00    -0.423 C  
BRANCH   7   8
HETATM    8  C   UNL     1     -12.248   7.975  72.366  1.00  0.00    -0.337 C  
BRANCH   8   9
HETATM    9  C   UNL     1     -10.726   7.837  72.416  1.00  0.00    -0.290 C  
BRANCH   9  10
HETATM   10  N   UNL     1     -10.206   6.492  72.899  1.00  0.00    -0.184 N  
HETATM   11  C   UNL     1      -9.907   6.520  74.394  1.00  0.00    -0.332 C  
HETATM   12  C   UNL     1     -11.219   5.378  72.680  1.00  0.00    -0.275 C  
BRANCH  10  13
HETATM   13  C   UNL     1      -8.866   6.185  72.070  1.00  0.00    -0.139 C  
HETATM   14  C   UNL     1      -7.788   5.430  72.873  1.00  0.00    -0.098 A  
HETATM   15  C   UNL     1      -6.615   6.212  72.967  1.00  0.00    -0.065 A  
HETATM   16  C   UNL     1      -6.783   7.420  72.195  1.00  0.00    -0.058 A  
HETATM   17  C   UNL     1      -5.513   5.779  73.690  1.00  0.00    -0.028 A  
HETATM   18  C   UNL     1      -8.078   7.440  71.628  1.00  0.00    -0.099 A  
HETATM   19  C   UNL     1      -5.579   4.541  74.327  1.00  0.00    -0.013 A  
HETATM   20  C   UNL     1      -6.724   3.743  74.209  1.00  0.00    -0.045 A  
HETATM   21  C   UNL     1      -8.436   8.477  70.774  1.00  0.00    -0.166 A  
HETATM   22  C   UNL     1      -7.518   9.509  70.537  1.00  0.00    -0.159 A  
HETATM   23  C   UNL     1      -7.826   4.172  73.463  1.00  0.00    -0.085 A  
HETATM   24  C   UNL     1      -6.243   9.484  71.112  1.00  0.00    -0.068 A  
HETATM   25  C   UNL     1      -5.862   8.429  71.941  1.00  0.00    -0.046 A  
ENDBRANCH  10  13
ENDBRANCH   9  10
ENDBRANCH   8   9
ENDBRANCH   7   8
ENDBRANCH   6   7
ENDBRANCH   5   6
ENDBRANCH   4   5
ENDBRANCH   2   4
BRANCH   2  26
HETATM   26  C   UNL     1     -11.114  10.490  66.468  1.00  0.00     0.120 C  
HETATM   27  C   UNL     1     -10.397  12.389  63.353  1.00  0.00    -0.319 A  
HETATM   28  C   UNL     1      -9.965   9.687  65.821  1.00  0.00    -0.342 A  
HETATM   29  C   UNL     1     -11.365  13.387  63.345  1.00  0.00     0.187 A  
HETATM   30  C   UNL     1      -9.573  10.310  64.613  1.00  0.00    -0.374 A  
HETATM   31  C   UNL     1     -10.433  11.445  64.368  1.00  0.00    -0.388 A  
HETATM   32  C   UNL     1      -8.561   9.783  63.824  1.00  0.00    -0.208 A  
HETATM   33  C   UNL     1     -12.399  13.404  64.293  1.00  0.00    -0.396 A  
HETATM   34  C   UNL     1      -9.359   8.492  66.206  1.00  0.00    -0.287 A  
HETATM   35  C   UNL     1     -11.425  11.502  65.371  1.00  0.00    -0.080 A  
HETATM   36  C   UNL     1      -7.922   8.616  64.244  1.00  0.00    -0.148 A  
HETATM   37  C   UNL     1     -12.461  12.428  65.297  1.00  0.00    -0.256 A  
HETATM   38  C   UNL     1      -8.316   7.976  65.425  1.00  0.00    -0.161 A  
ENDBRANCH   2  26
TORSDOF 9
ENDMDL
MODEL      351
REMARK 921   NORMALIZED FREE ENERGY PREDICTED BY IDOCK:   -3.50 KCAL/MOL
REMARK 922        TOTAL FREE ENERGY PREDICTED BY IDOCK:   -7.10 KCAL/MOL
REMARK 923 INTER-LIGAND FREE ENERGY PREDICTED BY IDOCK:   -6.10 KCAL/MOL
REMARK 924 INTRA-LIGAND FREE ENERGY PREDICTED BY IDOCK:   -1.01 KCAL/MOL
REMARK 927      BINDING AFFINITY PREDICTED BY RF-SCORE:    0.00 PKD
ROOT
HETATM    1  C   UNL     1      -7.830  14.804  68.084  1.00  0.00    -0.125 C  
HETATM    2  N   UNL     1      -8.412  13.395  68.111  1.00  0.00    -0.166 N  
HETATM    3  C   UNL     1      -7.531  12.507  68.986  1.00  0.00     0.088 C  
ENDROOT
BRANCH   2   4
HETATM    4  C   UNL     1      -9.832  13.456  68.634  1.00  0.00    -0.112 C  
BRANCH   4   5
HETATM    5  C   UNL     1     -10.296  14.805  69.181  1.00  0.00    -0.237 C  
BRANCH   5   6
HETATM    6  C   UNL     1     -11.457  15.325  68.323  1.00  0.00    -0.359 C  
BRANCH   6   7
HETATM    7  C   UNL     1     -11.182  16.680  67.646  1.00  0.00    -0.007 C  
BRANCH   7   8
HETATM    8  C   UNL     1     -10.071  17.502  68.319  1.00  0.00    -0.346 C  
BRANCH   8   9
HETATM    9  C   UNL     1      -9.441  18.419  67.271  1.00  0.00    -0.278 C  
BRANCH   9  10
HETATM   10  N   UNL     1      -9.243  19.864  67.700  1.00  0.00    -0.336 N  
HETATM   11  C   UNL     1      -9.904  20.827  66.720  1.00  0.00    -0.049 C  
HETATM   12  C   UNL     1      -9.858  20.143  69.063  1.00  0.00    -0.047 C  
BRANCH  10  13
HETATM   13  C   UNL     1      -7.659  20.123  67.751  1.00  0.00    -0.289 C  
HETATM   14  C   UNL     1      -6.888  19.544  66.549  1.00  0.00    -0.205 A  
HETATM   15  C   UNL     1      -5.952  18.582  66.990  1.00  0.00    -0.171 A  
HETATM   16  C   UNL     1      -5.962  18.530  68.432  1.00  0.00    -0.189 A  
HETATM   17  C   UNL     1      -5.169  17.870  66.092  1.00  0.00    -0.224 A  
HETATM   18  C   UNL     1      -6.930  19.435  68.928  1.00  0.00    -0.384 A  
HETATM   19  C   UNL     1      -5.316  18.128  64.730  1.00  0.00     0.003 A  
HETATM   20  C   UNL     1      -6.215  19.107  64.287  1.00  0.00     0.065 A  
HETATM   21  C   UNL     1      -7.060  19.614  70.301  1.00  0.00     0.263 A  
HETATM   22  C   UNL     1      -6.262  18.850  71.164  1.00  0.00     0.683 A  
HETATM   23  C   UNL     1      -6.989  19.836  65.194  1.00  0.00    -0.157 A  
HETATM   24  C   UNL     1      -5.315  17.952  70.662  1.00  0.00    -0.266 A  
HETATM   25  C   UNL     1      -5.152  17.792  69.286  1.00  0.00    -0.173 A  
ENDBRANCH  10  13
ENDBRANCH   9  10
ENDBRANCH   8   9
ENDBRANCH   7   8
ENDBRANCH   6   7
ENDBRANCH   5   6
ENDBRANCH   4   5
ENDBRANCH   2   4
BRANCH   2  26
HETATM   26  C   UNL     1      -8.476  12.784  66.620  1.00  0.00     0.056 C  
HETATM   27  C   UNL     1     -10.210   9.527  66.171  1.00  0.00    -0.272 A  
HETATM   28  C   UNL     1      -9.742  13.166  65.824  1.00  0.00    -0.151 A  
HETATM   29  C   UNL     1      -9.330   8.605  66.727  1.00  0.00    -0.229 A  
HETATM   30  C   UNL     1     -10.519  12.007  65.587  1.00  0.00    -0.293 A  
HETATM   31  C   UNL     1      -9.822  10.856  66.112  1.00  0.00    -0.268 A  
HETATM   32  C   UNL     1     -11.711  12.070  64.880  1.00  0.00    -0.321 A  
HETATM   33  C   UNL     1      -8.050   8.989  67.152  1.00  0.00    -0.106 A  
HETATM   34  C   UNL     1     -10.153  14.388  65.296  1.00  0.00    -0.387 A  
HETATM   35  C   UNL     1      -8.565  11.262  66.611  1.00  0.00    -0.167 A  
HETATM   36  C   UNL     1     -12.143  13.307  64.401  1.00  0.00    -0.471 A  
HETATM   37  C   UNL     1      -7.639  10.325  67.057  1.00  0.00    -0.099 A  
HETATM   38  C   UNL     1     -11.372  14.457  64.608  1.00  0.00    -0.373 A  
ENDBRANCH   2  26
TORSDOF 9
ENDMDL
MODEL      352
REMARK 921   NORMALIZED FREE ENERGY PREDICTED BY IDOCK:   -3.48 KCAL/MOL
REMARK 922        TOTAL FREE ENERGY PREDICTED BY IDOCK:   -7.07 KCAL/MOL
REMARK 923 INTER-LIGAND FREE ENERGY PREDICTED BY IDOCK:   -7.13 KCAL/MOL
REMARK 924 INTRA-LIGAND FREE ENERGY PREDICTED BY IDOCK:    0.06 KCAL/MOL
REMARK 927      BINDING AFFINITY PREDICTED BY RF-SCORE:    0.00 PKD
ROOT
HETATM    1  C   UNL     1     -12.076  13.023  69.489  1.00  0.00    -0.230 C  
HETATM    2  N   UNL     1     -11.119  14.179  69.216  1.00  0.00    -0.257 N  
HETATM    3  C   UNL     1     -10.917  14.975  70.502  1.00  0.00    -0.175 C  
ENDROOT
BRANCH   2   4
HETATM    4  C   UNL     1      -9.809  13.624  68.694  1.00  0.00    -0.138 C  
BRANCH   4   5
HETATM    5  C   UNL     1      -9.794  12.136  68.345  1.00  0.00    -0.200 C  
BRANCH   5   6
HETATM    6  C   UNL     1      -8.461  11.526  68.798  1.00  0.00    -0.057 C  
BRANCH   6   7
HETATM    7  C   UNL     1      -7.929  10.418  67.870  1.00  0.00    -0.102 C  
BRANCH   7   8
HETATM    8  C   UNL     1      -7.855   9.032  68.529  1.00  0.00    -0.102 C  
BRANCH   8   9
HETATM    9  C   UNL     1      -9.154   8.282  68.231  1.00  0.00    -0.135 C  
BRANCH   9  10
HETATM   10  N   UNL     1      -9.580   7.269  69.282  1.00  0.00    -0.156 N  
HETATM   11  C   UNL     1      -8.701   7.358  70.525  1.00  0.00    -0.147 C  
HETATM   12  C   UNL     1     -11.011   7.497  69.746  1.00  0.00    -0.184 C  
BRANCH  10  13
HETATM   13  C   UNL     1      -9.447   5.816  68.611  1.00  0.00    -0.123 C  
HETATM   14  C   UNL     1      -9.315   4.664  69.625  1.00  0.00    -0.212 A  
HETATM   15  C   UNL     1      -8.082   3.997  69.445  1.00  0.00    -0.061 A  
HETATM   16  C   UNL     1      -7.398   4.557  68.304  1.00  0.00    -0.065 A  
HETATM   17  C   UNL     1      -7.697   2.953  70.274  1.00  0.00    -0.043 A  
HETATM   18  C   UNL     1      -8.169   5.611  67.764  1.00  0.00    -0.101 A  
HETATM   19  C   UNL     1      -8.558   2.563  71.298  1.00  0.00    -0.102 A  
HETATM   20  C   UNL     1      -9.798   3.194  71.461  1.00  0.00    -0.200 A  
HETATM   21  C   UNL     1      -7.741   6.249  66.604  1.00  0.00    -0.100 A  
HETATM   22  C   UNL     1      -6.523   5.863  66.028  1.00  0.00    -0.043 A  
HETATM   23  C   UNL     1     -10.193   4.232  70.612  1.00  0.00    -0.015 A  
HETATM   24  C   UNL     1      -5.764   4.825  66.577  1.00  0.00    -0.021 A  
HETATM   25  C   UNL     1      -6.203   4.156  67.719  1.00  0.00    -0.036 A  
ENDBRANCH  10  13
ENDBRANCH   9  10
ENDBRANCH   8   9
ENDBRANCH   7   8
ENDBRANCH   6   7
ENDBRANCH   5   6
ENDBRANCH   4   5
ENDBRANCH   2   4
BRANCH   2  26
HETATM   26  C   UNL     1     -11.718  15.147  68.074  1.00  0.00    -0.285 C  
HETATM   27  C   UNL     1      -9.303  17.151  66.081  1.00  0.00    -0.222 A  
HETATM   28  C   UNL     1     -11.803  14.508  66.671  1.00  0.00    -0.383 A  
HETATM   29  C   UNL     1      -8.876  18.132  66.969  1.00  0.00    -0.265 A  
HETATM   30  C   UNL     1     -10.912  15.172  65.794  1.00  0.00    -0.350 A  
HETATM   31  C   UNL     1     -10.283  16.264  66.499  1.00  0.00    -0.307 A  
HETATM   32  C   UNL     1     -10.799  14.799  64.462  1.00  0.00    -0.181 A  
HETATM   33  C   UNL     1      -9.468  18.274  68.233  1.00  0.00    -0.320 A  
HETATM   34  C   UNL     1     -12.620  13.492  66.180  1.00  0.00    -0.355 A  
HETATM   35  C   UNL     1     -10.828  16.353  67.799  1.00  0.00    -0.306 A  
HETATM   36  C   UNL     1     -11.582  13.745  63.992  1.00  0.00    -0.307 A  
HETATM   37  C   UNL     1     -10.487  17.404  68.644  1.00  0.00    -0.355 A  
HETATM   38  C   UNL     1     -12.484  13.096  64.843  1.00  0.00    -0.490 A  
ENDBRANCH   2  26
TORSDOF 9
ENDMDL
MODEL      353
REMARK 921   NORMALIZED FREE ENERGY PREDICTED BY IDOCK:   -3.48 KCAL/MOL
REMARK 922        TOTAL FREE ENERGY PREDICTED BY IDOCK:   -7.07 KCAL/MOL
REMARK 923 INTER-LIGAND FREE ENERGY PREDICTED BY IDOCK:   -6.45 KCAL/MOL
REMARK 924 INTRA-LIGAND FREE ENERGY PREDICTED BY IDOCK:   -0.62 KCAL/MOL
REMARK 927      BINDING AFFINITY PREDICTED BY RF-SCORE:    0.00 PKD
ROOT
HETATM    1  C   UNL     1     -11.344  13.755  69.217  1.00  0.00    -0.273 C  
HETATM    2  N   UNL     1     -10.501  13.109  68.123  1.00  0.00    -0.241 N  
HETATM    3  C   UNL     1      -9.902  14.203  67.243  1.00  0.00    -0.238 C  
ENDROOT
BRANCH   2   4
HETATM    4  C   UNL     1      -9.423  12.261  68.765  1.00  0.00     0.086 C  
BRANCH   4   5
HETATM    5  C   UNL     1      -8.059  12.262  68.076  1.00  0.00    -0.156 C  
BRANCH   5   6
HETATM    6  C   UNL     1      -7.175  11.176  68.706  1.00  0.00    -0.098 C  
BRANCH   6   7
HETATM    7  C   UNL     1      -7.687  10.657  70.061  1.00  0.00     0.234 C  
BRANCH   7   8
HETATM    8  C   UNL     1      -7.343   9.185  70.338  1.00  0.00    -0.100 C  
BRANCH   8   9
HETATM    9  C   UNL     1      -7.685   8.363  69.095  1.00  0.00    -0.092 C  
BRANCH   9  10
HETATM   10  N   UNL     1      -6.514   7.646  68.442  1.00  0.00    -0.051 N  
HETATM   11  C   UNL     1      -6.311   8.113  67.005  1.00  0.00    -0.056 C  
HETATM   12  C   UNL     1      -5.206   7.908  69.172  1.00  0.00    -0.022 C  
BRANCH  10  13
HETATM   13  C   UNL     1      -6.853   6.076  68.472  1.00  0.00    -0.070 C  
HETATM   14  C   UNL     1      -7.672   5.585  67.263  1.00  0.00    -0.100 A  
HETATM   15  C   UNL     1      -8.911   5.062  67.695  1.00  0.00    -0.115 A  
HETATM   16  C   UNL     1      -8.958   5.073  69.138  1.00  0.00    -0.130 A  
HETATM   17  C   UNL     1      -9.858   4.605  66.790  1.00  0.00    -0.237 A  
HETATM   18  C   UNL     1      -7.764   5.635  69.642  1.00  0.00    -0.083 A  
HETATM   19  C   UNL     1      -9.562   4.664  65.429  1.00  0.00    -0.177 A  
HETATM   20  C   UNL     1      -8.321   5.147  64.994  1.00  0.00    -0.144 A  
HETATM   21  C   UNL     1      -7.552   5.675  71.017  1.00  0.00    -0.095 A  
HETATM   22  C   UNL     1      -8.556   5.201  71.872  1.00  0.00    -0.131 A  
HETATM   23  C   UNL     1      -7.361   5.589  65.908  1.00  0.00    -0.077 A  
HETATM   24  C   UNL     1      -9.739   4.655  71.360  1.00  0.00    -0.246 A  
HETATM   25  C   UNL     1      -9.944   4.579  69.983  1.00  0.00    -0.280 A  
ENDBRANCH  10  13
ENDBRANCH   9  10
ENDBRANCH   8   9
ENDBRANCH   7   8
ENDBRANCH   6   7
ENDBRANCH   5   6
ENDBRANCH   4   5
ENDBRANCH   2   4
BRANCH   2  26
HETATM   26  C   UNL     1     -11.407  12.129  67.218  1.00  0.00    -0.334 C  
HETATM   27  C   UNL     1     -11.256  12.566  63.530  1.00  0.00    -0.525 A  
HETATM   28  C   UNL     1     -10.689  10.849  66.741  1.00  0.00    -0.309 A  
HETATM   29  C   UNL     1     -11.956  13.747  63.308  1.00  0.00     0.098 A  
HETATM   30  C   UNL     1     -10.546  10.883  65.333  1.00  0.00    -0.243 A  
HETATM   31  C   UNL     1     -11.187  12.074  64.824  1.00  0.00    -0.373 A  
HETATM   32  C   UNL     1      -9.939   9.844  64.644  1.00  0.00    -0.072 A  
HETATM   33  C   UNL     1     -12.642  14.390  64.350  1.00  0.00    -0.196 A  
HETATM   34  C   UNL     1     -10.256   9.729  67.448  1.00  0.00    -0.284 A  
HETATM   35  C   UNL     1     -11.809  12.759  65.890  1.00  0.00    -0.490 A  
HETATM   36  C   UNL     1      -9.460   8.750  65.366  1.00  0.00    -0.007 A  
HETATM   37  C   UNL     1     -12.608  13.873  65.651  1.00  0.00    -0.553 A  
HETATM   38  C   UNL     1      -9.616   8.693  66.755  1.00  0.00    -0.269 A  
ENDBRANCH   2  26
TORSDOF 9
ENDMDL
MODEL      354
REMARK 921   NORMALIZED FREE ENERGY PREDICTED BY IDOCK:   -3.47 KCAL/MOL
REMARK 922        TOTAL FREE ENERGY PREDICTED BY IDOCK:   -7.06 KCAL/MOL
REMARK 923 INTER-LIGAND FREE ENERGY PREDICTED BY IDOCK:   -7.48 KCAL/MOL
REMARK 924 INTRA-LIGAND FREE ENERGY PREDICTED BY IDOCK:    0.42 KCAL/MOL
REMARK 927      BINDING AFFINITY PREDICTED BY RF-SCORE:    0.00 PKD
ROOT
HETATM    1  C   UNL     1     -10.277  11.209  68.803  1.00  0.00    -0.206 C  
HETATM    2  N   UNL     1      -9.541  10.980  67.487  1.00  0.00    -0.163 N  
HETATM    3  C   UNL     1      -8.196  10.318  67.776  1.00  0.00    -0.110 C  
ENDROOT
BRANCH   2   4
HETATM    4  C   UNL     1     -10.400  10.121  66.583  1.00  0.00    -0.208 C  
BRANCH   4   5
HETATM    5  C   UNL     1      -9.901   8.700  66.322  1.00  0.00    -0.320 C  
BRANCH   5   6
HETATM    6  C   UNL     1     -10.734   7.713  67.150  1.00  0.00    -0.361 C  
BRANCH   6   7
HETATM    7  C   UNL     1     -10.497   6.234  66.790  1.00  0.00    -0.311 C  
BRANCH   7   8
HETATM    8  C   UNL     1     -10.244   5.328  68.005  1.00  0.00    -0.204 C  
BRANCH   8   9
HETATM    9  C   UNL     1      -8.978   5.807  68.715  1.00  0.00    -0.116 C  
BRANCH   9  10
HETATM   10  N   UNL     1      -9.048   5.832  70.233  1.00  0.00    -0.143 N  
HETATM   11  C   UNL     1      -9.628   7.149  70.739  1.00  0.00    -0.168 C  
HETATM   12  C   UNL     1      -9.939   4.727  70.780  1.00  0.00    -0.221 C  
BRANCH  10  13
HETATM   13  C   UNL     1      -7.547   5.643  70.773  1.00  0.00    -0.091 C  
HETATM   14  C   UNL     1      -7.437   4.755  72.027  1.00  0.00    -0.082 A  
HETATM   15  C   UNL     1      -6.893   5.496  73.100  1.00  0.00    -0.079 A  
HETATM   16  C   UNL     1      -6.531   6.814  72.637  1.00  0.00    -0.058 A  
HETATM   17  C   UNL     1      -6.743   4.938  74.362  1.00  0.00    -0.071 A  
HETATM   18  C   UNL     1      -6.872   6.942  71.271  1.00  0.00    -0.061 A  
HETATM   19  C   UNL     1      -7.137   3.615  74.556  1.00  0.00    -0.052 A  
HETATM   20  C   UNL     1      -7.642   2.861  73.489  1.00  0.00    -0.051 A  
HETATM   21  C   UNL     1      -6.540   8.107  70.588  1.00  0.00    -0.037 A  
HETATM   22  C   UNL     1      -5.921   9.151  71.288  1.00  0.00    -0.067 A  
HETATM   23  C   UNL     1      -7.774   3.419  72.214  1.00  0.00    -0.059 A  
HETATM   24  C   UNL     1      -5.597   9.017  72.642  1.00  0.00    -0.081 A  
HETATM   25  C   UNL     1      -5.894   7.838  73.326  1.00  0.00    -0.049 A  
ENDBRANCH  10  13
ENDBRANCH   9  10
ENDBRANCH   8   9
ENDBRANCH   7   8
ENDBRANCH   6   7
ENDBRANCH   5   6
ENDBRANCH   4   5
ENDBRANCH   2   4
BRANCH   2  26
HETATM   26  C   UNL     1      -9.298  12.382  66.728  1.00  0.00    -0.220 C  
HETATM   27  C   UNL     1     -12.094  13.738  64.689  1.00  0.00    -0.452 A  
HETATM   28  C   UNL     1      -9.742  13.628  67.523  1.00  0.00    -0.227 A  
HETATM   29  C   UNL     1     -12.122  12.909  63.573  1.00  0.00    -0.633 A  
HETATM   30  C   UNL     1     -10.827  14.250  66.861  1.00  0.00    -0.298 A  
HETATM   31  C   UNL     1     -11.098  13.541  65.632  1.00  0.00    -0.299 A  
HETATM   32  C   UNL     1     -11.414  15.403  67.363  1.00  0.00    -0.197 A  
HETATM   33  C   UNL     1     -11.126  11.944  63.362  1.00  0.00    -0.463 A  
HETATM   34  C   UNL     1      -9.216  14.209  68.676  1.00  0.00    -0.146 A  
HETATM   35  C   UNL     1     -10.139  12.519  65.464  1.00  0.00    -0.282 A  
HETATM   36  C   UNL     1     -10.916  15.948  68.547  1.00  0.00    -0.324 A  
HETATM   37  C   UNL     1     -10.094  11.769  64.293  1.00  0.00    -0.326 A  
HETATM   38  C   UNL     1      -9.828  15.356  69.199  1.00  0.00    -0.247 A  
ENDBRANCH   2  26
TORSDOF 9
ENDMDL
MODEL      355
REMARK 921   NORMALIZED FREE ENERGY PREDICTED BY IDOCK:   -3.47 KCAL/MOL
REMARK 922        TOTAL FREE ENERGY PREDICTED BY IDOCK:   -7.06 KCAL/MOL
REMARK 923 INTER-LIGAND FREE ENERGY PREDICTED BY IDOCK:   -7.42 KCAL/MOL
REMARK 924 INTRA-LIGAND FREE ENERGY PREDICTED BY IDOCK:    0.36 KCAL/MOL
REMARK 927      BINDING AFFINITY PREDICTED BY RF-SCORE:    0.00 PKD
ROOT
HETATM    1  C   UNL     1      -7.505   6.029  67.353  1.00  0.00    -0.081 C  
HETATM    2  N   UNL     1      -8.198   6.998  68.305  1.00  0.00    -0.123 N  
HETATM    3  C   UNL     1      -7.402   7.075  69.605  1.00  0.00    -0.086 C  
ENDROOT
BRANCH   2   4
HETATM    4  C   UNL     1      -8.306   8.354  67.639  1.00  0.00    -0.130 C  
BRANCH   4   5
HETATM    5  C   UNL     1      -7.474   9.480  68.253  1.00  0.00    -0.078 C  
BRANCH   5   6
HETATM    6  C   UNL     1      -8.262  10.794  68.166  1.00  0.00    -0.119 C  
BRANCH   6   7
HETATM    7  C   UNL     1      -7.637  11.955  68.962  1.00  0.00     0.029 C  
BRANCH   7   8
HETATM    8  C   UNL     1      -8.021  13.348  68.441  1.00  0.00    -0.139 C  
BRANCH   8   9
HETATM    9  C   UNL     1      -7.635  14.386  69.496  1.00  0.00     0.083 C  
BRANCH   9  10
HETATM   10  N   UNL     1      -6.990  15.654  68.961  1.00  0.00    -0.134 N  
HETATM   11  C   UNL     1      -5.821  16.091  69.837  1.00  0.00    -0.170 C  
HETATM   12  C   UNL     1      -6.433  15.463  67.559  1.00  0.00    -0.144 C  
BRANCH  10  13
HETATM   13  C   UNL     1      -8.128  16.787  68.949  1.00  0.00    -0.230 C  
HETATM   14  C   UNL     1      -9.267  16.525  67.944  1.00  0.00    -0.211 A  
HETATM   15  C   UNL     1      -9.322  17.566  66.990  1.00  0.00    -0.262 A  
HETATM   16  C   UNL     1      -8.354  18.580  67.332  1.00  0.00    -0.264 A  
HETATM   17  C   UNL     1     -10.229  17.537  65.940  1.00  0.00    -0.251 A  
HETATM   18  C   UNL     1      -7.645  18.182  68.488  1.00  0.00    -0.298 A  
HETATM   19  C   UNL     1     -11.100  16.453  65.842  1.00  0.00     0.140 A  
HETATM   20  C   UNL     1     -11.077  15.435  66.805  1.00  0.00    -0.244 A  
HETATM   21  C   UNL     1      -6.710  19.046  69.050  1.00  0.00    -0.331 A  
HETATM   22  C   UNL     1      -6.457  20.274  68.422  1.00  0.00    -0.344 A  
HETATM   23  C   UNL     1     -10.176  15.476  67.873  1.00  0.00    -0.238 A  
HETATM   24  C   UNL     1      -7.159  20.652  67.273  1.00  0.00    -0.385 A  
HETATM   25  C   UNL     1      -8.123  19.807  66.723  1.00  0.00    -0.333 A  
ENDBRANCH  10  13
ENDBRANCH   9  10
ENDBRANCH   8   9
ENDBRANCH   7   8
ENDBRANCH   6   7
ENDBRANCH   5   6
ENDBRANCH   4   5
ENDBRANCH   2   4
BRANCH   2  26
HETATM   26  C   UNL     1      -9.698   6.499  68.622  1.00  0.00    -0.127 C  
HETATM   27  C   UNL     1     -10.112   3.788  71.131  1.00  0.00    -0.026 A  
HETATM   28  C   UNL     1     -10.376   7.218  69.808  1.00  0.00    -0.227 A  
HETATM   29  C   UNL     1      -9.660   2.653  70.468  1.00  0.00    -0.149 A  
HETATM   30  C   UNL     1     -10.587   6.296  70.861  1.00  0.00    -0.293 A  
HETATM   31  C   UNL     1     -10.158   4.985  70.433  1.00  0.00    -0.330 A  
HETATM   32  C   UNL     1     -11.194   6.682  72.048  1.00  0.00    -0.301 A  
HETATM   33  C   UNL     1      -9.328   2.692  69.106  1.00  0.00    -0.198 A  
HETATM   34  C   UNL     1     -10.829   8.529  69.942  1.00  0.00    -0.205 A  
HETATM   35  C   UNL     1      -9.750   5.047  69.083  1.00  0.00    -0.243 A  
HETATM   36  C   UNL     1     -11.595   8.011  72.194  1.00  0.00    -0.399 A  
HETATM   37  C   UNL     1      -9.411   3.892  68.386  1.00  0.00    -0.210 A  
HETATM   38  C   UNL     1     -11.413   8.926  71.152  1.00  0.00    -0.364 A  
ENDBRANCH   2  26
TORSDOF 9
ENDMDL
MODEL      356
REMARK 921   NORMALIZED FREE ENERGY PREDICTED BY IDOCK:   -3.43 KCAL/MOL
REMARK 922        TOTAL FREE ENERGY PREDICTED BY IDOCK:   -7.00 KCAL/MOL
REMARK 923 INTER-LIGAND FREE ENERGY PREDICTED BY IDOCK:   -7.87 KCAL/MOL
REMARK 924 INTRA-LIGAND FREE ENERGY PREDICTED BY IDOCK:    0.87 KCAL/MOL
REMARK 927      BINDING AFFINITY PREDICTED BY RF-SCORE:    0.00 PKD
ROOT
HETATM    1  C   UNL     1     -11.075   8.596  71.918  1.00  0.00    -0.346 C  
HETATM    2  N   UNL     1     -10.853   7.610  70.775  1.00  0.00    -0.234 N  
HETATM    3  C   UNL     1     -12.123   6.789  70.571  1.00  0.00    -0.274 C  
ENDROOT
BRANCH   2   4
HETATM    4  C   UNL     1     -10.481   8.378  69.524  1.00  0.00    -0.224 C  
BRANCH   4   5
HETATM    5  C   UNL     1      -9.696   9.674  69.732  1.00  0.00    -0.247 C  
BRANCH   5   6
HETATM    6  C   UNL     1      -9.457  10.342  68.371  1.00  0.00    -0.149 C  
BRANCH   6   7
HETATM    7  C   UNL     1      -9.422  11.880  68.424  1.00  0.00    -0.189 C  
BRANCH   7   8
HETATM    8  C   UNL     1     -10.662  12.555  67.818  1.00  0.00    -0.242 C  
BRANCH   8   9
HETATM    9  C   UNL     1     -10.389  14.055  67.696  1.00  0.00    -0.242 C  
BRANCH   9  10
HETATM   10  N   UNL     1     -10.307  14.591  66.276  1.00  0.00    -0.285 N  
HETATM   11  C   UNL     1     -10.004  13.476  65.280  1.00  0.00    -0.183 C  
HETATM   12  C   UNL     1     -11.615  15.227  65.830  1.00  0.00    -0.015 C  
BRANCH  10  13
HETATM   13  C   UNL     1      -9.132  15.685  66.258  1.00  0.00    -0.341 C  
HETATM   14  C   UNL     1      -8.001  15.411  67.269  1.00  0.00    -0.231 A  
HETATM   15  C   UNL     1      -7.909  16.475  68.195  1.00  0.00    -0.168 A  
HETATM   16  C   UNL     1      -8.844  17.512  67.827  1.00  0.00    -0.241 A  
HETATM   17  C   UNL     1      -7.003  16.443  69.245  1.00  0.00    -0.223 A  
HETATM   18  C   UNL     1      -9.567  17.107  66.682  1.00  0.00    -0.279 A  
HETATM   19  C   UNL     1      -6.169  15.333  69.371  1.00  0.00    -0.122 A  
HETATM   20  C   UNL     1      -6.228  14.292  68.436  1.00  0.00    -0.103 A  
HETATM   21  C   UNL     1     -10.473  17.987  66.097  1.00  0.00    -0.336 A  
HETATM   22  C   UNL     1     -10.684  19.238  66.693  1.00  0.00    -0.504 A  
HETATM   23  C   UNL     1      -7.127  14.335  67.367  1.00  0.00    -0.109 A  
HETATM   24  C   UNL     1      -9.968  19.623  67.832  1.00  0.00    -0.527 A  
HETATM   25  C   UNL     1      -9.033  18.761  68.403  1.00  0.00    -0.367 A  
ENDBRANCH  10  13
ENDBRANCH   9  10
ENDBRANCH   8   9
ENDBRANCH   7   8
ENDBRANCH   6   7
ENDBRANCH   5   6
ENDBRANCH   4   5
ENDBRANCH   2   4
BRANCH   2  26
HETATM   26  C   UNL     1      -9.624   6.623  71.115  1.00  0.00    -0.170 C  
HETATM   27  C   UNL     1      -7.280   7.662  73.806  1.00  0.00    -0.126 A  
HETATM   28  C   UNL     1      -9.909   5.608  72.243  1.00  0.00    -0.185 A  
HETATM   29  C   UNL     1      -6.551   8.696  73.229  1.00  0.00    -0.033 A  
HETATM   30  C   UNL     1      -9.084   5.894  73.357  1.00  0.00    -0.132 A  
HETATM   31  C   UNL     1      -8.210   6.995  73.025  1.00  0.00    -0.120 A  
HETATM   32  C   UNL     1      -9.134   5.122  74.508  1.00  0.00    -0.114 A  
HETATM   33  C   UNL     1      -6.694   9.013  71.869  1.00  0.00     0.028 A  
HETATM   34  C   UNL     1     -10.754   4.501  72.280  1.00  0.00    -0.112 A  
HETATM   35  C   UNL     1      -8.415   7.361  71.677  1.00  0.00    -0.120 A  
HETATM   36  C   UNL     1     -10.023   4.047  74.558  1.00  0.00    -0.206 A  
HETATM   37  C   UNL     1      -7.605   8.313  71.067  1.00  0.00    -0.081 A  
HETATM   38  C   UNL     1     -10.827   3.739  73.455  1.00  0.00    -0.315 A  
ENDBRANCH   2  26
TORSDOF 9
ENDMDL
MODEL      357
REMARK 921   NORMALIZED FREE ENERGY PREDICTED BY IDOCK:   -3.43 KCAL/MOL
REMARK 922        TOTAL FREE ENERGY PREDICTED BY IDOCK:   -7.00 KCAL/MOL
REMARK 923 INTER-LIGAND FREE ENERGY PREDICTED BY IDOCK:   -7.05 KCAL/MOL
REMARK 924 INTRA-LIGAND FREE ENERGY PREDICTED BY IDOCK:    0.06 KCAL/MOL
REMARK 927      BINDING AFFINITY PREDICTED BY RF-SCORE:    0.00 PKD
ROOT
HETATM    1  C   UNL     1     -10.709  10.508  67.207  1.00  0.00    -0.277 C  
HETATM    2  N   UNL     1     -10.048  11.783  67.722  1.00  0.00    -0.185 N  
HETATM    3  C   UNL     1     -11.089  12.622  68.458  1.00  0.00    -0.266 C  
ENDROOT
BRANCH   2   4
HETATM    4  C   UNL     1      -8.893  11.410  68.628  1.00  0.00    -0.125 C  
BRANCH   4   5
HETATM    5  C   UNL     1      -8.625   9.916  68.806  1.00  0.00    -0.130 C  
BRANCH   5   6
HETATM    6  C   UNL     1      -7.253   9.574  68.210  1.00  0.00    -0.076 C  
BRANCH   6   7
HETATM    7  C   UNL     1      -6.580   8.343  68.844  1.00  0.00    -0.053 C  
BRANCH   7   8
HETATM    8  C   UNL     1      -6.903   7.019  68.135  1.00  0.00    -0.074 C  
BRANCH   8   9
HETATM    9  C   UNL     1      -8.332   6.610  68.495  1.00  0.00    -0.122 C  
BRANCH   9  10
HETATM   10  N   UNL     1      -8.557   5.118  68.687  1.00  0.00    -0.087 N  
HETATM   11  C   UNL     1      -9.798   4.645  67.938  1.00  0.00    -0.119 C  
HETATM   12  C   UNL     1      -7.392   4.294  68.160  1.00  0.00    -0.064 C  
BRANCH  10  13
HETATM   13  C   UNL     1      -8.733   4.872  70.264  1.00  0.00    -0.098 C  
HETATM   14  C   UNL     1      -8.482   6.123  71.129  1.00  0.00    -0.125 A  
HETATM   15  C   UNL     1      -7.400   5.896  72.009  1.00  0.00    -0.094 A  
HETATM   16  C   UNL     1      -6.951   4.531  71.873  1.00  0.00    -0.054 A  
HETATM   17  C   UNL     1      -6.937   6.891  72.857  1.00  0.00    -0.074 A  
HETATM   18  C   UNL     1      -7.718   3.881  70.880  1.00  0.00    -0.051 A  
HETATM   19  C   UNL     1      -7.567   8.134  72.832  1.00  0.00    -0.181 A  
HETATM   20  C   UNL     1      -8.663   8.357  71.989  1.00  0.00    -0.267 A  
HETATM   21  C   UNL     1      -7.514   2.527  70.633  1.00  0.00    -0.036 A  
HETATM   22  C   UNL     1      -6.512   1.851  71.344  1.00  0.00    -0.019 A  
HETATM   23  C   UNL     1      -9.141   7.346  71.149  1.00  0.00    -0.148 A  
HETATM   24  C   UNL     1      -5.753   2.508  72.318  1.00  0.00    -0.008 A  
HETATM   25  C   UNL     1      -5.975   3.856  72.596  1.00  0.00    -0.008 A  
ENDBRANCH  10  13
ENDBRANCH   9  10
ENDBRANCH   8   9
ENDBRANCH   7   8
ENDBRANCH   6   7
ENDBRANCH   5   6
ENDBRANCH   4   5
ENDBRANCH   2   4
BRANCH   2  26
HETATM   26  C   UNL     1      -9.440  12.636  66.496  1.00  0.00    -0.247 C  
HETATM   27  C   UNL     1     -11.844  14.206  64.137  1.00  0.00    -0.364 A  
HETATM   28  C   UNL     1      -9.279  14.144  66.781  1.00  0.00    -0.282 A  
HETATM   29  C   UNL     1     -12.339  13.132  63.405  1.00  0.00    -0.443 A  
HETATM   30  C   UNL     1     -10.158  14.879  65.951  1.00  0.00    -0.348 A  
HETATM   31  C   UNL     1     -10.851  13.965  65.073  1.00  0.00    -0.389 A  
HETATM   32  C   UNL     1     -10.208  16.265  65.999  1.00  0.00    -0.376 A  
HETATM   33  C   UNL     1     -11.801  11.845  63.552  1.00  0.00    -0.560 A  
HETATM   34  C   UNL     1      -8.409  14.824  67.631  1.00  0.00    -0.180 A  
HETATM   35  C   UNL     1     -10.360  12.658  65.281  1.00  0.00    -0.309 A  
HETATM   36  C   UNL     1      -9.371  16.935  66.892  1.00  0.00    -0.254 A  
HETATM   37  C   UNL     1     -10.769  11.605  64.469  1.00  0.00    -0.378 A  
HETATM   38  C   UNL     1      -8.480  16.222  67.702  1.00  0.00    -0.178 A  
ENDBRANCH   2  26
TORSDOF 9
ENDMDL
MODEL      358
REMARK 921   NORMALIZED FREE ENERGY PREDICTED BY IDOCK:   -3.42 KCAL/MOL
REMARK 922        TOTAL FREE ENERGY PREDICTED BY IDOCK:   -6.99 KCAL/MOL
REMARK 923 INTER-LIGAND FREE ENERGY PREDICTED BY IDOCK:   -7.36 KCAL/MOL
REMARK 924 INTRA-LIGAND FREE ENERGY PREDICTED BY IDOCK:    0.37 KCAL/MOL
REMARK 927      BINDING AFFINITY PREDICTED BY RF-SCORE:    0.00 PKD
ROOT
HETATM    1  C   UNL     1      -9.725   4.274  68.137  1.00  0.00    -0.102 C  
HETATM    2  N   UNL     1      -9.578   5.464  67.196  1.00  0.00    -0.129 N  
HETATM    3  C   UNL     1     -10.961   5.889  66.709  1.00  0.00    -0.197 C  
ENDROOT
BRANCH   2   4
HETATM    4  C   UNL     1      -8.876   6.590  67.927  1.00  0.00    -0.114 C  
BRANCH   4   5
HETATM    5  C   UNL     1      -9.761   7.735  68.419  1.00  0.00    -0.167 C  
BRANCH   5   6
HETATM    6  C   UNL     1      -9.298   8.165  69.817  1.00  0.00    -0.159 C  
BRANCH   6   7
HETATM    7  C   UNL     1      -9.866   9.520  70.278  1.00  0.00    -0.313 C  
BRANCH   7   8
HETATM    8  C   UNL     1     -10.068  10.533  69.141  1.00  0.00    -0.240 C  
BRANCH   8   9
HETATM    9  C   UNL     1      -8.699  11.051  68.701  1.00  0.00    -0.161 C  
BRANCH   9  10
HETATM   10  N   UNL     1      -8.701  11.938  67.466  1.00  0.00    -0.156 N  
HETATM   11  C   UNL     1      -7.331  12.567  67.235  1.00  0.00    -0.113 C  
HETATM   12  C   UNL     1      -9.037  11.157  66.204  1.00  0.00    -0.201 C  
BRANCH  10  13
HETATM   13  C   UNL     1      -9.801  13.080  67.714  1.00  0.00    -0.224 C  
HETATM   14  C   UNL     1     -10.770  13.288  66.534  1.00  0.00    -0.290 A  
HETATM   15  C   UNL     1     -10.654  14.605  66.036  1.00  0.00    -0.314 A  
HETATM   16  C   UNL     1      -9.734  15.349  66.862  1.00  0.00    -0.241 A  
HETATM   17  C   UNL     1     -11.383  15.028  64.933  1.00  0.00    -0.419 A  
HETATM   18  C   UNL     1      -9.225  14.506  67.876  1.00  0.00    -0.196 A  
HETATM   19  C   UNL     1     -12.247  14.123  64.319  1.00  0.00    -0.449 A  
HETATM   20  C   UNL     1     -12.395  12.826  64.828  1.00  0.00    -0.540 A  
HETATM   21  C   UNL     1      -8.377  15.034  68.844  1.00  0.00    -0.183 A  
HETATM   22  C   UNL     1      -8.005  16.382  68.758  1.00  0.00    -0.233 A  
HETATM   23  C   UNL     1     -11.676  12.408  65.952  1.00  0.00    -0.476 A  
HETATM   24  C   UNL     1      -8.508  17.204  67.744  1.00  0.00    -0.207 A  
HETATM   25  C   UNL     1      -9.387  16.693  66.790  1.00  0.00    -0.262 A  
ENDBRANCH  10  13
ENDBRANCH   9  10
ENDBRANCH   8   9
ENDBRANCH   7   8
ENDBRANCH   6   7
ENDBRANCH   5   6
ENDBRANCH   4   5
ENDBRANCH   2   4
BRANCH   2  26
HETATM   26  C   UNL     1      -8.661   5.070  65.930  1.00  0.00    -0.131 C  
HETATM   27  C   UNL     1      -6.218   2.304  66.374  1.00  0.00    -0.024 A  
HETATM   28  C   UNL     1      -9.239   3.944  65.045  1.00  0.00    -0.150 A  
HETATM   29  C   UNL     1      -5.226   2.864  67.171  1.00  0.00    -0.009 A  
HETATM   30  C   UNL     1      -8.405   2.803  65.127  1.00  0.00    -0.093 A  
HETATM   31  C   UNL     1      -7.263   3.113  65.956  1.00  0.00    -0.070 A  
HETATM   32  C   UNL     1      -8.692   1.647  64.417  1.00  0.00    -0.094 A  
HETATM   33  C   UNL     1      -5.236   4.231  67.489  1.00  0.00    -0.011 A  
HETATM   34  C   UNL     1     -10.344   3.927  64.197  1.00  0.00    -0.238 A  
HETATM   35  C   UNL     1      -7.321   4.470  66.338  1.00  0.00    -0.081 A  
HETATM   36  C   UNL     1      -9.832   1.620  63.611  1.00  0.00    -0.129 A  
HETATM   37  C   UNL     1      -6.271   5.060  67.035  1.00  0.00    -0.032 A  
HETATM   38  C   UNL     1     -10.651   2.749  63.503  1.00  0.00    -0.213 A  
ENDBRANCH   2  26
TORSDOF 9
ENDMDL
MODEL      359
REMARK 921   NORMALIZED FREE ENERGY PREDICTED BY IDOCK:   -3.42 KCAL/MOL
REMARK 922        TOTAL FREE ENERGY PREDICTED BY IDOCK:   -6.98 KCAL/MOL
REMARK 923 INTER-LIGAND FREE ENERGY PREDICTED BY IDOCK:   -7.12 KCAL/MOL
REMARK 924 INTRA-LIGAND FREE ENERGY PREDICTED BY IDOCK:    0.14 KCAL/MOL
REMARK 927      BINDING AFFINITY PREDICTED BY RF-SCORE:    0.00 PKD
ROOT
HETATM    1  C   UNL     1      -9.111  11.444  68.413  1.00  0.00    -0.179 C  
HETATM    2  N   UNL     1      -8.459  11.905  67.114  1.00  0.00    -0.167 N  
HETATM    3  C   UNL     1      -6.965  12.111  67.350  1.00  0.00    -0.146 C  
ENDROOT
BRANCH   2   4
HETATM    4  C   UNL     1      -8.714  10.869  66.038  1.00  0.00    -0.186 C  
BRANCH   4   5
HETATM    5  C   UNL     1      -7.478  10.206  65.429  1.00  0.00    -0.144 C  
BRANCH   5   6
HETATM    6  C   UNL     1      -7.444   8.728  65.840  1.00  0.00    -0.089 C  
BRANCH   6   7
HETATM    7  C   UNL     1      -6.389   7.892  65.093  1.00  0.00    -0.041 C  
BRANCH   7   8
HETATM    8  C   UNL     1      -6.474   6.384  65.373  1.00  0.00    -0.039 C  
BRANCH   8   9
HETATM    9  C   UNL     1      -7.015   6.181  66.788  1.00  0.00    -0.071 C  
BRANCH   9  10
HETATM   10  N   UNL     1      -7.559   4.793  67.088  1.00  0.00    -0.086 N  
HETATM   11  C   UNL     1      -8.081   4.119  65.823  1.00  0.00    -0.101 C  
HETATM   12  C   UNL     1      -6.491   3.873  67.659  1.00  0.00    -0.038 C  
BRANCH  10  13
HETATM   13  C   UNL     1      -8.749   4.977  68.150  1.00  0.00    -0.102 C  
HETATM   14  C   UNL     1      -8.473   6.047  69.225  1.00  0.00    -0.115 A  
HETATM   15  C   UNL     1      -8.473   5.456  70.508  1.00  0.00    -0.122 A  
HETATM   16  C   UNL     1      -8.828   4.062  70.393  1.00  0.00    -0.137 A  
HETATM   17  C   UNL     1      -8.192   6.199  71.646  1.00  0.00    -0.118 A  
HETATM   18  C   UNL     1      -9.025   3.738  69.032  1.00  0.00    -0.179 A  
HETATM   19  C   UNL     1      -7.912   7.557  71.502  1.00  0.00    -0.094 A  
HETATM   20  C   UNL     1      -7.947   8.158  70.237  1.00  0.00    -0.103 A  
HETATM   21  C   UNL     1      -9.454   2.460  68.687  1.00  0.00    -0.194 A  
HETATM   22  C   UNL     1      -9.632   1.507  69.699  1.00  0.00    -0.076 A  
HETATM   23  C   UNL     1      -8.249   7.412  69.095  1.00  0.00    -0.121 A  
HETATM   24  C   UNL     1      -9.424   1.838  71.042  1.00  0.00    -0.203 A  
HETATM   25  C   UNL     1      -9.028   3.126  71.401  1.00  0.00    -0.156 A  
ENDBRANCH  10  13
ENDBRANCH   9  10
ENDBRANCH   8   9
ENDBRANCH   7   8
ENDBRANCH   6   7
ENDBRANCH   5   6
ENDBRANCH   4   5
ENDBRANCH   2   4
BRANCH   2  26
HETATM   26  C   UNL     1      -9.119  13.288  66.613  1.00  0.00    -0.171 C  
HETATM   27  C   UNL     1     -12.597  13.157  65.307  1.00  0.00    -0.531 A  
HETATM   28  C   UNL     1      -9.929  14.040  67.691  1.00  0.00    -0.237 A  
HETATM   29  C   UNL     1     -12.461  12.541  64.067  1.00  0.00    -0.527 A  
HETATM   30  C   UNL     1     -11.297  14.058  67.328  1.00  0.00    -0.350 A  
HETATM   31  C   UNL     1     -11.450  13.427  66.037  1.00  0.00    -0.351 A  
HETATM   32  C   UNL     1     -12.247  14.683  68.123  1.00  0.00    -0.094 A  
HETATM   33  C   UNL     1     -11.195  12.263  63.530  1.00  0.00    -0.535 A  
HETATM   34  C   UNL     1      -9.516  14.703  68.844  1.00  0.00    -0.173 A  
HETATM   35  C   UNL     1     -10.178  13.078  65.536  1.00  0.00    -0.296 A  
HETATM   36  C   UNL     1     -11.832  15.298  69.305  1.00  0.00    -0.353 A  
HETATM   37  C   UNL     1     -10.033  12.571  64.249  1.00  0.00    -0.217 A  
HETATM   38  C   UNL     1     -10.479  15.308  69.663  1.00  0.00    -0.279 A  
ENDBRANCH   2  26
TORSDOF 9
ENDMDL
MODEL      360
REMARK 921   NORMALIZED FREE ENERGY PREDICTED BY IDOCK:   -3.41 KCAL/MOL
REMARK 922        TOTAL FREE ENERGY PREDICTED BY IDOCK:   -6.97 KCAL/MOL
REMARK 923 INTER-LIGAND FREE ENERGY PREDICTED BY IDOCK:   -6.96 KCAL/MOL
REMARK 924 INTRA-LIGAND FREE ENERGY PREDICTED BY IDOCK:   -0.01 KCAL/MOL
REMARK 927      BINDING AFFINITY PREDICTED BY RF-SCORE:    0.00 PKD
ROOT
HETATM    1  C   UNL     1      -8.805   7.685  70.208  1.00  0.00    -0.145 C  
HETATM    2  N   UNL     1      -8.904   6.999  68.849  1.00  0.00    -0.131 N  
HETATM    3  C   UNL     1     -10.367   6.671  68.561  1.00  0.00    -0.192 C  
ENDROOT
BRANCH   2   4
HETATM    4  C   UNL     1      -8.320   7.911  67.790  1.00  0.00    -0.129 C  
BRANCH   4   5
HETATM    5  C   UNL     1      -6.807   8.124  67.838  1.00  0.00    -0.073 C  
BRANCH   5   6
HETATM    6  C   UNL     1      -6.515   9.580  68.225  1.00  0.00    -0.053 C  
BRANCH   6   7
HETATM    7  C   UNL     1      -6.239  10.507  67.027  1.00  0.00    -0.066 C  
BRANCH   7   8
HETATM    8  C   UNL     1      -7.508  11.042  66.345  1.00  0.00    -0.131 C  
BRANCH   8   9
HETATM    9  C   UNL     1      -8.084  12.167  67.205  1.00  0.00    -0.175 C  
BRANCH   9  10
HETATM   10  N   UNL     1      -9.488  11.929  67.738  1.00  0.00    -0.178 N  
HETATM   11  C   UNL     1     -10.286  11.021  66.809  1.00  0.00    -0.238 C  
HETATM   12  C   UNL     1      -9.473  11.249  69.099  1.00  0.00     0.085 C  
BRANCH  10  13
HETATM   13  C   UNL     1     -10.195  13.366  67.851  1.00  0.00    -0.241 C  
HETATM   14  C   UNL     1     -11.012  13.765  66.607  1.00  0.00    -0.298 A  
HETATM   15  C   UNL     1     -10.482  14.944  66.035  1.00  0.00    -0.326 A  
HETATM   16  C   UNL     1      -9.408  15.436  66.864  1.00  0.00    -0.255 A  
HETATM   17  C   UNL     1     -11.007  15.480  64.868  1.00  0.00    -0.452 A  
HETATM   18  C   UNL     1      -9.216  14.559  67.956  1.00  0.00    -0.190 A  
HETATM   19  C   UNL     1     -12.084  14.835  64.264  1.00  0.00    -0.415 A  
HETATM   20  C   UNL     1     -12.640  13.687  64.845  1.00  0.00    -0.380 A  
HETATM   21  C   UNL     1      -8.282  14.879  68.935  1.00  0.00    -0.171 A  
HETATM   22  C   UNL     1      -7.512  16.041  68.786  1.00  0.00    -0.176 A  
HETATM   23  C   UNL     1     -12.122  13.159  66.031  1.00  0.00    -0.495 A  
HETATM   24  C   UNL     1      -7.704  16.896  67.696  1.00  0.00    -0.179 A  
HETATM   25  C   UNL     1      -8.664  16.602  66.727  1.00  0.00    -0.256 A  
ENDBRANCH  10  13
ENDBRANCH   9  10
ENDBRANCH   8   9
ENDBRANCH   7   8
ENDBRANCH   6   7
ENDBRANCH   5   6
ENDBRANCH   4   5
ENDBRANCH   2   4
BRANCH   2  26
HETATM   26  C   UNL     1      -8.037   5.640  68.842  1.00  0.00    -0.100 C  
HETATM   27  C   UNL     1      -9.604   2.595  70.289  1.00  0.00    -0.114 A  
HETATM   28  C   UNL     1      -8.265   4.740  67.608  1.00  0.00    -0.104 A  
HETATM   29  C   UNL     1      -9.587   2.835  71.659  1.00  0.00    -0.222 A  
HETATM   30  C   UNL     1      -8.879   3.530  68.012  1.00  0.00    -0.150 A  
HETATM   31  C   UNL     1      -9.014   3.527  69.450  1.00  0.00    -0.175 A  
HETATM   32  C   UNL     1      -9.186   2.535  67.095  1.00  0.00    -0.141 A  
HETATM   33  C   UNL     1      -8.927   3.952  72.192  1.00  0.00    -0.146 A  
HETATM   34  C   UNL     1      -7.917   4.920  66.271  1.00  0.00    -0.107 A  
HETATM   35  C   UNL     1      -8.417   4.693  69.975  1.00  0.00    -0.089 A  
HETATM   36  C   UNL     1      -8.883   2.747  65.749  1.00  0.00    -0.134 A  
HETATM   37  C   UNL     1      -8.295   4.876  71.349  1.00  0.00    -0.116 A  
HETATM   38  C   UNL     1      -8.255   3.929  65.340  1.00  0.00    -0.101 A  
ENDBRANCH   2  26
TORSDOF 9
ENDMDL
MODEL      361
REMARK 921   NORMALIZED FREE ENERGY PREDICTED BY IDOCK:   -3.41 KCAL/MOL
REMARK 922        TOTAL FREE ENERGY PREDICTED BY IDOCK:   -6.96 KCAL/MOL
REMARK 923 INTER-LIGAND FREE ENERGY PREDICTED BY IDOCK:   -7.00 KCAL/MOL
REMARK 924 INTRA-LIGAND FREE ENERGY PREDICTED BY IDOCK:    0.04 KCAL/MOL
REMARK 927      BINDING AFFINITY PREDICTED BY RF-SCORE:    0.00 PKD
ROOT
HETATM    1  C   UNL     1      -8.461   4.473  72.717  1.00  0.00    -0.113 C  
HETATM    2  N   UNL     1      -8.678   5.600  71.713  1.00  0.00    -0.135 N  
HETATM    3  C   UNL     1      -8.970   6.893  72.469  1.00  0.00    -0.129 C  
ENDROOT
BRANCH   2   4
HETATM    4  C   UNL     1      -7.446   5.731  70.842  1.00  0.00    -0.090 C  
BRANCH   4   5
HETATM    5  C   UNL     1      -6.648   7.027  70.987  1.00  0.00    -0.048 C  
BRANCH   5   6
HETATM    6  C   UNL     1      -7.501   8.203  70.492  1.00  0.00    -0.063 C  
BRANCH   6   7
HETATM    7  C   UNL     1      -6.720   9.241  69.666  1.00  0.00    -0.047 C  
BRANCH   7   8
HETATM    8  C   UNL     1      -7.203  10.687  69.862  1.00  0.00    -0.109 C  
BRANCH   8   9
HETATM    9  C   UNL     1      -7.499  11.291  68.489  1.00  0.00    -0.115 C  
BRANCH   9  10
HETATM   10  N   UNL     1      -7.051  12.731  68.298  1.00  0.00    -0.094 N  
HETATM   11  C   UNL     1      -6.625  13.358  69.621  1.00  0.00    -0.008 C  
HETATM   12  C   UNL     1      -5.855  12.836  67.363  1.00  0.00    -0.092 C  
BRANCH  10  13
HETATM   13  C   UNL     1      -8.300  13.531  67.681  1.00  0.00    -0.179 C  
HETATM   14  C   UNL     1      -8.156  15.064  67.739  1.00  0.00    -0.160 A  
HETATM   15  C   UNL     1      -9.192  15.620  68.524  1.00  0.00    -0.197 A  
HETATM   16  C   UNL     1     -10.098  14.572  68.931  1.00  0.00    -0.224 A  
HETATM   17  C   UNL     1      -9.255  16.982  68.778  1.00  0.00    -0.252 A  
HETATM   18  C   UNL     1      -9.632  13.331  68.441  1.00  0.00    -0.185 A  
HETATM   19  C   UNL     1      -8.271  17.807  68.236  1.00  0.00    -0.285 A  
HETATM   20  C   UNL     1      -7.261  17.269  67.427  1.00  0.00    -0.183 A  
HETATM   21  C   UNL     1     -10.393  12.185  68.644  1.00  0.00    -0.211 A  
HETATM   22  C   UNL     1     -11.583  12.282  69.379  1.00  0.00    -0.378 A  
HETATM   23  C   UNL     1      -7.211  15.899  67.155  1.00  0.00    -0.254 A  
HETATM   24  C   UNL     1     -12.029  13.514  69.867  1.00  0.00    -0.416 A  
HETATM   25  C   UNL     1     -11.290  14.675  69.638  1.00  0.00    -0.317 A  
ENDBRANCH  10  13
ENDBRANCH   9  10
ENDBRANCH   8   9
ENDBRANCH   7   8
ENDBRANCH   6   7
ENDBRANCH   5   6
ENDBRANCH   4   5
ENDBRANCH   2   4
BRANCH   2  26
HETATM   26  C   UNL     1      -9.917   5.255  70.740  1.00  0.00    -0.211 C  
HETATM   27  C   UNL     1      -9.962   6.852  67.384  1.00  0.00    -0.212 A  
HETATM   28  C   UNL     1      -9.670   4.070  69.782  1.00  0.00    -0.254 A  
HETATM   29  C   UNL     1     -10.283   8.178  67.653  1.00  0.00    -0.296 A  
HETATM   30  C   UNL     1      -9.648   4.537  68.447  1.00  0.00    -0.207 A  
HETATM   31  C   UNL     1      -9.935   5.953  68.438  1.00  0.00    -0.184 A  
HETATM   32  C   UNL     1      -9.452   3.670  67.381  1.00  0.00    -0.238 A  
HETATM   33  C   UNL     1     -10.645   8.589  68.945  1.00  0.00    -0.166 A  
HETATM   34  C   UNL     1      -9.543   2.705  70.034  1.00  0.00    -0.084 A  
HETATM   35  C   UNL     1     -10.221   6.377  69.754  1.00  0.00    -0.226 A  
HETATM   36  C   UNL     1      -9.271   2.312  67.647  1.00  0.00    -0.207 A  
HETATM   37  C   UNL     1     -10.657   7.674  70.006  1.00  0.00    -0.240 A  
HETATM   38  C   UNL     1      -9.314   1.834  68.961  1.00  0.00    -0.195 A  
ENDBRANCH   2  26
TORSDOF 9
ENDMDL
MODEL      362
REMARK 921   NORMALIZED FREE ENERGY PREDICTED BY IDOCK:   -3.37 KCAL/MOL
REMARK 922        TOTAL FREE ENERGY PREDICTED BY IDOCK:   -6.90 KCAL/MOL
REMARK 923 INTER-LIGAND FREE ENERGY PREDICTED BY IDOCK:   -7.75 KCAL/MOL
REMARK 924 INTRA-LIGAND FREE ENERGY PREDICTED BY IDOCK:    0.85 KCAL/MOL
REMARK 927      BINDING AFFINITY PREDICTED BY RF-SCORE:    0.00 PKD
ROOT
HETATM    1  C   UNL     1     -11.153  16.237  68.363  1.00  0.00    -0.362 C  
HETATM    2  N   UNL     1     -10.237  15.366  67.510  1.00  0.00    -0.241 N  
HETATM    3  C   UNL     1      -9.669  14.244  68.374  1.00  0.00    -0.225 C  
ENDROOT
BRANCH   2   4
HETATM    4  C   UNL     1     -11.024  14.821  66.337  1.00  0.00    -0.331 C  
BRANCH   4   5
HETATM    5  C   UNL     1     -11.373  13.333  66.387  1.00  0.00    -0.341 C  
BRANCH   5   6
HETATM    6  C   UNL     1     -10.492  12.575  65.385  1.00  0.00    -0.308 C  
BRANCH   6   7
HETATM    7  C   UNL     1     -10.790  11.067  65.302  1.00  0.00    -0.172 C  
BRANCH   7   8
HETATM    8  C   UNL     1      -9.719  10.180  65.957  1.00  0.00    -0.285 C  
BRANCH   8   9
HETATM    9  C   UNL     1      -9.696  10.473  67.457  1.00  0.00    -0.166 C  
BRANCH   9  10
HETATM   10  N   UNL     1      -9.847   9.262  68.363  1.00  0.00    -0.151 N  
HETATM   11  C   UNL     1     -10.517   9.637  69.681  1.00  0.00    -0.229 C  
HETATM   12  C   UNL     1     -10.711   8.181  67.730  1.00  0.00    -0.096 C  
BRANCH  10  13
HETATM   13  C   UNL     1      -8.370   8.694  68.634  1.00  0.00    -0.122 C  
HETATM   14  C   UNL     1      -7.305   9.212  67.647  1.00  0.00    -0.087 A  
HETATM   15  C   UNL     1      -6.740   8.132  66.932  1.00  0.00    -0.065 A  
HETATM   16  C   UNL     1      -7.280   6.891  67.433  1.00  0.00    -0.090 A  
HETATM   17  C   UNL     1      -5.794   8.340  65.938  1.00  0.00    -0.041 A  
HETATM   18  C   UNL     1      -8.222   7.166  68.451  1.00  0.00    -0.125 A  
HETATM   19  C   UNL     1      -5.400   9.646  65.656  1.00  0.00    -0.043 A  
HETATM   20  C   UNL     1      -5.928  10.720  66.386  1.00  0.00    -0.110 A  
HETATM   21  C   UNL     1      -8.815   6.112  69.138  1.00  0.00    -0.123 A  
HETATM   22  C   UNL     1      -8.500   4.797  68.767  1.00  0.00    -0.087 A  
HETATM   23  C   UNL     1      -6.866  10.507  67.400  1.00  0.00    -0.076 A  
HETATM   24  C   UNL     1      -7.574   4.538  67.752  1.00  0.00    -0.077 A  
HETATM   25  C   UNL     1      -6.948   5.589  67.081  1.00  0.00    -0.065 A  
ENDBRANCH  10  13
ENDBRANCH   9  10
ENDBRANCH   8   9
ENDBRANCH   7   8
ENDBRANCH   6   7
ENDBRANCH   5   6
ENDBRANCH   4   5
ENDBRANCH   2   4
BRANCH   2  26
HETATM   26  C   UNL     1      -9.027  16.245  66.908  1.00  0.00    -0.217 C  
HETATM   27  C   UNL     1      -8.758  19.784  68.013  1.00  0.00    -0.353 A  
HETATM   28  C   UNL     1      -7.746  16.249  67.770  1.00  0.00    -0.157 A  
HETATM   29  C   UNL     1      -9.809  20.416  67.356  1.00  0.00    -0.587 A  
HETATM   30  C   UNL     1      -7.521  17.551  68.277  1.00  0.00    -0.237 A  
HETATM   31  C   UNL     1      -8.531  18.442  67.754  1.00  0.00    -0.270 A  
HETATM   32  C   UNL     1      -6.425  17.834  69.079  1.00  0.00    -0.233 A  
HETATM   33  C   UNL     1     -10.578  19.738  66.398  1.00  0.00    -0.575 A  
HETATM   34  C   UNL     1      -6.824  15.239  68.038  1.00  0.00    -0.152 A  
HETATM   35  C   UNL     1      -9.352  17.733  66.850  1.00  0.00    -0.272 A  
HETATM   36  C   UNL     1      -5.536  16.804  69.387  1.00  0.00    -0.147 A  
HETATM   37  C   UNL     1     -10.326  18.391  66.105  1.00  0.00    -0.431 A  
HETATM   38  C   UNL     1      -5.734  15.518  68.873  1.00  0.00    -0.102 A  
ENDBRANCH   2  26
TORSDOF 9
ENDMDL
MODEL      363
REMARK 921   NORMALIZED FREE ENERGY PREDICTED BY IDOCK:   -3.34 KCAL/MOL
REMARK 922        TOTAL FREE ENERGY PREDICTED BY IDOCK:   -6.86 KCAL/MOL
REMARK 923 INTER-LIGAND FREE ENERGY PREDICTED BY IDOCK:   -7.63 KCAL/MOL
REMARK 924 INTRA-LIGAND FREE ENERGY PREDICTED BY IDOCK:    0.77 KCAL/MOL
REMARK 927      BINDING AFFINITY PREDICTED BY RF-SCORE:    0.00 PKD
ROOT
HETATM    1  C   UNL     1     -11.584   5.907  71.809  1.00  0.00    -0.155 C  
HETATM    2  N   UNL     1     -10.221   6.588  71.883  1.00  0.00    -0.193 N  
HETATM    3  C   UNL     1      -9.550   6.511  70.515  1.00  0.00    -0.169 C  
ENDROOT
BRANCH   2   4
HETATM    4  C   UNL     1     -10.408   8.023  72.331  1.00  0.00    -0.289 C  
BRANCH   4   5
HETATM    5  C   UNL     1     -10.671   9.048  71.228  1.00  0.00    -0.379 C  
BRANCH   5   6
HETATM    6  C   UNL     1      -9.331   9.581  70.704  1.00  0.00    -0.263 C  
BRANCH   6   7
HETATM    7  C   UNL     1      -9.143   9.426  69.184  1.00  0.00    -0.148 C  
BRANCH   7   8
HETATM    8  C   UNL     1      -9.927  10.450  68.349  1.00  0.00    -0.177 C  
BRANCH   8   9
HETATM    9  C   UNL     1      -9.192  10.664  67.026  1.00  0.00    -0.151 C  
BRANCH   9  10
HETATM   10  N   UNL     1      -8.227  11.838  66.995  1.00  0.00    -0.168 N  
HETATM   11  C   UNL     1      -7.703  12.161  68.391  1.00  0.00    -0.134 C  
HETATM   12  C   UNL     1      -7.008  11.552  66.131  1.00  0.00     0.253 C  
BRANCH  10  13
HETATM   13  C   UNL     1      -9.036  13.092  66.403  1.00  0.00    -0.056 C  
HETATM   14  C   UNL     1      -9.827  13.888  67.459  1.00  0.00    -0.236 A  
HETATM   15  C   UNL     1     -11.207  13.855  67.159  1.00  0.00    -0.328 A  
HETATM   16  C   UNL     1     -11.408  13.167  65.906  1.00  0.00    -0.338 A  
HETATM   17  C   UNL     1     -12.142  14.452  67.993  1.00  0.00    -0.266 A  
HETATM   18  C   UNL     1     -10.162  12.722  65.409  1.00  0.00    -0.299 A  
HETATM   19  C   UNL     1     -11.693  15.098  69.143  1.00  0.00    -0.349 A  
HETATM   20  C   UNL     1     -10.323  15.167  69.429  1.00  0.00    -0.259 A  
HETATM   21  C   UNL     1     -10.103  12.100  64.166  1.00  0.00    -0.335 A  
HETATM   22  C   UNL     1     -11.293  11.883  63.459  1.00  0.00    -0.516 A  
HETATM   23  C   UNL     1      -9.381  14.582  68.578  1.00  0.00    -0.203 A  
HETATM   24  C   UNL     1     -12.522  12.320  63.966  1.00  0.00    -0.556 A  
HETATM   25  C   UNL     1     -12.586  12.976  65.195  1.00  0.00    -0.530 A  
ENDBRANCH  10  13
ENDBRANCH   9  10
ENDBRANCH   8   9
ENDBRANCH   7   8
ENDBRANCH   6   7
ENDBRANCH   5   6
ENDBRANCH   4   5
ENDBRANCH   2   4
BRANCH   2  26
HETATM   26  C   UNL     1      -9.289   5.861  72.980  1.00  0.00    -0.140 C  
HETATM   27  C   UNL     1      -6.410   3.865  71.737  1.00  0.00    -0.015 A  
HETATM   28  C   UNL     1      -8.066   6.688  73.431  1.00  0.00    -0.112 A  
HETATM   29  C   UNL     1      -7.004   2.730  71.197  1.00  0.00    -0.032 A  
HETATM   30  C   UNL     1      -6.878   6.045  73.009  1.00  0.00    -0.079 A  
HETATM   31  C   UNL     1      -7.221   4.799  72.362  1.00  0.00    -0.081 A  
HETATM   32  C   UNL     1      -5.628   6.576  73.295  1.00  0.00    -0.038 A  
HETATM   33  C   UNL     1      -8.379   2.492  71.341  1.00  0.00    -0.081 A  
HETATM   34  C   UNL     1      -7.982   7.852  74.193  1.00  0.00    -0.276 A  
HETATM   35  C   UNL     1      -8.617   4.604  72.441  1.00  0.00    -0.117 A  
HETATM   36  C   UNL     1      -5.556   7.771  74.011  1.00  0.00    -0.060 A  
HETATM   37  C   UNL     1      -9.196   3.415  72.007  1.00  0.00    -0.172 A  
HETATM   38  C   UNL     1      -6.722   8.404  74.455  1.00  0.00    -0.186 A  
ENDBRANCH   2  26
TORSDOF 9
ENDMDL
MODEL      364
REMARK 921   NORMALIZED FREE ENERGY PREDICTED BY IDOCK:   -3.33 KCAL/MOL
REMARK 922        TOTAL FREE ENERGY PREDICTED BY IDOCK:   -6.84 KCAL/MOL
REMARK 923 INTER-LIGAND FREE ENERGY PREDICTED BY IDOCK:   -7.64 KCAL/MOL
REMARK 924 INTRA-LIGAND FREE ENERGY PREDICTED BY IDOCK:    0.80 KCAL/MOL
REMARK 927      BINDING AFFINITY PREDICTED BY RF-SCORE:    0.00 PKD
ROOT
HETATM    1  C   UNL     1      -7.684  16.928  68.207  1.00  0.00    -0.205 C  
HETATM    2  N   UNL     1      -8.502  15.641  68.187  1.00  0.00    -0.146 N  
HETATM    3  C   UNL     1      -8.140  14.839  66.940  1.00  0.00    -0.048 C  
ENDROOT
BRANCH   2   4
HETATM    4  C   UNL     1      -8.222  14.857  69.453  1.00  0.00    -0.084 C  
BRANCH   4   5
HETATM    5  C   UNL     1      -6.751  14.604  69.782  1.00  0.00    -0.165 C  
BRANCH   5   6
HETATM    6  C   UNL     1      -6.327  13.253  69.190  1.00  0.00    -0.103 C  
BRANCH   6   7
HETATM    7  C   UNL     1      -5.552  12.352  70.169  1.00  0.00    -0.144 C  
BRANCH   7   8
HETATM    8  C   UNL     1      -5.221  10.960  69.611  1.00  0.00    -0.038 C  
BRANCH   8   9
HETATM    9  C   UNL     1      -5.895   9.909  70.492  1.00  0.00    -0.071 C  
BRANCH   9  10
HETATM   10  N   UNL     1      -7.104   9.219  69.879  1.00  0.00    -0.057 N  
HETATM   11  C   UNL     1      -8.392   9.967  70.205  1.00  0.00    -0.039 C  
HETATM   12  C   UNL     1      -7.013   9.151  68.362  1.00  0.00    -0.068 C  
BRANCH  10  13
HETATM   13  C   UNL     1      -7.154   7.735  70.491  1.00  0.00    -0.047 C  
HETATM   14  C   UNL     1      -7.418   6.632  69.448  1.00  0.00    -0.094 A  
HETATM   15  C   UNL     1      -8.620   5.953  69.753  1.00  0.00    -0.129 A  
HETATM   16  C   UNL     1      -9.151   6.456  70.997  1.00  0.00    -0.154 A  
HETATM   17  C   UNL     1      -9.111   4.949  68.931  1.00  0.00    -0.149 A  
HETATM   18  C   UNL     1      -8.314   7.486  71.484  1.00  0.00    -0.111 A  
HETATM   19  C   UNL     1      -8.389   4.611  67.787  1.00  0.00    -0.103 A  
HETATM   20  C   UNL     1      -7.178   5.254  67.498  1.00  0.00    -0.071 A  
HETATM   21  C   UNL     1      -8.588   8.066  72.718  1.00  0.00    -0.252 A  
HETATM   22  C   UNL     1      -9.723   7.649  73.427  1.00  0.00    -0.363 A  
HETATM   23  C   UNL     1      -6.675   6.251  68.338  1.00  0.00    -0.068 A  
HETATM   24  C   UNL     1     -10.549   6.635  72.930  1.00  0.00    -0.272 A  
HETATM   25  C   UNL     1     -10.262   6.023  71.710  1.00  0.00    -0.242 A  
ENDBRANCH  10  13
ENDBRANCH   9  10
ENDBRANCH   8   9
ENDBRANCH   7   8
ENDBRANCH   6   7
ENDBRANCH   5   6
ENDBRANCH   4   5
ENDBRANCH   2   4
BRANCH   2  26
HETATM   26  C   UNL     1     -10.079  15.978  68.171  1.00  0.00    -0.234 C  
HETATM   27  C   UNL     1     -12.339  13.534  66.517  1.00  0.00    -0.382 A  
HETATM   28  C   UNL     1     -10.875  15.379  69.350  1.00  0.00    -0.263 A  
HETATM   29  C   UNL     1     -12.084  13.712  65.161  1.00  0.00    -0.426 A  
HETATM   30  C   UNL     1     -11.782  14.407  68.865  1.00  0.00    -0.357 A  
HETATM   31  C   UNL     1     -11.697  14.363  67.423  1.00  0.00    -0.424 A  
HETATM   32  C   UNL     1     -12.630  13.720  69.721  1.00  0.00    -0.083 A  
HETATM   33  C   UNL     1     -11.255  14.751  64.710  1.00  0.00    -0.392 A  
HETATM   34  C   UNL     1     -10.865  15.691  70.709  1.00  0.00    -0.275 A  
HETATM   35  C   UNL     1     -10.800  15.358  66.979  1.00  0.00    -0.320 A  
HETATM   36  C   UNL     1     -12.576  14.000  71.087  1.00  0.00    -0.445 A  
HETATM   37  C   UNL     1     -10.635  15.615  65.622  1.00  0.00    -0.393 A  
HETATM   38  C   UNL     1     -11.700  14.975  71.577  1.00  0.00    -0.426 A  
ENDBRANCH   2  26
TORSDOF 9
ENDMDL
MODEL      365
REMARK 921   NORMALIZED FREE ENERGY PREDICTED BY IDOCK:   -3.29 KCAL/MOL
REMARK 922        TOTAL FREE ENERGY PREDICTED BY IDOCK:   -6.79 KCAL/MOL
REMARK 923 INTER-LIGAND FREE ENERGY PREDICTED BY IDOCK:   -6.92 KCAL/MOL
REMARK 924 INTRA-LIGAND FREE ENERGY PREDICTED BY IDOCK:    0.13 KCAL/MOL
REMARK 927      BINDING AFFINITY PREDICTED BY RF-SCORE:    0.00 PKD
ROOT
HETATM    1  C   UNL     1     -10.113  15.200  69.114  1.00  0.00    -0.245 C  
HETATM    2  N   UNL     1      -9.985  14.010  68.170  1.00  0.00    -0.235 N  
HETATM    3  C   UNL     1      -8.954  13.035  68.733  1.00  0.00     0.178 C  
ENDROOT
BRANCH   2   4
HETATM    4  C   UNL     1     -11.341  13.355  68.013  1.00  0.00    -0.286 C  
BRANCH   4   5
HETATM    5  C   UNL     1     -11.589  12.099  68.848  1.00  0.00    -0.377 C  
BRANCH   5   6
HETATM    6  C   UNL     1     -11.555  10.869  67.931  1.00  0.00    -0.270 C  
BRANCH   6   7
HETATM    7  C   UNL     1     -10.801   9.664  68.523  1.00  0.00    -0.202 C  
BRANCH   7   8
HETATM    8  C   UNL     1      -9.960   8.888  67.498  1.00  0.00    -0.258 C  
BRANCH   8   9
HETATM    9  C   UNL     1     -10.583   7.505  67.304  1.00  0.00    -0.324 C  
BRANCH   9  10
HETATM   10  N   UNL     1      -9.840   6.354  67.964  1.00  0.00    -0.121 N  
HETATM   11  C   UNL     1      -8.521   6.822  68.569  1.00  0.00    -0.123 C  
HETATM   12  C   UNL     1     -10.642   5.735  69.099  1.00  0.00    -0.294 C  
BRANCH  10  13
HETATM   13  C   UNL     1      -9.570   5.258  66.822  1.00  0.00    -0.148 C  
HETATM   14  C   UNL     1      -9.123   3.885  67.361  1.00  0.00    -0.178 A  
HETATM   15  C   UNL     1      -7.836   3.567  66.872  1.00  0.00    -0.080 A  
HETATM   16  C   UNL     1      -7.407   4.592  65.951  1.00  0.00    -0.077 A  
HETATM   17  C   UNL     1      -7.183   2.405  67.257  1.00  0.00    -0.056 A  
HETATM   18  C   UNL     1      -8.401   5.595  65.868  1.00  0.00    -0.128 A  
HETATM   19  C   UNL     1      -7.828   1.540  68.140  1.00  0.00    -0.057 A  
HETATM   20  C   UNL     1      -9.119   1.830  68.601  1.00  0.00    -0.189 A  
HETATM   21  C   UNL     1      -8.238   6.648  64.975  1.00  0.00    -0.105 A  
HETATM   22  C   UNL     1      -7.062   6.717  64.214  1.00  0.00    -0.061 A  
HETATM   23  C   UNL     1      -9.783   2.991  68.196  1.00  0.00     0.029 A  
HETATM   24  C   UNL     1      -6.082   5.725  64.312  1.00  0.00    -0.025 A  
HETATM   25  C   UNL     1      -6.253   4.646  65.179  1.00  0.00    -0.034 A  
ENDBRANCH  10  13
ENDBRANCH   9  10
ENDBRANCH   8   9
ENDBRANCH   7   8
ENDBRANCH   6   7
ENDBRANCH   5   6
ENDBRANCH   4   5
ENDBRANCH   2   4
BRANCH   2  26
HETATM   26  C   UNL     1      -9.517  14.500  66.707  1.00  0.00    -0.269 C  
HETATM   27  C   UNL     1     -12.095  14.627  64.032  1.00  0.00    -0.229 A  
HETATM   28  C   UNL     1      -9.687  16.013  66.452  1.00  0.00    -0.307 A  
HETATM   29  C   UNL     1     -12.324  13.289  63.730  1.00  0.00    -0.440 A  
HETATM   30  C   UNL     1     -10.664  16.218  65.450  1.00  0.00    -0.342 A  
HETATM   31  C   UNL     1     -11.113  14.934  64.961  1.00  0.00    -0.422 A  
HETATM   32  C   UNL     1     -11.004  17.493  65.022  1.00  0.00     0.458 A  
HETATM   33  C   UNL     1     -11.535  12.273  64.291  1.00  0.00    -0.429 A  
HETATM   34  C   UNL     1      -9.014  17.109  66.989  1.00  0.00    -0.244 A  
HETATM   35  C   UNL     1     -10.370  13.912  65.589  1.00  0.00    -0.337 A  
HETATM   36  C   UNL     1     -10.364  18.588  65.603  1.00  0.00    -0.065 A  
HETATM   37  C   UNL     1     -10.515  12.584  65.201  1.00  0.00    -0.320 A  
HETATM   38  C   UNL     1      -9.379  18.399  66.579  1.00  0.00    -0.311 A  
ENDBRANCH   2  26
TORSDOF 9
ENDMDL
MODEL      366
REMARK 921   NORMALIZED FREE ENERGY PREDICTED BY IDOCK:   -3.25 KCAL/MOL
REMARK 922        TOTAL FREE ENERGY PREDICTED BY IDOCK:   -6.73 KCAL/MOL
REMARK 923 INTER-LIGAND FREE ENERGY PREDICTED BY IDOCK:   -6.93 KCAL/MOL
REMARK 924 INTRA-LIGAND FREE ENERGY PREDICTED BY IDOCK:    0.20 KCAL/MOL
REMARK 927      BINDING AFFINITY PREDICTED BY RF-SCORE:    0.00 PKD
ROOT
HETATM    1  C   UNL     1     -11.000  14.070  70.379  1.00  0.00     0.504 C  
HETATM    2  N   UNL     1     -10.349  14.683  69.144  1.00  0.00    -0.236 N  
HETATM    3  C   UNL     1      -9.210  15.600  69.582  1.00  0.00    -0.189 C  
ENDROOT
BRANCH   2   4
HETATM    4  C   UNL     1      -9.852  13.571  68.243  1.00  0.00    -0.233 C  
BRANCH   4   5
HETATM    5  C   UNL     1     -10.253  12.150  68.636  1.00  0.00    -0.186 C  
BRANCH   5   6
HETATM    6  C   UNL     1      -9.330  11.150  67.925  1.00  0.00    -0.161 C  
BRANCH   6   7
HETATM    7  C   UNL     1      -9.973  10.453  66.712  1.00  0.00    -0.256 C  
BRANCH   7   8
HETATM    8  C   UNL     1      -9.067   9.413  66.036  1.00  0.00    -0.228 C  
BRANCH   8   9
HETATM    9  C   UNL     1      -8.021   8.946  67.049  1.00  0.00    -0.102 C  
BRANCH   9  10
HETATM   10  N   UNL     1      -7.227   7.714  66.648  1.00  0.00    -0.085 N  
HETATM   11  C   UNL     1      -7.635   7.218  65.264  1.00  0.00    -0.102 C  
HETATM   12  C   UNL     1      -5.733   7.995  66.583  1.00  0.00    -0.043 C  
BRANCH  10  13
HETATM   13  C   UNL     1      -7.525   6.587  67.751  1.00  0.00    -0.097 C  
HETATM   14  C   UNL     1      -7.955   5.228  67.164  1.00  0.00    -0.101 A  
HETATM   15  C   UNL     1      -9.254   4.896  67.610  1.00  0.00    -0.138 A  
HETATM   16  C   UNL     1      -9.709   5.895  68.546  1.00  0.00    -0.151 A  
HETATM   17  C   UNL     1      -9.895   3.744  67.176  1.00  0.00    -0.035 A  
HETATM   18  C   UNL     1      -8.720   6.896  68.683  1.00  0.00    -0.122 A  
HETATM   19  C   UNL     1      -9.225   2.905  66.286  1.00  0.00    -0.107 A  
HETATM   20  C   UNL     1      -7.923   3.208  65.869  1.00  0.00    -0.085 A  
HETATM   21  C   UNL     1      -8.908   7.925  69.600  1.00  0.00    -0.138 A  
HETATM   22  C   UNL     1     -10.104   7.972  70.331  1.00  0.00    -0.194 A  
HETATM   23  C   UNL     1      -7.272   4.359  66.322  1.00  0.00    -0.076 A  
HETATM   24  C   UNL     1     -11.079   6.981  70.180  1.00  0.00    -0.323 A  
HETATM   25  C   UNL     1     -10.883   5.927  69.288  1.00  0.00    -0.414 A  
ENDBRANCH  10  13
ENDBRANCH   9  10
ENDBRANCH   8   9
ENDBRANCH   7   8
ENDBRANCH   6   7
ENDBRANCH   5   6
ENDBRANCH   4   5
ENDBRANCH   2   4
BRANCH   2  26
HETATM   26  C   UNL     1     -11.429  15.534  68.303  1.00  0.00    -0.353 C  
HETATM   27  C   UNL     1     -10.141  18.183  66.036  1.00  0.00    -0.272 A  
HETATM   28  C   UNL     1     -11.734  14.974  66.897  1.00  0.00    -0.181 A  
HETATM   29  C   UNL     1      -9.728  19.188  66.903  1.00  0.00    -0.389 A  
HETATM   30  C   UNL     1     -11.279  15.886  65.915  1.00  0.00     0.065 A  
HETATM   31  C   UNL     1     -10.750  17.059  66.571  1.00  0.00    -0.073 A  
HETATM   32  C   UNL     1     -11.439  15.629  64.561  1.00  0.00    -0.304 A  
HETATM   33  C   UNL     1      -9.983  19.108  68.281  1.00  0.00    -0.482 A  
HETATM   34  C   UNL     1     -12.401  13.816  66.502  1.00  0.00    -0.432 A  
HETATM   35  C   UNL     1     -10.939  16.937  67.965  1.00  0.00    -0.271 A  
HETATM   36  C   UNL     1     -12.059  14.440  64.173  1.00  0.00    -0.405 A  
HETATM   37  C   UNL     1     -10.634  17.991  68.821  1.00  0.00    -0.040 A  
HETATM   38  C   UNL     1     -12.535  13.541  65.134  1.00  0.00    -0.495 A  
ENDBRANCH   2  26
TORSDOF 9
ENDMDL
MODEL      367
REMARK 921   NORMALIZED FREE ENERGY PREDICTED BY IDOCK:   -3.25 KCAL/MOL
REMARK 922        TOTAL FREE ENERGY PREDICTED BY IDOCK:   -6.72 KCAL/MOL
REMARK 923 INTER-LIGAND FREE ENERGY PREDICTED BY IDOCK:   -6.95 KCAL/MOL
REMARK 924 INTRA-LIGAND FREE ENERGY PREDICTED BY IDOCK:    0.23 KCAL/MOL
REMARK 927      BINDING AFFINITY PREDICTED BY RF-SCORE:    0.00 PKD
ROOT
HETATM    1  C   UNL     1      -6.592   6.338  69.206  1.00  0.00    -0.044 C  
HETATM    2  N   UNL     1      -7.596   7.295  69.840  1.00  0.00    -0.092 N  
HETATM    3  C   UNL     1      -7.192   7.554  71.289  1.00  0.00    -0.063 C  
ENDROOT
BRANCH   2   4
HETATM    4  C   UNL     1      -7.632   8.579  69.036  1.00  0.00    -0.094 C  
BRANCH   4   5
HETATM    5  C   UNL     1      -6.362   8.929  68.261  1.00  0.00    -0.055 C  
BRANCH   5   6
HETATM    6  C   UNL     1      -5.869  10.314  68.702  1.00  0.00    -0.037 C  
BRANCH   6   7
HETATM    7  C   UNL     1      -6.539  11.486  67.961  1.00  0.00    -0.058 C  
BRANCH   7   8
HETATM    8  C   UNL     1      -7.860  11.115  67.271  1.00  0.00    -0.137 C  
BRANCH   8   9
HETATM    9  C   UNL     1      -8.968  12.009  67.828  1.00  0.00    -0.176 C  
BRANCH   9  10
HETATM   10  N   UNL     1      -9.875  12.652  66.791  1.00  0.00    -0.230 N  
HETATM   11  C   UNL     1      -9.289  13.966  66.282  1.00  0.00    -0.156 C  
HETATM   12  C   UNL     1     -10.066  11.763  65.572  1.00  0.00    -0.249 C  
BRANCH  10  13
HETATM   13  C   UNL     1     -11.289  12.914  67.505  1.00  0.00    -0.308 C  
HETATM   14  C   UNL     1     -11.342  14.209  68.339  1.00  0.00    -0.315 A  
HETATM   15  C   UNL     1     -11.602  13.904  69.694  1.00  0.00    -0.347 A  
HETATM   16  C   UNL     1     -11.826  12.485  69.830  1.00  0.00    -0.380 A  
HETATM   17  C   UNL     1     -11.643  14.896  70.663  1.00  0.00    -0.341 A  
HETATM   18  C   UNL     1     -11.679  11.862  68.569  1.00  0.00    -0.388 A  
HETATM   19  C   UNL     1     -11.428  16.217  70.274  1.00  0.00    -0.319 A  
HETATM   20  C   UNL     1     -11.207  16.532  68.927  1.00  0.00    -0.257 A  
HETATM   21  C   UNL     1     -11.930  10.500  68.444  1.00  0.00     0.246 A  
HETATM   22  C   UNL     1     -12.274   9.766  69.587  1.00  0.00     0.439 A  
HETATM   23  C   UNL     1     -11.186  15.534  67.949  1.00  0.00    -0.325 A  
HETATM   24  C   UNL     1     -12.408  10.391  70.831  1.00  0.00    -0.480 A  
HETATM   25  C   UNL     1     -12.192  11.763  70.959  1.00  0.00    -0.303 A  
ENDBRANCH  10  13
ENDBRANCH   9  10
ENDBRANCH   8   9
ENDBRANCH   7   8
ENDBRANCH   6   7
ENDBRANCH   5   6
ENDBRANCH   4   5
ENDBRANCH   2   4
BRANCH   2  26
HETATM   26  C   UNL     1      -9.079   6.663  69.800  1.00  0.00    -0.143 C  
HETATM   27  C   UNL     1      -9.393   3.079  68.867  1.00  0.00    -0.228 A  
HETATM   28  C   UNL     1      -9.527   5.994  71.117  1.00  0.00    -0.182 A  
HETATM   29  C   UNL     1      -9.135   3.070  67.500  1.00  0.00    -0.213 A  
HETATM   30  C   UNL     1      -9.676   4.601  70.913  1.00  0.00    -0.262 A  
HETATM   31  C   UNL     1      -9.426   4.299  69.523  1.00  0.00    -0.257 A  
HETATM   32  C   UNL     1     -10.082   3.761  71.940  1.00  0.00    -0.194 A  
HETATM   33  C   UNL     1      -8.985   4.266  66.782  1.00  0.00    -0.125 A  
HETATM   34  C   UNL     1      -9.840   6.543  72.359  1.00  0.00    -0.169 A  
HETATM   35  C   UNL     1      -9.197   5.502  68.820  1.00  0.00    -0.142 A  
HETATM   36  C   UNL     1     -10.341   4.312  73.195  1.00  0.00    -0.237 A  
HETATM   37  C   UNL     1      -9.057   5.503  67.436  1.00  0.00    -0.110 A  
HETATM   38  C   UNL     1     -10.220   5.691  73.404  1.00  0.00    -0.223 A  
ENDBRANCH   2  26
TORSDOF 9
ENDMDL
MODEL      368
REMARK 921   NORMALIZED FREE ENERGY PREDICTED BY IDOCK:   -3.23 KCAL/MOL
REMARK 922        TOTAL FREE ENERGY PREDICTED BY IDOCK:   -6.69 KCAL/MOL
REMARK 923 INTER-LIGAND FREE ENERGY PREDICTED BY IDOCK:   -7.52 KCAL/MOL
REMARK 924 INTRA-LIGAND FREE ENERGY PREDICTED BY IDOCK:    0.83 KCAL/MOL
REMARK 927      BINDING AFFINITY PREDICTED BY RF-SCORE:    0.00 PKD
ROOT
HETATM    1  C   UNL     1      -9.640   4.372  68.421  1.00  0.00    -0.140 C  
HETATM    2  N   UNL     1      -9.571   5.416  67.311  1.00  0.00    -0.126 N  
HETATM    3  C   UNL     1     -10.901   5.437  66.563  1.00  0.00    -0.148 C  
ENDROOT
BRANCH   2   4
HETATM    4  C   UNL     1      -9.256   6.766  67.921  1.00  0.00    -0.112 C  
BRANCH   4   5
HETATM    5  C   UNL     1     -10.452   7.599  68.380  1.00  0.00    -0.208 C  
BRANCH   5   6
HETATM    6  C   UNL     1     -10.280   7.953  69.864  1.00  0.00    -0.210 C  
BRANCH   6   7
HETATM    7  C   UNL     1     -11.480   8.700  70.475  1.00  0.00    -0.208 C  
BRANCH   7   8
HETATM    8  C   UNL     1     -11.745  10.077  69.847  1.00  0.00    -0.190 C  
BRANCH   8   9
HETATM    9  C   UNL     1     -10.412  10.811  69.704  1.00  0.00    -0.140 C  
BRANCH   9  10
HETATM   10  N   UNL     1     -10.168  11.468  68.354  1.00  0.00    -0.199 N  
HETATM   11  C   UNL     1      -8.882  12.287  68.363  1.00  0.00    -0.137 C  
HETATM   12  C   UNL     1     -10.021  10.443  67.240  1.00  0.00    -0.188 C  
BRANCH  10  13
HETATM   13  C   UNL     1     -11.429  12.417  68.063  1.00  0.00    -0.322 C  
HETATM   14  C   UNL     1     -11.245  13.357  66.855  1.00  0.00    -0.330 A  
HETATM   15  C   UNL     1     -11.320  14.705  67.272  1.00  0.00    -0.364 A  
HETATM   16  C   UNL     1     -11.643  14.753  68.678  1.00  0.00    -0.345 A  
HETATM   17  C   UNL     1     -11.129  15.750  66.380  1.00  0.00    -0.070 A  
HETATM   18  C   UNL     1     -11.743  13.436  69.183  1.00  0.00    -0.375 A  
HETATM   19  C   UNL     1     -10.863  15.446  65.046  1.00  0.00    -0.462 A  
HETATM   20  C   UNL     1     -10.823  14.113  64.616  1.00  0.00    -0.401 A  
HETATM   21  C   UNL     1     -12.126  13.237  70.505  1.00  0.00    -0.391 A  
HETATM   22  C   UNL     1     -12.355  14.353  71.321  1.00  0.00    -0.432 A  
HETATM   23  C   UNL     1     -11.035  13.062  65.513  1.00  0.00    -0.296 A  
HETATM   24  C   UNL     1     -12.244  15.651  70.813  1.00  0.00    -0.463 A  
HETATM   25  C   UNL     1     -11.894  15.860  69.479  1.00  0.00    -0.310 A  
ENDBRANCH  10  13
ENDBRANCH   9  10
ENDBRANCH   8   9
ENDBRANCH   7   8
ENDBRANCH   6   7
ENDBRANCH   5   6
ENDBRANCH   4   5
ENDBRANCH   2   4
BRANCH   2  26
HETATM   26  C   UNL     1      -8.381   5.064  66.282  1.00  0.00    -0.112 C  
HETATM   27  C   UNL     1      -5.946   2.446  67.300  1.00  0.00    -0.020 A  
HETATM   28  C   UNL     1      -8.690   3.901  65.316  1.00  0.00    -0.116 A  
HETATM   29  C   UNL     1      -5.184   3.069  68.282  1.00  0.00    -0.012 A  
HETATM   30  C   UNL     1      -7.834   2.810  65.600  1.00  0.00    -0.081 A  
HETATM   31  C   UNL     1      -6.918   3.191  66.650  1.00  0.00    -0.054 A  
HETATM   32  C   UNL     1      -7.897   1.633  64.867  1.00  0.00    -0.068 A  
HETATM   33  C   UNL     1      -5.336   4.435  68.563  1.00  0.00    -0.012 A  
HETATM   34  C   UNL     1      -9.582   3.814  64.249  1.00  0.00    -0.166 A  
HETATM   35  C   UNL     1      -7.131   4.546  66.983  1.00  0.00    -0.068 A  
HETATM   36  C   UNL     1      -8.830   1.535  63.835  1.00  0.00    -0.084 A  
HETATM   37  C   UNL     1      -6.291   5.200  67.879  1.00  0.00    -0.040 A  
HETATM   38  C   UNL     1      -9.667   2.615  63.529  1.00  0.00    -0.115 A  
ENDBRANCH   2  26
TORSDOF 9
ENDMDL
MODEL      369
REMARK 921   NORMALIZED FREE ENERGY PREDICTED BY IDOCK:   -3.20 KCAL/MOL
REMARK 922        TOTAL FREE ENERGY PREDICTED BY IDOCK:   -6.64 KCAL/MOL
REMARK 923 INTER-LIGAND FREE ENERGY PREDICTED BY IDOCK:   -5.72 KCAL/MOL
REMARK 924 INTRA-LIGAND FREE ENERGY PREDICTED BY IDOCK:   -0.92 KCAL/MOL
REMARK 927      BINDING AFFINITY PREDICTED BY RF-SCORE:    0.00 PKD
ROOT
HETATM    1  C   UNL     1     -10.080   9.702  66.282  1.00  0.00    -0.252 C  
HETATM    2  N   UNL     1      -8.928   8.946  65.630  1.00  0.00    -0.193 N  
HETATM    3  C   UNL     1      -8.679   9.518  64.237  1.00  0.00    -0.207 C  
ENDROOT
BRANCH   2   4
HETATM    4  C   UNL     1      -7.699   9.065  66.507  1.00  0.00    -0.096 C  
BRANCH   4   5
HETATM    5  C   UNL     1      -6.705  10.165  66.137  1.00  0.00    -0.106 C  
BRANCH   5   6
HETATM    6  C   UNL     1      -6.403  11.012  67.381  1.00  0.00    -0.063 C  
BRANCH   6   7
HETATM    7  C   UNL     1      -6.186  10.189  68.664  1.00  0.00    -0.044 C  
BRANCH   7   8
HETATM    8  C   UNL     1      -7.202  10.486  69.777  1.00  0.00    -0.152 C  
BRANCH   8   9
HETATM    9  C   UNL     1      -6.804   9.695  71.024  1.00  0.00     0.010 C  
BRANCH   9  10
HETATM   10  N   UNL     1      -7.301   8.260  71.074  1.00  0.00    -0.057 N  
HETATM   11  C   UNL     1      -8.035   7.883  69.791  1.00  0.00    -0.114 C  
HETATM   12  C   UNL     1      -6.159   7.266  71.227  1.00  0.00    -0.036 C  
BRANCH  10  13
HETATM   13  C   UNL     1      -8.292   8.153  72.333  1.00  0.00    -0.170 C  
HETATM   14  C   UNL     1      -8.286   6.776  73.025  1.00  0.00    -0.115 A  
HETATM   15  C   UNL     1      -9.572   6.194  72.959  1.00  0.00    -0.150 A  
HETATM   16  C   UNL     1     -10.489   7.127  72.350  1.00  0.00    -0.247 A  
HETATM   17  C   UNL     1      -9.816   4.924  73.462  1.00  0.00    -0.167 A  
HETATM   18  C   UNL     1      -9.792   8.302  71.987  1.00  0.00    -0.327 A  
HETATM   19  C   UNL     1      -8.762   4.224  74.047  1.00  0.00    -0.096 A  
HETATM   20  C   UNL     1      -7.493   4.809  74.149  1.00  0.00    -0.082 A  
HETATM   21  C   UNL     1     -10.494   9.377  71.453  1.00  0.00    -0.358 A  
HETATM   22  C   UNL     1     -11.873   9.247  71.238  1.00  0.00    -0.415 A  
HETATM   23  C   UNL     1      -7.253   6.096  73.659  1.00  0.00    -0.084 A  
HETATM   24  C   UNL     1     -12.550   8.076  71.592  1.00  0.00    -0.346 A  
HETATM   25  C   UNL     1     -11.860   7.006  72.161  1.00  0.00    -0.314 A  
ENDBRANCH  10  13
ENDBRANCH   9  10
ENDBRANCH   8   9
ENDBRANCH   7   8
ENDBRANCH   6   7
ENDBRANCH   5   6
ENDBRANCH   4   5
ENDBRANCH   2   4
BRANCH   2  26
HETATM   26  C   UNL     1      -9.281   7.377  65.510  1.00  0.00     0.322 C  
HETATM   27  C   UNL     1      -6.579   4.944  66.285  1.00  0.00    -0.049 A  
HETATM   28  C   UNL     1      -9.760   6.725  66.825  1.00  0.00    -0.222 A  
HETATM   29  C   UNL     1      -5.724   5.040  65.192  1.00  0.00    -0.014 A  
HETATM   30  C   UNL     1      -8.807   5.770  67.254  1.00  0.00    -0.106 A  
HETATM   31  C   UNL     1      -7.750   5.686  66.274  1.00  0.00    -0.099 A  
HETATM   32  C   UNL     1      -8.999   5.028  68.411  1.00  0.00    -0.123 A  
HETATM   33  C   UNL     1      -6.066   5.809  64.069  1.00  0.00    -0.025 A  
HETATM   34  C   UNL     1     -10.938   6.892  67.549  1.00  0.00    -0.340 A  
HETATM   35  C   UNL     1      -8.062   6.523  65.180  1.00  0.00    -0.133 A  
HETATM   36  C   UNL     1     -10.158   5.241  69.159  1.00  0.00    -0.289 A  
HETATM   37  C   UNL     1      -7.268   6.529  64.038  1.00  0.00    -0.067 A  
HETATM   38  C   UNL     1     -11.119   6.165  68.733  1.00  0.00    -0.398 A  
ENDBRANCH   2  26
TORSDOF 9
ENDMDL
MODEL      370
REMARK 921   NORMALIZED FREE ENERGY PREDICTED BY IDOCK:   -3.18 KCAL/MOL
REMARK 922        TOTAL FREE ENERGY PREDICTED BY IDOCK:   -6.61 KCAL/MOL
REMARK 923 INTER-LIGAND FREE ENERGY PREDICTED BY IDOCK:   -5.61 KCAL/MOL
REMARK 924 INTRA-LIGAND FREE ENERGY PREDICTED BY IDOCK:   -1.01 KCAL/MOL
REMARK 927      BINDING AFFINITY PREDICTED BY RF-SCORE:    0.00 PKD
ROOT
HETATM    1  C   UNL     1     -12.275  13.106  68.980  1.00  0.00    -0.073 C  
HETATM    2  N   UNL     1     -11.117  12.219  68.536  1.00  0.00    -0.232 N  
HETATM    3  C   UNL     1     -10.073  12.168  69.648  1.00  0.00     1.094 C  
ENDROOT
BRANCH   2   4
HETATM    4  C   UNL     1     -11.649  10.838  68.209  1.00  0.00    -0.221 C  
BRANCH   4   5
HETATM    5  C   UNL     1     -10.623   9.705  68.185  1.00  0.00    -0.273 C  
BRANCH   5   6
HETATM    6  C   UNL     1     -10.943   8.712  69.311  1.00  0.00     0.008 C  
BRANCH   6   7
HETATM    7  C   UNL     1     -11.593   9.354  70.550  1.00  0.00    -0.291 C  
BRANCH   7   8
HETATM    8  C   UNL     1     -11.065   8.810  71.886  1.00  0.00    -0.434 C  
BRANCH   8   9
HETATM    9  C   UNL     1      -9.626   8.334  71.684  1.00  0.00    -0.198 C  
BRANCH   9  10
HETATM   10  N   UNL     1      -9.330   6.923  72.165  1.00  0.00    -0.140 N  
HETATM   11  C   UNL     1      -9.209   6.870  73.684  1.00  0.00    -0.162 C  
HETATM   12  C   UNL     1     -10.433   5.947  71.784  1.00  0.00    -0.227 C  
BRANCH  10  13
HETATM   13  C   UNL     1      -7.946   6.478  71.482  1.00  0.00    -0.104 C  
HETATM   14  C   UNL     1      -6.960   7.638  71.244  1.00  0.00    -0.050 A  
HETATM   15  C   UNL     1      -6.692   7.772  69.863  1.00  0.00    -0.042 A  
HETATM   16  C   UNL     1      -7.357   6.713  69.142  1.00  0.00    -0.093 A  
HETATM   17  C   UNL     1      -5.875   8.783  69.380  1.00  0.00    -0.034 A  
HETATM   18  C   UNL     1      -8.086   5.911  70.050  1.00  0.00    -0.109 A  
HETATM   19  C   UNL     1      -5.309   9.675  70.290  1.00  0.00    -0.040 A  
HETATM   20  C   UNL     1      -5.540   9.528  71.664  1.00  0.00    -0.068 A  
HETATM   21  C   UNL     1      -8.744   4.777  69.587  1.00  0.00    -0.112 A  
HETATM   22  C   UNL     1      -8.711   4.485  68.217  1.00  0.00    -0.113 A  
HETATM   23  C   UNL     1      -6.348   8.496  72.151  1.00  0.00    -0.072 A  
HETATM   24  C   UNL     1      -7.995   5.291  67.326  1.00  0.00    -0.101 A  
HETATM   25  C   UNL     1      -7.302   6.411  67.787  1.00  0.00    -0.088 A  
ENDBRANCH  10  13
ENDBRANCH   9  10
ENDBRANCH   8   9
ENDBRANCH   7   8
ENDBRANCH   6   7
ENDBRANCH   5   6
ENDBRANCH   4   5
ENDBRANCH   2   4
BRANCH   2  26
HETATM   26  C   UNL     1     -10.444  12.803  67.193  1.00  0.00    -0.233 C  
HETATM   27  C   UNL     1      -8.226  10.534  65.256  1.00  0.00    -0.146 A  
HETATM   28  C   UNL     1     -11.250  12.538  65.903  1.00  0.00    -0.356 A  
HETATM   29  C   UNL     1      -7.077  10.451  66.035  1.00  0.00    -0.133 A  
HETATM   30  C   UNL     1     -10.522  11.664  65.061  1.00  0.00    -0.336 A  
HETATM   31  C   UNL     1      -9.244  11.379  65.670  1.00  0.00    -0.209 A  
HETATM   32  C   UNL     1     -11.019  11.270  63.827  1.00  0.00    -0.381 A  
HETATM   33  C   UNL     1      -6.913  11.254  67.174  1.00  0.00    -0.114 A  
HETATM   34  C   UNL     1     -12.469  13.055  65.467  1.00  0.00    -0.496 A  
HETATM   35  C   UNL     1      -9.117  12.130  66.859  1.00  0.00    -0.203 A  
HETATM   36  C   UNL     1     -12.266  11.750  63.422  1.00  0.00    -0.461 A  
HETATM   37  C   UNL     1      -7.924  12.138  67.574  1.00  0.00    -0.163 A  
HETATM   38  C   UNL     1     -12.985  12.633  64.235  1.00  0.00    -0.204 A  
ENDBRANCH   2  26
TORSDOF 9
ENDMDL
MODEL      371
REMARK 921   NORMALIZED FREE ENERGY PREDICTED BY IDOCK:   -3.17 KCAL/MOL
REMARK 922        TOTAL FREE ENERGY PREDICTED BY IDOCK:   -6.61 KCAL/MOL
REMARK 923 INTER-LIGAND FREE ENERGY PREDICTED BY IDOCK:   -7.12 KCAL/MOL
REMARK 924 INTRA-LIGAND FREE ENERGY PREDICTED BY IDOCK:    0.51 KCAL/MOL
REMARK 927      BINDING AFFINITY PREDICTED BY RF-SCORE:    0.00 PKD
ROOT
HETATM    1  C   UNL     1      -5.929  14.991  70.234  1.00  0.00    -0.150 C  
HETATM    2  N   UNL     1      -6.394  14.940  68.782  1.00  0.00    -0.081 N  
HETATM    3  C   UNL     1      -5.441  15.767  67.924  1.00  0.00    -0.135 C  
ENDROOT
BRANCH   2   4
HETATM    4  C   UNL     1      -6.442  13.496  68.328  1.00  0.00    -0.104 C  
BRANCH   4   5
HETATM    5  C   UNL     1      -6.532  12.441  69.430  1.00  0.00    -0.103 C  
BRANCH   5   6
HETATM    6  C   UNL     1      -5.775  11.182  68.986  1.00  0.00    -0.040 C  
BRANCH   6   7
HETATM    7  C   UNL     1      -6.686  10.037  68.506  1.00  0.00    -0.054 C  
BRANCH   7   8
HETATM    8  C   UNL     1      -6.962   8.968  69.575  1.00  0.00    -0.051 C  
BRANCH   8   9
HETATM    9  C   UNL     1      -8.208   9.377  70.362  1.00  0.00    -0.188 C  
BRANCH   9  10
HETATM   10  N   UNL     1      -9.270   8.299  70.512  1.00  0.00    -0.149 N  
HETATM   11  C   UNL     1     -10.434   8.785  71.369  1.00  0.00    -0.284 C  
HETATM   12  C   UNL     1      -9.861   7.890  69.172  1.00  0.00    -0.174 C  
BRANCH  10  13
HETATM   13  C   UNL     1      -8.559   7.037  71.206  1.00  0.00    -0.119 C  
HETATM   14  C   UNL     1      -8.422   5.808  70.287  1.00  0.00    -0.128 A  
HETATM   15  C   UNL     1      -9.131   4.713  70.832  1.00  0.00    -0.181 A  
HETATM   16  C   UNL     1      -9.669   5.084  72.119  1.00  0.00    -0.208 A  
HETATM   17  C   UNL     1      -9.211   3.500  70.164  1.00  0.00    -0.224 A  
HETATM   18  C   UNL     1      -9.339   6.431  72.396  1.00  0.00    -0.140 A  
HETATM   19  C   UNL     1      -8.568   3.372  68.934  1.00  0.00    -0.120 A  
HETATM   20  C   UNL     1      -7.832   4.441  68.405  1.00  0.00    -0.079 A  
HETATM   21  C   UNL     1      -9.687   6.983  73.624  1.00  0.00    -0.283 A  
HETATM   22  C   UNL     1     -10.406   6.201  74.540  1.00  0.00    -0.242 A  
HETATM   23  C   UNL     1      -7.736   5.656  69.088  1.00  0.00    -0.088 A  
HETATM   24  C   UNL     1     -10.735   4.873  74.250  1.00  0.00    -0.250 A  
HETATM   25  C   UNL     1     -10.359   4.301  73.035  1.00  0.00    -0.239 A  
ENDBRANCH  10  13
ENDBRANCH   9  10
ENDBRANCH   8   9
ENDBRANCH   7   8
ENDBRANCH   6   7
ENDBRANCH   5   6
ENDBRANCH   4   5
ENDBRANCH   2   4
BRANCH   2  26
HETATM   26  C   UNL     1      -7.888  15.534  68.649  1.00  0.00    -0.143 C  
HETATM   27  C   UNL     1      -8.399  18.396  66.334  1.00  0.00    -0.272 A  
HETATM   28  C   UNL     1      -8.723  14.918  67.507  1.00  0.00    -0.197 A  
HETATM   29  C   UNL     1      -7.817  19.469  67.001  1.00  0.00    -0.286 A  
HETATM   30  C   UNL     1      -8.987  15.906  66.528  1.00  0.00    -0.331 A  
HETATM   31  C   UNL     1      -8.442  17.167  66.973  1.00  0.00    -0.233 A  
HETATM   32  C   UNL     1      -9.733  15.617  65.394  1.00  0.00    -0.193 A  
HETATM   33  C   UNL     1      -7.350  19.337  68.318  1.00  0.00    -0.329 A  
HETATM   34  C   UNL     1      -9.262  13.642  67.357  1.00  0.00    -0.222 A  
HETATM   35  C   UNL     1      -7.903  17.009  68.268  1.00  0.00    -0.216 A  
HETATM   36  C   UNL     1     -10.223  14.322  65.225  1.00  0.00    -0.408 A  
HETATM   37  C   UNL     1      -7.429  18.106  68.982  1.00  0.00    -0.177 A  
HETATM   38  C   UNL     1      -9.989  13.342  66.197  1.00  0.00    -0.295 A  
ENDBRANCH   2  26
TORSDOF 9
ENDMDL
MODEL      372
REMARK 921   NORMALIZED FREE ENERGY PREDICTED BY IDOCK:   -3.15 KCAL/MOL
REMARK 922        TOTAL FREE ENERGY PREDICTED BY IDOCK:   -6.58 KCAL/MOL
REMARK 923 INTER-LIGAND FREE ENERGY PREDICTED BY IDOCK:   -5.32 KCAL/MOL
REMARK 924 INTRA-LIGAND FREE ENERGY PREDICTED BY IDOCK:   -1.26 KCAL/MOL
REMARK 927      BINDING AFFINITY PREDICTED BY RF-SCORE:    0.00 PKD
ROOT
HETATM    1  C   UNL     1     -10.718   5.725  70.286  1.00  0.00    -0.309 C  
HETATM    2  N   UNL     1     -10.276   6.808  69.308  1.00  0.00    -0.174 N  
HETATM    3  C   UNL     1     -10.731   6.427  67.902  1.00  0.00    -0.299 C  
ENDROOT
BRANCH   2   4
HETATM    4  C   UNL     1     -10.864   8.135  69.741  1.00  0.00    -0.190 C  
BRANCH   4   5
HETATM    5  C   UNL     1     -12.003   8.073  70.759  1.00  0.00    -0.132 C  
BRANCH   5   6
HETATM    6  C   UNL     1     -11.802   9.174  71.809  1.00  0.00    -0.453 C  
BRANCH   6   7
HETATM    7  C   UNL     1     -12.665  10.429  71.577  1.00  0.00    -0.564 C  
BRANCH   7   8
HETATM    8  C   UNL     1     -11.867  11.742  71.558  1.00  0.00     1.129 C  
BRANCH   8   9
HETATM    9  C   UNL     1     -12.436  12.641  70.461  1.00  0.00    -0.193 C  
BRANCH   9  10
HETATM   10  N   UNL     1     -11.808  14.021  70.354  1.00  0.00    -0.302 N  
HETATM   11  C   UNL     1     -12.767  15.018  69.712  1.00  0.00    -0.027 C  
HETATM   12  C   UNL     1     -11.442  14.588  71.717  1.00  0.00     0.329 C  
BRANCH  10  13
HETATM   13  C   UNL     1     -10.487  13.864  69.454  1.00  0.00     0.120 C  
HETATM   14  C   UNL     1     -10.000  15.179  68.816  1.00  0.00    -0.229 A  
HETATM   15  C   UNL     1     -10.022  15.073  67.407  1.00  0.00    -0.226 A  
HETATM   16  C   UNL     1     -10.403  13.732  67.034  1.00  0.00    -0.260 A  
HETATM   17  C   UNL     1      -9.682  16.146  66.596  1.00  0.00    -0.260 A  
HETATM   18  C   UNL     1     -10.663  12.975  68.200  1.00  0.00    -0.258 A  
HETATM   19  C   UNL     1      -9.306  17.344  67.199  1.00  0.00    -0.246 A  
HETATM   20  C   UNL     1      -9.245  17.447  68.595  1.00  0.00    -0.265 A  
HETATM   21  C   UNL     1     -10.970  11.624  68.086  1.00  0.00    -0.275 A  
HETATM   22  C   UNL     1     -11.068  11.056  66.808  1.00  0.00    -0.240 A  
HETATM   23  C   UNL     1      -9.569  16.359  69.411  1.00  0.00    -0.137 A  
HETATM   24  C   UNL     1     -10.819  11.817  65.662  1.00  0.00    -0.342 A  
HETATM   25  C   UNL     1     -10.475  13.164  65.768  1.00  0.00    -0.291 A  
ENDBRANCH  10  13
ENDBRANCH   9  10
ENDBRANCH   8   9
ENDBRANCH   7   8
ENDBRANCH   6   7
ENDBRANCH   5   6
ENDBRANCH   4   5
ENDBRANCH   2   4
BRANCH   2  26
HETATM   26  C   UNL     1      -8.672   6.965  69.330  1.00  0.00    -0.133 C  
HETATM   27  C   UNL     1      -6.830   6.218  66.190  1.00  0.00    -0.057 A  
HETATM   28  C   UNL     1      -8.156   8.351  68.886  1.00  0.00    -0.114 A  
HETATM   29  C   UNL     1      -6.893   4.832  66.091  1.00  0.00    -0.058 A  
HETATM   30  C   UNL     1      -7.435   8.221  67.675  1.00  0.00    -0.094 A  
HETATM   31  C   UNL     1      -7.371   6.824  67.312  1.00  0.00    -0.091 A  
HETATM   32  C   UNL     1      -6.853   9.320  67.060  1.00  0.00    -0.080 A  
HETATM   33  C   UNL     1      -7.423   4.054  67.132  1.00  0.00    -0.073 A  
HETATM   34  C   UNL     1      -8.245   9.597  69.502  1.00  0.00    -0.136 A  
HETATM   35  C   UNL     1      -7.977   6.052  68.326  1.00  0.00    -0.106 A  
HETATM   36  C   UNL     1      -6.993  10.574  67.656  1.00  0.00    -0.079 A  
HETATM   37  C   UNL     1      -7.936   4.662  68.286  1.00  0.00    -0.084 A  
HETATM   38  C   UNL     1      -7.683  10.713  68.866  1.00  0.00    -0.121 A  
ENDBRANCH   2  26
TORSDOF 9
ENDMDL
MODEL      373
REMARK 921   NORMALIZED FREE ENERGY PREDICTED BY IDOCK:   -3.15 KCAL/MOL
REMARK 922        TOTAL FREE ENERGY PREDICTED BY IDOCK:   -6.57 KCAL/MOL
REMARK 923 INTER-LIGAND FREE ENERGY PREDICTED BY IDOCK:   -7.19 KCAL/MOL
REMARK 924 INTRA-LIGAND FREE ENERGY PREDICTED BY IDOCK:    0.63 KCAL/MOL
REMARK 927      BINDING AFFINITY PREDICTED BY RF-SCORE:    0.00 PKD
ROOT
HETATM    1  C   UNL     1      -7.627   6.895  67.556  1.00  0.00    -0.109 C  
HETATM    2  N   UNL     1      -8.160   8.324  67.594  1.00  0.00    -0.124 N  
HETATM    3  C   UNL     1      -7.064   9.278  67.125  1.00  0.00    -0.086 C  
ENDROOT
BRANCH   2   4
HETATM    4  C   UNL     1      -9.390   8.416  66.716  1.00  0.00    -0.184 C  
BRANCH   4   5
HETATM    5  C   UNL     1      -9.872   9.825  66.370  1.00  0.00    -0.298 C  
BRANCH   5   6
HETATM    6  C   UNL     1     -11.103  10.161  67.223  1.00  0.00    -0.166 C  
BRANCH   6   7
HETATM    7  C   UNL     1     -10.777  10.911  68.527  1.00  0.00    -0.239 C  
BRANCH   7   8
HETATM    8  C   UNL     1     -11.734  12.073  68.837  1.00  0.00    -0.383 C  
BRANCH   8   9
HETATM    9  C   UNL     1     -10.936  13.199  69.495  1.00  0.00     0.085 C  
BRANCH   9  10
HETATM   10  N   UNL     1     -10.183  14.112  68.540  1.00  0.00    -0.243 N  
HETATM   11  C   UNL     1      -9.201  15.006  69.289  1.00  0.00    -0.159 C  
HETATM   12  C   UNL     1      -9.367  13.327  67.525  1.00  0.00    -0.218 C  
BRANCH  10  13
HETATM   13  C   UNL     1     -11.283  15.006  67.785  1.00  0.00    -0.321 C  
HETATM   14  C   UNL     1     -11.628  14.515  66.366  1.00  0.00    -0.370 A  
HETATM   15  C   UNL     1     -11.307  15.510  65.416  1.00  0.00    -0.141 A  
HETATM   16  C   UNL     1     -10.852  16.696  66.101  1.00  0.00    -0.024 A  
HETATM   17  C   UNL     1     -11.470  15.291  64.055  1.00  0.00     0.178 A  
HETATM   18  C   UNL     1     -10.843  16.460  67.494  1.00  0.00    -0.249 A  
HETATM   19  C   UNL     1     -11.969  14.059  63.635  1.00  0.00    -0.109 A  
HETATM   20  C   UNL     1     -12.325  13.080  64.572  1.00  0.00    -0.461 A  
HETATM   21  C   UNL     1     -10.514  17.496  68.363  1.00  0.00    -0.372 A  
HETATM   22  C   UNL     1     -10.147  18.738  67.828  1.00  0.00    -0.417 A  
HETATM   23  C   UNL     1     -12.178  13.310  65.943  1.00  0.00    -0.497 A  
HETATM   24  C   UNL     1     -10.149  18.957  66.447  1.00  0.00    -0.457 A  
HETATM   25  C   UNL     1     -10.512  17.935  65.570  1.00  0.00    -0.000 A  
ENDBRANCH  10  13
ENDBRANCH   9  10
ENDBRANCH   8   9
ENDBRANCH   7   8
ENDBRANCH   6   7
ENDBRANCH   5   6
ENDBRANCH   4   5
ENDBRANCH   2   4
BRANCH   2  26
HETATM   26  C   UNL     1      -8.609   8.717  69.092  1.00  0.00    -0.129 C  
HETATM   27  C   UNL     1      -8.723   5.995  71.621  1.00  0.00    -0.135 A  
HETATM   28  C   UNL     1      -7.442   9.068  70.040  1.00  0.00    -0.062 A  
HETATM   29  C   UNL     1      -9.846   5.258  71.263  1.00  0.00    -0.232 A  
HETATM   30  C   UNL     1      -7.355   8.094  71.063  1.00  0.00    -0.058 A  
HETATM   31  C   UNL     1      -8.434   7.147  70.905  1.00  0.00    -0.133 A  
HETATM   32  C   UNL     1      -6.393   8.178  72.059  1.00  0.00    -0.055 A  
HETATM   33  C   UNL     1     -10.713   5.702  70.252  1.00  0.00    -0.364 A  
HETATM   34  C   UNL     1      -6.579  10.161  70.057  1.00  0.00    -0.117 A  
HETATM   35  C   UNL     1      -9.259   7.555  69.835  1.00  0.00    -0.147 A  
HETATM   36  C   UNL     1      -5.497   9.247  72.038  1.00  0.00    -0.073 A  
HETATM   37  C   UNL     1     -10.445   6.886  69.553  1.00  0.00    -0.244 A  
HETATM   38  C   UNL     1      -5.587  10.230  71.045  1.00  0.00    -0.083 A  
ENDBRANCH   2  26
TORSDOF 9
ENDMDL
MODEL      374
REMARK 921   NORMALIZED FREE ENERGY PREDICTED BY IDOCK:   -3.11 KCAL/MOL
REMARK 922        TOTAL FREE ENERGY PREDICTED BY IDOCK:   -6.51 KCAL/MOL
REMARK 923 INTER-LIGAND FREE ENERGY PREDICTED BY IDOCK:   -7.30 KCAL/MOL
REMARK 924 INTRA-LIGAND FREE ENERGY PREDICTED BY IDOCK:    0.78 KCAL/MOL
REMARK 927      BINDING AFFINITY PREDICTED BY RF-SCORE:    0.00 PKD
ROOT
HETATM    1  C   UNL     1     -11.115   8.194  71.033  1.00  0.00    -0.253 C  
HETATM    2  N   UNL     1     -10.536   7.297  69.944  1.00  0.00    -0.220 N  
HETATM    3  C   UNL     1     -11.635   6.380  69.416  1.00  0.00    -0.168 C  
ENDROOT
BRANCH   2   4
HETATM    4  C   UNL     1      -9.958   8.163  68.844  1.00  0.00    -0.192 C  
BRANCH   4   5
HETATM    5  C   UNL     1      -9.019   9.285  69.287  1.00  0.00    -0.147 C  
BRANCH   5   6
HETATM    6  C   UNL     1      -8.719  10.194  68.088  1.00  0.00    -0.122 C  
BRANCH   6   7
HETATM    7  C   UNL     1      -8.715  11.697  68.424  1.00  0.00    -0.158 C  
BRANCH   7   8
HETATM    8  C   UNL     1     -10.039  12.411  68.111  1.00  0.00    -0.224 C  
BRANCH   8   9
HETATM    9  C   UNL     1      -9.770  13.912  68.003  1.00  0.00    -0.226 C  
BRANCH   9  10
HETATM   10  N   UNL     1     -10.004  14.522  66.631  1.00  0.00    -0.262 N  
HETATM   11  C   UNL     1      -9.890  13.470  65.532  1.00  0.00    -0.143 C  
HETATM   12  C   UNL     1     -11.393  15.129  66.506  1.00  0.00    -0.234 C  
BRANCH  10  13
HETATM   13  C   UNL     1      -8.889  15.659  66.429  1.00  0.00    -0.330 C  
HETATM   14  C   UNL     1      -7.730  15.592  67.443  1.00  0.00    -0.215 A  
HETATM   15  C   UNL     1      -7.682  16.782  68.203  1.00  0.00    -0.180 A  
HETATM   16  C   UNL     1      -8.675  17.706  67.710  1.00  0.00    -0.232 A  
HETATM   17  C   UNL     1      -6.760  16.949  69.227  1.00  0.00    -0.238 A  
HETATM   18  C   UNL     1      -9.393  17.104  66.652  1.00  0.00    -0.277 A  
HETATM   19  C   UNL     1      -5.866  15.913  69.493  1.00  0.00    -0.135 A  
HETATM   20  C   UNL     1      -5.883  14.745  68.720  1.00  0.00    -0.085 A  
HETATM   21  C   UNL     1     -10.352  17.843  65.967  1.00  0.00    -0.318 A  
HETATM   22  C   UNL     1     -10.620  19.155  66.380  1.00  0.00    -0.522 A  
HETATM   23  C   UNL     1      -6.800  14.587  67.677  1.00  0.00    -0.203 A  
HETATM   24  C   UNL     1      -9.909  19.737  67.435  1.00  0.00    -0.519 A  
HETATM   25  C   UNL     1      -8.921  19.016  68.104  1.00  0.00    -0.355 A  
ENDBRANCH  10  13
ENDBRANCH   9  10
ENDBRANCH   8   9
ENDBRANCH   7   8
ENDBRANCH   6   7
ENDBRANCH   5   6
ENDBRANCH   4   5
ENDBRANCH   2   4
BRANCH   2  26
HETATM   26  C   UNL     1      -9.329   6.404  70.534  1.00  0.00    -0.162 C  
HETATM   27  C   UNL     1      -5.973   6.818  68.991  1.00  0.00    -0.022 A  
HETATM   28  C   UNL     1      -8.510   7.089  71.650  1.00  0.00    -0.115 A  
HETATM   29  C   UNL     1      -6.098   6.192  67.755  1.00  0.00    -0.017 A  
HETATM   30  C   UNL     1      -7.192   7.324  71.192  1.00  0.00    -0.072 A  
HETATM   31  C   UNL     1      -7.050   6.777  69.862  1.00  0.00    -0.071 A  
HETATM   32  C   UNL     1      -6.241   7.923  72.006  1.00  0.00    -0.041 A  
HETATM   33  C   UNL     1      -7.255   5.472  67.421  1.00  0.00    -0.075 A  
HETATM   34  C   UNL     1      -8.851   7.418  72.960  1.00  0.00    -0.184 A  
HETATM   35  C   UNL     1      -8.246   6.121  69.499  1.00  0.00    -0.116 A  
HETATM   36  C   UNL     1      -6.607   8.299  73.299  1.00  0.00    -0.121 A  
HETATM   37  C   UNL     1      -8.330   5.396  68.315  1.00  0.00    -0.098 A  
HETATM   38  C   UNL     1      -7.901   8.050  73.772  1.00  0.00    -0.241 A  
ENDBRANCH   2  26
TORSDOF 9
ENDMDL
MODEL      375
REMARK 921   NORMALIZED FREE ENERGY PREDICTED BY IDOCK:   -3.11 KCAL/MOL
REMARK 922        TOTAL FREE ENERGY PREDICTED BY IDOCK:   -6.51 KCAL/MOL
REMARK 923 INTER-LIGAND FREE ENERGY PREDICTED BY IDOCK:   -6.19 KCAL/MOL
REMARK 924 INTRA-LIGAND FREE ENERGY PREDICTED BY IDOCK:   -0.32 KCAL/MOL
REMARK 927      BINDING AFFINITY PREDICTED BY RF-SCORE:    0.00 PKD
ROOT
HETATM    1  C   UNL     1      -5.381  14.082  68.421  1.00  0.00    -0.103 C  
HETATM    2  N   UNL     1      -6.773  14.593  68.065  1.00  0.00    -0.127 N  
HETATM    3  C   UNL     1      -6.706  15.342  66.737  1.00  0.00     0.791 C  
ENDROOT
BRANCH   2   4
HETATM    4  C   UNL     1      -7.727  13.418  67.992  1.00  0.00    -0.147 C  
BRANCH   4   5
HETATM    5  C   UNL     1      -8.555  13.295  66.713  1.00  0.00    -0.041 C  
BRANCH   5   6
HETATM    6  C   UNL     1     -10.028  13.079  67.084  1.00  0.00    -0.235 C  
BRANCH   6   7
HETATM    7  C   UNL     1     -10.606  11.734  66.605  1.00  0.00    -0.275 C  
BRANCH   7   8
HETATM    8  C   UNL     1     -10.946  10.759  67.742  1.00  0.00    -0.354 C  
BRANCH   8   9
HETATM    9  C   UNL     1      -9.648  10.124  68.243  1.00  0.00    -0.141 C  
BRANCH   9  10
HETATM   10  N   UNL     1      -9.306   8.771  67.639  1.00  0.00    -0.136 N  
HETATM   11  C   UNL     1     -10.513   8.157  66.938  1.00  0.00    -0.309 C  
HETATM   12  C   UNL     1      -8.206   8.876  66.593  1.00  0.00    -0.111 C  
BRANCH  10  13
HETATM   13  C   UNL     1      -8.827   7.828  68.846  1.00  0.00    -0.135 C  
HETATM   14  C   UNL     1      -9.808   7.777  70.033  1.00  0.00    -0.181 A  
HETATM   15  C   UNL     1      -9.182   8.264  71.203  1.00  0.00    -0.200 A  
HETATM   16  C   UNL     1      -7.798   8.557  70.918  1.00  0.00    -0.113 A  
HETATM   17  C   UNL     1      -9.873   8.374  72.401  1.00  0.00    -0.378 A  
HETATM   18  C   UNL     1      -7.533   8.294  69.554  1.00  0.00    -0.086 A  
HETATM   19  C   UNL     1     -11.212   7.987  72.435  1.00  0.00    -0.432 A  
HETATM   20  C   UNL     1     -11.830   7.469  71.289  1.00  0.00    -0.319 A  
HETATM   21  C   UNL     1      -6.236   8.429  69.070  1.00  0.00    -0.043 A  
HETATM   22  C   UNL     1      -5.230   8.876  69.938  1.00  0.00    -0.029 A  
HETATM   23  C   UNL     1     -11.126   7.340  70.089  1.00  0.00    -0.281 A  
HETATM   24  C   UNL     1      -5.507   9.142  71.283  1.00  0.00    -0.047 A  
HETATM   25  C   UNL     1      -6.797   8.975  71.786  1.00  0.00     0.008 A  
ENDBRANCH  10  13
ENDBRANCH   9  10
ENDBRANCH   8   9
ENDBRANCH   7   8
ENDBRANCH   6   7
ENDBRANCH   5   6
ENDBRANCH   4   5
ENDBRANCH   2   4
BRANCH   2  26
HETATM   26  C   UNL     1      -7.320  15.584  69.214  1.00  0.00    -0.202 C  
HETATM   27  C   UNL     1      -7.979  19.116  68.264  1.00  0.00    -0.361 A  
HETATM   28  C   UNL     1      -8.858  15.689  69.292  1.00  0.00    -0.264 A  
HETATM   29  C   UNL     1      -6.708  19.662  68.118  1.00  0.00    -0.299 A  
HETATM   30  C   UNL     1      -9.262  16.998  68.937  1.00  0.00    -0.215 A  
HETATM   31  C   UNL     1      -8.087  17.803  68.693  1.00  0.00    -0.277 A  
HETATM   32  C   UNL     1     -10.600  17.365  68.935  1.00  0.00    -0.243 A  
HETATM   33  C   UNL     1      -5.561  18.932  68.466  1.00  0.00    -0.200 A  
HETATM   34  C   UNL     1      -9.816  14.761  69.695  1.00  0.00     0.076 A  
HETATM   35  C   UNL     1      -6.934  17.038  68.969  1.00  0.00    -0.229 A  
HETATM   36  C   UNL     1     -11.557  16.413  69.289  1.00  0.00    -0.084 A  
HETATM   37  C   UNL     1      -5.669  17.617  68.938  1.00  0.00    -0.178 A  
HETATM   38  C   UNL     1     -11.169  15.122  69.664  1.00  0.00    -0.288 A  
ENDBRANCH   2  26
TORSDOF 9
ENDMDL
MODEL      376
REMARK 921   NORMALIZED FREE ENERGY PREDICTED BY IDOCK:   -3.09 KCAL/MOL
REMARK 922        TOTAL FREE ENERGY PREDICTED BY IDOCK:   -6.49 KCAL/MOL
REMARK 923 INTER-LIGAND FREE ENERGY PREDICTED BY IDOCK:   -5.59 KCAL/MOL
REMARK 924 INTRA-LIGAND FREE ENERGY PREDICTED BY IDOCK:   -0.90 KCAL/MOL
REMARK 927      BINDING AFFINITY PREDICTED BY RF-SCORE:    0.00 PKD
ROOT
HETATM    1  C   UNL     1     -11.385  13.858  69.947  1.00  0.00    -0.111 C  
HETATM    2  N   UNL     1     -10.765  15.244  69.801  1.00  0.00    -0.268 N  
HETATM    3  C   UNL     1     -11.248  16.130  70.945  1.00  0.00    -0.293 C  
ENDROOT
BRANCH   2   4
HETATM    4  C   UNL     1      -9.256  15.113  69.798  1.00  0.00     0.017 C  
BRANCH   4   5
HETATM    5  C   UNL     1      -8.690  13.810  69.235  1.00  0.00     0.582 C  
BRANCH   5   6
HETATM    6  C   UNL     1      -7.255  13.622  69.746  1.00  0.00     0.439 C  
BRANCH   6   7
HETATM    7  C   UNL     1      -6.573  12.335  69.246  1.00  0.00    -0.099 C  
BRANCH   7   8
HETATM    8  C   UNL     1      -6.212  11.344  70.364  1.00  0.00    -0.048 C  
BRANCH   8   9
HETATM    9  C   UNL     1      -7.255  10.226  70.378  1.00  0.00     0.035 C  
BRANCH   9  10
HETATM   10  N   UNL     1      -6.699   8.811  70.389  1.00  0.00    -0.040 N  
HETATM   11  C   UNL     1      -5.270   8.775  69.857  1.00  0.00    -0.029 C  
HETATM   12  C   UNL     1      -6.652   8.228  71.793  1.00  0.00    -0.064 C  
BRANCH  10  13
HETATM   13  C   UNL     1      -7.660   7.924  69.459  1.00  0.00    -0.099 C  
HETATM   14  C   UNL     1      -6.929   6.826  68.663  1.00  0.00    -0.080 A  
HETATM   15  C   UNL     1      -7.090   7.042  67.276  1.00  0.00    -0.084 A  
HETATM   16  C   UNL     1      -7.969   8.167  67.066  1.00  0.00    -0.104 A  
HETATM   17  C   UNL     1      -6.478   6.220  66.341  1.00  0.00    -0.047 A  
HETATM   18  C   UNL     1      -8.352   8.704  68.316  1.00  0.00    -0.127 A  
HETATM   19  C   UNL     1      -5.696   5.160  66.796  1.00  0.00    -0.018 A  
HETATM   20  C   UNL     1      -5.561   4.916  68.169  1.00  0.00    -0.016 A  
HETATM   21  C   UNL     1      -9.267   9.751  68.361  1.00  0.00    -0.130 A  
HETATM   22  C   UNL     1      -9.747  10.284  67.157  1.00  0.00    -0.210 A  
HETATM   23  C   UNL     1      -6.194   5.734  69.110  1.00  0.00    -0.036 A  
HETATM   24  C   UNL     1      -9.354   9.750  65.926  1.00  0.00    -0.260 A  
HETATM   25  C   UNL     1      -8.465   8.677  65.873  1.00  0.00    -0.158 A  
ENDBRANCH  10  13
ENDBRANCH   9  10
ENDBRANCH   8   9
ENDBRANCH   7   8
ENDBRANCH   6   7
ENDBRANCH   5   6
ENDBRANCH   4   5
ENDBRANCH   2   4
BRANCH   2  26
HETATM   26  C   UNL     1     -11.192  15.905  68.393  1.00  0.00    -0.368 C  
HETATM   27  C   UNL     1      -8.468  16.906  66.070  1.00  0.00    -0.186 A  
HETATM   28  C   UNL     1     -11.334  14.900  67.229  1.00  0.00    -0.355 A  
HETATM   29  C   UNL     1      -7.926  18.039  66.666  1.00  0.00    -0.278 A  
HETATM   30  C   UNL     1     -10.337  15.156  66.259  1.00  0.00    -0.303 A  
HETATM   31  C   UNL     1      -9.575  16.316  66.661  1.00  0.00    -0.264 A  
HETATM   32  C   UNL     1     -10.246  14.399  65.099  1.00  0.00    -0.420 A  
HETATM   33  C   UNL     1      -8.522  18.621  67.795  1.00  0.00    -0.293 A  
HETATM   34  C   UNL     1     -12.277  13.900  66.998  1.00  0.00    -0.392 A  
HETATM   35  C   UNL     1     -10.132  16.851  67.842  1.00  0.00    -0.288 A  
HETATM   36  C   UNL     1     -11.161  13.364  64.901  1.00  0.00    -0.348 A  
HETATM   37  C   UNL     1      -9.664  18.050  68.371  1.00  0.00    -0.348 A  
HETATM   38  C   UNL     1     -12.167  13.116  65.842  1.00  0.00    -0.497 A  
ENDBRANCH   2  26
TORSDOF 9
ENDMDL
MODEL      377
REMARK 921   NORMALIZED FREE ENERGY PREDICTED BY IDOCK:   -3.06 KCAL/MOL
REMARK 922        TOTAL FREE ENERGY PREDICTED BY IDOCK:   -6.43 KCAL/MOL
REMARK 923 INTER-LIGAND FREE ENERGY PREDICTED BY IDOCK:   -6.77 KCAL/MOL
REMARK 924 INTRA-LIGAND FREE ENERGY PREDICTED BY IDOCK:    0.34 KCAL/MOL
REMARK 927      BINDING AFFINITY PREDICTED BY RF-SCORE:    0.00 PKD
ROOT
HETATM    1  C   UNL     1      -6.521  14.926  70.036  1.00  0.00    -0.167 C  
HETATM    2  N   UNL     1      -7.079  14.890  68.617  1.00  0.00    -0.105 N  
HETATM    3  C   UNL     1      -6.152  15.679  67.696  1.00  0.00    -0.149 C  
ENDROOT
BRANCH   2   4
HETATM    4  C   UNL     1      -7.210  13.448  68.173  1.00  0.00    -0.113 C  
BRANCH   4   5
HETATM    5  C   UNL     1      -7.139  12.390  69.273  1.00  0.00     0.075 C  
BRANCH   5   6
HETATM    6  C   UNL     1      -5.799  11.650  69.177  1.00  0.00    -0.060 C  
BRANCH   6   7
HETATM    7  C   UNL     1      -5.921  10.184  68.721  1.00  0.00    -0.040 C  
BRANCH   7   8
HETATM    8  C   UNL     1      -5.907   9.168  69.872  1.00  0.00    -0.035 C  
BRANCH   8   9
HETATM    9  C   UNL     1      -7.013   9.537  70.861  1.00  0.00    -0.067 C  
BRANCH   9  10
HETATM   10  N   UNL     1      -8.215   8.605  70.876  1.00  0.00    -0.127 N  
HETATM   11  C   UNL     1      -8.492   8.083  72.283  1.00  0.00    -0.155 C  
HETATM   12  C   UNL     1      -9.484   9.304  70.415  1.00  0.00    -0.246 C  
BRANCH  10  13
HETATM   13  C   UNL     1      -7.872   7.385  69.890  1.00  0.00    -0.115 C  
HETATM   14  C   UNL     1      -8.717   7.360  68.602  1.00  0.00    -0.128 A  
HETATM   15  C   UNL     1      -9.474   6.169  68.540  1.00  0.00    -0.121 A  
HETATM   16  C   UNL     1      -9.130   5.325  69.660  1.00  0.00    -0.149 A  
HETATM   17  C   UNL     1     -10.362   5.930  67.502  1.00  0.00    -0.269 A  
HETATM   18  C   UNL     1      -8.175   5.983  70.468  1.00  0.00    -0.113 A  
HETATM   19  C   UNL     1     -10.494   6.893  66.503  1.00  0.00    -0.088 A  
HETATM   20  C   UNL     1      -9.720   8.060  66.537  1.00  0.00    -0.297 A  
HETATM   21  C   UNL     1      -7.635   5.322  71.566  1.00  0.00    -0.102 A  
HETATM   22  C   UNL     1      -8.092   4.033  71.875  1.00  0.00    -0.084 A  
HETATM   23  C   UNL     1      -8.811   8.290  67.573  1.00  0.00    -0.138 A  
HETATM   24  C   UNL     1      -9.045   3.396  71.073  1.00  0.00    -0.182 A  
HETATM   25  C   UNL     1      -9.566   4.038  69.949  1.00  0.00    -0.281 A  
ENDBRANCH  10  13
ENDBRANCH   9  10
ENDBRANCH   8   9
ENDBRANCH   7   8
ENDBRANCH   6   7
ENDBRANCH   5   6
ENDBRANCH   4   5
ENDBRANCH   2   4
BRANCH   2  26
HETATM   26  C   UNL     1      -8.555  15.539  68.578  1.00  0.00    -0.176 C  
HETATM   27  C   UNL     1      -9.108  18.409  66.280  1.00  0.00    -0.213 A  
HETATM   28  C   UNL     1      -9.486  14.951  67.496  1.00  0.00    -0.200 A  
HETATM   29  C   UNL     1      -8.444  19.461  66.900  1.00  0.00    -0.316 A  
HETATM   30  C   UNL     1      -9.776  15.943  66.530  1.00  0.00    -0.286 A  
HETATM   31  C   UNL     1      -9.156  17.185  66.930  1.00  0.00    -0.254 A  
HETATM   32  C   UNL     1     -10.604  15.678  65.449  1.00  0.00    -0.436 A  
HETATM   33  C   UNL     1      -7.897  19.318  68.185  1.00  0.00    -0.343 A  
HETATM   34  C   UNL     1     -10.081  13.695  67.390  1.00  0.00    -0.241 A  
HETATM   35  C   UNL     1      -8.539  17.013  68.188  1.00  0.00    -0.228 A  
HETATM   36  C   UNL     1     -11.152  14.401  65.321  1.00  0.00    -0.344 A  
HETATM   37  C   UNL     1      -7.979  18.094  68.861  1.00  0.00    -0.189 A  
HETATM   38  C   UNL     1     -10.893  13.418  66.282  1.00  0.00    -0.294 A  
ENDBRANCH   2  26
TORSDOF 9
ENDMDL
MODEL      378
REMARK 921   NORMALIZED FREE ENERGY PREDICTED BY IDOCK:   -3.04 KCAL/MOL
REMARK 922        TOTAL FREE ENERGY PREDICTED BY IDOCK:   -6.41 KCAL/MOL
REMARK 923 INTER-LIGAND FREE ENERGY PREDICTED BY IDOCK:   -6.31 KCAL/MOL
REMARK 924 INTRA-LIGAND FREE ENERGY PREDICTED BY IDOCK:   -0.10 KCAL/MOL
REMARK 927      BINDING AFFINITY PREDICTED BY RF-SCORE:    0.00 PKD
ROOT
HETATM    1  C   UNL     1      -8.863  13.000  69.144  1.00  0.00     0.710 C  
HETATM    2  N   UNL     1      -8.319  14.289  68.538  1.00  0.00    -0.155 N  
HETATM    3  C   UNL     1      -7.331  14.922  69.514  1.00  0.00    -0.178 C  
ENDROOT
BRANCH   2   4
HETATM    4  C   UNL     1      -7.662  13.972  67.210  1.00  0.00    -0.098 C  
BRANCH   4   5
HETATM    5  C   UNL     1      -6.404  13.106  67.266  1.00  0.00     0.091 C  
BRANCH   5   6
HETATM    6  C   UNL     1      -6.682  11.866  68.126  1.00  0.00    -0.062 C  
BRANCH   6   7
HETATM    7  C   UNL     1      -5.423  11.238  68.750  1.00  0.00    -0.043 C  
BRANCH   7   8
HETATM    8  C   UNL     1      -5.244   9.746  68.430  1.00  0.00    -0.033 C  
BRANCH   8   9
HETATM    9  C   UNL     1      -6.587   9.183  67.965  1.00  0.00    -0.060 C  
BRANCH   9  10
HETATM   10  N   UNL     1      -7.025   7.892  68.639  1.00  0.00    -0.069 N  
HETATM   11  C   UNL     1      -6.063   6.751  68.325  1.00  0.00    -0.029 C  
HETATM   12  C   UNL     1      -7.061   8.024  70.154  1.00  0.00    -0.049 C  
BRANCH  10  13
HETATM   13  C   UNL     1      -8.492   7.550  68.084  1.00  0.00    -0.124 C  
HETATM   14  C   UNL     1      -9.260   8.771  67.539  1.00  0.00    -0.154 A  
HETATM   15  C   UNL     1     -10.443   8.971  68.284  1.00  0.00    -0.247 A  
HETATM   16  C   UNL     1     -10.589   7.907  69.248  1.00  0.00    -0.195 A  
HETATM   17  C   UNL     1     -11.286  10.044  68.028  1.00  0.00    -0.190 A  
HETATM   18  C   UNL     1      -9.482   7.032  69.153  1.00  0.00    -0.143 A  
HETATM   19  C   UNL     1     -10.945  10.929  67.007  1.00  0.00    -0.310 A  
HETATM   20  C   UNL     1      -9.793  10.716  66.239  1.00  0.00    -0.263 A  
HETATM   21  C   UNL     1      -9.448   5.883  69.935  1.00  0.00    -0.180 A  
HETATM   22  C   UNL     1     -10.492   5.647  70.840  1.00  0.00    -0.323 A  
HETATM   23  C   UNL     1      -8.956   9.624  66.486  1.00  0.00    -0.171 A  
HETATM   24  C   UNL     1     -11.577   6.524  70.932  1.00  0.00    -0.417 A  
HETATM   25  C   UNL     1     -11.637   7.661  70.126  1.00  0.00    -0.005 A  
ENDBRANCH  10  13
ENDBRANCH   9  10
ENDBRANCH   8   9
ENDBRANCH   7   8
ENDBRANCH   6   7
ENDBRANCH   5   6
ENDBRANCH   4   5
ENDBRANCH   2   4
BRANCH   2  26
HETATM   26  C   UNL     1      -9.521  15.323  68.243  1.00  0.00    -0.205 C  
HETATM   27  C   UNL     1     -12.555  13.994  66.556  1.00  0.00    -0.214 A  
HETATM   28  C   UNL     1     -10.596  15.389  69.348  1.00  0.00    -0.251 A  
HETATM   29  C   UNL     1     -12.141  13.790  65.244  1.00  0.00    -0.425 A  
HETATM   30  C   UNL     1     -11.823  14.893  68.845  1.00  0.00    -0.334 A  
HETATM   31  C   UNL     1     -11.660  14.563  67.448  1.00  0.00    -0.406 A  
HETATM   32  C   UNL     1     -12.963  14.851  69.635  1.00  0.00     0.327 A  
HETATM   33  C   UNL     1     -10.877  14.215  64.807  1.00  0.00    -0.426 A  
HETATM   34  C   UNL     1     -10.539  15.890  70.647  1.00  0.00    -0.010 A  
HETATM   35  C   UNL     1     -10.359  14.921  67.034  1.00  0.00    -0.264 A  
HETATM   36  C   UNL     1     -12.883  15.305  70.952  1.00  0.00    -0.511 A  
HETATM   37  C   UNL     1      -9.985  14.828  65.698  1.00  0.00    -0.390 A  
HETATM   38  C   UNL     1     -11.682  15.819  71.455  1.00  0.00    -0.508 A  
ENDBRANCH   2  26
TORSDOF 9
ENDMDL
MODEL      379
REMARK 921   NORMALIZED FREE ENERGY PREDICTED BY IDOCK:   -3.01 KCAL/MOL
REMARK 922        TOTAL FREE ENERGY PREDICTED BY IDOCK:   -6.37 KCAL/MOL
REMARK 923 INTER-LIGAND FREE ENERGY PREDICTED BY IDOCK:   -6.65 KCAL/MOL
REMARK 924 INTRA-LIGAND FREE ENERGY PREDICTED BY IDOCK:    0.28 KCAL/MOL
REMARK 927      BINDING AFFINITY PREDICTED BY RF-SCORE:    0.00 PKD
ROOT
HETATM    1  C   UNL     1      -8.807   9.855  68.614  1.00  0.00    -0.128 C  
HETATM    2  N   UNL     1      -8.237   9.588  67.225  1.00  0.00    -0.113 N  
HETATM    3  C   UNL     1      -6.860   8.945  67.365  1.00  0.00    -0.070 C  
ENDROOT
BRANCH   2   4
HETATM    4  C   UNL     1      -9.192   8.694  66.462  1.00  0.00    -0.187 C  
BRANCH   4   5
HETATM    5  C   UNL     1      -8.749   7.246  66.256  1.00  0.00    -0.162 C  
BRANCH   5   6
HETATM    6  C   UNL     1      -8.574   6.573  67.624  1.00  0.00    -0.116 C  
BRANCH   6   7
HETATM    7  C   UNL     1      -8.722   5.041  67.594  1.00  0.00    -0.103 C  
BRANCH   7   8
HETATM    8  C   UNL     1      -9.380   4.451  68.851  1.00  0.00    -0.216 C  
BRANCH   8   9
HETATM    9  C   UNL     1      -8.778   5.132  70.081  1.00  0.00    -0.111 C  
BRANCH   9  10
HETATM   10  N   UNL     1      -8.825   4.322  71.366  1.00  0.00    -0.110 N  
HETATM   11  C   UNL     1      -9.882   3.225  71.290  1.00  0.00    -0.099 C  
HETATM   12  C   UNL     1      -7.501   3.629  71.651  1.00  0.00    -0.052 C  
BRANCH  10  13
HETATM   13  C   UNL     1      -9.173   5.347  72.552  1.00  0.00    -0.136 C  
HETATM   14  C   UNL     1     -10.275   6.366  72.201  1.00  0.00    -0.207 A  
HETATM   15  C   UNL     1      -9.762   7.680  72.273  1.00  0.00    -0.226 A  
HETATM   16  C   UNL     1      -8.399   7.637  72.746  1.00  0.00    -0.167 A  
HETATM   17  C   UNL     1     -10.542   8.780  71.945  1.00  0.00    -0.425 A  
HETATM   18  C   UNL     1      -8.015   6.292  72.949  1.00  0.00    -0.104 A  
HETATM   19  C   UNL     1     -11.860   8.566  71.545  1.00  0.00    -0.353 A  
HETATM   20  C   UNL     1     -12.388   7.268  71.507  1.00  0.00    -0.397 A  
HETATM   21  C   UNL     1      -6.761   6.010  73.483  1.00  0.00    -0.075 A  
HETATM   22  C   UNL     1      -5.888   7.071  73.759  1.00  0.00    -0.058 A  
HETATM   23  C   UNL     1     -11.606   6.163  71.856  1.00  0.00    -0.352 A  
HETATM   24  C   UNL     1      -6.276   8.397  73.545  1.00  0.00    -0.126 A  
HETATM   25  C   UNL     1      -7.544   8.691  73.043  1.00  0.00     0.054 A  
ENDBRANCH  10  13
ENDBRANCH   9  10
ENDBRANCH   8   9
ENDBRANCH   7   8
ENDBRANCH   6   7
ENDBRANCH   5   6
ENDBRANCH   4   5
ENDBRANCH   2   4
BRANCH   2  26
HETATM   26  C   UNL     1      -8.104  10.965  66.397  1.00  0.00    -0.164 C  
HETATM   27  C   UNL     1     -10.898  13.403  66.659  1.00  0.00    -0.285 A  
HETATM   28  C   UNL     1      -7.480  12.133  67.189  1.00  0.00    -0.129 A  
HETATM   29  C   UNL     1     -11.917  12.819  65.913  1.00  0.00    -0.506 A  
HETATM   30  C   UNL     1      -8.448  13.147  67.380  1.00  0.00    -0.201 A  
HETATM   31  C   UNL     1      -9.667  12.767  66.704  1.00  0.00    -0.252 A  
HETATM   32  C   UNL     1      -8.143  14.319  68.058  1.00  0.00    -0.145 A  
HETATM   33  C   UNL     1     -11.691  11.656  65.162  1.00  0.00    -0.046 A  
HETATM   34  C   UNL     1      -6.179  12.332  67.647  1.00  0.00    -0.120 A  
HETATM   35  C   UNL     1      -9.457  11.554  66.014  1.00  0.00    -0.249 A  
HETATM   36  C   UNL     1      -6.852  14.486  68.560  1.00  0.00    -0.096 A  
HETATM   37  C   UNL     1     -10.436  11.033  65.174  1.00  0.00    -0.329 A  
HETATM   38  C   UNL     1      -5.879  13.502  68.358  1.00  0.00    -0.092 A  
ENDBRANCH   2  26
TORSDOF 9
ENDMDL
MODEL      380
REMARK 921   NORMALIZED FREE ENERGY PREDICTED BY IDOCK:   -3.01 KCAL/MOL
REMARK 922        TOTAL FREE ENERGY PREDICTED BY IDOCK:   -6.36 KCAL/MOL
REMARK 923 INTER-LIGAND FREE ENERGY PREDICTED BY IDOCK:   -6.35 KCAL/MOL
REMARK 924 INTRA-LIGAND FREE ENERGY PREDICTED BY IDOCK:   -0.01 KCAL/MOL
REMARK 927      BINDING AFFINITY PREDICTED BY RF-SCORE:    0.00 PKD
ROOT
HETATM    1  C   UNL     1     -10.580   7.181  71.208  1.00  0.00    -0.213 C  
HETATM    2  N   UNL     1      -9.759   6.276  70.297  1.00  0.00    -0.163 N  
HETATM    3  C   UNL     1     -10.705   5.388  69.492  1.00  0.00    -0.179 C  
ENDROOT
BRANCH   2   4
HETATM    4  C   UNL     1      -8.897   7.133  69.393  1.00  0.00    -0.136 C  
BRANCH   4   5
HETATM    5  C   UNL     1      -8.209   8.330  70.048  1.00  0.00    -0.119 C  
BRANCH   5   6
HETATM    6  C   UNL     1      -7.729   9.296  68.957  1.00  0.00    -0.075 C  
BRANCH   6   7
HETATM    7  C   UNL     1      -8.213  10.746  69.143  1.00  0.00    -0.124 C  
BRANCH   7   8
HETATM    8  C   UNL     1      -9.662  10.984  68.693  1.00  0.00    -0.198 C  
BRANCH   8   9
HETATM    9  C   UNL     1      -9.833  12.468  68.367  1.00  0.00    -0.202 C  
BRANCH   9  10
HETATM   10  N   UNL     1      -9.814  12.820  66.888  1.00  0.00    -0.231 N  
HETATM   11  C   UNL     1      -9.316  11.648  66.047  1.00  0.00    -0.227 C  
HETATM   12  C   UNL     1     -11.200  13.168  66.367  1.00  0.00    -0.300 C  
BRANCH  10  13
HETATM   13  C   UNL     1      -8.832  14.079  66.720  1.00  0.00    -0.157 C  
HETATM   14  C   UNL     1      -7.556  14.002  67.581  1.00  0.00    -0.191 A  
HETATM   15  C   UNL     1      -7.515  15.087  68.486  1.00  0.00    -0.119 A  
HETATM   16  C   UNL     1      -8.636  15.961  68.236  1.00  0.00    -0.176 A  
HETATM   17  C   UNL     1      -6.492  15.215  69.414  1.00  0.00    -0.136 A  
HETATM   18  C   UNL     1      -9.425  15.427  67.192  1.00  0.00    -0.221 A  
HETATM   19  C   UNL     1      -5.487  14.249  69.436  1.00  0.00    -0.086 A  
HETATM   20  C   UNL     1      -5.501  13.191  68.518  1.00  0.00    -0.068 A  
HETATM   21  C   UNL     1     -10.521  16.146  66.725  1.00  0.00    -0.294 A  
HETATM   22  C   UNL     1     -10.846  17.363  67.339  1.00  0.00    -0.165 A  
HETATM   23  C   UNL     1      -6.522  13.074  67.571  1.00  0.00    -0.159 A  
HETATM   24  C   UNL     1     -10.063  17.876  68.378  1.00  0.00    -0.385 A  
HETATM   25  C   UNL     1      -8.942  17.180  68.830  1.00  0.00    -0.233 A  
ENDBRANCH  10  13
ENDBRANCH   9  10
ENDBRANCH   8   9
ENDBRANCH   7   8
ENDBRANCH   6   7
ENDBRANCH   5   6
ENDBRANCH   4   5
ENDBRANCH   2   4
BRANCH   2  26
HETATM   26  C   UNL     1      -8.767   5.351  71.169  1.00  0.00    -0.129 C  
HETATM   27  C   UNL     1     -10.204   2.314  72.760  1.00  0.00    -0.225 A  
HETATM   28  C   UNL     1      -8.109   4.196  70.383  1.00  0.00    -0.060 A  
HETATM   29  C   UNL     1     -10.973   2.820  73.802  1.00  0.00    -0.308 A  
HETATM   30  C   UNL     1      -8.581   2.957  70.879  1.00  0.00    -0.111 A  
HETATM   31  C   UNL     1      -9.461   3.202  71.997  1.00  0.00    -0.203 A  
HETATM   32  C   UNL     1      -8.138   1.753  70.351  1.00  0.00    -0.054 A  
HETATM   33  C   UNL     1     -10.945   4.184  74.128  1.00  0.00    -0.180 A  
HETATM   34  C   UNL     1      -7.144   4.211  69.378  1.00  0.00    -0.050 A  
HETATM   35  C   UNL     1      -9.491   4.587  72.271  1.00  0.00    -0.179 A  
HETATM   36  C   UNL     1      -7.212   1.778  69.307  1.00  0.00    -0.036 A  
HETATM   37  C   UNL     1     -10.165   5.079  73.384  1.00  0.00    -0.218 A  
HETATM   38  C   UNL     1      -6.720   2.996  68.824  1.00  0.00    -0.037 A  
ENDBRANCH   2  26
TORSDOF 9
ENDMDL
MODEL      381
REMARK 921   NORMALIZED FREE ENERGY PREDICTED BY IDOCK:   -2.99 KCAL/MOL
REMARK 922        TOTAL FREE ENERGY PREDICTED BY IDOCK:   -6.33 KCAL/MOL
REMARK 923 INTER-LIGAND FREE ENERGY PREDICTED BY IDOCK:   -6.85 KCAL/MOL
REMARK 924 INTRA-LIGAND FREE ENERGY PREDICTED BY IDOCK:    0.52 KCAL/MOL
REMARK 927      BINDING AFFINITY PREDICTED BY RF-SCORE:    0.00 PKD
ROOT
HETATM    1  C   UNL     1      -9.138   6.623  71.936  1.00  0.00    -0.143 C  
HETATM    2  N   UNL     1      -9.361   6.570  70.428  1.00  0.00    -0.162 N  
HETATM    3  C   UNL     1     -10.739   5.976  70.149  1.00  0.00    -0.311 C  
ENDROOT
BRANCH   2   4
HETATM    4  C   UNL     1      -9.233   7.968  69.860  1.00  0.00    -0.152 C  
BRANCH   4   5
HETATM    5  C   UNL     1      -8.078   8.201  68.886  1.00  0.00    -0.116 C  
BRANCH   5   6
HETATM    6  C   UNL     1      -7.319   9.470  69.298  1.00  0.00    -0.072 C  
BRANCH   6   7
HETATM    7  C   UNL     1      -7.146  10.495  68.163  1.00  0.00    -0.082 C  
BRANCH   7   8
HETATM    8  C   UNL     1      -8.465  10.932  67.508  1.00  0.00    -0.123 C  
BRANCH   8   9
HETATM    9  C   UNL     1      -9.393  11.472  68.596  1.00  0.00    -0.137 C  
BRANCH   9  10
HETATM   10  N   UNL     1     -10.152  12.740  68.240  1.00  0.00    -0.234 N  
HETATM   11  C   UNL     1     -11.656  12.490  68.188  1.00  0.00    -0.340 C  
HETATM   12  C   UNL     1      -9.932  13.843  69.264  1.00  0.00     0.255 C  
BRANCH  10  13
HETATM   13  C   UNL     1      -9.619  13.214  66.802  1.00  0.00    -0.249 C  
HETATM   14  C   UNL     1      -9.325  14.724  66.705  1.00  0.00    -0.291 A  
HETATM   15  C   UNL     1     -10.150  15.317  65.723  1.00  0.00    -0.384 A  
HETATM   16  C   UNL     1     -10.927  14.292  65.067  1.00  0.00    -0.394 A  
HETATM   17  C   UNL     1     -10.119  16.683  65.482  1.00  0.00    -0.163 A  
HETATM   18  C   UNL     1     -10.633  13.037  65.647  1.00  0.00    -0.297 A  
HETATM   19  C   UNL     1      -9.245  17.472  66.229  1.00  0.00    -0.228 A  
HETATM   20  C   UNL     1      -8.398  16.887  67.179  1.00  0.00    -0.217 A  
HETATM   21  C   UNL     1     -11.208  11.886  65.118  1.00  0.00    -0.346 A  
HETATM   22  C   UNL     1     -12.110  12.007  64.052  1.00  0.00    -0.506 A  
HETATM   23  C   UNL     1      -8.417  15.508  67.406  1.00  0.00    -0.199 A  
HETATM   24  C   UNL     1     -12.400  13.256  63.493  1.00  0.00    -0.442 A  
HETATM   25  C   UNL     1     -11.801  14.411  63.994  1.00  0.00    -0.222 A  
ENDBRANCH  10  13
ENDBRANCH   9  10
ENDBRANCH   8   9
ENDBRANCH   7   8
ENDBRANCH   6   7
ENDBRANCH   5   6
ENDBRANCH   4   5
ENDBRANCH   2   4
BRANCH   2  26
HETATM   26  C   UNL     1      -8.231   5.661  69.724  1.00  0.00    -0.106 C  
HETATM   27  C   UNL     1      -8.189   2.035  70.539  1.00  0.00    -0.060 A  
HETATM   28  C   UNL     1      -8.672   4.998  68.402  1.00  0.00    -0.107 A  
HETATM   29  C   UNL     1      -7.697   1.993  71.839  1.00  0.00    -0.041 A  
HETATM   30  C   UNL     1      -8.716   3.593  68.569  1.00  0.00    -0.137 A  
HETATM   31  C   UNL     1      -8.263   3.262  69.900  1.00  0.00    -0.073 A  
HETATM   32  C   UNL     1      -9.075   2.753  67.525  1.00  0.00    -0.213 A  
HETATM   33  C   UNL     1      -7.215   3.151  72.469  1.00  0.00    -0.044 A  
HETATM   34  C   UNL     1      -8.948   5.550  67.153  1.00  0.00    -0.112 A  
HETATM   35  C   UNL     1      -7.852   4.442  70.558  1.00  0.00    -0.053 A  
HETATM   36  C   UNL     1      -9.402   3.318  66.291  1.00  0.00    -0.135 A  
HETATM   37  C   UNL     1      -7.250   4.387  71.811  1.00  0.00    -0.063 A  
HETATM   38  C   UNL     1      -9.340   4.704  66.107  1.00  0.00    -0.153 A  
ENDBRANCH   2  26
TORSDOF 9
ENDMDL
MODEL      382
REMARK 921   NORMALIZED FREE ENERGY PREDICTED BY IDOCK:   -2.97 KCAL/MOL
REMARK 922        TOTAL FREE ENERGY PREDICTED BY IDOCK:   -6.30 KCAL/MOL
REMARK 923 INTER-LIGAND FREE ENERGY PREDICTED BY IDOCK:   -5.24 KCAL/MOL
REMARK 924 INTRA-LIGAND FREE ENERGY PREDICTED BY IDOCK:   -1.06 KCAL/MOL
REMARK 927      BINDING AFFINITY PREDICTED BY RF-SCORE:    0.00 PKD
ROOT
HETATM    1  C   UNL     1     -10.361  10.348  64.878  1.00  0.00    -0.168 C  
HETATM    2  N   UNL     1      -9.991  10.956  66.227  1.00  0.00    -0.219 N  
HETATM    3  C   UNL     1     -11.250  11.514  66.885  1.00  0.00    -0.298 C  
ENDROOT
BRANCH   2   4
HETATM    4  C   UNL     1      -9.340   9.894  67.087  1.00  0.00    -0.146 C  
BRANCH   4   5
HETATM    5  C   UNL     1      -9.607   8.442  66.691  1.00  0.00    -0.294 C  
BRANCH   5   6
HETATM    6  C   UNL     1     -10.924   7.979  67.329  1.00  0.00     0.030 C  
BRANCH   6   7
HETATM    7  C   UNL     1     -10.828   6.625  68.056  1.00  0.00    -0.345 C  
BRANCH   7   8
HETATM    8  C   UNL     1     -10.356   5.467  67.163  1.00  0.00    -0.301 C  
BRANCH   8   9
HETATM    9  C   UNL     1      -9.632   4.443  68.037  1.00  0.00    -0.148 C  
BRANCH   9  10
HETATM   10  N   UNL     1      -8.511   3.676  67.353  1.00  0.00    -0.094 N  
HETATM   11  C   UNL     1      -8.687   2.170  67.524  1.00  0.00    -0.119 C  
HETATM   12  C   UNL     1      -8.470   3.940  65.856  1.00  0.00    -0.110 C  
BRANCH  10  13
HETATM   13  C   UNL     1      -7.137   4.154  68.032  1.00  0.00    -0.059 C  
HETATM   14  C   UNL     1      -7.169   4.174  69.573  1.00  0.00    -0.050 A  
HETATM   15  C   UNL     1      -6.947   5.487  70.046  1.00  0.00    -0.061 A  
HETATM   16  C   UNL     1      -6.667   6.357  68.929  1.00  0.00    -0.060 A  
HETATM   17  C   UNL     1      -6.983   5.783  71.401  1.00  0.00    -0.071 A  
HETATM   18  C   UNL     1      -6.741   5.617  67.726  1.00  0.00    -0.058 A  
HETATM   19  C   UNL     1      -7.239   4.750  72.301  1.00  0.00    -0.080 A  
HETATM   20  C   UNL     1      -7.424   3.439  71.843  1.00  0.00    -0.052 A  
HETATM   21  C   UNL     1      -6.428   6.236  66.521  1.00  0.00    -0.047 A  
HETATM   22  C   UNL     1      -6.095   7.597  66.523  1.00  0.00    -0.044 A  
HETATM   23  C   UNL     1      -7.367   3.140  70.479  1.00  0.00    -0.040 A  
HETATM   24  C   UNL     1      -6.034   8.321  67.718  1.00  0.00    -0.047 A  
HETATM   25  C   UNL     1      -6.312   7.700  68.935  1.00  0.00    -0.036 A  
ENDBRANCH  10  13
ENDBRANCH   9  10
ENDBRANCH   8   9
ENDBRANCH   7   8
ENDBRANCH   6   7
ENDBRANCH   5   6
ENDBRANCH   4   5
ENDBRANCH   2   4
BRANCH   2  26
HETATM   26  C   UNL     1      -8.916  12.142  66.033  1.00  0.00     0.020 C  
HETATM   27  C   UNL     1      -9.898  15.550  67.145  1.00  0.00    -0.236 A  
HETATM   28  C   UNL     1      -8.007  12.390  67.256  1.00  0.00    -0.178 A  
HETATM   29  C   UNL     1     -10.819  15.958  66.185  1.00  0.00    -0.208 A  
HETATM   30  C   UNL     1      -8.284  13.666  67.801  1.00  0.00    -0.179 A  
HETATM   31  C   UNL     1      -9.273  14.324  66.979  1.00  0.00    -0.249 A  
HETATM   32  C   UNL     1      -7.595  14.144  68.907  1.00  0.00    -0.098 A  
HETATM   33  C   UNL     1     -11.060  15.188  65.038  1.00  0.00    -0.428 A  
HETATM   34  C   UNL     1      -6.989  11.614  67.808  1.00  0.00    -0.084 A  
HETATM   35  C   UNL     1      -9.570  13.508  65.866  1.00  0.00    -0.132 A  
HETATM   36  C   UNL     1      -6.615  13.338  69.487  1.00  0.00    -0.040 A  
HETATM   37  C   UNL     1     -10.400  13.966  64.848  1.00  0.00    -0.430 A  
HETATM   38  C   UNL     1      -6.315  12.083  68.944  1.00  0.00    -0.081 A  
ENDBRANCH   2  26
TORSDOF 9
ENDMDL
MODEL      383
REMARK 921   NORMALIZED FREE ENERGY PREDICTED BY IDOCK:   -2.92 KCAL/MOL
REMARK 922        TOTAL FREE ENERGY PREDICTED BY IDOCK:   -6.22 KCAL/MOL
REMARK 923 INTER-LIGAND FREE ENERGY PREDICTED BY IDOCK:   -6.01 KCAL/MOL
REMARK 924 INTRA-LIGAND FREE ENERGY PREDICTED BY IDOCK:   -0.21 KCAL/MOL
REMARK 927      BINDING AFFINITY PREDICTED BY RF-SCORE:    0.00 PKD
ROOT
HETATM    1  C   UNL     1      -6.763   6.262  71.133  1.00  0.00    -0.055 C  
HETATM    2  N   UNL     1      -7.494   7.436  70.490  1.00  0.00    -0.080 N  
HETATM    3  C   UNL     1      -7.679   8.538  71.530  1.00  0.00    -0.118 C  
ENDROOT
BRANCH   2   4
HETATM    4  C   UNL     1      -6.695   7.925  69.300  1.00  0.00    -0.044 C  
BRANCH   4   5
HETATM    5  C   UNL     1      -6.645   9.438  69.091  1.00  0.00    -0.049 C  
BRANCH   5   6
HETATM    6  C   UNL     1      -5.970   9.740  67.747  1.00  0.00    -0.050 C  
BRANCH   6   7
HETATM    7  C   UNL     1      -6.292  11.135  67.180  1.00  0.00    -0.083 C  
BRANCH   7   8
HETATM    8  C   UNL     1      -7.537  11.789  67.800  1.00  0.00    -0.127 C  
BRANCH   8   9
HETATM    9  C   UNL     1      -7.782  13.127  67.103  1.00  0.00    -0.019 C  
BRANCH   9  10
HETATM   10  N   UNL     1      -9.191  13.684  67.230  1.00  0.00    -0.223 N  
HETATM   11  C   UNL     1      -9.726  14.149  65.880  1.00  0.00    -0.241 C  
HETATM   12  C   UNL     1     -10.170  12.641  67.748  1.00  0.00    -0.222 C  
BRANCH  10  13
HETATM   13  C   UNL     1      -9.114  14.919  68.252  1.00  0.00    -0.179 C  
HETATM   14  C   UNL     1     -10.275  14.972  69.265  1.00  0.00    -0.244 A  
HETATM   15  C   UNL     1     -11.009  16.168  69.101  1.00  0.00    -0.309 A  
HETATM   16  C   UNL     1     -10.368  16.989  68.102  1.00  0.00    -0.347 A  
HETATM   17  C   UNL     1     -12.142  16.430  69.858  1.00  0.00     0.491 A  
HETATM   18  C   UNL     1      -9.237  16.312  67.591  1.00  0.00    -0.206 A  
HETATM   19  C   UNL     1     -12.547  15.486  70.800  1.00  0.00    -0.505 A  
HETATM   20  C   UNL     1     -11.804  14.314  70.994  1.00  0.00    -0.306 A  
HETATM   21  C   UNL     1      -8.415  16.951  66.669  1.00  0.00    -0.285 A  
HETATM   22  C   UNL     1      -8.760  18.236  66.228  1.00  0.00    -0.199 A  
HETATM   23  C   UNL     1     -10.651  14.061  70.245  1.00  0.00     0.860 A  
HETATM   24  C   UNL     1      -9.887  18.892  66.733  1.00  0.00    -0.387 A  
HETATM   25  C   UNL     1     -10.697  18.273  67.685  1.00  0.00    -0.373 A  
ENDBRANCH  10  13
ENDBRANCH   9  10
ENDBRANCH   8   9
ENDBRANCH   7   8
ENDBRANCH   6   7
ENDBRANCH   5   6
ENDBRANCH   4   5
ENDBRANCH   2   4
BRANCH   2  26
HETATM   26  C   UNL     1      -8.935   6.968  69.940  1.00  0.00    -0.142 C  
HETATM   27  C   UNL     1     -11.886   9.018  70.895  1.00  0.00    -0.302 A  
HETATM   28  C   UNL     1      -9.356   7.622  68.607  1.00  0.00    -0.147 A  
HETATM   29  C   UNL     1     -12.077   8.715  72.238  1.00  0.00    -0.443 A  
HETATM   30  C   UNL     1     -10.480   8.456  68.823  1.00  0.00    -0.202 A  
HETATM   31  C   UNL     1     -10.886   8.350  70.205  1.00  0.00    -0.238 A  
HETATM   32  C   UNL     1     -11.068   9.158  67.781  1.00  0.00     0.132 A  
HETATM   33  C   UNL     1     -11.332   7.708  72.869  1.00  0.00    -0.394 A  
HETATM   34  C   UNL     1      -8.858   7.462  67.315  1.00  0.00    -0.124 A  
HETATM   35  C   UNL     1     -10.079   7.391  70.854  1.00  0.00    -0.188 A  
HETATM   36  C   UNL     1     -10.529   9.034  66.500  1.00  0.00    -0.192 A  
HETATM   37  C   UNL     1     -10.347   7.003  72.163  1.00  0.00    -0.214 A  
HETATM   38  C   UNL     1      -9.433   8.195  66.268  1.00  0.00    -0.259 A  
ENDBRANCH   2  26
TORSDOF 9
ENDMDL
MODEL      384
REMARK 921   NORMALIZED FREE ENERGY PREDICTED BY IDOCK:   -2.90 KCAL/MOL
REMARK 922        TOTAL FREE ENERGY PREDICTED BY IDOCK:   -6.20 KCAL/MOL
REMARK 923 INTER-LIGAND FREE ENERGY PREDICTED BY IDOCK:   -6.53 KCAL/MOL
REMARK 924 INTRA-LIGAND FREE ENERGY PREDICTED BY IDOCK:    0.34 KCAL/MOL
REMARK 927      BINDING AFFINITY PREDICTED BY RF-SCORE:    0.00 PKD
ROOT
HETATM    1  C   UNL     1     -10.270  11.174  68.931  1.00  0.00    -0.194 C  
HETATM    2  N   UNL     1      -9.435  10.837  67.699  1.00  0.00    -0.153 N  
HETATM    3  C   UNL     1      -8.101  10.247  68.147  1.00  0.00    -0.110 C  
ENDROOT
BRANCH   2   4
HETATM    4  C   UNL     1     -10.207   9.868  66.829  1.00  0.00    -0.236 C  
BRANCH   4   5
HETATM    5  C   UNL     1      -9.702   8.425  66.806  1.00  0.00    -0.309 C  
BRANCH   5   6
HETATM    6  C   UNL     1     -10.783   7.503  67.384  1.00  0.00    -0.331 C  
BRANCH   6   7
HETATM    7  C   UNL     1     -10.450   6.003  67.282  1.00  0.00    -0.319 C  
BRANCH   7   8
HETATM    8  C   UNL     1     -10.375   5.285  68.638  1.00  0.00    -0.193 C  
BRANCH   8   9
HETATM    9  C   UNL     1      -9.155   5.807  69.399  1.00  0.00    -0.126 C  
BRANCH   9  10
HETATM   10  N   UNL     1      -9.119   5.479  70.883  1.00  0.00    -0.142 N  
HETATM   11  C   UNL     1      -9.621   6.650  71.720  1.00  0.00    -0.158 C  
HETATM   12  C   UNL     1     -10.005   4.291  71.225  1.00  0.00    -0.160 C  
BRANCH  10  13
HETATM   13  C   UNL     1      -7.592   5.148  71.251  1.00  0.00    -0.095 C  
HETATM   14  C   UNL     1      -6.741   4.686  70.051  1.00  0.00    -0.037 A  
HETATM   15  C   UNL     1      -6.257   3.377  70.274  1.00  0.00    -0.023 A  
HETATM   16  C   UNL     1      -6.641   2.944  71.596  1.00  0.00    -0.019 A  
HETATM   17  C   UNL     1      -5.509   2.710  69.315  1.00  0.00    -0.017 A  
HETATM   18  C   UNL     1      -7.405   3.957  72.219  1.00  0.00    -0.057 A  
HETATM   19  C   UNL     1      -5.232   3.362  68.114  1.00  0.00    -0.012 A  
HETATM   20  C   UNL     1      -5.676   4.673  67.900  1.00  0.00    -0.021 A  
HETATM   21  C   UNL     1      -7.818   3.790  73.537  1.00  0.00    -0.079 A  
HETATM   22  C   UNL     1      -7.510   2.594  74.199  1.00  0.00    -0.042 A  
HETATM   23  C   UNL     1      -6.414   5.351  68.876  1.00  0.00    -0.042 A  
HETATM   24  C   UNL     1      -6.762   1.594  73.568  1.00  0.00    -0.018 A  
HETATM   25  C   UNL     1      -6.313   1.768  72.259  1.00  0.00    -0.014 A  
ENDBRANCH  10  13
ENDBRANCH   9  10
ENDBRANCH   8   9
ENDBRANCH   7   8
ENDBRANCH   6   7
ENDBRANCH   5   6
ENDBRANCH   4   5
ENDBRANCH   2   4
BRANCH   2  26
HETATM   26  C   UNL     1      -9.169  12.163  66.821  1.00  0.00    -0.207 C  
HETATM   27  C   UNL     1     -12.051  14.433  66.220  1.00  0.00    -0.384 A  
HETATM   28  C   UNL     1      -8.808  13.417  67.645  1.00  0.00    -0.200 A  
HETATM   29  C   UNL     1     -12.832  13.739  65.302  1.00  0.00    -0.430 A  
HETATM   30  C   UNL     1      -9.838  14.379  67.520  1.00  0.00    -0.220 A  
HETATM   31  C   UNL     1     -10.839  13.880  66.606  1.00  0.00    -0.289 A  
HETATM   32  C   UNL     1      -9.759  15.609  68.156  1.00  0.00    -0.204 A  
HETATM   33  C   UNL     1     -12.379  12.545  64.720  1.00  0.00    -0.544 A  
HETATM   34  C   UNL     1      -7.666  13.726  68.381  1.00  0.00    -0.134 A  
HETATM   35  C   UNL     1     -10.415  12.639  66.083  1.00  0.00    -0.278 A  
HETATM   36  C   UNL     1      -8.636  15.889  68.936  1.00  0.00    -0.221 A  
HETATM   37  C   UNL     1     -11.138  12.004  65.078  1.00  0.00    -0.368 A  
HETATM   38  C   UNL     1      -7.599  14.956  69.049  1.00  0.00    -0.151 A  
ENDBRANCH   2  26
TORSDOF 9
ENDMDL
MODEL      385
REMARK 921   NORMALIZED FREE ENERGY PREDICTED BY IDOCK:   -2.90 KCAL/MOL
REMARK 922        TOTAL FREE ENERGY PREDICTED BY IDOCK:   -6.20 KCAL/MOL
REMARK 923 INTER-LIGAND FREE ENERGY PREDICTED BY IDOCK:   -7.91 KCAL/MOL
REMARK 924 INTRA-LIGAND FREE ENERGY PREDICTED BY IDOCK:    1.72 KCAL/MOL
REMARK 927      BINDING AFFINITY PREDICTED BY RF-SCORE:    0.00 PKD
ROOT
HETATM    1  C   UNL     1      -7.344   4.206  71.977  1.00  0.00    -0.064 C  
HETATM    2  N   UNL     1      -7.600   5.099  70.767  1.00  0.00    -0.077 N  
HETATM    3  C   UNL     1      -8.467   6.281  71.194  1.00  0.00    -0.124 C  
ENDROOT
BRANCH   2   4
HETATM    4  C   UNL     1      -6.273   5.559  70.202  1.00  0.00    -0.026 C  
BRANCH   4   5
HETATM    5  C   UNL     1      -6.126   7.060  69.952  1.00  0.00    -0.024 C  
BRANCH   5   6
HETATM    6  C   UNL     1      -7.519   7.684  69.793  1.00  0.00    -0.090 C  
BRANCH   6   7
HETATM    7  C   UNL     1      -7.501   9.149  69.318  1.00  0.00    -0.075 C  
BRANCH   7   8
HETATM    8  C   UNL     1      -8.624  10.012  69.913  1.00  0.00    -0.171 C  
BRANCH   8   9
HETATM    9  C   UNL     1      -9.755  10.113  68.888  1.00  0.00    -0.187 C  
BRANCH   9  10
HETATM   10  N   UNL     1      -9.682  11.305  67.948  1.00  0.00    -0.173 N  
HETATM   11  C   UNL     1      -8.589  12.280  68.374  1.00  0.00    -0.136 C  
HETATM   12  C   UNL     1      -9.357  10.887  66.522  1.00  0.00    -0.173 C  
BRANCH  10  13
HETATM   13  C   UNL     1     -11.117  12.025  67.995  1.00  0.00    -0.241 C  
HETATM   14  C   UNL     1     -11.072  13.538  67.708  1.00  0.00    -0.291 A  
HETATM   15  C   UNL     1     -11.548  14.259  68.826  1.00  0.00    -0.357 A  
HETATM   16  C   UNL     1     -12.010  13.332  69.831  1.00  0.00    -0.400 A  
HETATM   17  C   UNL     1     -11.556  15.646  68.842  1.00  0.00    -0.392 A  
HETATM   18  C   UNL     1     -11.802  12.008  69.381  1.00  0.00    -0.384 A  
HETATM   19  C   UNL     1     -11.087  16.328  67.720  1.00  0.00    -0.227 A  
HETATM   20  C   UNL     1     -10.647  15.621  66.593  1.00  0.00    -0.307 A  
HETATM   21  C   UNL     1     -12.248  10.943  70.156  1.00  0.00    -0.423 A  
HETATM   22  C   UNL     1     -12.848  11.209  71.395  1.00  0.00    -0.544 A  
HETATM   23  C   UNL     1     -10.658  14.224  66.572  1.00  0.00    -0.286 A  
HETATM   24  C   UNL     1     -13.039  12.524  71.834  1.00  0.00    -0.473 A  
HETATM   25  C   UNL     1     -12.628  13.599  71.047  1.00  0.00    -0.441 A  
ENDBRANCH  10  13
ENDBRANCH   9  10
ENDBRANCH   8   9
ENDBRANCH   7   8
ENDBRANCH   6   7
ENDBRANCH   5   6
ENDBRANCH   4   5
ENDBRANCH   2   4
BRANCH   2  26
HETATM   26  C   UNL     1      -8.355   4.271  69.607  1.00  0.00    -0.061 C  
HETATM   27  C   UNL     1      -9.479   6.156  66.607  1.00  0.00    -0.173 A  
HETATM   28  C   UNL     1      -7.429   3.742  68.491  1.00  0.00    -0.054 A  
HETATM   29  C   UNL     1     -10.566   6.890  67.066  1.00  0.00    -0.403 A  
HETATM   30  C   UNL     1      -7.738   4.391  67.272  1.00  0.00    -0.089 A  
HETATM   31  C   UNL     1      -8.862   5.274  67.481  1.00  0.00    -0.105 A  
HETATM   32  C   UNL     1      -7.057   4.091  66.101  1.00  0.00    -0.067 A  
HETATM   33  C   UNL     1     -11.080   6.696  68.358  1.00  0.00    -0.281 A  
HETATM   34  C   UNL     1      -6.455   2.746  68.510  1.00  0.00    -0.029 A  
HETATM   35  C   UNL     1      -9.325   5.132  68.807  1.00  0.00    -0.166 A  
HETATM   36  C   UNL     1      -6.045   3.131  66.141  1.00  0.00    -0.024 A  
HETATM   37  C   UNL     1     -10.483   5.777  69.230  1.00  0.00    -0.358 A  
HETATM   38  C   UNL     1      -5.745   2.465  67.335  1.00  0.00    -0.019 A  
ENDBRANCH   2  26
TORSDOF 9
ENDMDL
MODEL      386
REMARK 921   NORMALIZED FREE ENERGY PREDICTED BY IDOCK:   -2.76 KCAL/MOL
REMARK 922        TOTAL FREE ENERGY PREDICTED BY IDOCK:   -5.98 KCAL/MOL
REMARK 923 INTER-LIGAND FREE ENERGY PREDICTED BY IDOCK:   -5.86 KCAL/MOL
REMARK 924 INTRA-LIGAND FREE ENERGY PREDICTED BY IDOCK:   -0.12 KCAL/MOL
REMARK 927      BINDING AFFINITY PREDICTED BY RF-SCORE:    0.00 PKD
ROOT
HETATM    1  C   UNL     1      -8.461   4.474  72.717  1.00  0.00    -0.113 C  
HETATM    2  N   UNL     1      -8.675   5.602  71.714  1.00  0.00    -0.135 N  
HETATM    3  C   UNL     1      -8.960   6.896  72.471  1.00  0.00    -0.129 C  
ENDROOT
BRANCH   2   4
HETATM    4  C   UNL     1      -7.443   5.729  70.842  1.00  0.00    -0.090 C  
BRANCH   4   5
HETATM    5  C   UNL     1      -6.636   7.019  70.992  1.00  0.00    -0.048 C  
BRANCH   5   6
HETATM    6  C   UNL     1      -7.481   8.203  70.502  1.00  0.00    -0.063 C  
BRANCH   6   7
HETATM    7  C   UNL     1      -6.695   9.238  69.677  1.00  0.00    -0.047 C  
BRANCH   7   8
HETATM    8  C   UNL     1      -7.162  10.687  69.883  1.00  0.00    -0.109 C  
BRANCH   8   9
HETATM    9  C   UNL     1      -7.462  11.301  68.515  1.00  0.00    -0.115 C  
BRANCH   9  10
HETATM   10  N   UNL     1      -6.998  12.736  68.326  1.00  0.00    -0.087 N  
HETATM   11  C   UNL     1      -6.770  13.425  69.668  1.00  0.00     0.056 C  
HETATM   12  C   UNL     1      -5.680  12.815  67.570  1.00  0.00    -0.116 C  
BRANCH  10  13
HETATM   13  C   UNL     1      -8.149  13.494  67.502  1.00  0.00    -0.186 C  
HETATM   14  C   UNL     1      -9.323  13.988  68.369  1.00  0.00    -0.210 A  
HETATM   15  C   UNL     1     -10.525  13.370  67.957  1.00  0.00    -0.243 A  
HETATM   16  C   UNL     1     -10.269  12.552  66.796  1.00  0.00    -0.243 A  
HETATM   17  C   UNL     1     -11.722  13.605  68.618  1.00  0.00    -0.389 A  
HETATM   18  C   UNL     1      -8.893  12.611  66.473  1.00  0.00    -0.067 A  
HETATM   19  C   UNL     1     -11.723  14.477  69.705  1.00  0.00    -0.356 A  
HETATM   20  C   UNL     1     -10.543  15.123  70.097  1.00  0.00    -0.227 A  
HETATM   21  C   UNL     1      -8.428  11.960  65.336  1.00  0.00     0.708 A  
HETATM   22  C   UNL     1      -9.329  11.215  64.563  1.00  0.00    -0.191 A  
HETATM   23  C   UNL     1      -9.341  14.900  69.418  1.00  0.00    -0.054 A  
HETATM   24  C   UNL     1     -10.686  11.157  64.898  1.00  0.00    -0.318 A  
HETATM   25  C   UNL     1     -11.168  11.835  66.017  1.00  0.00    -0.352 A  
ENDBRANCH  10  13
ENDBRANCH   9  10
ENDBRANCH   8   9
ENDBRANCH   7   8
ENDBRANCH   6   7
ENDBRANCH   5   6
ENDBRANCH   4   5
ENDBRANCH   2   4
BRANCH   2  26
HETATM   26  C   UNL     1      -9.916   5.264  70.743  1.00  0.00    -0.211 C  
HETATM   27  C   UNL     1      -9.965   6.872  67.392  1.00  0.00    -0.212 A  
HETATM   28  C   UNL     1      -9.674   4.081  69.780  1.00  0.00    -0.254 A  
HETATM   29  C   UNL     1     -10.283   8.198  67.666  1.00  0.00    -0.296 A  
HETATM   30  C   UNL     1      -9.654   4.553  68.446  1.00  0.00    -0.207 A  
HETATM   31  C   UNL     1      -9.938   5.970  68.443  1.00  0.00    -0.173 A  
HETATM   32  C   UNL     1      -9.462   3.689  67.378  1.00  0.00    -0.238 A  
HETATM   33  C   UNL     1     -10.641   8.605  68.961  1.00  0.00    -0.179 A  
HETATM   34  C   UNL     1      -9.549   2.715  70.027  1.00  0.00    -0.084 A  
HETATM   35  C   UNL     1     -10.220   6.390  69.761  1.00  0.00    -0.226 A  
HETATM   36  C   UNL     1      -9.283   2.330  67.638  1.00  0.00    -0.207 A  
HETATM   37  C   UNL     1     -10.653   7.687  70.019  1.00  0.00    -0.240 A  
HETATM   38  C   UNL     1      -9.325   1.847  68.951  1.00  0.00    -0.209 A  
ENDBRANCH   2  26
TORSDOF 9
ENDMDL
MODEL      387
REMARK 921   NORMALIZED FREE ENERGY PREDICTED BY IDOCK:   -2.75 KCAL/MOL
REMARK 922        TOTAL FREE ENERGY PREDICTED BY IDOCK:   -5.96 KCAL/MOL
REMARK 923 INTER-LIGAND FREE ENERGY PREDICTED BY IDOCK:   -5.17 KCAL/MOL
REMARK 924 INTRA-LIGAND FREE ENERGY PREDICTED BY IDOCK:   -0.78 KCAL/MOL
REMARK 927      BINDING AFFINITY PREDICTED BY RF-SCORE:    0.00 PKD
ROOT
HETATM    1  C   UNL     1      -8.659   3.799  72.193  1.00  0.00    -0.095 C  
HETATM    2  N   UNL     1      -8.669   5.208  72.776  1.00  0.00    -0.119 N  
HETATM    3  C   UNL     1      -9.802   5.319  73.793  1.00  0.00    -0.162 C  
ENDROOT
BRANCH   2   4
HETATM    4  C   UNL     1      -7.323   5.491  73.411  1.00  0.00    -0.095 C  
BRANCH   4   5
HETATM    5  C   UNL     1      -7.109   6.908  73.943  1.00  0.00    -0.080 C  
BRANCH   5   6
HETATM    6  C   UNL     1      -7.502   7.919  72.858  1.00  0.00    -0.139 C  
BRANCH   6   7
HETATM    7  C   UNL     1      -6.328   8.386  71.978  1.00  0.00    -0.067 C  
BRANCH   7   8
HETATM    8  C   UNL     1      -6.186   9.913  71.884  1.00  0.00     0.437 C  
BRANCH   8   9
HETATM    9  C   UNL     1      -6.748  10.372  70.538  1.00  0.00    -0.031 C  
BRANCH   9  10
HETATM   10  N   UNL     1      -6.329   9.541  69.336  1.00  0.00    -0.043 N  
HETATM   11  C   UNL     1      -5.921  10.429  68.165  1.00  0.00    -0.044 C  
HETATM   12  C   UNL     1      -5.132   8.655  69.645  1.00  0.00    -0.030 C  
BRANCH  10  13
HETATM   13  C   UNL     1      -7.592   8.636  68.931  1.00  0.00    -0.092 C  
HETATM   14  C   UNL     1      -7.529   8.071  67.499  1.00  0.00    -0.097 A  
HETATM   15  C   UNL     1      -8.622   8.548  66.740  1.00  0.00    -0.119 A  
HETATM   16  C   UNL     1      -9.488   9.330  67.589  1.00  0.00    -0.156 A  
HETATM   17  C   UNL     1      -8.764   8.229  65.398  1.00  0.00    -0.147 A  
HETATM   18  C   UNL     1      -8.941   9.391  68.891  1.00  0.00    -0.136 A  
HETATM   19  C   UNL     1      -7.802   7.415  64.801  1.00  0.00    -0.126 A  
HETATM   20  C   UNL     1      -6.736   6.907  65.555  1.00  0.00    -0.051 A  
HETATM   21  C   UNL     1      -9.650  10.029  69.904  1.00  0.00    -0.233 A  
HETATM   22  C   UNL     1     -10.871  10.643  69.593  1.00  0.00    -0.318 A  
HETATM   23  C   UNL     1      -6.606   7.214  66.913  1.00  0.00    -0.055 A  
HETATM   24  C   UNL     1     -11.398  10.585  68.299  1.00  0.00    -0.332 A  
HETATM   25  C   UNL     1     -10.710   9.917  67.286  1.00  0.00    -0.304 A  
ENDBRANCH  10  13
ENDBRANCH   9  10
ENDBRANCH   8   9
ENDBRANCH   7   8
ENDBRANCH   6   7
ENDBRANCH   5   6
ENDBRANCH   4   5
ENDBRANCH   2   4
BRANCH   2  26
HETATM   26  C   UNL     1      -8.887   6.299  71.608  1.00  0.00    -0.138 C  
HETATM   27  C   UNL     1     -10.453   5.137  68.444  1.00  0.00    -0.084 A  
HETATM   28  C   UNL     1     -10.268   6.989  71.624  1.00  0.00    -0.208 A  
HETATM   29  C   UNL     1      -9.451   4.390  67.834  1.00  0.00    -0.209 A  
HETATM   30  C   UNL     1     -10.994   6.622  70.466  1.00  0.00    -0.337 A  
HETATM   31  C   UNL     1     -10.161   5.783  69.634  1.00  0.00    -0.299 A  
HETATM   32  C   UNL     1     -12.269   7.114  70.227  1.00  0.00     0.013 A  
HETATM   33  C   UNL     1      -8.153   4.346  68.366  1.00  0.00    -0.082 A  
HETATM   34  C   UNL     1     -10.821   7.901  72.521  1.00  0.00    -0.403 A  
HETATM   35  C   UNL     1      -8.879   5.679  70.216  1.00  0.00    -0.146 A  
HETATM   36  C   UNL     1     -12.837   7.984  71.158  1.00  0.00    -0.126 A  
HETATM   37  C   UNL     1      -7.845   5.031  69.548  1.00  0.00    -0.068 A  
HETATM   38  C   UNL     1     -12.121   8.373  72.295  1.00  0.00    -0.456 A  
ENDBRANCH   2  26
TORSDOF 9
ENDMDL
MODEL      388
REMARK 921   NORMALIZED FREE ENERGY PREDICTED BY IDOCK:   -2.69 KCAL/MOL
REMARK 922        TOTAL FREE ENERGY PREDICTED BY IDOCK:   -5.86 KCAL/MOL
REMARK 923 INTER-LIGAND FREE ENERGY PREDICTED BY IDOCK:   -5.64 KCAL/MOL
REMARK 924 INTRA-LIGAND FREE ENERGY PREDICTED BY IDOCK:   -0.22 KCAL/MOL
REMARK 927      BINDING AFFINITY PREDICTED BY RF-SCORE:    0.00 PKD
ROOT
HETATM    1  C   UNL     1      -9.540  12.956  67.561  1.00  0.00    -0.200 C  
HETATM    2  N   UNL     1      -8.865  11.638  67.197  1.00  0.00    -0.166 N  
HETATM    3  C   UNL     1      -7.627  11.928  66.353  1.00  0.00     0.235 C  
ENDROOT
BRANCH   2   4
HETATM    4  C   UNL     1      -8.510  10.896  68.469  1.00  0.00    -0.147 C  
BRANCH   4   5
HETATM    5  C   UNL     1      -7.104  11.132  69.021  1.00  0.00    -0.113 C  
BRANCH   5   6
HETATM    6  C   UNL     1      -6.503   9.790  69.460  1.00  0.00    -0.046 C  
BRANCH   6   7
HETATM    7  C   UNL     1      -6.141   9.722  70.955  1.00  0.00    -0.069 C  
BRANCH   7   8
HETATM    8  C   UNL     1      -5.494   8.396  71.383  1.00  0.00    -0.034 C  
BRANCH   8   9
HETATM    9  C   UNL     1      -6.543   7.554  72.110  1.00  0.00    -0.051 C  
BRANCH   9  10
HETATM   10  N   UNL     1      -6.614   6.094  71.693  1.00  0.00    -0.053 N  
HETATM   11  C   UNL     1      -5.241   5.565  71.293  1.00  0.00    -0.009 C  
HETATM   12  C   UNL     1      -7.109   5.203  72.822  1.00  0.00    -0.087 C  
BRANCH  10  13
HETATM   13  C   UNL     1      -7.624   6.013  70.448  1.00  0.00    -0.095 C  
HETATM   14  C   UNL     1      -8.459   4.718  70.397  1.00  0.00    -0.102 A  
HETATM   15  C   UNL     1      -8.178   4.006  69.209  1.00  0.00    -0.071 A  
HETATM   16  C   UNL     1      -7.274   4.777  68.391  1.00  0.00    -0.061 A  
HETATM   17  C   UNL     1      -8.761   2.773  68.951  1.00  0.00    -0.133 A  
HETATM   18  C   UNL     1      -6.938   5.975  69.062  1.00  0.00    -0.068 A  
HETATM   19  C   UNL     1      -9.645   2.244  69.890  1.00  0.00    -0.048 A  
HETATM   20  C   UNL     1      -9.956   2.961  71.053  1.00  0.00     0.074 A  
HETATM   21  C   UNL     1      -6.137   6.917  68.424  1.00  0.00    -0.029 A  
HETATM   22  C   UNL     1      -5.638   6.629  67.147  1.00  0.00    -0.013 A  
HETATM   23  C   UNL     1      -9.383   4.211  71.302  1.00  0.00    -0.218 A  
HETATM   24  C   UNL     1      -5.969   5.435  66.497  1.00  0.00    -0.022 A  
HETATM   25  C   UNL     1      -6.800   4.501  67.114  1.00  0.00    -0.055 A  
ENDBRANCH  10  13
ENDBRANCH   9  10
ENDBRANCH   8   9
ENDBRANCH   7   8
ENDBRANCH   6   7
ENDBRANCH   5   6
ENDBRANCH   4   5
ENDBRANCH   2   4
BRANCH   2  26
HETATM   26  C   UNL     1      -9.877  10.700  66.363  1.00  0.00    -0.211 C  
HETATM   27  C   UNL     1     -11.204  12.032  63.156  1.00  0.00    -0.261 A  
HETATM   28  C   UNL     1      -9.198   9.808  65.302  1.00  0.00    -0.294 A  
HETATM   29  C   UNL     1     -12.115  13.004  63.553  1.00  0.00    -0.617 A  
HETATM   30  C   UNL     1      -9.606  10.214  64.009  1.00  0.00    -0.320 A  
HETATM   31  C   UNL     1     -10.573  11.280  64.134  1.00  0.00    -0.437 A  
HETATM   32  C   UNL     1      -9.147   9.567  62.871  1.00  0.00    -0.180 A  
HETATM   33  C   UNL     1     -12.450  13.175  64.905  1.00  0.00    -0.490 A  
HETATM   34  C   UNL     1      -8.357   8.705  65.442  1.00  0.00    -0.165 A  
HETATM   35  C   UNL     1     -10.847  11.501  65.501  1.00  0.00    -0.313 A  
HETATM   36  C   UNL     1      -8.263   8.498  63.017  1.00  0.00    -0.165 A  
HETATM   37  C   UNL     1     -11.843  12.389  65.894  1.00  0.00    -0.467 A  
HETATM   38  C   UNL     1      -7.870   8.071  64.291  1.00  0.00    -0.137 A  
ENDBRANCH   2  26
TORSDOF 9
ENDMDL
MODEL      389
REMARK 921   NORMALIZED FREE ENERGY PREDICTED BY IDOCK:   -2.62 KCAL/MOL
REMARK 922        TOTAL FREE ENERGY PREDICTED BY IDOCK:   -5.76 KCAL/MOL
REMARK 923 INTER-LIGAND FREE ENERGY PREDICTED BY IDOCK:   -5.96 KCAL/MOL
REMARK 924 INTRA-LIGAND FREE ENERGY PREDICTED BY IDOCK:    0.20 KCAL/MOL
REMARK 927      BINDING AFFINITY PREDICTED BY RF-SCORE:    0.00 PKD
ROOT
HETATM    1  C   UNL     1      -9.820   8.132  72.452  1.00  0.00    -0.276 C  
HETATM    2  N   UNL     1      -9.452   7.957  70.983  1.00  0.00    -0.155 N  
HETATM    3  C   UNL     1     -10.724   7.710  70.176  1.00  0.00    -0.240 C  
ENDROOT
BRANCH   2   4
HETATM    4  C   UNL     1      -8.722   9.194  70.505  1.00  0.00    -0.221 C  
BRANCH   4   5
HETATM    5  C   UNL     1      -7.258   9.007  70.106  1.00  0.00    -0.062 C  
BRANCH   5   6
HETATM    6  C   UNL     1      -7.098   9.319  68.612  1.00  0.00    -0.070 C  
BRANCH   6   7
HETATM    7  C   UNL     1      -7.803  10.612  68.161  1.00  0.00    -0.110 C  
BRANCH   7   8
HETATM    8  C   UNL     1      -7.194  11.894  68.749  1.00  0.00    -0.112 C  
BRANCH   8   9
HETATM    9  C   UNL     1      -8.139  13.060  68.457  1.00  0.00    -0.082 C  
BRANCH   9  10
HETATM   10  N   UNL     1      -7.485  14.431  68.392  1.00  0.00    -0.110 N  
HETATM   11  C   UNL     1      -6.010  14.360  68.771  1.00  0.00    -0.084 C  
HETATM   12  C   UNL     1      -7.544  15.024  66.992  1.00  0.00    -0.042 C  
BRANCH  10  13
HETATM   13  C   UNL     1      -8.277  15.376  69.421  1.00  0.00    -0.250 C  
HETATM   14  C   UNL     1      -9.797  15.122  69.467  1.00  0.00    -0.191 A  
HETATM   15  C   UNL     1     -10.496  16.286  69.079  1.00  0.00    -0.276 A  
HETATM   16  C   UNL     1      -9.555  17.359  68.861  1.00  0.00    -0.223 A  
HETATM   17  C   UNL     1     -11.880  16.300  68.983  1.00  0.00    -0.072 A  
HETATM   18  C   UNL     1      -8.241  16.882  69.073  1.00  0.00    -0.153 A  
HETATM   19  C   UNL     1     -12.581  15.134  69.286  1.00  0.00     0.112 A  
HETATM   20  C   UNL     1     -11.898  13.986  69.707  1.00  0.00    -0.385 A  
HETATM   21  C   UNL     1      -7.171  17.767  68.996  1.00  0.00    -0.207 A  
HETATM   22  C   UNL     1      -7.419  19.104  68.657  1.00  0.00    -0.370 A  
HETATM   23  C   UNL     1     -10.504  13.979  69.822  1.00  0.00     0.365 A  
HETATM   24  C   UNL     1      -8.722  19.562  68.440  1.00  0.00    -0.389 A  
HETATM   25  C   UNL     1      -9.805  18.690  68.549  1.00  0.00    -0.427 A  
ENDBRANCH  10  13
ENDBRANCH   9  10
ENDBRANCH   8   9
ENDBRANCH   7   8
ENDBRANCH   6   7
ENDBRANCH   5   6
ENDBRANCH   4   5
ENDBRANCH   2   4
BRANCH   2  26
HETATM   26  C   UNL     1      -8.449   6.708  70.799  1.00  0.00    -0.134 C  
HETATM   27  C   UNL     1      -9.386   3.499  72.426  1.00  0.00    -0.167 A  
HETATM   28  C   UNL     1      -8.780   5.789  69.604  1.00  0.00    -0.122 A  
HETATM   29  C   UNL     1      -9.163   3.737  73.778  1.00  0.00    -0.097 A  
HETATM   30  C   UNL     1      -9.172   4.515  70.079  1.00  0.00    -0.195 A  
HETATM   31  C   UNL     1      -9.058   4.495  71.519  1.00  0.00    -0.174 A  
HETATM   32  C   UNL     1      -9.515   3.493  69.207  1.00  0.00    -0.233 A  
HETATM   33  C   UNL     1      -8.554   4.923  74.216  1.00  0.00    -0.110 A  
HETATM   34  C   UNL     1      -8.688   6.011  68.231  1.00  0.00    -0.113 A  
HETATM   35  C   UNL     1      -8.518   5.722  71.960  1.00  0.00    -0.126 A  
HETATM   36  C   UNL     1      -9.472   3.740  67.834  1.00  0.00    -0.224 A  
HETATM   37  C   UNL     1      -8.185   5.915  73.297  1.00  0.00    -0.116 A  
HETATM   38  C   UNL     1      -9.064   4.988  67.350  1.00  0.00    -0.120 A  
ENDBRANCH   2  26
TORSDOF 9
ENDMDL
MODEL      390
REMARK 921   NORMALIZED FREE ENERGY PREDICTED BY IDOCK:   -2.61 KCAL/MOL
REMARK 922        TOTAL FREE ENERGY PREDICTED BY IDOCK:   -5.75 KCAL/MOL
REMARK 923 INTER-LIGAND FREE ENERGY PREDICTED BY IDOCK:   -4.75 KCAL/MOL
REMARK 924 INTRA-LIGAND FREE ENERGY PREDICTED BY IDOCK:   -1.00 KCAL/MOL
REMARK 927      BINDING AFFINITY PREDICTED BY RF-SCORE:    0.00 PKD
ROOT
HETATM    1  C   UNL     1     -10.466   8.997  66.572  1.00  0.00    -0.122 C  
HETATM    2  N   UNL     1      -9.422   9.637  65.663  1.00  0.00    -0.236 N  
HETATM    3  C   UNL     1     -10.053  10.823  64.937  1.00  0.00    -0.322 C  
ENDROOT
BRANCH   2   4
HETATM    4  C   UNL     1      -8.233  10.065  66.498  1.00  0.00    -0.119 C  
BRANCH   4   5
HETATM    5  C   UNL     1      -8.191  11.535  66.914  1.00  0.00    -0.167 C  
BRANCH   5   6
HETATM    6  C   UNL     1      -8.131  11.625  68.444  1.00  0.00    -0.153 C  
BRANCH   6   7
HETATM    7  C   UNL     1      -7.496  10.397  69.122  1.00  0.00    -0.112 C  
BRANCH   7   8
HETATM    8  C   UNL     1      -8.427   9.675  70.107  1.00  0.00    -0.231 C  
BRANCH   8   9
HETATM    9  C   UNL     1      -7.674   8.487  70.707  1.00  0.00    -0.087 C  
BRANCH   9  10
HETATM   10  N   UNL     1      -7.846   7.166  69.975  1.00  0.00    -0.110 N  
HETATM   11  C   UNL     1      -9.212   7.080  69.302  1.00  0.00    -0.139 C  
HETATM   12  C   UNL     1      -6.810   6.983  68.877  1.00  0.00    -0.072 C  
BRANCH  10  13
HETATM   13  C   UNL     1      -7.694   6.002  71.071  1.00  0.00    -0.102 C  
HETATM   14  C   UNL     1      -7.608   4.583  70.475  1.00  0.00    -0.053 A  
HETATM   15  C   UNL     1      -8.688   3.797  70.935  1.00  0.00    -0.119 A  
HETATM   16  C   UNL     1      -9.461   4.556  71.888  1.00  0.00    -0.201 A  
HETATM   17  C   UNL     1      -8.870   2.493  70.498  1.00  0.00    -0.143 A  
HETATM   18  C   UNL     1      -8.904   5.849  72.022  1.00  0.00    -0.137 A  
HETATM   19  C   UNL     1      -7.955   1.960  69.591  1.00  0.00    -0.053 A  
HETATM   20  C   UNL     1      -6.861   2.721  69.158  1.00  0.00    -0.037 A  
HETATM   21  C   UNL     1      -9.440   6.733  72.953  1.00  0.00    -0.156 A  
HETATM   22  C   UNL     1     -10.557   6.336  73.700  1.00  0.00    -0.280 A  
HETATM   23  C   UNL     1      -6.668   4.028  69.615  1.00  0.00    -0.037 A  
HETATM   24  C   UNL     1     -11.105   5.058  73.552  1.00  0.00    -0.386 A  
HETATM   25  C   UNL     1     -10.552   4.153  72.647  1.00  0.00    -0.200 A  
ENDBRANCH  10  13
ENDBRANCH   9  10
ENDBRANCH   8   9
ENDBRANCH   7   8
ENDBRANCH   6   7
ENDBRANCH   5   6
ENDBRANCH   4   5
ENDBRANCH   2   4
BRANCH   2  26
HETATM   26  C   UNL     1      -8.888   8.568  64.581  1.00  0.00     0.111 C  
HETATM   27  C   UNL     1      -5.273   8.657  63.719  1.00  0.00    -0.057 A  
HETATM   28  C   UNL     1      -8.348   7.255  65.189  1.00  0.00    -0.081 A  
HETATM   29  C   UNL     1      -5.147   9.805  62.943  1.00  0.00    -0.078 A  
HETATM   30  C   UNL     1      -6.957   7.158  64.946  1.00  0.00    -0.055 A  
HETATM   31  C   UNL     1      -6.538   8.289  64.150  1.00  0.00    -0.067 A  
HETATM   32  C   UNL     1      -6.222   6.064  65.380  1.00  0.00    -0.037 A  
HETATM   33  C   UNL     1      -6.274  10.536  62.541  1.00  0.00    -0.148 A  
HETATM   34  C   UNL     1      -9.006   6.211  65.834  1.00  0.00    -0.133 A  
HETATM   35  C   UNL     1      -7.668   9.066  63.814  1.00  0.00    -0.125 A  
HETATM   36  C   UNL     1      -6.880   5.048  66.074  1.00  0.00    -0.061 A  
HETATM   37  C   UNL     1      -7.558  10.144  62.943  1.00  0.00    -0.142 A  
HETATM   38  C   UNL     1      -8.259   5.120  66.300  1.00  0.00    -0.109 A  
ENDBRANCH   2  26
TORSDOF 9
ENDMDL
MODEL      391
REMARK 921   NORMALIZED FREE ENERGY PREDICTED BY IDOCK:   -2.58 KCAL/MOL
REMARK 922        TOTAL FREE ENERGY PREDICTED BY IDOCK:   -5.70 KCAL/MOL
REMARK 923 INTER-LIGAND FREE ENERGY PREDICTED BY IDOCK:   -5.75 KCAL/MOL
REMARK 924 INTRA-LIGAND FREE ENERGY PREDICTED BY IDOCK:    0.05 KCAL/MOL
REMARK 927      BINDING AFFINITY PREDICTED BY RF-SCORE:    0.00 PKD
ROOT
HETATM    1  C   UNL     1      -6.762   6.262  71.133  1.00  0.00    -0.055 C  
HETATM    2  N   UNL     1      -7.489   7.440  70.493  1.00  0.00    -0.080 N  
HETATM    3  C   UNL     1      -7.672   8.540  71.535  1.00  0.00    -0.118 C  
ENDROOT
BRANCH   2   4
HETATM    4  C   UNL     1      -6.687   7.929  69.304  1.00  0.00    -0.044 C  
BRANCH   4   5
HETATM    5  C   UNL     1      -6.630   9.443  69.101  1.00  0.00    -0.049 C  
BRANCH   5   6
HETATM    6  C   UNL     1      -5.954   9.746  67.757  1.00  0.00    -0.050 C  
BRANCH   6   7
HETATM    7  C   UNL     1      -6.267  11.146  67.198  1.00  0.00    -0.083 C  
BRANCH   7   8
HETATM    8  C   UNL     1      -7.505  11.807  67.823  1.00  0.00    -0.117 C  
BRANCH   8   9
HETATM    9  C   UNL     1      -7.740  13.151  67.133  1.00  0.00    -0.019 C  
BRANCH   9  10
HETATM   10  N   UNL     1      -9.144  13.718  67.266  1.00  0.00    -0.222 N  
HETATM   11  C   UNL     1      -9.678  14.195  65.919  1.00  0.00    -0.241 C  
HETATM   12  C   UNL     1     -10.132  12.681  67.779  1.00  0.00    -0.220 C  
BRANCH  10  13
HETATM   13  C   UNL     1      -9.056  14.947  68.295  1.00  0.00    -0.179 C  
HETATM   14  C   UNL     1      -9.650  16.263  67.757  1.00  0.00    -0.223 A  
HETATM   15  C   UNL     1      -8.651  17.260  67.699  1.00  0.00    -0.218 A  
HETATM   16  C   UNL     1      -7.424  16.741  68.255  1.00  0.00    -0.186 A  
HETATM   17  C   UNL     1      -8.919  18.524  67.194  1.00  0.00    -0.281 A  
HETATM   18  C   UNL     1      -7.617  15.395  68.643  1.00  0.00    -0.129 A  
HETATM   19  C   UNL     1     -10.209  18.802  66.745  1.00  0.00    -0.439 A  
HETATM   20  C   UNL     1     -11.216  17.831  66.833  1.00  0.00     0.570 A  
HETATM   21  C   UNL     1      -6.587  14.712  69.281  1.00  0.00    -0.128 A  
HETATM   22  C   UNL     1      -5.361  15.363  69.477  1.00  0.00    -0.099 A  
HETATM   23  C   UNL     1     -10.948  16.564  67.360  1.00  0.00    -0.121 A  
HETATM   24  C   UNL     1      -5.179  16.691  69.080  1.00  0.00    -0.128 A  
HETATM   25  C   UNL     1      -6.218  17.395  68.472  1.00  0.00    -0.170 A  
ENDBRANCH  10  13
ENDBRANCH   9  10
ENDBRANCH   8   9
ENDBRANCH   7   8
ENDBRANCH   6   7
ENDBRANCH   5   6
ENDBRANCH   4   5
ENDBRANCH   2   4
BRANCH   2  26
HETATM   26  C   UNL     1      -8.932   6.978  69.940  1.00  0.00    -0.142 C  
HETATM   27  C   UNL     1     -11.876   9.035  70.897  1.00  0.00    -0.302 A  
HETATM   28  C   UNL     1      -9.350   7.636  68.608  1.00  0.00    -0.147 A  
HETATM   29  C   UNL     1     -12.070   8.730  72.240  1.00  0.00    -0.423 A  
HETATM   30  C   UNL     1     -10.470   8.473  68.825  1.00  0.00    -0.208 A  
HETATM   31  C   UNL     1     -10.878   8.366  70.206  1.00  0.00    -0.244 A  
HETATM   32  C   UNL     1     -11.055   9.180  67.784  1.00  0.00     0.132 A  
HETATM   33  C   UNL     1     -11.328   7.719  72.869  1.00  0.00    -0.406 A  
HETATM   34  C   UNL     1      -8.851   7.477  67.317  1.00  0.00    -0.124 A  
HETATM   35  C   UNL     1     -10.075   7.403  70.855  1.00  0.00    -0.188 A  
HETATM   36  C   UNL     1     -10.516   9.057  66.503  1.00  0.00    -0.192 A  
HETATM   37  C   UNL     1     -10.345   7.013  72.163  1.00  0.00    -0.214 A  
HETATM   38  C   UNL     1      -9.422   8.214  66.271  1.00  0.00    -0.259 A  
ENDBRANCH   2  26
TORSDOF 9
ENDMDL
MODEL      392
REMARK 921   NORMALIZED FREE ENERGY PREDICTED BY IDOCK:   -2.53 KCAL/MOL
REMARK 922        TOTAL FREE ENERGY PREDICTED BY IDOCK:   -5.62 KCAL/MOL
REMARK 923 INTER-LIGAND FREE ENERGY PREDICTED BY IDOCK:   -6.04 KCAL/MOL
REMARK 924 INTRA-LIGAND FREE ENERGY PREDICTED BY IDOCK:    0.42 KCAL/MOL
REMARK 927      BINDING AFFINITY PREDICTED BY RF-SCORE:    0.00 PKD
ROOT
HETATM    1  C   UNL     1     -10.660   6.497  70.735  1.00  0.00    -0.231 C  
HETATM    2  N   UNL     1      -9.650   5.904  69.758  1.00  0.00    -0.150 N  
HETATM    3  C   UNL     1     -10.395   5.095  68.700  1.00  0.00    -0.078 C  
ENDROOT
BRANCH   2   4
HETATM    4  C   UNL     1      -8.846   7.027  69.136  1.00  0.00    -0.135 C  
BRANCH   4   5
HETATM    5  C   UNL     1      -8.205   8.020  70.104  1.00  0.00    -0.120 C  
BRANCH   5   6
HETATM    6  C   UNL     1      -7.482   9.112  69.303  1.00  0.00    -0.075 C  
BRANCH   6   7
HETATM    7  C   UNL     1      -7.975  10.540  69.600  1.00  0.00    -0.076 C  
BRANCH   7   8
HETATM    8  C   UNL     1      -9.327  10.882  68.957  1.00  0.00    -0.144 C  
BRANCH   8   9
HETATM    9  C   UNL     1      -9.253  12.300  68.391  1.00  0.00    -0.145 C  
BRANCH   9  10
HETATM   10  N   UNL     1      -8.608  12.425  67.020  1.00  0.00    -0.193 N  
HETATM   11  C   UNL     1      -7.102  12.637  67.135  1.00  0.00    -0.028 C  
HETATM   12  C   UNL     1      -8.806  11.172  66.181  1.00  0.00    -0.190 C  
BRANCH  10  13
HETATM   13  C   UNL     1      -9.292  13.684  66.296  1.00  0.00    -0.133 C  
HETATM   14  C   UNL     1      -9.932  14.697  67.264  1.00  0.00    -0.235 A  
HETATM   15  C   UNL     1     -11.320  14.797  67.016  1.00  0.00    -0.358 A  
HETATM   16  C   UNL     1     -11.660  13.987  65.870  1.00  0.00    -0.350 A  
HETATM   17  C   UNL     1     -12.138  15.603  67.794  1.00  0.00     0.464 A  
HETATM   18  C   UNL     1     -10.499  13.333  65.396  1.00  0.00    -0.306 A  
HETATM   19  C   UNL     1     -11.561  16.329  68.835  1.00  0.00    -0.230 A  
HETATM   20  C   UNL     1     -10.181  16.264  69.065  1.00  0.00    -0.261 A  
HETATM   21  C   UNL     1     -10.573  12.558  64.243  1.00  0.00    -0.395 A  
HETATM   22  C   UNL     1     -11.813  12.401  63.609  1.00  0.00    -0.610 A  
HETATM   23  C   UNL     1      -9.355  15.466  68.268  1.00  0.00    -0.193 A  
HETATM   24  C   UNL     1     -12.956  13.045  64.094  1.00  0.00     0.083 A  
HETATM   25  C   UNL     1     -12.884  13.853  65.228  1.00  0.00    -0.437 A  
ENDBRANCH  10  13
ENDBRANCH   9  10
ENDBRANCH   8   9
ENDBRANCH   7   8
ENDBRANCH   6   7
ENDBRANCH   5   6
ENDBRANCH   4   5
ENDBRANCH   2   4
BRANCH   2  26
HETATM   26  C   UNL     1      -8.612   4.946  70.536  1.00  0.00    -0.107 C  
HETATM   27  C   UNL     1      -9.724   1.485  71.313  1.00  0.00    -0.205 A  
HETATM   28  C   UNL     1      -7.729   4.076  69.615  1.00  0.00    -0.052 A  
HETATM   29  C   UNL     1     -10.644   1.656  72.341  1.00  0.00    -0.199 A  
HETATM   30  C   UNL     1      -8.056   2.711  69.796  1.00  0.00    -0.057 A  
HETATM   31  C   UNL     1      -9.055   2.600  70.833  1.00  0.00    -0.183 A  
HETATM   32  C   UNL     1      -7.399   1.712  69.093  1.00  0.00    -0.043 A  
HETATM   33  C   UNL     1     -10.844   2.912  72.934  1.00  0.00    -0.123 A  
HETATM   34  C   UNL     1      -6.694   4.425  68.750  1.00  0.00    -0.046 A  
HETATM   35  C   UNL     1      -9.310   3.880  71.373  1.00  0.00    -0.208 A  
HETATM   36  C   UNL     1      -6.401   2.075  68.188  1.00  0.00    -0.028 A  
HETATM   37  C   UNL     1     -10.141   4.035  72.478  1.00  0.00    -0.232 A  
HETATM   38  C   UNL     1      -6.051   3.419  68.017  1.00  0.00    -0.031 A  
ENDBRANCH   2  26
TORSDOF 9
ENDMDL
MODEL      393
REMARK 921   NORMALIZED FREE ENERGY PREDICTED BY IDOCK:   -2.20 KCAL/MOL
REMARK 922        TOTAL FREE ENERGY PREDICTED BY IDOCK:   -5.13 KCAL/MOL
REMARK 923 INTER-LIGAND FREE ENERGY PREDICTED BY IDOCK:   -4.43 KCAL/MOL
REMARK 924 INTRA-LIGAND FREE ENERGY PREDICTED BY IDOCK:   -0.70 KCAL/MOL
REMARK 927      BINDING AFFINITY PREDICTED BY RF-SCORE:    0.00 PKD
ROOT
HETATM    1  C   UNL     1     -12.120  16.030  66.838  1.00  0.00     1.338 C  
HETATM    2  N   UNL     1     -10.596  16.031  66.773  1.00  0.00    -0.315 N  
HETATM    3  C   UNL     1     -10.158  16.309  65.337  1.00  0.00    -0.145 C  
ENDROOT
BRANCH   2   4
HETATM    4  C   UNL     1     -10.061  17.076  67.730  1.00  0.00    -0.302 C  
BRANCH   4   5
HETATM    5  C   UNL     1      -8.549  17.078  67.955  1.00  0.00    -0.207 C  
BRANCH   5   6
HETATM    6  C   UNL     1      -7.928  15.883  67.219  1.00  0.00    -0.212 C  
BRANCH   6   7
HETATM    7  C   UNL     1      -7.565  14.700  68.136  1.00  0.00    -0.123 C  
BRANCH   7   8
HETATM    8  C   UNL     1      -6.564  13.713  67.517  1.00  0.00    -0.122 C  
BRANCH   8   9
HETATM    9  C   UNL     1      -6.179  12.681  68.577  1.00  0.00    -0.067 C  
BRANCH   9  10
HETATM   10  N   UNL     1      -6.273  11.227  68.141  1.00  0.00    -0.049 N  
HETATM   11  C   UNL     1      -5.169  10.876  67.148  1.00  0.00    -0.046 C  
HETATM   12  C   UNL     1      -6.122  10.269  69.313  1.00  0.00    -0.037 C  
BRANCH  10  13
HETATM   13  C   UNL     1      -7.714  11.037  67.459  1.00  0.00    -0.114 C  
HETATM   14  C   UNL     1      -8.727  10.272  68.332  1.00  0.00    -0.129 A  
HETATM   15  C   UNL     1      -9.132   9.086  67.680  1.00  0.00    -0.144 A  
HETATM   16  C   UNL     1      -8.534   9.034  66.367  1.00  0.00    -0.126 A  
HETATM   17  C   UNL     1     -10.001   8.189  68.284  1.00  0.00    -0.212 A  
HETATM   18  C   UNL     1      -7.713  10.168  66.179  1.00  0.00    -0.113 A  
HETATM   19  C   UNL     1     -10.480   8.482  69.560  1.00  0.00    -0.222 A  
HETATM   20  C   UNL     1     -10.113   9.674  70.198  1.00  0.00    -0.311 A  
HETATM   21  C   UNL     1      -7.094  10.371  64.950  1.00  0.00    -0.043 A  
HETATM   22  C   UNL     1      -7.261   9.413  63.941  1.00  0.00    -0.102 A  
HETATM   23  C   UNL     1      -9.253  10.586  69.580  1.00  0.00    -0.072 A  
HETATM   24  C   UNL     1      -8.068   8.289  64.142  1.00  0.00    -0.136 A  
HETATM   25  C   UNL     1      -8.721   8.096  65.359  1.00  0.00    -0.128 A  
ENDBRANCH  10  13
ENDBRANCH   9  10
ENDBRANCH   8   9
ENDBRANCH   7   8
ENDBRANCH   6   7
ENDBRANCH   5   6
ENDBRANCH   4   5
ENDBRANCH   2   4
BRANCH   2  26
HETATM   26  C   UNL     1     -10.012  14.604  67.245  1.00  0.00    -0.235 C  
HETATM   27  C   UNL     1     -12.322  12.314  69.045  1.00  0.00     0.160 A  
HETATM   28  C   UNL     1     -10.228  13.456  66.236  1.00  0.00    -0.298 A  
HETATM   29  C   UNL     1     -12.457  12.900  70.299  1.00  0.00    -0.198 A  
HETATM   30  C   UNL     1     -11.112  12.500  66.789  1.00  0.00    -0.323 A  
HETATM   31  C   UNL     1     -11.451  12.895  68.137  1.00  0.00    -0.354 A  
HETATM   32  C   UNL     1     -11.469  11.356  66.089  1.00  0.00    -0.002 A  
HETATM   33  C   UNL     1     -11.679  14.007  70.671  1.00  0.00    -0.230 A  
HETATM   34  C   UNL     1      -9.664  13.225  64.983  1.00  0.00     0.065 A  
HETATM   35  C   UNL     1     -10.724  14.056  68.477  1.00  0.00    -0.266 A  
HETATM   36  C   UNL     1     -10.941  11.160  64.812  1.00  0.00    -0.218 A  
HETATM   37  C   UNL     1     -10.768  14.572  69.768  1.00  0.00    -0.075 A  
HETATM   38  C   UNL     1     -10.047  12.086  64.263  1.00  0.00    -0.319 A  
ENDBRANCH   2  26
TORSDOF 9
ENDMDL
MODEL      394
REMARK 921   NORMALIZED FREE ENERGY PREDICTED BY IDOCK:   -2.05 KCAL/MOL
REMARK 922        TOTAL FREE ENERGY PREDICTED BY IDOCK:   -4.89 KCAL/MOL
REMARK 923 INTER-LIGAND FREE ENERGY PREDICTED BY IDOCK:   -5.22 KCAL/MOL
REMARK 924 INTRA-LIGAND FREE ENERGY PREDICTED BY IDOCK:    0.33 KCAL/MOL
REMARK 927      BINDING AFFINITY PREDICTED BY RF-SCORE:    0.00 PKD
ROOT
HETATM    1  C   UNL     1      -9.870   8.187  72.617  1.00  0.00    -0.294 C  
HETATM    2  N   UNL     1      -9.677   7.916  71.129  1.00  0.00    -0.158 N  
HETATM    3  C   UNL     1     -11.009   7.483  70.523  1.00  0.00    -0.252 C  
ENDROOT
BRANCH   2   4
HETATM    4  C   UNL     1      -9.145   9.169  70.463  1.00  0.00    -0.241 C  
BRANCH   4   5
HETATM    5  C   UNL     1      -7.827   9.026  69.703  1.00  0.00    -0.088 C  
BRANCH   5   6
HETATM    6  C   UNL     1      -8.117   8.956  68.198  1.00  0.00    -0.106 C  
BRANCH   6   7
HETATM    7  C   UNL     1      -9.164   9.976  67.712  1.00  0.00    -0.143 C  
BRANCH   7   8
HETATM    8  C   UNL     1      -8.729  11.441  67.869  1.00  0.00    -0.145 C  
BRANCH   8   9
HETATM    9  C   UNL     1      -9.811  12.336  67.263  1.00  0.00    -0.205 C  
BRANCH   9  10
HETATM   10  N   UNL     1      -9.303  13.510  66.441  1.00  0.00    -0.221 N  
HETATM   11  C   UNL     1      -7.794  13.676  66.586  1.00  0.00     0.765 C  
HETATM   12  C   UNL     1      -9.578  13.327  64.956  1.00  0.00     0.255 C  
BRANCH  10  13
HETATM   13  C   UNL     1     -10.059  14.820  66.981  1.00  0.00    -0.245 C  
HETATM   14  C   UNL     1      -9.176  16.082  67.028  1.00  0.00    -0.229 A  
HETATM   15  C   UNL     1      -9.072  16.552  68.357  1.00  0.00    -0.222 A  
HETATM   16  C   UNL     1      -9.908  15.748  69.216  1.00  0.00    -0.265 A  
HETATM   17  C   UNL     1      -8.283  17.648  68.676  1.00  0.00    -0.264 A  
HETATM   18  C   UNL     1     -10.528  14.733  68.452  1.00  0.00    -0.243 A  
HETATM   19  C   UNL     1      -7.590  18.291  67.651  1.00  0.00    -0.222 A  
HETATM   20  C   UNL     1      -7.718  17.854  66.326  1.00  0.00    -0.302 A  
HETATM   21  C   UNL     1     -11.446  13.883  69.060  1.00  0.00    -0.341 A  
HETATM   22  C   UNL     1     -11.694  14.022  70.432  1.00  0.00    -0.292 A  
HETATM   23  C   UNL     1      -8.529  16.762  66.004  1.00  0.00    -0.201 A  
HETATM   24  C   UNL     1     -11.067  15.024  71.180  1.00  0.00    -0.201 A  
HETATM   25  C   UNL     1     -10.172  15.903  70.571  1.00  0.00     0.287 A  
ENDBRANCH  10  13
ENDBRANCH   9  10
ENDBRANCH   8   9
ENDBRANCH   7   8
ENDBRANCH   6   7
ENDBRANCH   5   6
ENDBRANCH   4   5
ENDBRANCH   2   4
BRANCH   2  26
HETATM   26  C   UNL     1      -8.582   6.754  70.905  1.00  0.00    -0.137 C  
HETATM   27  C   UNL     1      -8.849   3.714  73.028  1.00  0.00    -0.100 A  
HETATM   28  C   UNL     1      -9.004   5.659  69.902  1.00  0.00    -0.142 A  
HETATM   29  C   UNL     1      -8.427   4.147  74.280  1.00  0.00    -0.097 A  
HETATM   30  C   UNL     1      -9.159   4.428  70.582  1.00  0.00    -0.176 A  
HETATM   31  C   UNL     1      -8.799   4.608  71.970  1.00  0.00    -0.136 A  
HETATM   32  C   UNL     1      -9.526   3.272  69.908  1.00  0.00    -0.216 A  
HETATM   33  C   UNL     1      -7.893   5.432  74.461  1.00  0.00    -0.098 A  
HETATM   34  C   UNL     1      -9.174   5.706  68.520  1.00  0.00    -0.131 A  
HETATM   35  C   UNL     1      -8.337   5.927  72.163  1.00  0.00    -0.118 A  
HETATM   36  C   UNL     1      -9.747   3.340  68.532  1.00  0.00     0.012 A  
HETATM   37  C   UNL     1      -7.805   6.325  73.385  1.00  0.00    -0.098 A  
HETATM   38  C   UNL     1      -9.574   4.546  67.844  1.00  0.00    -0.208 A  
ENDBRANCH   2  26
TORSDOF 9
ENDMDL
MODEL      395
REMARK 921   NORMALIZED FREE ENERGY PREDICTED BY IDOCK:   -2.03 KCAL/MOL
REMARK 922        TOTAL FREE ENERGY PREDICTED BY IDOCK:   -4.86 KCAL/MOL
REMARK 923 INTER-LIGAND FREE ENERGY PREDICTED BY IDOCK:   -5.55 KCAL/MOL
REMARK 924 INTRA-LIGAND FREE ENERGY PREDICTED BY IDOCK:    0.69 KCAL/MOL
REMARK 927      BINDING AFFINITY PREDICTED BY RF-SCORE:    0.00 PKD
ROOT
HETATM    1  C   UNL     1     -11.070  10.030  66.091  1.00  0.00     0.624 C  
HETATM    2  N   UNL     1     -10.040  10.508  65.073  1.00  0.00    -0.316 N  
HETATM    3  C   UNL     1     -10.765  11.134  63.885  1.00  0.00    -0.337 C  
ENDROOT
BRANCH   2   4
HETATM    4  C   UNL     1      -9.108  11.498  65.740  1.00  0.00    -0.154 C  
BRANCH   4   5
HETATM    5  C   UNL     1      -9.346  12.974  65.422  1.00  0.00     0.353 C  
BRANCH   5   6
HETATM    6  C   UNL     1      -9.659  13.726  66.722  1.00  0.00    -0.283 C  
BRANCH   6   7
HETATM    7  C   UNL     1      -9.370  12.919  68.001  1.00  0.00    -0.213 C  
BRANCH   7   8
HETATM    8  C   UNL     1     -10.543  12.044  68.467  1.00  0.00    -0.252 C  
BRANCH   8   9
HETATM    9  C   UNL     1     -10.163  11.386  69.794  1.00  0.00     0.608 C  
BRANCH   9  10
HETATM   10  N   UNL     1      -9.842   9.902  69.720  1.00  0.00    -0.226 N  
HETATM   11  C   UNL     1     -10.648   9.216  68.622  1.00  0.00    -0.174 C  
HETATM   12  C   UNL     1      -8.376   9.652  69.402  1.00  0.00    -0.145 C  
BRANCH  10  13
HETATM   13  C   UNL     1     -10.207   9.274  71.152  1.00  0.00    -0.317 C  
HETATM   14  C   UNL     1      -9.739   7.817  71.339  1.00  0.00    -0.194 A  
HETATM   15  C   UNL     1     -10.851   6.974  71.561  1.00  0.00    -0.255 A  
HETATM   16  C   UNL     1     -12.050   7.774  71.636  1.00  0.00    -0.335 A  
HETATM   17  C   UNL     1     -10.700   5.602  71.703  1.00  0.00    -0.313 A  
HETATM   18  C   UNL     1     -11.722   9.133  71.427  1.00  0.00    -0.413 A  
HETATM   19  C   UNL     1      -9.418   5.061  71.629  1.00  0.00    -0.198 A  
HETATM   20  C   UNL     1      -8.306   5.894  71.445  1.00  0.00    -0.128 A  
HETATM   21  C   UNL     1     -12.715  10.101  71.536  1.00  0.00    -0.541 A  
HETATM   22  C   UNL     1     -14.031   9.697  71.798  1.00  0.00    -0.162 A  
HETATM   23  C   UNL     1      -8.458   7.278  71.322  1.00  0.00    -0.115 A  
HETATM   24  C   UNL     1     -14.345   8.348  71.993  1.00  0.00    -0.555 A  
HETATM   25  C   UNL     1     -13.349   7.374  71.921  1.00  0.00    -0.292 A  
ENDBRANCH  10  13
ENDBRANCH   9  10
ENDBRANCH   8   9
ENDBRANCH   7   8
ENDBRANCH   6   7
ENDBRANCH   5   6
ENDBRANCH   4   5
ENDBRANCH   2   4
BRANCH   2  26
HETATM   26  C   UNL     1      -9.139   9.272  64.562  1.00  0.00    -0.089 C  
HETATM   27  C   UNL     1      -5.446   9.642  64.758  1.00  0.00    -0.058 A  
HETATM   28  C   UNL     1      -8.742   8.267  65.665  1.00  0.00    -0.188 A  
HETATM   29  C   UNL     1      -5.149  10.540  63.738  1.00  0.00    -0.160 A  
HETATM   30  C   UNL     1      -7.341   8.309  65.861  1.00  0.00    -0.076 A  
HETATM   31  C   UNL     1      -6.760   9.228  64.910  1.00  0.00    -0.079 A  
HETATM   32  C   UNL     1      -6.719   7.493  66.794  1.00  0.00    -0.062 A  
HETATM   33  C   UNL     1      -6.136  10.964  62.835  1.00  0.00     0.072 A  
HETATM   34  C   UNL     1      -9.510   7.355  66.386  1.00  0.00    -0.194 A  
HETATM   35  C   UNL     1      -7.771   9.712  64.053  1.00  0.00    -0.128 A  
HETATM   36  C   UNL     1      -7.502   6.620  67.551  1.00  0.00    -0.097 A  
HETATM   37  C   UNL     1      -7.457  10.516  62.961  1.00  0.00    -0.043 A  
HETATM   38  C   UNL     1      -8.885   6.553  67.350  1.00  0.00    -0.115 A  
ENDBRANCH   2  26
TORSDOF 9
ENDMDL
MODEL      396
REMARK 921   NORMALIZED FREE ENERGY PREDICTED BY IDOCK:   -1.99 KCAL/MOL
REMARK 922        TOTAL FREE ENERGY PREDICTED BY IDOCK:   -4.80 KCAL/MOL
REMARK 923 INTER-LIGAND FREE ENERGY PREDICTED BY IDOCK:   -5.57 KCAL/MOL
REMARK 924 INTRA-LIGAND FREE ENERGY PREDICTED BY IDOCK:    0.77 KCAL/MOL
REMARK 927      BINDING AFFINITY PREDICTED BY RF-SCORE:    0.00 PKD
ROOT
HETATM    1  C   UNL     1      -5.469  14.040  68.143  1.00  0.00    -0.121 C  
HETATM    2  N   UNL     1      -6.198  15.329  67.775  1.00  0.00    -0.155 N  
HETATM    3  C   UNL     1      -5.248  16.233  66.995  1.00  0.00     0.099 C  
ENDROOT
BRANCH   2   4
HETATM    4  C   UNL     1      -7.430  14.986  66.964  1.00  0.00     0.014 C  
BRANCH   4   5
HETATM    5  C   UNL     1      -7.893  16.037  65.956  1.00  0.00     0.615 C  
BRANCH   5   6
HETATM    6  C   UNL     1      -9.403  16.258  66.114  1.00  0.00    -0.374 C  
BRANCH   6   7
HETATM    7  C   UNL     1     -10.250  14.990  65.899  1.00  0.00    -0.335 C  
BRANCH   7   8
HETATM    8  C   UNL     1      -9.789  13.781  66.727  1.00  0.00    -0.275 C  
BRANCH   8   9
HETATM    9  C   UNL     1      -9.422  12.647  65.771  1.00  0.00    -0.033 C  
BRANCH   9  10
HETATM   10  N   UNL     1     -10.596  11.954  65.097  1.00  0.00    -0.276 N  
HETATM   11  C   UNL     1     -11.817  11.919  66.011  1.00  0.00    -0.022 C  
HETATM   12  C   UNL     1     -11.027  12.670  63.826  1.00  0.00    -0.435 C  
BRANCH  10  13
HETATM   13  C   UNL     1     -10.120  10.461  64.749  1.00  0.00    -0.317 C  
HETATM   14  C   UNL     1      -9.861   9.579  65.986  1.00  0.00    -0.353 A  
HETATM   15  C   UNL     1      -8.511   9.163  66.012  1.00  0.00    -0.139 A  
HETATM   16  C   UNL     1      -7.845   9.624  64.817  1.00  0.00    -0.128 A  
HETATM   17  C   UNL     1      -8.008   8.403  67.058  1.00  0.00    -0.100 A  
HETATM   18  C   UNL     1      -8.754  10.369  64.031  1.00  0.00    -0.202 A  
HETATM   19  C   UNL     1      -8.868   8.045  68.095  1.00  0.00    -0.132 A  
HETATM   20  C   UNL     1     -10.217   8.422  68.059  1.00  0.00    -0.263 A  
HETATM   21  C   UNL     1      -8.352  10.847  62.788  1.00  0.00    -0.144 A  
HETATM   22  C   UNL     1      -7.035  10.621  62.368  1.00  0.00    -0.134 A  
HETATM   23  C   UNL     1     -10.727   9.171  66.994  1.00  0.00    -0.189 A  
HETATM   24  C   UNL     1      -6.142   9.891  63.159  1.00  0.00    -0.119 A  
HETATM   25  C   UNL     1      -6.546   9.378  64.390  1.00  0.00    -0.090 A  
ENDBRANCH  10  13
ENDBRANCH   9  10
ENDBRANCH   8   9
ENDBRANCH   7   8
ENDBRANCH   6   7
ENDBRANCH   5   6
ENDBRANCH   4   5
ENDBRANCH   2   4
BRANCH   2  26
HETATM   26  C   UNL     1      -6.696  16.093  69.105  1.00  0.00    -0.190 C  
HETATM   27  C   UNL     1      -7.853  19.606  68.736  1.00  0.00    -0.332 A  
HETATM   28  C   UNL     1      -8.213  15.994  69.371  1.00  0.00    -0.135 A  
HETATM   29  C   UNL     1      -6.678  20.320  68.524  1.00  0.00    -0.305 A  
HETATM   30  C   UNL     1      -8.799  17.276  69.250  1.00  0.00     0.178 A  
HETATM   31  C   UNL     1      -7.761  18.246  68.988  1.00  0.00    -0.151 A  
HETATM   32  C   UNL     1     -10.158  17.471  69.451  1.00  0.00    -0.053 A  
HETATM   33  C   UNL     1      -5.424  19.702  68.634  1.00  0.00    -0.221 A  
HETATM   34  C   UNL     1      -9.004  14.910  69.748  1.00  0.00     0.215 A  
HETATM   35  C   UNL     1      -6.505  17.603  69.022  1.00  0.00    -0.228 A  
HETATM   36  C   UNL     1     -10.952  16.370  69.775  1.00  0.00    -0.341 A  
HETATM   37  C   UNL     1      -5.326  18.335  68.928  1.00  0.00    -0.191 A  
HETATM   38  C   UNL     1     -10.381  15.101  69.921  1.00  0.00    -0.207 A  
ENDBRANCH   2  26
TORSDOF 9
ENDMDL
MODEL      397
REMARK 921   NORMALIZED FREE ENERGY PREDICTED BY IDOCK:   -1.95 KCAL/MOL
REMARK 922        TOTAL FREE ENERGY PREDICTED BY IDOCK:   -4.73 KCAL/MOL
REMARK 923 INTER-LIGAND FREE ENERGY PREDICTED BY IDOCK:   -5.85 KCAL/MOL
REMARK 924 INTRA-LIGAND FREE ENERGY PREDICTED BY IDOCK:    1.12 KCAL/MOL
REMARK 927      BINDING AFFINITY PREDICTED BY RF-SCORE:    0.00 PKD
ROOT
HETATM    1  C   UNL     1     -10.078  12.830  65.330  1.00  0.00    -0.259 C  
HETATM    2  N   UNL     1      -9.268  12.352  66.531  1.00  0.00    -0.229 N  
HETATM    3  C   UNL     1     -10.161  12.357  67.769  1.00  0.00    -0.203 C  
ENDROOT
BRANCH   2   4
HETATM    4  C   UNL     1      -8.726  10.967  66.243  1.00  0.00    -0.176 C  
BRANCH   4   5
HETATM    5  C   UNL     1      -9.740   9.928  65.764  1.00  0.00    -0.332 C  
BRANCH   5   6
HETATM    6  C   UNL     1     -10.683   9.573  66.922  1.00  0.00    -0.184 C  
BRANCH   6   7
HETATM    7  C   UNL     1     -10.554   8.120  67.414  1.00  0.00    -0.325 C  
BRANCH   7   8
HETATM    8  C   UNL     1      -9.206   7.464  67.081  1.00  0.00    -0.159 C  
BRANCH   8   9
HETATM    9  C   UNL     1      -8.579   6.951  68.378  1.00  0.00    -0.125 C  
BRANCH   9  10
HETATM   10  N   UNL     1      -9.323   5.812  69.058  1.00  0.00    -0.121 N  
HETATM   11  C   UNL     1     -10.595   6.310  69.737  1.00  0.00    -0.264 C  
HETATM   12  C   UNL     1      -9.752   4.740  68.067  1.00  0.00    -0.147 C  
BRANCH  10  13
HETATM   13  C   UNL     1      -8.322   5.184  70.145  1.00  0.00    -0.093 C  
HETATM   14  C   UNL     1      -8.930   4.034  70.970  1.00  0.00    -0.163 A  
HETATM   15  C   UNL     1      -8.950   4.377  72.341  1.00  0.00    -0.135 A  
HETATM   16  C   UNL     1      -8.304   5.655  72.523  1.00  0.00    -0.114 A  
HETATM   17  C   UNL     1      -9.503   3.530  73.290  1.00  0.00    -0.130 A  
HETATM   18  C   UNL     1      -7.895   6.159  71.267  1.00  0.00    -0.111 A  
HETATM   19  C   UNL     1     -10.040   2.315  72.867  1.00  0.00    -0.206 A  
HETATM   20  C   UNL     1      -9.990   1.951  71.515  1.00  0.00    -0.172 A  
HETATM   21  C   UNL     1      -7.176   7.348  71.207  1.00  0.00    -0.067 A  
HETATM   22  C   UNL     1      -6.919   8.046  72.395  1.00  0.00    -0.090 A  
HETATM   23  C   UNL     1      -9.415   2.797  70.563  1.00  0.00    -0.202 A  
HETATM   24  C   UNL     1      -7.337   7.542  73.631  1.00  0.00    -0.123 A  
HETATM   25  C   UNL     1      -8.028   6.333  73.704  1.00  0.00    -0.100 A  
ENDBRANCH  10  13
ENDBRANCH   9  10
ENDBRANCH   8   9
ENDBRANCH   7   8
ENDBRANCH   6   7
ENDBRANCH   5   6
ENDBRANCH   4   5
ENDBRANCH   2   4
BRANCH   2  26
HETATM   26  C   UNL     1      -8.003  13.320  66.777  1.00  0.00     0.327 C  
HETATM   27  C   UNL     1      -8.477  16.223  69.051  1.00  0.00    -0.244 A  
HETATM   28  C   UNL     1      -7.141  12.952  68.004  1.00  0.00    -0.111 A  
HETATM   29  C   UNL     1      -9.258  17.101  68.307  1.00  0.00    -0.262 A  
HETATM   30  C   UNL     1      -7.237  13.977  68.975  1.00  0.00    -0.092 A  
HETATM   31  C   UNL     1      -8.053  15.047  68.450  1.00  0.00    -0.141 A  
HETATM   32  C   UNL     1      -6.548  13.899  70.176  1.00  0.00     0.049 A  
HETATM   33  C   UNL     1      -9.553  16.846  66.959  1.00  0.00    -0.252 A  
HETATM   34  C   UNL     1      -6.301  11.864  68.234  1.00  0.00    -0.051 A  
HETATM   35  C   UNL     1      -8.412  14.749  67.118  1.00  0.00    -0.247 A  
HETATM   36  C   UNL     1      -5.751  12.781  70.422  1.00  0.00    -0.173 A  
HETATM   37  C   UNL     1      -9.092  15.678  66.337  1.00  0.00    -0.355 A  
HETATM   38  C   UNL     1      -5.629  11.771  69.460  1.00  0.00    -0.071 A  
ENDBRANCH   2  26
TORSDOF 9
ENDMDL
MODEL      398
REMARK 921   NORMALIZED FREE ENERGY PREDICTED BY IDOCK:   -1.86 KCAL/MOL
REMARK 922        TOTAL FREE ENERGY PREDICTED BY IDOCK:   -4.61 KCAL/MOL
REMARK 923 INTER-LIGAND FREE ENERGY PREDICTED BY IDOCK:   -5.47 KCAL/MOL
REMARK 924 INTRA-LIGAND FREE ENERGY PREDICTED BY IDOCK:    0.87 KCAL/MOL
REMARK 927      BINDING AFFINITY PREDICTED BY RF-SCORE:    0.00 PKD
ROOT
HETATM    1  C   UNL     1      -8.868  12.750  69.256  1.00  0.00     0.988 C  
HETATM    2  N   UNL     1      -8.773  13.455  67.907  1.00  0.00    -0.176 N  
HETATM    3  C   UNL     1      -7.509  14.311  67.879  1.00  0.00    -0.150 C  
ENDROOT
BRANCH   2   4
HETATM    4  C   UNL     1      -8.766  12.417  66.805  1.00  0.00    -0.160 C  
BRANCH   4   5
HETATM    5  C   UNL     1      -7.514  11.546  66.702  1.00  0.00    -0.078 C  
BRANCH   5   6
HETATM    6  C   UNL     1      -7.737  10.245  67.485  1.00  0.00    -0.094 C  
BRANCH   6   7
HETATM    7  C   UNL     1      -6.587   9.230  67.360  1.00  0.00    -0.064 C  
BRANCH   7   8
HETATM    8  C   UNL     1      -7.005   7.881  66.757  1.00  0.00    -0.073 C  
BRANCH   8   9
HETATM    9  C   UNL     1      -7.608   7.018  67.867  1.00  0.00    -0.111 C  
BRANCH   9  10
HETATM   10  N   UNL     1      -6.861   5.730  68.173  1.00  0.00    -0.065 N  
HETATM   11  C   UNL     1      -6.012   5.287  66.985  1.00  0.00    -0.026 C  
HETATM   12  C   UNL     1      -5.910   5.888  69.349  1.00  0.00    -0.020 C  
BRANCH  10  13
HETATM   13  C   UNL     1      -7.969   4.617  68.509  1.00  0.00    -0.080 C  
HETATM   14  C   UNL     1      -9.211   5.164  69.238  1.00  0.00    -0.151 A  
HETATM   15  C   UNL     1      -9.341   4.549  70.503  1.00  0.00    -0.218 A  
HETATM   16  C   UNL     1      -8.321   3.540  70.653  1.00  0.00    -0.093 A  
HETATM   17  C   UNL     1     -10.352   4.912  71.382  1.00  0.00    -0.221 A  
HETATM   18  C   UNL     1      -7.504   3.523  69.499  1.00  0.00    -0.048 A  
HETATM   19  C   UNL     1     -11.253   5.901  70.990  1.00  0.00    -0.280 A  
HETATM   20  C   UNL     1     -11.153   6.489  69.723  1.00  0.00    -0.430 A  
HETATM   21  C   UNL     1      -6.498   2.569  69.385  1.00  0.00    -0.029 A  
HETATM   22  C   UNL     1      -6.284   1.679  70.447  1.00  0.00    -0.023 A  
HETATM   23  C   UNL     1     -10.146   6.109  68.831  1.00  0.00    -0.211 A  
HETATM   24  C   UNL     1      -7.092   1.713  71.588  1.00  0.00    -0.031 A  
HETATM   25  C   UNL     1      -8.126   2.642  71.695  1.00  0.00    -0.057 A  
ENDBRANCH  10  13
ENDBRANCH   9  10
ENDBRANCH   8   9
ENDBRANCH   7   8
ENDBRANCH   6   7
ENDBRANCH   5   6
ENDBRANCH   4   5
ENDBRANCH   2   4
BRANCH   2  26
HETATM   26  C   UNL     1     -10.062  14.395  67.672  1.00  0.00    -0.222 C  
HETATM   27  C   UNL     1     -12.007  15.424  70.668  1.00  0.00    -0.396 A  
HETATM   28  C   UNL     1      -9.780  15.909  67.773  1.00  0.00    -0.220 A  
HETATM   29  C   UNL     1     -12.672  14.262  71.045  1.00  0.00    -0.430 A  
HETATM   30  C   UNL     1     -10.457  16.443  68.895  1.00  0.00    -0.285 A  
HETATM   31  C   UNL     1     -11.235  15.397  69.517  1.00  0.00    -0.289 A  
HETATM   32  C   UNL     1     -10.379  17.792  69.210  1.00  0.00    -0.065 A  
HETATM   33  C   UNL     1     -12.629  13.110  70.246  1.00  0.00    -0.133 A  
HETATM   34  C   UNL     1      -9.060  16.760  66.936  1.00  0.00    -0.248 A  
HETATM   35  C   UNL     1     -11.124  14.217  68.751  1.00  0.00    -0.283 A  
HETATM   36  C   UNL     1      -9.611  18.627  68.398  1.00  0.00    -0.396 A  
HETATM   37  C   UNL     1     -11.882  13.092  69.061  1.00  0.00    -0.362 A  
HETATM   38  C   UNL     1      -8.956  18.116  67.272  1.00  0.00    -0.248 A  
ENDBRANCH   2  26
TORSDOF 9
ENDMDL
MODEL      399
REMARK 921   NORMALIZED FREE ENERGY PREDICTED BY IDOCK:   -1.85 KCAL/MOL
REMARK 922        TOTAL FREE ENERGY PREDICTED BY IDOCK:   -4.59 KCAL/MOL
REMARK 923 INTER-LIGAND FREE ENERGY PREDICTED BY IDOCK:   -6.61 KCAL/MOL
REMARK 924 INTRA-LIGAND FREE ENERGY PREDICTED BY IDOCK:    2.02 KCAL/MOL
REMARK 927      BINDING AFFINITY PREDICTED BY RF-SCORE:    0.00 PKD
ROOT
HETATM    1  C   UNL     1      -8.959  10.157  69.735  1.00  0.00    -0.132 C  
HETATM    2  N   UNL     1      -9.057   9.493  68.366  1.00  0.00    -0.127 N  
HETATM    3  C   UNL     1      -8.108   8.298  68.321  1.00  0.00    -0.124 C  
ENDROOT
BRANCH   2   4
HETATM    4  C   UNL     1     -10.491   9.072  68.121  1.00  0.00    -0.207 C  
BRANCH   4   5
HETATM    5  C   UNL     1     -10.697   7.860  67.213  1.00  0.00    -0.299 C  
BRANCH   5   6
HETATM    6  C   UNL     1      -9.474   6.939  67.317  1.00  0.00    -0.161 C  
BRANCH   6   7
HETATM    7  C   UNL     1      -9.759   5.472  66.943  1.00  0.00    -0.163 C  
BRANCH   7   8
HETATM    8  C   UNL     1      -9.845   4.525  68.150  1.00  0.00    -0.152 C  
BRANCH   8   9
HETATM    9  C   UNL     1      -8.644   4.786  69.060  1.00  0.00    -0.080 C  
BRANCH   9  10
HETATM   10  N   UNL     1      -8.322   3.680  70.052  1.00  0.00    -0.055 N  
HETATM   11  C   UNL     1      -8.938   2.353  69.620  1.00  0.00    -0.099 C  
HETATM   12  C   UNL     1      -6.825   3.442  70.174  1.00  0.00    -0.034 C  
BRANCH  10  13
HETATM   13  C   UNL     1      -8.922   4.134  71.470  1.00  0.00    -0.119 C  
HETATM   14  C   UNL     1      -9.759   5.427  71.414  1.00  0.00    -0.213 A  
HETATM   15  C   UNL     1      -9.172   6.422  72.228  1.00  0.00    -0.139 A  
HETATM   16  C   UNL     1      -8.034   5.864  72.919  1.00  0.00    -0.107 A  
HETATM   17  C   UNL     1      -9.705   7.700  72.305  1.00  0.00    -0.226 A  
HETATM   18  C   UNL     1      -7.861   4.517  72.527  1.00  0.00    -0.087 A  
HETATM   19  C   UNL     1     -10.848   7.991  71.562  1.00  0.00    -0.278 A  
HETATM   20  C   UNL     1     -11.458   7.001  70.781  1.00  0.00    -0.360 A  
HETATM   21  C   UNL     1      -6.868   3.751  73.129  1.00  0.00    -0.044 A  
HETATM   22  C   UNL     1      -6.027   4.353  74.075  1.00  0.00    -0.024 A  
HETATM   23  C   UNL     1     -10.931   5.708  70.720  1.00  0.00    -0.257 A  
HETATM   24  C   UNL     1      -6.202   5.690  74.447  1.00  0.00    -0.065 A  
HETATM   25  C   UNL     1      -7.218   6.455  73.875  1.00  0.00    -0.085 A  
ENDBRANCH  10  13
ENDBRANCH   9  10
ENDBRANCH   8   9
ENDBRANCH   7   8
ENDBRANCH   6   7
ENDBRANCH   5   6
ENDBRANCH   4   5
ENDBRANCH   2   4
BRANCH   2  26
HETATM   26  C   UNL     1      -8.659  10.538  67.204  1.00  0.00    -0.127 C  
HETATM   27  C   UNL     1      -8.498   9.253  63.719  1.00  0.00    -0.197 A  
HETATM   28  C   UNL     1      -9.861  11.224  66.519  1.00  0.00    -0.239 A  
HETATM   29  C   UNL     1      -7.338   8.486  63.703  1.00  0.00    -0.106 A  
HETATM   30  C   UNL     1      -9.934  10.812  65.167  1.00  0.00    -0.351 A  
HETATM   31  C   UNL     1      -8.815   9.945  64.878  1.00  0.00    -0.223 A  
HETATM   32  C   UNL     1     -10.922  11.290  64.319  1.00  0.00    -0.358 A  
HETATM   33  C   UNL     1      -6.466   8.467  64.802  1.00  0.00    -0.065 A  
HETATM   34  C   UNL     1     -10.767  12.167  66.999  1.00  0.00    -0.272 A  
HETATM   35  C   UNL     1      -7.982   9.866  66.015  1.00  0.00    -0.114 A  
HETATM   36  C   UNL     1     -11.859  12.193  64.823  1.00  0.00    -0.385 A  
HETATM   37  C   UNL     1      -6.763   9.197  65.961  1.00  0.00    -0.076 A  
HETATM   38  C   UNL     1     -11.784  12.627  66.151  1.00  0.00    -0.461 A  
ENDBRANCH   2  26
TORSDOF 9
ENDMDL
MODEL      400
REMARK 921   NORMALIZED FREE ENERGY PREDICTED BY IDOCK:   -1.84 KCAL/MOL
REMARK 922        TOTAL FREE ENERGY PREDICTED BY IDOCK:   -4.57 KCAL/MOL
REMARK 923 INTER-LIGAND FREE ENERGY PREDICTED BY IDOCK:   -3.78 KCAL/MOL
REMARK 924 INTRA-LIGAND FREE ENERGY PREDICTED BY IDOCK:   -0.79 KCAL/MOL
REMARK 927      BINDING AFFINITY PREDICTED BY RF-SCORE:    0.00 PKD
ROOT
HETATM    1  C   UNL     1     -12.367  13.083  69.045  1.00  0.00     0.133 C  
HETATM    2  N   UNL     1     -11.138  12.279  68.634  1.00  0.00    -0.233 N  
HETATM    3  C   UNL     1     -10.201  12.151  69.832  1.00  0.00     1.557 C  
ENDROOT
BRANCH   2   4
HETATM    4  C   UNL     1     -11.582  10.921  68.129  1.00  0.00    -0.241 C  
BRANCH   4   5
HETATM    5  C   UNL     1     -10.513   9.829  68.091  1.00  0.00    -0.258 C  
BRANCH   5   6
HETATM    6  C   UNL     1     -10.976   8.640  68.944  1.00  0.00     0.083 C  
BRANCH   6   7
HETATM    7  C   UNL     1     -11.972   9.015  70.057  1.00  0.00     0.397 C  
BRANCH   7   8
HETATM    8  C   UNL     1     -11.754   8.253  71.373  1.00  0.00    -0.327 C  
BRANCH   8   9
HETATM    9  C   UNL     1     -10.262   7.953  71.521  1.00  0.00    -0.190 C  
BRANCH   9  10
HETATM   10  N   UNL     1      -9.914   6.508  71.843  1.00  0.00    -0.178 N  
HETATM   11  C   UNL     1     -10.409   6.116  73.231  1.00  0.00    -0.227 C  
HETATM   12  C   UNL     1     -10.554   5.536  70.864  1.00  0.00    -0.239 C  
BRANCH  10  13
HETATM   13  C   UNL     1      -8.314   6.387  71.769  1.00  0.00    -0.120 C  
HETATM   14  C   UNL     1      -7.726   6.654  70.370  1.00  0.00    -0.097 A  
HETATM   15  C   UNL     1      -7.051   5.506  69.899  1.00  0.00    -0.063 A  
HETATM   16  C   UNL     1      -7.054   4.494  70.927  1.00  0.00    -0.037 A  
HETATM   17  C   UNL     1      -6.480   5.471  68.635  1.00  0.00    -0.043 A  
HETATM   18  C   UNL     1      -7.761   4.971  72.055  1.00  0.00    -0.104 A  
HETATM   19  C   UNL     1      -6.578   6.603  67.828  1.00  0.00    -0.058 A  
HETATM   20  C   UNL     1      -7.214   7.758  68.301  1.00  0.00    -0.089 A  
HETATM   21  C   UNL     1      -7.825   4.191  73.205  1.00  0.00    -0.085 A  
HETATM   22  C   UNL     1      -7.227   2.923  73.198  1.00  0.00    -0.044 A  
HETATM   23  C   UNL     1      -7.771   7.799  69.582  1.00  0.00    -0.101 A  
HETATM   24  C   UNL     1      -6.539   2.457  72.073  1.00  0.00    -0.015 A  
HETATM   25  C   UNL     1      -6.440   3.247  70.928  1.00  0.00    -0.027 A  
ENDBRANCH  10  13
ENDBRANCH   9  10
ENDBRANCH   8   9
ENDBRANCH   7   8
ENDBRANCH   6   7
ENDBRANCH   5   6
ENDBRANCH   4   5
ENDBRANCH   2   4
BRANCH   2  26
HETATM   26  C   UNL     1     -10.366  13.011  67.423  1.00  0.00    -0.234 C  
HETATM   27  C   UNL     1      -7.901  11.006  65.494  1.00  0.00     0.121 A  
HETATM   28  C   UNL     1     -11.041  12.855  66.043  1.00  0.00    -0.308 A  
HETATM   29  C   UNL     1      -6.826  10.876  66.366  1.00  0.00    -0.135 A  
HETATM   30  C   UNL     1     -10.209  12.089  65.193  1.00  0.00    -0.308 A  
HETATM   31  C   UNL     1      -8.982  11.778  65.890  1.00  0.00    -0.060 A  
HETATM   32  C   UNL     1     -10.577  11.807  63.886  1.00  0.00    -0.445 A  
HETATM   33  C   UNL     1      -6.796  11.565  67.588  1.00  0.00    -0.083 A  
HETATM   34  C   UNL     1     -12.232  13.381  65.546  1.00  0.00    -0.499 A  
HETATM   35  C   UNL     1      -8.992  12.410  67.152  1.00  0.00    -0.195 A  
HETATM   36  C   UNL     1     -11.797  12.292  63.413  1.00  0.00    -0.563 A  
HETATM   37  C   UNL     1      -7.870  12.378  67.974  1.00  0.00    -0.141 A  
HETATM   38  C   UNL     1     -12.618  13.071  64.236  1.00  0.00    -0.326 A  
ENDBRANCH   2  26
TORSDOF 9
ENDMDL
MODEL      401
REMARK 921   NORMALIZED FREE ENERGY PREDICTED BY IDOCK:   -1.83 KCAL/MOL
REMARK 922        TOTAL FREE ENERGY PREDICTED BY IDOCK:   -4.57 KCAL/MOL
REMARK 923 INTER-LIGAND FREE ENERGY PREDICTED BY IDOCK:   -4.55 KCAL/MOL
REMARK 924 INTRA-LIGAND FREE ENERGY PREDICTED BY IDOCK:   -0.02 KCAL/MOL
REMARK 927      BINDING AFFINITY PREDICTED BY RF-SCORE:    0.00 PKD
ROOT
HETATM    1  C   UNL     1      -6.130  14.079  68.485  1.00  0.00    -0.094 C  
HETATM    2  N   UNL     1      -7.607  14.084  68.106  1.00  0.00    -0.127 N  
HETATM    3  C   UNL     1      -7.768  14.727  66.731  1.00  0.00     0.356 C  
ENDROOT
BRANCH   2   4
HETATM    4  C   UNL     1      -8.126  12.661  68.119  1.00  0.00    -0.164 C  
BRANCH   4   5
HETATM    5  C   UNL     1      -8.599  12.100  66.778  1.00  0.00    -0.163 C  
BRANCH   5   6
HETATM    6  C   UNL     1     -10.082  11.720  66.885  1.00  0.00    -0.231 C  
BRANCH   6   7
HETATM    7  C   UNL     1     -10.402  10.294  66.402  1.00  0.00    -0.262 C  
BRANCH   7   8
HETATM    8  C   UNL     1     -10.687   9.298  67.537  1.00  0.00    -0.272 C  
BRANCH   8   9
HETATM    9  C   UNL     1      -9.444   8.434  67.749  1.00  0.00    -0.149 C  
BRANCH   9  10
HETATM   10  N   UNL     1      -9.546   7.005  67.239  1.00  0.00    -0.135 N  
HETATM   11  C   UNL     1     -10.948   6.443  67.446  1.00  0.00    -0.376 C  
HETATM   12  C   UNL     1      -9.256   6.909  65.749  1.00  0.00     0.132 C  
BRANCH  10  13
HETATM   13  C   UNL     1      -8.474   6.138  68.063  1.00  0.00    -0.116 C  
HETATM   14  C   UNL     1      -7.939   4.909  67.301  1.00  0.00    -0.095 A  
HETATM   15  C   UNL     1      -8.264   3.726  68.001  1.00  0.00    -0.093 A  
HETATM   16  C   UNL     1      -8.905   4.067  69.248  1.00  0.00    -0.143 A  
HETATM   17  C   UNL     1      -7.942   2.475  67.494  1.00  0.00    -0.068 A  
HETATM   18  C   UNL     1      -9.029   5.472  69.343  1.00  0.00    -0.120 A  
HETATM   19  C   UNL     1      -7.279   2.403  66.270  1.00  0.00    -0.064 A  
HETATM   20  C   UNL     1      -6.921   3.573  65.587  1.00  0.00    -0.058 A  
HETATM   21  C   UNL     1      -9.548   6.037  70.503  1.00  0.00    -0.198 A  
HETATM   22  C   UNL     1      -9.986   5.192  71.533  1.00  0.00    -0.248 A  
HETATM   23  C   UNL     1      -7.229   4.832  66.109  1.00  0.00    -0.076 A  
HETATM   24  C   UNL     1      -9.867   3.803  71.423  1.00  0.00    -0.226 A  
HETATM   25  C   UNL     1      -9.315   3.229  70.278  1.00  0.00    -0.242 A  
ENDBRANCH  10  13
ENDBRANCH   9  10
ENDBRANCH   8   9
ENDBRANCH   7   8
ENDBRANCH   6   7
ENDBRANCH   5   6
ENDBRANCH   4   5
ENDBRANCH   2   4
BRANCH   2  26
HETATM   26  C   UNL     1      -8.463  14.916  69.191  1.00  0.00    -0.152 C  
HETATM   27  C   UNL     1     -10.482  17.782  67.955  1.00  0.00    -0.399 A  
HETATM   28  C   UNL     1      -9.916  14.428  69.373  1.00  0.00     0.093 A  
HETATM   29  C   UNL     1      -9.532  18.754  67.663  1.00  0.00    -0.330 A  
HETATM   30  C   UNL     1     -10.811  15.428  68.924  1.00  0.00    -0.251 A  
HETATM   31  C   UNL     1     -10.054  16.589  68.516  1.00  0.00    -0.255 A  
HETATM   32  C   UNL     1     -12.185  15.248  68.986  1.00  0.00    -0.158 A  
HETATM   33  C   UNL     1      -8.180  18.570  67.993  1.00  0.00    -0.286 A  
HETATM   34  C   UNL     1     -10.421  13.257  69.935  1.00  0.00     1.081 A  
HETATM   35  C   UNL     1      -8.685  16.366  68.779  1.00  0.00    -0.246 A  
HETATM   36  C   UNL     1     -12.682  14.049  69.500  1.00  0.00     0.218 A  
HETATM   37  C   UNL     1      -7.750  17.381  68.597  1.00  0.00    -0.273 A  
HETATM   38  C   UNL     1     -11.808  13.062  69.969  1.00  0.00    -0.355 A  
ENDBRANCH   2  26
TORSDOF 9
ENDMDL
MODEL      402
REMARK 921   NORMALIZED FREE ENERGY PREDICTED BY IDOCK:   -1.63 KCAL/MOL
REMARK 922        TOTAL FREE ENERGY PREDICTED BY IDOCK:   -4.25 KCAL/MOL
REMARK 923 INTER-LIGAND FREE ENERGY PREDICTED BY IDOCK:   -2.48 KCAL/MOL
REMARK 924 INTRA-LIGAND FREE ENERGY PREDICTED BY IDOCK:   -1.77 KCAL/MOL
REMARK 927      BINDING AFFINITY PREDICTED BY RF-SCORE:    0.00 PKD
ROOT
HETATM    1  C   UNL     1     -11.990   6.072  70.887  1.00  0.00     0.308 C  
HETATM    2  N   UNL     1     -10.659   6.817  70.927  1.00  0.00    -0.217 N  
HETATM    3  C   UNL     1      -9.985   6.708  69.562  1.00  0.00    -0.163 C  
ENDROOT
BRANCH   2   4
HETATM    4  C   UNL     1     -10.911   8.261  71.309  1.00  0.00    -0.243 C  
BRANCH   4   5
HETATM    5  C   UNL     1     -11.927   9.020  70.456  1.00  0.00    -0.044 C  
BRANCH   5   6
HETATM    6  C   UNL     1     -11.679  10.528  70.600  1.00  0.00    -0.453 C  
BRANCH   6   7
HETATM    7  C   UNL     1     -10.191  10.923  70.603  1.00  0.00     1.653 C  
BRANCH   7   8
HETATM    8  C   UNL     1      -9.409  10.424  69.378  1.00  0.00    -0.186 C  
BRANCH   8   9
HETATM    9  C   UNL     1      -7.958  10.177  69.794  1.00  0.00    -0.161 C  
BRANCH   9  10
HETATM   10  N   UNL     1      -6.914  10.973  69.028  1.00  0.00    -0.087 N  
HETATM   11  C   UNL     1      -7.373  12.409  68.796  1.00  0.00    -0.076 C  
HETATM   12  C   UNL     1      -5.595  11.057  69.782  1.00  0.00    -0.052 C  
BRANCH  10  13
HETATM   13  C   UNL     1      -6.695  10.226  67.624  1.00  0.00    -0.074 C  
HETATM   14  C   UNL     1      -7.846  10.426  66.619  1.00  0.00    -0.120 A  
HETATM   15  C   UNL     1      -8.431   9.181  66.297  1.00  0.00    -0.131 A  
HETATM   16  C   UNL     1      -7.692   8.124  66.943  1.00  0.00    -0.096 A  
HETATM   17  C   UNL     1      -9.529   9.095  65.452  1.00  0.00    -0.231 A  
HETATM   18  C   UNL     1      -6.648   8.683  67.714  1.00  0.00    -0.062 A  
HETATM   19  C   UNL     1     -10.049  10.271  64.913  1.00  0.00    -0.346 A  
HETATM   20  C   UNL     1      -9.451  11.506  65.198  1.00  0.00    -0.190 A  
HETATM   21  C   UNL     1      -5.751   7.843  68.365  1.00  0.00    -0.032 A  
HETATM   22  C   UNL     1      -5.938   6.456  68.283  1.00  0.00    -0.017 A  
HETATM   23  C   UNL     1      -8.334  11.589  66.033  1.00  0.00     0.042 A  
HETATM   24  C   UNL     1      -6.981   5.915  67.525  1.00  0.00    -0.069 A  
HETATM   25  C   UNL     1      -7.864   6.749  66.840  1.00  0.00    -0.108 A  
ENDBRANCH  10  13
ENDBRANCH   9  10
ENDBRANCH   8   9
ENDBRANCH   7   8
ENDBRANCH   6   7
ENDBRANCH   5   6
ENDBRANCH   4   5
ENDBRANCH   2   4
BRANCH   2  26
HETATM   26  C   UNL     1      -9.695   6.184  72.054  1.00  0.00    -0.151 C  
HETATM   27  C   UNL     1      -7.018   3.868  70.921  1.00  0.00    -0.033 A  
HETATM   28  C   UNL     1      -8.402   6.986  72.315  1.00  0.00    -0.115 A  
HETATM   29  C   UNL     1      -7.706   2.710  70.576  1.00  0.00    -0.043 A  
HETATM   30  C   UNL     1      -7.281   6.220  71.913  1.00  0.00    -0.087 A  
HETATM   31  C   UNL     1      -7.733   4.925  71.462  1.00  0.00    -0.096 A  
HETATM   32  C   UNL     1      -5.989   6.706  72.049  1.00  0.00    -0.038 A  
HETATM   33  C   UNL     1      -9.079   2.579  70.834  1.00  0.00    -0.182 A  
HETATM   34  C   UNL     1      -8.205   8.232  72.906  1.00  0.00    -0.227 A  
HETATM   35  C   UNL     1      -9.129   4.828  71.650  1.00  0.00    -0.169 A  
HETATM   36  C   UNL     1      -5.804   7.978  72.592  1.00  0.00    -0.045 A  
HETATM   37  C   UNL     1      -9.799   3.631  71.417  1.00  0.00    -0.219 A  
HETATM   38  C   UNL     1      -6.902   8.736  73.016  1.00  0.00     0.082 A  
ENDBRANCH   2  26
TORSDOF 9
ENDMDL
MODEL      403
REMARK 921   NORMALIZED FREE ENERGY PREDICTED BY IDOCK:   -1.45 KCAL/MOL
REMARK 922        TOTAL FREE ENERGY PREDICTED BY IDOCK:   -3.98 KCAL/MOL
REMARK 923 INTER-LIGAND FREE ENERGY PREDICTED BY IDOCK:   -5.29 KCAL/MOL
REMARK 924 INTRA-LIGAND FREE ENERGY PREDICTED BY IDOCK:    1.31 KCAL/MOL
REMARK 927      BINDING AFFINITY PREDICTED BY RF-SCORE:    0.00 PKD
ROOT
HETATM    1  C   UNL     1     -10.441   8.724  69.932  1.00  0.00    -0.221 C  
HETATM    2  N   UNL     1      -9.031   8.649  69.356  1.00  0.00    -0.144 N  
HETATM    3  C   UNL     1      -8.195   9.788  69.931  1.00  0.00    -0.183 C  
ENDROOT
BRANCH   2   4
HETATM    4  C   UNL     1      -8.432   7.298  69.689  1.00  0.00    -0.133 C  
BRANCH   4   5
HETATM    5  C   UNL     1      -9.041   6.091  68.974  1.00  0.00    -0.122 C  
BRANCH   5   6
HETATM    6  C   UNL     1      -9.770   5.212  70.000  1.00  0.00    -0.275 C  
BRANCH   6   7
HETATM    7  C   UNL     1      -9.424   3.715  69.903  1.00  0.00    -0.262 C  
BRANCH   7   8
HETATM    8  C   UNL     1      -7.917   3.424  69.845  1.00  0.00    -0.053 C  
BRANCH   8   9
HETATM    9  C   UNL     1      -7.216   4.268  70.910  1.00  0.00    -0.041 C  
BRANCH   9  10
HETATM   10  N   UNL     1      -6.661   3.497  72.097  1.00  0.00    -0.018 N  
HETATM   11  C   UNL     1      -6.791   1.992  71.887  1.00  0.00    -0.019 C  
HETATM   12  C   UNL     1      -5.182   3.777  72.317  1.00  0.00     0.000 C  
BRANCH  10  13
HETATM   13  C   UNL     1      -7.504   3.953  73.385  1.00  0.00    -0.070 C  
HETATM   14  C   UNL     1      -8.888   3.285  73.501  1.00  0.00    -0.080 A  
HETATM   15  C   UNL     1      -9.904   4.266  73.463  1.00  0.00    -0.156 A  
HETATM   16  C   UNL     1      -9.303   5.577  73.425  1.00  0.00    -0.138 A  
HETATM   17  C   UNL     1     -11.247   3.916  73.493  1.00  0.00    -0.312 A  
HETATM   18  C   UNL     1      -7.896   5.449  73.403  1.00  0.00    -0.107 A  
HETATM   19  C   UNL     1     -11.582   2.565  73.570  1.00  0.00    -0.198 A  
HETATM   20  C   UNL     1     -10.580   1.589  73.645  1.00  0.00    -0.186 A  
HETATM   21  C   UNL     1      -7.103   6.591  73.447  1.00  0.00    -0.078 A  
HETATM   22  C   UNL     1      -7.723   7.847  73.458  1.00  0.00    -0.202 A  
HETATM   23  C   UNL     1      -9.228   1.944  73.634  1.00  0.00    -0.077 A  
HETATM   24  C   UNL     1      -9.117   7.962  73.470  1.00  0.00    -0.346 A  
HETATM   25  C   UNL     1      -9.920   6.822  73.462  1.00  0.00    -0.269 A  
ENDBRANCH  10  13
ENDBRANCH   9  10
ENDBRANCH   8   9
ENDBRANCH   7   8
ENDBRANCH   6   7
ENDBRANCH   5   6
ENDBRANCH   4   5
ENDBRANCH   2   4
BRANCH   2  26
HETATM   26  C   UNL     1      -9.073   8.771  67.749  1.00  0.00    -0.135 C  
HETATM   27  C   UNL     1      -5.993   7.863  65.876  1.00  0.00    -0.038 A  
HETATM   28  C   UNL     1      -9.475   7.473  67.016  1.00  0.00    -0.206 A  
HETATM   29  C   UNL     1      -5.126   8.920  66.134  1.00  0.00    -0.029 A  
HETATM   30  C   UNL     1      -8.378   6.997  66.260  1.00  0.00    -0.129 A  
HETATM   31  C   UNL     1      -7.282   7.930  66.381  1.00  0.00    -0.082 A  
HETATM   32  C   UNL     1      -8.475   5.843  65.495  1.00  0.00    -0.154 A  
HETATM   33  C   UNL     1      -5.559  10.062  66.824  1.00  0.00    -0.046 A  
HETATM   34  C   UNL     1     -10.694   6.802  66.955  1.00  0.00    -0.435 A  
HETATM   35  C   UNL     1      -7.700   9.042  67.143  1.00  0.00    -0.099 A  
HETATM   36  C   UNL     1      -9.684   5.147  65.483  1.00  0.00    -0.032 A  
HETATM   37  C   UNL     1      -6.874  10.150  67.301  1.00  0.00    -0.078 A  
HETATM   38  C   UNL     1     -10.784   5.620  66.207  1.00  0.00    -0.142 A  
ENDBRANCH   2  26
TORSDOF 9
ENDMDL
MODEL      404
REMARK 921   NORMALIZED FREE ENERGY PREDICTED BY IDOCK:   -1.42 KCAL/MOL
REMARK 922        TOTAL FREE ENERGY PREDICTED BY IDOCK:   -3.93 KCAL/MOL
REMARK 923 INTER-LIGAND FREE ENERGY PREDICTED BY IDOCK:   -5.19 KCAL/MOL
REMARK 924 INTRA-LIGAND FREE ENERGY PREDICTED BY IDOCK:    1.26 KCAL/MOL
REMARK 927      BINDING AFFINITY PREDICTED BY RF-SCORE:    0.00 PKD
ROOT
HETATM    1  C   UNL     1      -9.748  20.727  65.949  1.00  0.00     0.583 C  
HETATM    2  N   UNL     1      -9.756  19.463  66.803  1.00  0.00    -0.328 N  
HETATM    3  C   UNL     1      -9.533  19.846  68.263  1.00  0.00    -0.303 C  
ENDROOT
BRANCH   2   4
HETATM    4  C   UNL     1     -11.076  18.745  66.612  1.00  0.00     0.250 C  
BRANCH   4   5
HETATM    5  C   UNL     1     -11.517  17.823  67.748  1.00  0.00     0.779 C  
BRANCH   5   6
HETATM    6  C   UNL     1     -10.975  16.411  67.491  1.00  0.00    -0.184 C  
BRANCH   6   7
HETATM    7  C   UNL     1     -10.763  16.080  66.002  1.00  0.00    -0.271 C  
BRANCH   7   8
HETATM    8  C   UNL     1     -10.300  14.638  65.742  1.00  0.00    -0.349 C  
BRANCH   8   9
HETATM    9  C   UNL     1     -11.330  13.681  66.341  1.00  0.00    -0.316 C  
BRANCH   9  10
HETATM   10  N   UNL     1     -10.845  12.853  67.521  1.00  0.00    -0.232 N  
HETATM   11  C   UNL     1      -9.327  12.911  67.650  1.00  0.00    -0.195 C  
HETATM   12  C   UNL     1     -11.412  13.354  68.840  1.00  0.00    -0.304 C  
BRANCH  10  13
HETATM   13  C   UNL     1     -11.322  11.342  67.258  1.00  0.00    -0.275 C  
HETATM   14  C   UNL     1     -11.587  10.533  68.543  1.00  0.00    -0.222 A  
HETATM   15  C   UNL     1     -10.720   9.419  68.601  1.00  0.00    -0.196 A  
HETATM   16  C   UNL     1      -9.940   9.355  67.389  1.00  0.00    -0.252 A  
HETATM   17  C   UNL     1     -10.719   8.560  69.691  1.00  0.00    -0.200 A  
HETATM   18  C   UNL     1     -10.274  10.447  66.556  1.00  0.00    -0.289 A  
HETATM   19  C   UNL     1     -11.603   8.813  70.739  1.00  0.00    -0.288 A  
HETATM   20  C   UNL     1     -12.492   9.894  70.672  1.00  0.00    -0.268 A  
HETATM   21  C   UNL     1      -9.702  10.546  65.293  1.00  0.00    -0.328 A  
HETATM   22  C   UNL     1      -8.764   9.584  64.895  1.00  0.00    -0.218 A  
HETATM   23  C   UNL     1     -12.504  10.747  69.564  1.00  0.00    -0.090 A  
HETATM   24  C   UNL     1      -8.433   8.513  65.732  1.00  0.00    -0.167 A  
HETATM   25  C   UNL     1      -9.029   8.386  66.986  1.00  0.00    -0.161 A  
ENDBRANCH  10  13
ENDBRANCH   9  10
ENDBRANCH   8   9
ENDBRANCH   7   8
ENDBRANCH   6   7
ENDBRANCH   5   6
ENDBRANCH   4   5
ENDBRANCH   2   4
BRANCH   2  26
HETATM   26  C   UNL     1      -8.590  18.456  66.328  1.00  0.00    -0.194 C  
HETATM   27  C   UNL     1      -5.127  19.797  66.153  1.00  0.00    -0.164 A  
HETATM   28  C   UNL     1      -7.868  17.721  67.478  1.00  0.00    -0.214 A  
HETATM   29  C   UNL     1      -5.148  20.620  65.032  1.00  0.00    -0.213 A  
HETATM   30  C   UNL     1      -6.521  18.149  67.541  1.00  0.00    -0.192 A  
HETATM   31  C   UNL     1      -6.269  19.074  66.461  1.00  0.00    -0.195 A  
HETATM   32  C   UNL     1      -5.644  17.634  68.485  1.00  0.00    -0.165 A  
HETATM   33  C   UNL     1      -6.267  20.667  64.187  1.00  0.00    -0.342 A  
HETATM   34  C   UNL     1      -8.315  16.727  68.347  1.00  0.00    -0.222 A  
HETATM   35  C   UNL     1      -7.426  19.177  65.658  1.00  0.00    -0.102 A  
HETATM   36  C   UNL     1      -6.114  16.678  69.387  1.00  0.00    -0.200 A  
HETATM   37  C   UNL     1      -7.409  19.907  64.474  1.00  0.00     1.053 A  
HETATM   38  C   UNL     1      -7.438  16.230  69.320  1.00  0.00    -0.217 A  
ENDBRANCH   2  26
TORSDOF 9
ENDMDL
MODEL      405
REMARK 921   NORMALIZED FREE ENERGY PREDICTED BY IDOCK:   -1.21 KCAL/MOL
REMARK 922        TOTAL FREE ENERGY PREDICTED BY IDOCK:   -3.61 KCAL/MOL
REMARK 923 INTER-LIGAND FREE ENERGY PREDICTED BY IDOCK:   -3.66 KCAL/MOL
REMARK 924 INTRA-LIGAND FREE ENERGY PREDICTED BY IDOCK:    0.05 KCAL/MOL
REMARK 927      BINDING AFFINITY PREDICTED BY RF-SCORE:    0.00 PKD
ROOT
HETATM    1  C   UNL     1      -9.843  15.027  69.376  1.00  0.00    -0.164 C  
HETATM    2  N   UNL     1      -9.885  13.841  68.417  1.00  0.00    -0.228 N  
HETATM    3  C   UNL     1      -9.114  12.676  69.030  1.00  0.00     0.513 C  
ENDROOT
BRANCH   2   4
HETATM    4  C   UNL     1     -11.330  13.473  68.149  1.00  0.00    -0.286 C  
BRANCH   4   5
HETATM    5  C   UNL     1     -11.879  12.275  68.923  1.00  0.00    -0.355 C  
BRANCH   5   6
HETATM    6  C   UNL     1     -11.870  11.039  68.014  1.00  0.00    -0.152 C  
BRANCH   6   7
HETATM    7  C   UNL     1     -11.198   9.803  68.640  1.00  0.00    -0.068 C  
BRANCH   7   8
HETATM    8  C   UNL     1     -10.903   8.677  67.637  1.00  0.00    -0.081 C  
BRANCH   8   9
HETATM    9  C   UNL     1     -11.155   7.335  68.325  1.00  0.00     0.125 C  
BRANCH   9  10
HETATM   10  N   UNL     1     -10.082   6.891  69.306  1.00  0.00    -0.166 N  
HETATM   11  C   UNL     1      -9.215   8.066  69.747  1.00  0.00    -0.149 C  
HETATM   12  C   UNL     1     -10.678   6.295  70.572  1.00  0.00    -0.269 C  
BRANCH  10  13
HETATM   13  C   UNL     1      -9.186   5.792  68.553  1.00  0.00    -0.121 C  
HETATM   14  C   UNL     1      -8.159   5.087  69.460  1.00  0.00    -0.078 A  
HETATM   15  C   UNL     1      -6.848   5.334  68.994  1.00  0.00    -0.054 A  
HETATM   16  C   UNL     1      -6.912   6.087  67.764  1.00  0.00    -0.069 A  
HETATM   17  C   UNL     1      -5.737   4.855  69.673  1.00  0.00    -0.013 A  
HETATM   18  C   UNL     1      -8.263   6.359  67.449  1.00  0.00    -0.116 A  
HETATM   19  C   UNL     1      -5.936   4.110  70.834  1.00  0.00    -0.014 A  
HETATM   20  C   UNL     1      -7.233   3.829  71.283  1.00  0.00    -0.033 A  
HETATM   21  C   UNL     1      -8.571   7.007  66.257  1.00  0.00    -0.142 A  
HETATM   22  C   UNL     1      -7.526   7.423  65.421  1.00  0.00    -0.090 A  
HETATM   23  C   UNL     1      -8.351   4.296  70.587  1.00  0.00    -0.084 A  
HETATM   24  C   UNL     1      -6.193   7.156  65.748  1.00  0.00    -0.037 A  
HETATM   25  C   UNL     1      -5.876   6.475  66.923  1.00  0.00    -0.014 A  
ENDBRANCH  10  13
ENDBRANCH   9  10
ENDBRANCH   8   9
ENDBRANCH   7   8
ENDBRANCH   6   7
ENDBRANCH   5   6
ENDBRANCH   4   5
ENDBRANCH   2   4
BRANCH   2  26
HETATM   26  C   UNL     1      -9.222  14.239  67.002  1.00  0.00    -0.239 C  
HETATM   27  C   UNL     1     -10.435  12.457  63.974  1.00  0.00    -0.443 A  
HETATM   28  C   UNL     1      -9.977  15.338  66.225  1.00  0.00    -0.304 A  
HETATM   29  C   UNL     1      -9.890  11.184  64.099  1.00  0.00    -0.340 A  
HETATM   30  C   UNL     1     -10.515  14.792  65.035  1.00  0.00    -0.443 A  
HETATM   31  C   UNL     1     -10.108  13.411  64.925  1.00  0.00    -0.256 A  
HETATM   32  C   UNL     1     -11.236  15.574  64.144  1.00  0.00     0.102 A  
HETATM   33  C   UNL     1      -8.972  10.885  65.118  1.00  0.00    -0.195 A  
HETATM   34  C   UNL     1     -10.132  16.698  66.487  1.00  0.00    -0.313 A  
HETATM   35  C   UNL     1      -9.247  13.093  65.997  1.00  0.00     0.078 A  
HETATM   36  C   UNL     1     -11.432  16.923  64.441  1.00  0.00     0.695 A  
HETATM   37  C   UNL     1      -8.608  11.858  66.057  1.00  0.00     0.129 A  
HETATM   38  C   UNL     1     -10.886  17.480  65.603  1.00  0.00     0.013 A  
ENDBRANCH   2  26
TORSDOF 9
ENDMDL
MODEL      406
REMARK 921   NORMALIZED FREE ENERGY PREDICTED BY IDOCK:   -1.02 KCAL/MOL
REMARK 922        TOTAL FREE ENERGY PREDICTED BY IDOCK:   -3.32 KCAL/MOL
REMARK 923 INTER-LIGAND FREE ENERGY PREDICTED BY IDOCK:   -4.26 KCAL/MOL
REMARK 924 INTRA-LIGAND FREE ENERGY PREDICTED BY IDOCK:    0.94 KCAL/MOL
REMARK 927      BINDING AFFINITY PREDICTED BY RF-SCORE:    0.00 PKD
ROOT
HETATM    1  C   UNL     1      -9.929  15.269  69.428  1.00  0.00    -0.255 C  
HETATM    2  N   UNL     1      -9.656  14.005  68.619  1.00  0.00    -0.196 N  
HETATM    3  C   UNL     1      -8.790  13.060  69.447  1.00  0.00     1.255 C  
ENDROOT
BRANCH   2   4
HETATM    4  C   UNL     1     -10.976  13.364  68.243  1.00  0.00    -0.259 C  
BRANCH   4   5
HETATM    5  C   UNL     1     -11.330  12.066  68.968  1.00  0.00    -0.331 C  
BRANCH   5   6
HETATM    6  C   UNL     1     -10.812  10.874  68.151  1.00  0.00    -0.283 C  
BRANCH   6   7
HETATM    7  C   UNL     1      -9.724  10.050  68.863  1.00  0.00    -0.181 C  
BRANCH   7   8
HETATM    8  C   UNL     1      -9.044   9.004  67.966  1.00  0.00    -0.140 C  
BRANCH   8   9
HETATM    9  C   UNL     1      -8.578   7.841  68.842  1.00  0.00    -0.132 C  
BRANCH   9  10
HETATM   10  N   UNL     1      -7.240   8.039  69.535  1.00  0.00    -0.068 N  
HETATM   11  C   UNL     1      -7.100   9.459  70.072  1.00  0.00    -0.083 C  
HETATM   12  C   UNL     1      -7.071   7.107  70.726  1.00  0.00    -0.066 C  
BRANCH  10  13
HETATM   13  C   UNL     1      -6.100   7.744  68.443  1.00  0.00    -0.036 C  
HETATM   14  C   UNL     1      -5.963   8.836  67.365  1.00  0.00    -0.047 A  
HETATM   15  C   UNL     1      -6.227   8.293  66.087  1.00  0.00    -0.049 A  
HETATM   16  C   UNL     1      -6.443   6.871  66.207  1.00  0.00    -0.051 A  
HETATM   17  C   UNL     1      -6.224   9.088  64.950  1.00  0.00    -0.065 A  
HETATM   18  C   UNL     1      -6.354   6.495  67.567  1.00  0.00    -0.043 A  
HETATM   19  C   UNL     1      -5.947  10.447  65.087  1.00  0.00    -0.133 A  
HETATM   20  C   UNL     1      -5.648  10.986  66.345  1.00  0.00    -0.127 A  
HETATM   21  C   UNL     1      -6.449   5.151  67.914  1.00  0.00    -0.048 A  
HETATM   22  C   UNL     1      -6.685   4.206  66.906  1.00  0.00    -0.047 A  
HETATM   23  C   UNL     1      -5.632  10.180  67.487  1.00  0.00    -0.045 A  
HETATM   24  C   UNL     1      -6.781   4.591  65.565  1.00  0.00    -0.052 A  
HETATM   25  C   UNL     1      -6.651   5.932  65.204  1.00  0.00    -0.043 A  
ENDBRANCH  10  13
ENDBRANCH   9  10
ENDBRANCH   8   9
ENDBRANCH   7   8
ENDBRANCH   6   7
ENDBRANCH   5   6
ENDBRANCH   4   5
ENDBRANCH   2   4
BRANCH   2  26
HETATM   26  C   UNL     1      -8.893  14.371  67.247  1.00  0.00    -0.213 C  
HETATM   27  C   UNL     1     -10.909  15.865  64.504  1.00  0.00    -0.072 A  
HETATM   28  C   UNL     1      -8.366  15.820  67.171  1.00  0.00    -0.231 A  
HETATM   29  C   UNL     1     -11.667  14.799  64.033  1.00  0.00    -0.012 A  
HETATM   30  C   UNL     1      -9.063  16.525  66.162  1.00  0.00    -0.342 A  
HETATM   31  C   UNL     1      -9.979  15.622  65.503  1.00  0.00    -0.364 A  
HETATM   32  C   UNL     1      -8.776  17.852  65.878  1.00  0.00     0.136 A  
HETATM   33  C   UNL     1     -11.451  13.493  64.498  1.00  0.00    -0.407 A  
HETATM   34  C   UNL     1      -7.336  16.452  67.864  1.00  0.00    -0.146 A  
HETATM   35  C   UNL     1      -9.812  14.324  66.031  1.00  0.00    -0.336 A  
HETATM   36  C   UNL     1      -7.780  18.495  66.614  1.00  0.00    -0.265 A  
HETATM   37  C   UNL     1     -10.484  13.237  65.480  1.00  0.00    -0.295 A  
HETATM   38  C   UNL     1      -7.066  17.802  67.599  1.00  0.00    -0.194 A  
ENDBRANCH   2  26
TORSDOF 9
ENDMDL
MODEL      407
REMARK 921   NORMALIZED FREE ENERGY PREDICTED BY IDOCK:   -0.81 KCAL/MOL
REMARK 922        TOTAL FREE ENERGY PREDICTED BY IDOCK:   -3.00 KCAL/MOL
REMARK 923 INTER-LIGAND FREE ENERGY PREDICTED BY IDOCK:   -6.80 KCAL/MOL
REMARK 924 INTRA-LIGAND FREE ENERGY PREDICTED BY IDOCK:    3.80 KCAL/MOL
REMARK 927      BINDING AFFINITY PREDICTED BY RF-SCORE:    0.00 PKD
ROOT
HETATM    1  C   UNL     1     -11.190   6.450  71.550  1.00  0.00    -0.284 C  
HETATM    2  N   UNL     1      -9.861   7.152  71.805  1.00  0.00    -0.162 N  
HETATM    3  C   UNL     1      -9.009   7.083  70.540  1.00  0.00    -0.155 C  
ENDROOT
BRANCH   2   4
HETATM    4  C   UNL     1     -10.129   8.585  72.217  1.00  0.00    -0.316 C  
BRANCH   4   5
HETATM    5  C   UNL     1      -9.816   9.660  71.177  1.00  0.00    -0.004 C  
BRANCH   5   6
HETATM    6  C   UNL     1      -8.509   9.299  70.457  1.00  0.00    -0.251 C  
BRANCH   6   7
HETATM    7  C   UNL     1      -8.586   9.408  68.923  1.00  0.00    -0.131 C  
BRANCH   7   8
HETATM    8  C   UNL     1      -8.842  10.833  68.408  1.00  0.00    -0.146 C  
BRANCH   8   9
HETATM    9  C   UNL     1     -10.101  11.376  69.085  1.00  0.00    -0.020 C  
BRANCH   9  10
HETATM   10  N   UNL     1     -11.417  10.965  68.444  1.00  0.00    -0.300 N  
HETATM   11  C   UNL     1     -11.184  10.105  67.206  1.00  0.00     0.053 C  
HETATM   12  C   UNL     1     -12.278  10.140  69.388  1.00  0.00     0.311 C  
BRANCH  10  13
HETATM   13  C   UNL     1     -12.183  12.318  68.043  1.00  0.00     0.257 C  
HETATM   14  C   UNL     1     -11.758  12.904  66.683  1.00  0.00    -0.452 A  
HETATM   15  C   UNL     1     -11.210  14.194  66.861  1.00  0.00    -0.326 A  
HETATM   16  C   UNL     1     -11.320  14.574  68.249  1.00  0.00    -0.319 A  
HETATM   17  C   UNL     1     -10.698  14.916  65.792  1.00  0.00    -0.338 A  
HETATM   18  C   UNL     1     -11.908  13.517  68.980  1.00  0.00    -0.385 A  
HETATM   19  C   UNL     1     -10.738  14.343  64.521  1.00  0.00    -0.236 A  
HETATM   20  C   UNL     1     -11.314  13.080  64.331  1.00  0.00    -0.397 A  
HETATM   21  C   UNL     1     -12.187  13.691  70.332  1.00  0.00    -0.434 A  
HETATM   22  C   UNL     1     -11.828  14.898  70.949  1.00  0.00    -0.375 A  
HETATM   23  C   UNL     1     -11.847  12.363  65.406  1.00  0.00    -0.460 A  
HETATM   24  C   UNL     1     -11.238  15.933  70.216  1.00  0.00    -0.388 A  
HETATM   25  C   UNL     1     -10.987  15.780  68.853  1.00  0.00    -0.283 A  
ENDBRANCH  10  13
ENDBRANCH   9  10
ENDBRANCH   8   9
ENDBRANCH   7   8
ENDBRANCH   6   7
ENDBRANCH   5   6
ENDBRANCH   4   5
ENDBRANCH   2   4
BRANCH   2  26
HETATM   26  C   UNL     1      -9.075   6.443  73.021  1.00  0.00    -0.129 C  
HETATM   27  C   UNL     1      -6.249   4.188  72.157  1.00  0.00    -0.020 A  
HETATM   28  C   UNL     1      -7.838   7.218  73.525  1.00  0.00    -0.123 A  
HETATM   29  C   UNL     1      -6.874   3.059  71.638  1.00  0.00    -0.030 A  
HETATM   30  C   UNL     1      -6.667   6.474  73.247  1.00  0.00    -0.073 A  
HETATM   31  C   UNL     1      -7.042   5.212  72.651  1.00  0.00    -0.087 A  
HETATM   32  C   UNL     1      -5.412   6.942  73.606  1.00  0.00    -0.046 A  
HETATM   33  C   UNL     1      -8.269   2.920  71.678  1.00  0.00    -0.064 A  
HETATM   34  C   UNL     1      -7.738   8.423  74.217  1.00  0.00    -0.248 A  
HETATM   35  C   UNL     1      -8.449   5.112  72.621  1.00  0.00    -0.117 A  
HETATM   36  C   UNL     1      -5.316   8.176  74.251  1.00  0.00    -0.069 A  
HETATM   37  C   UNL     1      -9.072   3.936  72.213  1.00  0.00    -0.154 A  
HETATM   38  C   UNL     1      -6.468   8.911  74.553  1.00  0.00    -0.104 A  
ENDBRANCH   2  26
TORSDOF 9
ENDMDL
MODEL      408
REMARK 921   NORMALIZED FREE ENERGY PREDICTED BY IDOCK:   -0.72 KCAL/MOL
REMARK 922        TOTAL FREE ENERGY PREDICTED BY IDOCK:   -2.86 KCAL/MOL
REMARK 923 INTER-LIGAND FREE ENERGY PREDICTED BY IDOCK:   -3.43 KCAL/MOL
REMARK 924 INTRA-LIGAND FREE ENERGY PREDICTED BY IDOCK:    0.57 KCAL/MOL
REMARK 927      BINDING AFFINITY PREDICTED BY RF-SCORE:    0.00 PKD
ROOT
HETATM    1  C   UNL     1     -11.254   6.345  67.023  1.00  0.00    -0.195 C  
HETATM    2  N   UNL     1     -10.077   7.156  67.555  1.00  0.00    -0.171 N  
HETATM    3  C   UNL     1      -8.813   6.303  67.489  1.00  0.00    -0.103 C  
ENDROOT
BRANCH   2   4
HETATM    4  C   UNL     1      -9.938   8.421  66.734  1.00  0.00    -0.284 C  
BRANCH   4   5
HETATM    5  C   UNL     1      -8.546   8.716  66.174  1.00  0.00    -0.158 C  
BRANCH   5   6
HETATM    6  C   UNL     1      -7.875   9.795  67.035  1.00  0.00    -0.102 C  
BRANCH   6   7
HETATM    7  C   UNL     1      -8.792  10.980  67.387  1.00  0.00    -0.138 C  
BRANCH   7   8
HETATM    8  C   UNL     1      -9.619  11.504  66.203  1.00  0.00    -0.248 C  
BRANCH   8   9
HETATM    9  C   UNL     1     -10.635  12.518  66.729  1.00  0.00    -0.233 C  
BRANCH   9  10
HETATM   10  N   UNL     1     -10.496  13.929  66.180  1.00  0.00    -0.291 N  
HETATM   11  C   UNL     1      -9.537  13.969  64.994  1.00  0.00     0.379 C  
HETATM   12  C   UNL     1     -11.823  14.480  65.681  1.00  0.00    -0.326 C  
BRANCH  10  13
HETATM   13  C   UNL     1      -9.938  14.843  67.376  1.00  0.00    -0.223 C  
HETATM   14  C   UNL     1      -9.920  16.351  67.060  1.00  0.00    -0.261 A  
HETATM   15  C   UNL     1      -8.596  16.843  67.116  1.00  0.00    -0.217 A  
HETATM   16  C   UNL     1      -7.711  15.787  67.545  1.00  0.00    -0.186 A  
HETATM   17  C   UNL     1      -8.304  18.165  66.814  1.00  0.00    -0.270 A  
HETATM   18  C   UNL     1      -8.454  14.600  67.736  1.00  0.00    -0.178 A  
HETATM   19  C   UNL     1      -9.350  19.014  66.456  1.00  0.00    -0.365 A  
HETATM   20  C   UNL     1     -10.669  18.544  66.435  1.00  0.00    -0.245 A  
HETATM   21  C   UNL     1      -7.817  13.465  68.229  1.00  0.00    -0.143 A  
HETATM   22  C   UNL     1      -6.438  13.515  68.477  1.00  0.00    -0.090 A  
HETATM   23  C   UNL     1     -10.965  17.217  66.759  1.00  0.00     0.170 A  
HETATM   24  C   UNL     1      -5.713  14.693  68.275  1.00  0.00    -0.117 A  
HETATM   25  C   UNL     1      -6.349  15.845  67.814  1.00  0.00    -0.172 A  
ENDBRANCH  10  13
ENDBRANCH   9  10
ENDBRANCH   8   9
ENDBRANCH   7   8
ENDBRANCH   6   7
ENDBRANCH   5   6
ENDBRANCH   4   5
ENDBRANCH   2   4
BRANCH   2  26
HETATM   26  C   UNL     1     -10.345   7.602  69.081  1.00  0.00    -0.213 C  
HETATM   27  C   UNL     1      -7.591   9.341  70.871  1.00  0.00    -0.130 A  
HETATM   28  C   UNL     1     -10.884   9.039  69.244  1.00  0.00    -0.131 A  
HETATM   29  C   UNL     1      -6.667   8.331  71.118  1.00  0.00    -0.047 A  
HETATM   30  C   UNL     1      -9.919   9.833  69.909  1.00  0.00    -0.282 A  
HETATM   31  C   UNL     1      -8.792   9.003  70.268  1.00  0.00    -0.210 A  
HETATM   32  C   UNL     1     -10.155  11.170  70.193  1.00  0.00     1.091 A  
HETATM   33  C   UNL     1      -6.966   6.989  70.834  1.00  0.00    -0.062 A  
HETATM   34  C   UNL     1     -12.117   9.595  68.910  1.00  0.00     1.262 A  
HETATM   35  C   UNL     1      -9.067   7.666  69.908  1.00  0.00    -0.147 A  
HETATM   36  C   UNL     1     -11.372  11.733  69.806  1.00  0.00    -0.245 A  
HETATM   37  C   UNL     1      -8.196   6.639  70.261  1.00  0.00    -0.126 A  
HETATM   38  C   UNL     1     -12.344  10.953  69.168  1.00  0.00    -0.028 A  
ENDBRANCH   2  26
TORSDOF 9
ENDMDL
MODEL      409
REMARK 921   NORMALIZED FREE ENERGY PREDICTED BY IDOCK:   -0.55 KCAL/MOL
REMARK 922        TOTAL FREE ENERGY PREDICTED BY IDOCK:   -2.60 KCAL/MOL
REMARK 923 INTER-LIGAND FREE ENERGY PREDICTED BY IDOCK:   -2.66 KCAL/MOL
REMARK 924 INTRA-LIGAND FREE ENERGY PREDICTED BY IDOCK:    0.06 KCAL/MOL
REMARK 927      BINDING AFFINITY PREDICTED BY RF-SCORE:    0.00 PKD
ROOT
HETATM    1  C   UNL     1     -10.181   8.308  71.423  1.00  0.00    -0.207 C  
HETATM    2  N   UNL     1      -9.231   7.661  70.421  1.00  0.00    -0.156 N  
HETATM    3  C   UNL     1      -7.965   7.217  71.148  1.00  0.00    -0.101 C  
ENDROOT
BRANCH   2   4
HETATM    4  C   UNL     1      -9.931   6.491  69.759  1.00  0.00    -0.166 C  
BRANCH   4   5
HETATM    5  C   UNL     1     -10.783   6.816  68.533  1.00  0.00    -0.280 C  
BRANCH   5   6
HETATM    6  C   UNL     1     -10.222   6.068  67.316  1.00  0.00    -0.239 C  
BRANCH   6   7
HETATM    7  C   UNL     1      -9.305   6.922  66.421  1.00  0.00    -0.183 C  
BRANCH   7   8
HETATM    8  C   UNL     1      -9.528   8.436  66.561  1.00  0.00    -0.284 C  
BRANCH   8   9
HETATM    9  C   UNL     1      -9.407   9.075  65.177  1.00  0.00    -0.029 C  
BRANCH   9  10
HETATM   10  N   UNL     1      -8.822  10.478  65.153  1.00  0.00    -0.184 N  
HETATM   11  C   UNL     1      -7.490  10.535  65.893  1.00  0.00    -0.147 C  
HETATM   12  C   UNL     1      -8.551  10.959  63.736  1.00  0.00     0.041 C  
BRANCH  10  13
HETATM   13  C   UNL     1      -9.892  11.442  65.863  1.00  0.00    -0.226 C  
HETATM   14  C   UNL     1     -11.089  11.821  64.969  1.00  0.00    -0.343 A  
HETATM   15  C   UNL     1     -11.127  13.221  64.778  1.00  0.00    -0.359 A  
HETATM   16  C   UNL     1     -10.088  13.840  65.565  1.00  0.00    -0.303 A  
HETATM   17  C   UNL     1     -12.080  13.813  63.962  1.00  0.00    -0.448 A  
HETATM   18  C   UNL     1      -9.351  12.841  66.240  1.00  0.00    -0.156 A  
HETATM   19  C   UNL     1     -13.016  12.996  63.329  1.00  0.00     0.526 A  
HETATM   20  C   UNL     1     -13.008  11.611  63.543  1.00  0.00    -0.068 A  
HETATM   21  C   UNL     1      -8.344  13.212  67.125  1.00  0.00    -0.146 A  
HETATM   22  C   UNL     1      -8.050  14.573  67.286  1.00  0.00    -0.219 A  
HETATM   23  C   UNL     1     -12.059  11.019  64.381  1.00  0.00     1.394 A  
HETATM   24  C   UNL     1      -8.780  15.552  66.604  1.00  0.00    -0.326 A  
HETATM   25  C   UNL     1      -9.814  15.191  65.742  1.00  0.00    -0.384 A  
ENDBRANCH  10  13
ENDBRANCH   9  10
ENDBRANCH   8   9
ENDBRANCH   7   8
ENDBRANCH   6   7
ENDBRANCH   5   6
ENDBRANCH   4   5
ENDBRANCH   2   4
BRANCH   2  26
HETATM   26  C   UNL     1      -8.844   8.708  69.257  1.00  0.00    -0.137 C  
HETATM   27  C   UNL     1      -9.930  12.236  69.690  1.00  0.00     1.266 A  
HETATM   28  C   UNL     1      -7.516   9.460  69.486  1.00  0.00    -0.083 A  
HETATM   29  C   UNL     1     -11.302  12.189  69.468  1.00  0.00    -0.277 A  
HETATM   30  C   UNL     1      -7.779  10.836  69.683  1.00  0.00    -0.020 A  
HETATM   31  C   UNL     1      -9.196  11.071  69.530  1.00  0.00     0.336 A  
HETATM   32  C   UNL     1      -6.752  11.744  69.902  1.00  0.00     0.081 A  
HETATM   33  C   UNL     1     -11.925  11.014  69.020  1.00  0.00    -0.364 A  
HETATM   34  C   UNL     1      -6.197   9.010  69.463  1.00  0.00    -0.040 A  
HETATM   35  C   UNL     1      -9.830   9.866  69.156  1.00  0.00    -0.204 A  
HETATM   36  C   UNL     1      -5.438  11.275  69.930  1.00  0.00    -0.068 A  
HETATM   37  C   UNL     1     -11.179   9.845  68.819  1.00  0.00    -0.122 A  
HETATM   38  C   UNL     1      -5.162   9.920  69.714  1.00  0.00    -0.037 A  
ENDBRANCH   2  26
TORSDOF 9
ENDMDL
MODEL      410
REMARK 921   NORMALIZED FREE ENERGY PREDICTED BY IDOCK:   -0.49 KCAL/MOL
REMARK 922        TOTAL FREE ENERGY PREDICTED BY IDOCK:   -2.51 KCAL/MOL
REMARK 923 INTER-LIGAND FREE ENERGY PREDICTED BY IDOCK:   -3.39 KCAL/MOL
REMARK 924 INTRA-LIGAND FREE ENERGY PREDICTED BY IDOCK:    0.88 KCAL/MOL
REMARK 927      BINDING AFFINITY PREDICTED BY RF-SCORE:    0.00 PKD
ROOT
HETATM    1  C   UNL     1      -9.963  15.224  69.349  1.00  0.00    -0.255 C  
HETATM    2  N   UNL     1     -10.282  13.921  68.623  1.00  0.00    -0.232 N  
HETATM    3  C   UNL     1      -9.572  12.769  69.329  1.00  0.00     0.816 C  
ENDROOT
BRANCH   2   4
HETATM    4  C   UNL     1     -11.783  13.721  68.603  1.00  0.00    -0.356 C  
BRANCH   4   5
HETATM    5  C   UNL     1     -12.352  12.753  69.641  1.00  0.00    -0.059 C  
BRANCH   5   6
HETATM    6  C   UNL     1     -12.349  11.332  69.060  1.00  0.00    -0.040 C  
BRANCH   6   7
HETATM    7  C   UNL     1     -11.605  10.300  69.928  1.00  0.00    -0.326 C  
BRANCH   7   8
HETATM    8  C   UNL     1     -11.271   8.992  69.195  1.00  0.00     0.191 C  
BRANCH   8   9
HETATM    9  C   UNL     1     -11.376   7.836  70.190  1.00  0.00    -0.110 C  
BRANCH   9  10
HETATM   10  N   UNL     1     -10.271   7.768  71.233  1.00  0.00    -0.193 N  
HETATM   11  C   UNL     1      -9.996   9.141  71.837  1.00  0.00    -0.094 C  
HETATM   12  C   UNL     1     -10.635   6.850  72.390  1.00  0.00    -0.211 C  
BRANCH  10  13
HETATM   13  C   UNL     1      -8.960   7.217  70.488  1.00  0.00    -0.155 C  
HETATM   14  C   UNL     1      -8.171   8.295  69.720  1.00  0.00    -0.121 A  
HETATM   15  C   UNL     1      -8.130   7.979  68.343  1.00  0.00    -0.122 A  
HETATM   16  C   UNL     1      -8.758   6.698  68.128  1.00  0.00    -0.117 A  
HETATM   17  C   UNL     1      -7.525   8.825  67.425  1.00  0.00    -0.089 A  
HETATM   18  C   UNL     1      -9.240   6.197  69.359  1.00  0.00    -0.137 A  
HETATM   19  C   UNL     1      -6.945  10.005  67.888  1.00  0.00    -0.084 A  
HETATM   20  C   UNL     1      -6.949  10.308  69.256  1.00  0.00    -0.073 A  
HETATM   21  C   UNL     1      -9.814   4.931  69.406  1.00  0.00    -0.281 A  
HETATM   22  C   UNL     1      -9.950   4.203  68.216  1.00  0.00     0.011 A  
HETATM   23  C   UNL     1      -7.542   9.445  70.182  1.00  0.00    -0.132 A  
HETATM   24  C   UNL     1      -9.479   4.713  67.002  1.00  0.00    -0.175 A  
HETATM   25  C   UNL     1      -8.869   5.966  66.952  1.00  0.00    -0.115 A  
ENDBRANCH  10  13
ENDBRANCH   9  10
ENDBRANCH   8   9
ENDBRANCH   7   8
ENDBRANCH   6   7
ENDBRANCH   5   6
ENDBRANCH   4   5
ENDBRANCH   2   4
BRANCH   2  26
HETATM   26  C   UNL     1      -9.789  13.998  67.090  1.00  0.00    -0.240 C  
HETATM   27  C   UNL     1     -11.354  11.656  64.664  1.00  0.00    -0.284 A  
HETATM   28  C   UNL     1     -10.628  14.930  66.191  1.00  0.00    -0.322 A  
HETATM   29  C   UNL     1     -10.800  10.423  64.990  1.00  0.00     0.362 A  
HETATM   30  C   UNL     1     -11.303  14.163  65.212  1.00  0.00    -0.328 A  
HETATM   31  C   UNL     1     -10.915  12.778  65.349  1.00  0.00    -0.313 A  
HETATM   32  C   UNL     1     -12.122  14.760  64.265  1.00  0.00    -0.415 A  
HETATM   33  C   UNL     1      -9.769  10.318  65.936  1.00  0.00    -0.283 A  
HETATM   34  C   UNL     1     -10.748  16.319  66.177  1.00  0.00    -0.198 A  
HETATM   35  C   UNL     1      -9.934  12.668  66.358  1.00  0.00    -0.262 A  
HETATM   36  C   UNL     1     -12.279  16.146  64.293  1.00  0.00     0.532 A  
HETATM   37  C   UNL     1      -9.295  11.456  66.603  1.00  0.00    -0.198 A  
HETATM   38  C   UNL     1     -11.600  16.919  65.241  1.00  0.00     1.021 A  
ENDBRANCH   2  26
TORSDOF 9
ENDMDL
MODEL      411
REMARK 921   NORMALIZED FREE ENERGY PREDICTED BY IDOCK:   -0.36 KCAL/MOL
REMARK 922        TOTAL FREE ENERGY PREDICTED BY IDOCK:   -2.31 KCAL/MOL
REMARK 923 INTER-LIGAND FREE ENERGY PREDICTED BY IDOCK:   -5.27 KCAL/MOL
REMARK 924 INTRA-LIGAND FREE ENERGY PREDICTED BY IDOCK:    2.96 KCAL/MOL
REMARK 927      BINDING AFFINITY PREDICTED BY RF-SCORE:    0.00 PKD
ROOT
HETATM    1  C   UNL     1      -7.776   3.618  71.712  1.00  0.00    -0.061 C  
HETATM    2  N   UNL     1      -7.687   4.305  70.354  1.00  0.00    -0.048 N  
HETATM    3  C   UNL     1      -8.031   5.783  70.519  1.00  0.00    -0.105 C  
ENDROOT
BRANCH   2   4
HETATM    4  C   UNL     1      -6.291   4.119  69.796  1.00  0.00    -0.028 C  
BRANCH   4   5
HETATM    5  C   UNL     1      -5.765   5.238  68.897  1.00  0.00    -0.015 C  
BRANCH   5   6
HETATM    6  C   UNL     1      -6.926   6.168  68.518  1.00  0.00    -0.076 C  
BRANCH   6   7
HETATM    7  C   UNL     1      -6.495   7.610  68.193  1.00  0.00    -0.054 C  
BRANCH   7   8
HETATM    8  C   UNL     1      -7.417   8.687  68.785  1.00  0.00    -0.091 C  
BRANCH   8   9
HETATM    9  C   UNL     1      -7.781   9.678  67.679  1.00  0.00    -0.095 C  
BRANCH   9  10
HETATM   10  N   UNL     1      -7.323  11.110  67.907  1.00  0.00    -0.089 N  
HETATM   11  C   UNL     1      -6.130  11.164  68.855  1.00  0.00    -0.045 C  
HETATM   12  C   UNL     1      -6.880  11.778  66.614  1.00  0.00     0.020 C  
BRANCH  10  13
HETATM   13  C   UNL     1      -8.568  11.904  68.536  1.00  0.00    -0.110 C  
HETATM   14  C   UNL     1      -9.567  11.010  69.296  1.00  0.00    -0.008 A  
HETATM   15  C   UNL     1     -10.840  11.076  68.686  1.00  0.00    -0.256 A  
HETATM   16  C   UNL     1     -10.806  12.036  67.610  1.00  0.00    -0.273 A  
HETATM   17  C   UNL     1     -11.903  10.314  69.150  1.00  0.00    -0.039 A  
HETATM   18  C   UNL     1      -9.501  12.569  67.496  1.00  0.00    -0.185 A  
HETATM   19  C   UNL     1     -11.696   9.477  70.244  1.00  0.00    -0.168 A  
HETATM   20  C   UNL     1     -10.447   9.433  70.878  1.00  0.00    -0.381 A  
HETATM   21  C   UNL     1      -9.251  13.578  66.572  1.00  0.00    -0.187 A  
HETATM   22  C   UNL     1     -10.292  14.005  65.736  1.00  0.00    -0.330 A  
HETATM   23  C   UNL     1      -9.382  10.216  70.422  1.00  0.00     0.275 A  
HETATM   24  C   UNL     1     -11.576  13.463  65.851  1.00  0.00    -0.370 A  
HETATM   25  C   UNL     1     -11.844  12.477  66.799  1.00  0.00    -0.416 A  
ENDBRANCH  10  13
ENDBRANCH   9  10
ENDBRANCH   8   9
ENDBRANCH   7   8
ENDBRANCH   6   7
ENDBRANCH   5   6
ENDBRANCH   4   5
ENDBRANCH   2   4
BRANCH   2  26
HETATM   26  C   UNL     1      -8.714   3.627  69.312  1.00  0.00    -0.083 C  
HETATM   27  C   UNL     1     -10.021   5.754  66.558  1.00  0.00    -0.202 A  
HETATM   28  C   UNL     1      -8.049   3.025  68.056  1.00  0.00    -0.083 A  
HETATM   29  C   UNL     1     -10.917   6.606  67.195  1.00  0.00    -0.478 A  
HETATM   30  C   UNL     1      -8.451   3.755  66.912  1.00  0.00    -0.105 A  
HETATM   31  C   UNL     1      -9.402   4.768  67.309  1.00  0.00    -0.150 A  
HETATM   32  C   UNL     1      -8.004   3.414  65.644  1.00  0.00    -0.089 A  
HETATM   33  C   UNL     1     -11.248   6.431  68.548  1.00  0.00    -0.321 A  
HETATM   34  C   UNL     1      -7.226   1.911  67.905  1.00  0.00    -0.047 A  
HETATM   35  C   UNL     1      -9.671   4.636  68.689  1.00  0.00    -0.217 A  
HETATM   36  C   UNL     1      -7.136   2.329  65.508  1.00  0.00    -0.056 A  
HETATM   37  C   UNL     1     -10.653   5.409  69.300  1.00  0.00    -0.271 A  
HETATM   38  C   UNL     1      -6.749   1.585  66.628  1.00  0.00    -0.030 A  
ENDBRANCH   2  26
TORSDOF 9
ENDMDL
MODEL      412
REMARK 921   NORMALIZED FREE ENERGY PREDICTED BY IDOCK:   -0.27 KCAL/MOL
REMARK 922        TOTAL FREE ENERGY PREDICTED BY IDOCK:   -2.18 KCAL/MOL
REMARK 923 INTER-LIGAND FREE ENERGY PREDICTED BY IDOCK:   -6.50 KCAL/MOL
REMARK 924 INTRA-LIGAND FREE ENERGY PREDICTED BY IDOCK:    4.32 KCAL/MOL
REMARK 927      BINDING AFFINITY PREDICTED BY RF-SCORE:    0.00 PKD
ROOT
HETATM    1  C   UNL     1      -7.016   8.864  68.491  1.00  0.00    -0.065 C  
HETATM    2  N   UNL     1      -8.061   9.565  67.630  1.00  0.00    -0.109 N  
HETATM    3  C   UNL     1      -9.326   9.781  68.456  1.00  0.00    -0.142 C  
ENDROOT
BRANCH   2   4
HETATM    4  C   UNL     1      -7.492  10.878  67.132  1.00  0.00    -0.109 C  
BRANCH   4   5
HETATM    5  C   UNL     1      -7.089  11.892  68.203  1.00  0.00    -0.081 C  
BRANCH   5   6
HETATM    6  C   UNL     1      -8.355  12.487  68.835  1.00  0.00     0.257 C  
BRANCH   6   7
HETATM    7  C   UNL     1      -8.550  13.988  68.557  1.00  0.00    -0.147 C  
BRANCH   7   8
HETATM    8  C   UNL     1      -8.271  14.890  69.769  1.00  0.00     0.141 C  
BRANCH   8   9
HETATM    9  C   UNL     1      -8.128  16.332  69.280  1.00  0.00    -0.157 C  
BRANCH   9  10
HETATM   10  N   UNL     1      -8.454  16.561  67.813  1.00  0.00    -0.174 N  
HETATM   11  C   UNL     1      -7.887  17.888  67.320  1.00  0.00    -0.213 C  
HETATM   12  C   UNL     1      -7.862  15.479  66.922  1.00  0.00    -0.194 C  
BRANCH  10  13
HETATM   13  C   UNL     1     -10.055  16.560  67.685  1.00  0.00    -0.266 C  
HETATM   14  C   UNL     1     -10.793  16.311  69.015  1.00  0.00    -0.315 A  
HETATM   15  C   UNL     1     -11.568  15.134  68.928  1.00  0.00    -0.361 A  
HETATM   16  C   UNL     1     -11.488  14.606  67.587  1.00  0.00    -0.364 A  
HETATM   17  C   UNL     1     -12.287  14.658  70.016  1.00  0.00    -0.365 A  
HETATM   18  C   UNL     1     -10.632  15.421  66.811  1.00  0.00    -0.309 A  
HETATM   19  C   UNL     1     -12.236  15.374  71.211  1.00  0.00    -0.430 A  
HETATM   20  C   UNL     1     -11.499  16.562  71.296  1.00  0.00    -0.108 A  
HETATM   21  C   UNL     1     -10.466  15.149  65.457  1.00  0.00    -0.400 A  
HETATM   22  C   UNL     1     -11.115  14.036  64.905  1.00  0.00    -0.378 A  
HETATM   23  C   UNL     1     -10.792  17.050  70.192  1.00  0.00     0.304 A  
HETATM   24  C   UNL     1     -11.952  13.231  65.685  1.00  0.00    -0.455 A  
HETATM   25  C   UNL     1     -12.152  13.517  67.035  1.00  0.00    -0.401 A  
ENDBRANCH  10  13
ENDBRANCH   9  10
ENDBRANCH   8   9
ENDBRANCH   7   8
ENDBRANCH   6   7
ENDBRANCH   5   6
ENDBRANCH   4   5
ENDBRANCH   2   4
BRANCH   2  26
HETATM   26  C   UNL     1      -8.412   8.673  66.333  1.00  0.00    -0.112 C  
HETATM   27  C   UNL     1      -8.865  10.447  63.099  1.00  0.00    -0.220 A  
HETATM   28  C   UNL     1      -7.184   8.226  65.511  1.00  0.00    -0.071 A  
HETATM   29  C   UNL     1     -10.093  11.084  63.240  1.00  0.00    -0.400 A  
HETATM   30  C   UNL     1      -7.217   8.844  64.238  1.00  0.00    -0.091 A  
HETATM   31  C   UNL     1      -8.427   9.625  64.124  1.00  0.00    -0.186 A  
HETATM   32  C   UNL     1      -6.230   8.603  63.293  1.00  0.00    -0.086 A  
HETATM   33  C   UNL     1     -10.909  10.847  64.357  1.00  0.00    -0.137 A  
HETATM   34  C   UNL     1      -6.169   7.320  65.808  1.00  0.00    -0.038 A  
HETATM   35  C   UNL     1      -9.208   9.444  65.286  1.00  0.00    -0.299 A  
HETATM   36  C   UNL     1      -5.187   7.736  63.620  1.00  0.00    -0.037 A  
HETATM   37  C   UNL     1     -10.486   9.985  65.378  1.00  0.00     0.041 A  
HETATM   38  C   UNL     1      -5.155   7.100  64.866  1.00  0.00    -0.028 A  
ENDBRANCH   2  26
TORSDOF 9
ENDMDL
MODEL      413
REMARK 921   NORMALIZED FREE ENERGY PREDICTED BY IDOCK:   -0.17 KCAL/MOL
REMARK 922        TOTAL FREE ENERGY PREDICTED BY IDOCK:   -2.03 KCAL/MOL
REMARK 923 INTER-LIGAND FREE ENERGY PREDICTED BY IDOCK:   -1.81 KCAL/MOL
REMARK 924 INTRA-LIGAND FREE ENERGY PREDICTED BY IDOCK:   -0.22 KCAL/MOL
REMARK 927      BINDING AFFINITY PREDICTED BY RF-SCORE:    0.00 PKD
ROOT
HETATM    1  C   UNL     1     -10.261  15.680  70.473  1.00  0.00     0.160 C  
HETATM    2  N   UNL     1      -9.891  15.794  68.998  1.00  0.00    -0.224 N  
HETATM    3  C   UNL     1      -8.780  16.829  68.841  1.00  0.00    -0.224 C  
ENDROOT
BRANCH   2   4
HETATM    4  C   UNL     1      -9.460  14.434  68.489  1.00  0.00    -0.212 C  
BRANCH   4   5
HETATM    5  C   UNL     1     -10.196  13.228  69.072  1.00  0.00     0.071 C  
BRANCH   5   6
HETATM    6  C   UNL     1      -9.799  11.969  68.290  1.00  0.00    -0.204 C  
BRANCH   6   7
HETATM    7  C   UNL     1     -10.753  10.777  68.489  1.00  0.00    -0.245 C  
BRANCH   7   8
HETATM    8  C   UNL     1     -10.439   9.567  67.596  1.00  0.00    -0.321 C  
BRANCH   8   9
HETATM    9  C   UNL     1      -9.225   9.904  66.730  1.00  0.00    -0.148 C  
BRANCH   9  10
HETATM   10  N   UNL     1      -8.184   8.803  66.605  1.00  0.00    -0.106 N  
HETATM   11  C   UNL     1      -8.817   7.424  66.757  1.00  0.00    -0.137 C  
HETATM   12  C   UNL     1      -7.500   8.818  65.246  1.00  0.00    -0.086 C  
BRANCH  10  13
HETATM   13  C   UNL     1      -7.103   9.049  67.766  1.00  0.00    -0.079 C  
HETATM   14  C   UNL     1      -7.668   8.909  69.193  1.00  0.00    -0.092 A  
HETATM   15  C   UNL     1      -7.535  10.131  69.890  1.00  0.00    -0.176 A  
HETATM   16  C   UNL     1      -6.824  11.078  69.065  1.00  0.00    -0.084 A  
HETATM   17  C   UNL     1      -8.021  10.283  71.181  1.00  0.00     2.123 A  
HETATM   18  C   UNL     1      -6.526  10.483  67.817  1.00  0.00    -0.060 A  
HETATM   19  C   UNL     1      -8.646   9.196  71.790  1.00  0.00     0.202 A  
HETATM   20  C   UNL     1      -8.749   7.970  71.119  1.00  0.00    -0.149 A  
HETATM   21  C   UNL     1      -5.770  11.187  66.886  1.00  0.00    -0.090 A  
HETATM   22  C   UNL     1      -5.366  12.495  67.189  1.00  0.00     0.031 A  
HETATM   23  C   UNL     1      -8.241   7.813  69.826  1.00  0.00    -0.129 A  
HETATM   24  C   UNL     1      -5.676  13.076  68.423  1.00  0.00    -0.074 A  
HETATM   25  C   UNL     1      -6.403  12.364  69.377  1.00  0.00    -0.119 A  
ENDBRANCH  10  13
ENDBRANCH   9  10
ENDBRANCH   8   9
ENDBRANCH   7   8
ENDBRANCH   6   7
ENDBRANCH   5   6
ENDBRANCH   4   5
ENDBRANCH   2   4
BRANCH   2  26
HETATM   26  C   UNL     1     -11.173  16.246  68.130  1.00  0.00    -0.298 C  
HETATM   27  C   UNL     1     -10.540  18.087  64.964  1.00  0.00     0.976 A  
HETATM   28  C   UNL     1     -11.601  15.237  67.044  1.00  0.00    -0.098 A  
HETATM   29  C   UNL     1     -10.133  19.347  65.390  1.00  0.00     0.427 A  
HETATM   30  C   UNL     1     -11.399  15.805  65.764  1.00  0.00     0.090 A  
HETATM   31  C   UNL     1     -10.929  17.162  65.920  1.00  0.00     0.143 A  
HETATM   32  C   UNL     1     -11.714  15.108  64.606  1.00  0.00    -0.348 A  
HETATM   33  C   UNL     1     -10.183  19.706  66.745  1.00  0.00    -0.563 A  
HETATM   34  C   UNL     1     -12.172  13.970  67.150  1.00  0.00    -0.356 A  
HETATM   35  C   UNL     1     -10.906  17.491  67.292  1.00  0.00    -0.132 A  
HETATM   36  C   UNL     1     -12.236  13.819  64.721  1.00  0.00    -0.438 A  
HETATM   37  C   UNL     1     -10.614  18.786  67.710  1.00  0.00    -0.452 A  
HETATM   38  C   UNL     1     -12.462  13.254  65.981  1.00  0.00    -0.388 A  
ENDBRANCH   2  26
TORSDOF 9
ENDMDL
MODEL      414
REMARK 921   NORMALIZED FREE ENERGY PREDICTED BY IDOCK:   -0.03 KCAL/MOL
REMARK 922        TOTAL FREE ENERGY PREDICTED BY IDOCK:   -1.82 KCAL/MOL
REMARK 923 INTER-LIGAND FREE ENERGY PREDICTED BY IDOCK:   -4.31 KCAL/MOL
REMARK 924 INTRA-LIGAND FREE ENERGY PREDICTED BY IDOCK:    2.49 KCAL/MOL
REMARK 927      BINDING AFFINITY PREDICTED BY RF-SCORE:    0.00 PKD
ROOT
HETATM    1  C   UNL     1     -12.372  13.042  69.140  1.00  0.00     0.100 C  
HETATM    2  N   UNL     1     -11.164  12.200  68.743  1.00  0.00    -0.245 N  
HETATM    3  C   UNL     1     -10.234  12.063  69.945  1.00  0.00     1.461 C  
ENDROOT
BRANCH   2   4
HETATM    4  C   UNL     1     -11.643  10.848  68.253  1.00  0.00    -0.262 C  
BRANCH   4   5
HETATM    5  C   UNL     1     -10.590   9.951  67.603  1.00  0.00    -0.325 C  
BRANCH   5   6
HETATM    6  C   UNL     1     -10.566   8.597  68.325  1.00  0.00    -0.181 C  
BRANCH   6   7
HETATM    7  C   UNL     1     -10.922   8.675  69.821  1.00  0.00    -0.132 C  
BRANCH   7   8
HETATM    8  C   UNL     1      -9.996   7.851  70.728  1.00  0.00    -0.192 C  
BRANCH   8   9
HETATM    9  C   UNL     1      -8.574   7.931  70.173  1.00  0.00    -0.134 C  
BRANCH   9  10
HETATM   10  N   UNL     1      -8.019   6.634  69.605  1.00  0.00    -0.122 N  
HETATM   11  C   UNL     1      -8.884   6.117  68.461  1.00  0.00    -0.113 C  
HETATM   12  C   UNL     1      -6.617   6.812  69.042  1.00  0.00    -0.041 C  
BRANCH  10  13
HETATM   13  C   UNL     1      -7.995   5.570  70.808  1.00  0.00    -0.111 C  
HETATM   14  C   UNL     1      -7.234   6.050  72.059  1.00  0.00    -0.092 A  
HETATM   15  C   UNL     1      -6.142   5.193  72.322  1.00  0.00    -0.030 A  
HETATM   16  C   UNL     1      -6.160   4.094  71.386  1.00  0.00    -0.014 A  
HETATM   17  C   UNL     1      -5.263   5.442  73.366  1.00  0.00    -0.021 A  
HETATM   18  C   UNL     1      -7.244   4.256  70.492  1.00  0.00    -0.041 A  
HETATM   19  C   UNL     1      -5.479   6.563  74.166  1.00  0.00    -0.050 A  
HETATM   20  C   UNL     1      -6.580   7.397  73.935  1.00  0.00    -0.078 A  
HETATM   21  C   UNL     1      -7.506   3.269  69.548  1.00  0.00    -0.045 A  
HETATM   22  C   UNL     1      -6.654   2.159  69.472  1.00  0.00    -0.029 A  
HETATM   23  C   UNL     1      -7.477   7.134  72.895  1.00  0.00    -0.080 A  
HETATM   24  C   UNL     1      -5.579   2.014  70.356  1.00  0.00    -0.016 A  
HETATM   25  C   UNL     1      -5.330   2.982  71.329  1.00  0.00    -0.004 A  
ENDBRANCH  10  13
ENDBRANCH   9  10
ENDBRANCH   8   9
ENDBRANCH   7   8
ENDBRANCH   6   7
ENDBRANCH   5   6
ENDBRANCH   4   5
ENDBRANCH   2   4
BRANCH   2  26
HETATM   26  C   UNL     1     -10.370  12.896  67.525  1.00  0.00    -0.223 C  
HETATM   27  C   UNL     1      -7.866  10.836  65.707  1.00  0.00    -0.106 A  
HETATM   28  C   UNL     1     -11.018  12.697  66.138  1.00  0.00    -0.313 A  
HETATM   29  C   UNL     1      -6.808  10.735  66.603  1.00  0.00    -0.125 A  
HETATM   30  C   UNL     1     -10.168  11.906  65.328  1.00  0.00    -0.309 A  
HETATM   31  C   UNL     1      -8.955  11.618  66.058  1.00  0.00    -0.149 A  
HETATM   32  C   UNL     1     -10.510  11.583  64.023  1.00  0.00    -0.424 A  
HETATM   33  C   UNL     1      -6.802  11.461  67.803  1.00  0.00    -0.075 A  
HETATM   34  C   UNL     1     -12.199  13.205  65.602  1.00  0.00    -0.521 A  
HETATM   35  C   UNL     1      -8.990  12.289  67.300  1.00  0.00    -0.187 A  
HETATM   36  C   UNL     1     -11.722  12.051  63.512  1.00  0.00    -0.566 A  
HETATM   37  C   UNL     1      -7.884  12.284  68.144  1.00  0.00    -0.148 A  
HETATM   38  C   UNL     1     -12.559  12.854  64.294  1.00  0.00    -0.363 A  
ENDBRANCH   2  26
TORSDOF 9
ENDMDL
MODEL      415
REMARK 921   NORMALIZED FREE ENERGY PREDICTED BY IDOCK:    0.15 KCAL/MOL
REMARK 922        TOTAL FREE ENERGY PREDICTED BY IDOCK:   -1.53 KCAL/MOL
REMARK 923 INTER-LIGAND FREE ENERGY PREDICTED BY IDOCK:   -4.60 KCAL/MOL
REMARK 924 INTRA-LIGAND FREE ENERGY PREDICTED BY IDOCK:    3.07 KCAL/MOL
REMARK 927      BINDING AFFINITY PREDICTED BY RF-SCORE:    0.00 PKD
ROOT
HETATM    1  C   UNL     1     -10.391   5.860  67.679  1.00  0.00    -0.212 C  
HETATM    2  N   UNL     1      -9.164   6.662  67.257  1.00  0.00    -0.123 N  
HETATM    3  C   UNL     1      -9.281   7.011  65.776  1.00  0.00     0.137 C  
ENDROOT
BRANCH   2   4
HETATM    4  C   UNL     1      -9.066   7.906  68.115  1.00  0.00    -0.133 C  
BRANCH   4   5
HETATM    5  C   UNL     1      -8.214   7.793  69.379  1.00  0.00    -0.131 C  
BRANCH   5   6
HETATM    6  C   UNL     1      -8.658   8.865  70.384  1.00  0.00    -0.198 C  
BRANCH   6   7
HETATM    7  C   UNL     1      -8.173  10.286  70.043  1.00  0.00     0.044 C  
BRANCH   7   8
HETATM    8  C   UNL     1      -6.644  10.431  69.998  1.00  0.00    -0.137 C  
BRANCH   8   9
HETATM    9  C   UNL     1      -6.299  11.699  69.216  1.00  0.00    -0.098 C  
BRANCH   9  10
HETATM   10  N   UNL     1      -7.245  12.043  68.076  1.00  0.00    -0.088 N  
HETATM   11  C   UNL     1      -6.480  12.534  66.852  1.00  0.00     0.275 C  
HETATM   12  C   UNL     1      -8.056  10.838  67.626  1.00  0.00    -0.114 C  
BRANCH  10  13
HETATM   13  C   UNL     1      -8.226  13.193  68.616  1.00  0.00    -0.000 C  
HETATM   14  C   UNL     1      -9.619  13.192  67.958  1.00  0.00    -0.220 A  
HETATM   15  C   UNL     1      -9.838  14.413  67.281  1.00  0.00    -0.247 A  
HETATM   16  C   UNL     1      -8.719  15.296  67.513  1.00  0.00    -0.189 A  
HETATM   17  C   UNL     1     -10.999  14.641  66.557  1.00  0.00    -0.318 A  
HETATM   18  C   UNL     1      -7.758  14.636  68.311  1.00  0.00    -0.123 A  
HETATM   19  C   UNL     1     -11.964  13.635  66.512  1.00  0.00    -0.465 A  
HETATM   20  C   UNL     1     -11.771  12.436  67.210  1.00  0.00    -0.419 A  
HETATM   21  C   UNL     1      -6.625  15.326  68.731  1.00  0.00    -0.102 A  
HETATM   22  C   UNL     1      -6.440  16.648  68.305  1.00  0.00    -0.133 A  
HETATM   23  C   UNL     1     -10.609  12.217  67.955  1.00  0.00    -0.232 A  
HETATM   24  C   UNL     1      -7.394  17.287  67.506  1.00  0.00    -0.183 A  
HETATM   25  C   UNL     1      -8.550  16.615  67.111  1.00  0.00    -0.214 A  
ENDBRANCH  10  13
ENDBRANCH   9  10
ENDBRANCH   8   9
ENDBRANCH   7   8
ENDBRANCH   6   7
ENDBRANCH   5   6
ENDBRANCH   4   5
ENDBRANCH   2   4
BRANCH   2  26
HETATM   26  C   UNL     1      -7.821   5.804  67.503  1.00  0.00    -0.101 C  
HETATM   27  C   UNL     1      -8.199   2.385  68.910  1.00  0.00    -0.071 A  
HETATM   28  C   UNL     1      -7.418   4.891  66.325  1.00  0.00    -0.086 A  
HETATM   29  C   UNL     1      -8.537   2.610  70.240  1.00  0.00    -0.107 A  
HETATM   30  C   UNL     1      -7.528   3.536  66.717  1.00  0.00    -0.076 A  
HETATM   31  C   UNL     1      -7.912   3.478  68.108  1.00  0.00    -0.071 A  
HETATM   32  C   UNL     1      -7.214   2.504  65.844  1.00  0.00    -0.065 A  
HETATM   33  C   UNL     1      -8.518   3.903  70.784  1.00  0.00    -0.099 A  
HETATM   34  C   UNL     1      -6.938   5.201  65.054  1.00  0.00    -0.061 A  
HETATM   35  C   UNL     1      -7.969   4.788  68.630  1.00  0.00    -0.080 A  
HETATM   36  C   UNL     1      -6.786   2.823  64.555  1.00  0.00    -0.039 A  
HETATM   37  C   UNL     1      -8.190   5.007  69.986  1.00  0.00    -0.081 A  
HETATM   38  C   UNL     1      -6.650   4.159  64.162  1.00  0.00    -0.043 A  
ENDBRANCH   2  26
TORSDOF 9
ENDMDL
MODEL      416
REMARK 921   NORMALIZED FREE ENERGY PREDICTED BY IDOCK:    0.20 KCAL/MOL
REMARK 922        TOTAL FREE ENERGY PREDICTED BY IDOCK:   -1.46 KCAL/MOL
REMARK 923 INTER-LIGAND FREE ENERGY PREDICTED BY IDOCK:   -5.37 KCAL/MOL
REMARK 924 INTRA-LIGAND FREE ENERGY PREDICTED BY IDOCK:    3.91 KCAL/MOL
REMARK 927      BINDING AFFINITY PREDICTED BY RF-SCORE:    0.00 PKD
ROOT
HETATM    1  C   UNL     1     -10.946   6.362  70.914  1.00  0.00    -0.280 C  
HETATM    2  N   UNL     1      -9.642   7.071  71.264  1.00  0.00    -0.165 N  
HETATM    3  C   UNL     1      -8.649   6.882  70.121  1.00  0.00    -0.141 C  
ENDROOT
BRANCH   2   4
HETATM    4  C   UNL     1      -9.928   8.538  71.514  1.00  0.00    -0.244 C  
BRANCH   4   5
HETATM    5  C   UNL     1      -9.361   9.523  70.493  1.00  0.00    -0.296 C  
BRANCH   5   6
HETATM    6  C   UNL     1      -7.845   9.312  70.376  1.00  0.00    -0.158 C  
BRANCH   6   7
HETATM    7  C   UNL     1      -7.360   9.016  68.945  1.00  0.00    -0.074 C  
BRANCH   7   8
HETATM    8  C   UNL     1      -7.624  10.153  67.947  1.00  0.00    -0.089 C  
BRANCH   8   9
HETATM    9  C   UNL     1      -9.135  10.328  67.797  1.00  0.00    -0.134 C  
BRANCH   9  10
HETATM   10  N   UNL     1      -9.865   9.173  67.129  1.00  0.00    -0.180 N  
HETATM   11  C   UNL     1      -8.913   8.021  66.825  1.00  0.00    -0.144 C  
HETATM   12  C   UNL     1     -10.964   8.605  68.014  1.00  0.00     0.158 C  
BRANCH  10  13
HETATM   13  C   UNL     1     -10.497   9.745  65.769  1.00  0.00     0.114 C  
HETATM   14  C   UNL     1      -9.513   9.782  64.584  1.00  0.00    -0.295 A  
HETATM   15  C   UNL     1      -9.337  11.112  64.139  1.00  0.00    -0.186 A  
HETATM   16  C   UNL     1     -10.215  11.984  64.882  1.00  0.00    -0.302 A  
HETATM   17  C   UNL     1      -8.453  11.422  63.115  1.00  0.00     0.287 A  
HETATM   18  C   UNL     1     -10.935  11.227  65.834  1.00  0.00    -0.221 A  
HETATM   19  C   UNL     1      -7.736  10.386  62.519  1.00  0.00    -0.167 A  
HETATM   20  C   UNL     1      -7.931   9.061  62.929  1.00  0.00    -0.147 A  
HETATM   21  C   UNL     1     -11.905  11.849  66.613  1.00  0.00    -0.150 A  
HETATM   22  C   UNL     1     -12.107  13.229  66.470  1.00  0.00    -0.435 A  
HETATM   23  C   UNL     1      -8.836   8.749  63.947  1.00  0.00     0.127 A  
HETATM   24  C   UNL     1     -11.381  13.970  65.532  1.00  0.00    -0.313 A  
HETATM   25  C   UNL     1     -10.432  13.347  64.722  1.00  0.00    -0.419 A  
ENDBRANCH  10  13
ENDBRANCH   9  10
ENDBRANCH   8   9
ENDBRANCH   7   8
ENDBRANCH   6   7
ENDBRANCH   5   6
ENDBRANCH   4   5
ENDBRANCH   2   4
BRANCH   2  26
HETATM   26  C   UNL     1      -9.020   6.466  72.622  1.00  0.00    -0.132 C  
HETATM   27  C   UNL     1      -9.360   2.807  73.186  1.00  0.00    -0.116 A  
HETATM   28  C   UNL     1      -7.570   5.952  72.491  1.00  0.00    -0.100 A  
HETATM   29  C   UNL     1     -10.706   2.644  73.494  1.00  0.00    -0.277 A  
HETATM   30  C   UNL     1      -7.546   4.549  72.672  1.00  0.00    -0.085 A  
HETATM   31  C   UNL     1      -8.880   4.093  72.988  1.00  0.00    -0.103 A  
HETATM   32  C   UNL     1      -6.359   3.833  72.613  1.00  0.00    -0.017 A  
HETATM   33  C   UNL     1     -11.549   3.752  73.674  1.00  0.00    -0.052 A  
HETATM   34  C   UNL     1      -6.373   6.640  72.298  1.00  0.00    -0.053 A  
HETATM   35  C   UNL     1      -9.741   5.207  73.090  1.00  0.00    -0.165 A  
HETATM   36  C   UNL     1      -5.172   4.523  72.366  1.00  0.00    -0.004 A  
HETATM   37  C   UNL     1     -11.057   5.054  73.513  1.00  0.00    -0.386 A  
HETATM   38  C   UNL     1      -5.178   5.914  72.209  1.00  0.00    -0.022 A  
ENDBRANCH   2  26
TORSDOF 9
ENDMDL
MODEL      417
REMARK 921   NORMALIZED FREE ENERGY PREDICTED BY IDOCK:    0.23 KCAL/MOL
REMARK 922        TOTAL FREE ENERGY PREDICTED BY IDOCK:   -1.42 KCAL/MOL
REMARK 923 INTER-LIGAND FREE ENERGY PREDICTED BY IDOCK:   -2.74 KCAL/MOL
REMARK 924 INTRA-LIGAND FREE ENERGY PREDICTED BY IDOCK:    1.31 KCAL/MOL
REMARK 927      BINDING AFFINITY PREDICTED BY RF-SCORE:    0.00 PKD
ROOT
HETATM    1  C   UNL     1      -9.657   6.799  66.726  1.00  0.00    -0.166 C  
HETATM    2  N   UNL     1      -9.852   8.200  67.296  1.00  0.00    -0.178 N  
HETATM    3  C   UNL     1     -11.152   8.785  66.750  1.00  0.00     0.786 C  
ENDROOT
BRANCH   2   4
HETATM    4  C   UNL     1      -9.871   8.121  68.808  1.00  0.00    -0.176 C  
BRANCH   4   5
HETATM    5  C   UNL     1      -8.898   7.130  69.448  1.00  0.00    -0.136 C  
BRANCH   5   6
HETATM    6  C   UNL     1      -9.061   5.759  68.778  1.00  0.00    -0.118 C  
BRANCH   6   7
HETATM    7  C   UNL     1      -9.815   4.726  69.635  1.00  0.00    -0.292 C  
BRANCH   7   8
HETATM    8  C   UNL     1      -9.417   4.736  71.120  1.00  0.00    -0.218 C  
BRANCH   8   9
HETATM    9  C   UNL     1      -8.091   5.482  71.263  1.00  0.00    -0.113 C  
BRANCH   9  10
HETATM   10  N   UNL     1      -6.867   4.606  71.475  1.00  0.00    -0.037 N  
HETATM   11  C   UNL     1      -6.517   4.494  72.956  1.00  0.00    -0.042 C  
HETATM   12  C   UNL     1      -7.088   3.187  70.974  1.00  0.00    -0.033 C  
BRANCH  10  13
HETATM   13  C   UNL     1      -5.658   5.289  70.670  1.00  0.00    -0.008 C  
HETATM   14  C   UNL     1      -5.495   6.798  70.939  1.00  0.00    -0.023 A  
HETATM   15  C   UNL     1      -5.668   7.526  69.741  1.00  0.00    -0.023 A  
HETATM   16  C   UNL     1      -5.844   6.607  68.642  1.00  0.00    -0.021 A  
HETATM   17  C   UNL     1      -5.626   8.913  69.725  1.00  0.00    -0.029 A  
HETATM   18  C   UNL     1      -5.821   5.281  69.132  1.00  0.00    -0.023 A  
HETATM   19  C   UNL     1      -5.401   9.586  70.925  1.00  0.00    -0.042 A  
HETATM   20  C   UNL     1      -5.191   8.870  72.111  1.00  0.00    -0.051 A  
HETATM   21  C   UNL     1      -5.893   4.218  68.236  1.00  0.00    -0.026 A  
HETATM   22  C   UNL     1      -6.040   4.492  66.870  1.00  0.00    -0.031 A  
HETATM   23  C   UNL     1      -5.215   7.473  72.121  1.00  0.00    -0.036 A  
HETATM   24  C   UNL     1      -6.072   5.809  66.398  1.00  0.00    -0.029 A  
HETATM   25  C   UNL     1      -5.965   6.879  67.285  1.00  0.00    -0.017 A  
ENDBRANCH  10  13
ENDBRANCH   9  10
ENDBRANCH   8   9
ENDBRANCH   7   8
ENDBRANCH   6   7
ENDBRANCH   5   6
ENDBRANCH   4   5
ENDBRANCH   2   4
BRANCH   2  26
HETATM   26  C   UNL     1      -8.619   9.152  66.881  1.00  0.00    -0.123 C  
HETATM   27  C   UNL     1      -8.861  10.966  63.645  1.00  0.00    -0.082 A  
HETATM   28  C   UNL     1      -8.772  10.626  67.314  1.00  0.00    -0.129 A  
HETATM   29  C   UNL     1      -8.672   9.970  62.694  1.00  0.00    -0.218 A  
HETATM   30  C   UNL     1      -8.891  11.446  66.166  1.00  0.00    -0.186 A  
HETATM   31  C   UNL     1      -8.756  10.626  64.985  1.00  0.00    -0.186 A  
HETATM   32  C   UNL     1      -9.031  12.822  66.274  1.00  0.00     0.043 A  
HETATM   33  C   UNL     1      -8.311   8.667  63.069  1.00  0.00    -0.153 A  
HETATM   34  C   UNL     1      -8.746  11.213  68.577  1.00  0.00    -0.161 A  
HETATM   35  C   UNL     1      -8.470   9.298  65.371  1.00  0.00    -0.157 A  
HETATM   36  C   UNL     1      -9.059  13.396  67.545  1.00  0.00    -0.215 A  
HETATM   37  C   UNL     1      -8.165   8.329  64.421  1.00  0.00    -0.130 A  
HETATM   38  C   UNL     1      -8.919  12.600  68.687  1.00  0.00     0.047 A  
ENDBRANCH   2  26
TORSDOF 9
ENDMDL
MODEL      418
REMARK 921   NORMALIZED FREE ENERGY PREDICTED BY IDOCK:    0.31 KCAL/MOL
REMARK 922        TOTAL FREE ENERGY PREDICTED BY IDOCK:   -1.29 KCAL/MOL
REMARK 923 INTER-LIGAND FREE ENERGY PREDICTED BY IDOCK:   -1.18 KCAL/MOL
REMARK 924 INTRA-LIGAND FREE ENERGY PREDICTED BY IDOCK:   -0.11 KCAL/MOL
REMARK 927      BINDING AFFINITY PREDICTED BY RF-SCORE:    0.00 PKD
ROOT
HETATM    1  C   UNL     1     -10.964  11.636  67.477  1.00  0.00    -0.259 C  
HETATM    2  N   UNL     1     -10.034  12.838  67.345  1.00  0.00    -0.210 N  
HETATM    3  C   UNL     1     -10.711  14.062  67.956  1.00  0.00    -0.246 C  
ENDROOT
BRANCH   2   4
HETATM    4  C   UNL     1      -8.722  12.526  68.034  1.00  0.00    -0.186 C  
BRANCH   4   5
HETATM    5  C   UNL     1      -8.372  11.047  68.191  1.00  0.00    -0.130 C  
BRANCH   5   6
HETATM    6  C   UNL     1      -6.848  10.895  68.285  1.00  0.00    -0.067 C  
BRANCH   6   7
HETATM    7  C   UNL     1      -6.280   9.728  67.457  1.00  0.00    -0.059 C  
BRANCH   7   8
HETATM    8  C   UNL     1      -5.362   8.786  68.252  1.00  0.00    -0.034 C  
BRANCH   8   9
HETATM    9  C   UNL     1      -6.164   7.546  68.649  1.00  0.00    -0.032 C  
BRANCH   9  10
HETATM   10  N   UNL     1      -6.049   7.132  70.107  1.00  0.00    -0.024 N  
HETATM   11  C   UNL     1      -5.442   5.739  70.240  1.00  0.00    -0.012 C  
HETATM   12  C   UNL     1      -5.152   8.072  70.898  1.00  0.00    -0.026 C  
BRANCH  10  13
HETATM   13  C   UNL     1      -7.534   7.150  70.716  1.00  0.00    -0.080 C  
HETATM   14  C   UNL     1      -7.706   6.291  71.984  1.00  0.00    -0.096 A  
HETATM   15  C   UNL     1      -8.657   5.272  71.754  1.00  0.00    -0.131 A  
HETATM   16  C   UNL     1      -9.224   5.433  70.437  1.00  0.00    -0.190 A  
HETATM   17  C   UNL     1      -8.951   4.326  72.726  1.00  0.00    -0.118 A  
HETATM   18  C   UNL     1      -8.616   6.537  69.796  1.00  0.00    -0.136 A  
HETATM   19  C   UNL     1      -8.290   4.401  73.951  1.00  0.00    -0.100 A  
HETATM   20  C   UNL     1      -7.373   5.431  74.199  1.00  0.00    -0.090 A  
HETATM   21  C   UNL     1      -9.065   6.933  68.540  1.00  0.00    -0.127 A  
HETATM   22  C   UNL     1     -10.077   6.190  67.917  1.00  0.00    -0.179 A  
HETATM   23  C   UNL     1      -7.093   6.395  73.226  1.00  0.00    -0.082 A  
HETATM   24  C   UNL     1     -10.664   5.094  68.557  1.00  0.00     0.132 A  
HETATM   25  C   UNL     1     -10.245   4.712  69.831  1.00  0.00    -0.156 A  
ENDBRANCH  10  13
ENDBRANCH   9  10
ENDBRANCH   8   9
ENDBRANCH   7   8
ENDBRANCH   6   7
ENDBRANCH   5   6
ENDBRANCH   4   5
ENDBRANCH   2   4
BRANCH   2  26
HETATM   26  C   UNL     1      -9.704  13.125  65.793  1.00  0.00    -0.138 C  
HETATM   27  C   UNL     1     -10.827  10.604  63.303  1.00  0.00     0.665 A  
HETATM   28  C   UNL     1     -10.821  13.862  65.025  1.00  0.00    -0.389 A  
HETATM   29  C   UNL     1      -9.957   9.537  63.498  1.00  0.00     1.534 A  
HETATM   30  C   UNL     1     -11.360  13.005  64.036  1.00  0.00    -0.458 A  
HETATM   31  C   UNL     1     -10.628  11.760  64.042  1.00  0.00    -0.425 A  
HETATM   32  C   UNL     1     -12.379  13.426  63.193  1.00  0.00    -0.084 A  
HETATM   33  C   UNL     1      -8.859   9.645  64.364  1.00  0.00    -0.263 A  
HETATM   34  C   UNL     1     -11.285  15.172  65.125  1.00  0.00    -0.392 A  
HETATM   35  C   UNL     1      -9.571  11.847  64.974  1.00  0.00    -0.110 A  
HETATM   36  C   UNL     1     -12.875  14.723  63.337  1.00  0.00     1.658 A  
HETATM   37  C   UNL     1      -8.632  10.826  65.083  1.00  0.00    -0.133 A  
HETATM   38  C   UNL     1     -12.335  15.588  64.295  1.00  0.00    -0.009 A  
ENDBRANCH   2  26
TORSDOF 9
ENDMDL
MODEL      419
REMARK 921   NORMALIZED FREE ENERGY PREDICTED BY IDOCK:    0.33 KCAL/MOL
REMARK 922        TOTAL FREE ENERGY PREDICTED BY IDOCK:   -1.26 KCAL/MOL
REMARK 923 INTER-LIGAND FREE ENERGY PREDICTED BY IDOCK:   -4.54 KCAL/MOL
REMARK 924 INTRA-LIGAND FREE ENERGY PREDICTED BY IDOCK:    3.28 KCAL/MOL
REMARK 927      BINDING AFFINITY PREDICTED BY RF-SCORE:    0.00 PKD
ROOT
HETATM    1  C   UNL     1      -9.998   9.486  70.207  1.00  0.00    -0.259 C  
HETATM    2  N   UNL     1      -8.689   9.229  69.468  1.00  0.00    -0.137 N  
HETATM    3  C   UNL     1      -7.576  10.039  70.127  1.00  0.00    -0.155 C  
ENDROOT
BRANCH   2   4
HETATM    4  C   UNL     1      -8.388   7.745  69.497  1.00  0.00    -0.129 C  
BRANCH   4   5
HETATM    5  C   UNL     1      -8.709   6.962  68.224  1.00  0.00    -0.123 C  
BRANCH   5   6
HETATM    6  C   UNL     1     -10.225   6.985  67.987  1.00  0.00    -0.217 C  
BRANCH   6   7
HETATM    7  C   UNL     1     -10.835   5.603  67.686  1.00  0.00    -0.183 C  
BRANCH   7   8
HETATM    8  C   UNL     1      -9.847   4.437  67.839  1.00  0.00    -0.141 C  
BRANCH   8   9
HETATM    9  C   UNL     1      -8.688   4.894  68.725  1.00  0.00    -0.093 C  
BRANCH   9  10
HETATM   10  N   UNL     1      -8.206   3.877  69.748  1.00  0.00    -0.054 N  
HETATM   11  C   UNL     1      -9.159   2.690  69.840  1.00  0.00    -0.112 C  
HETATM   12  C   UNL     1      -6.841   3.309  69.387  1.00  0.00    -0.041 C  
BRANCH  10  13
HETATM   13  C   UNL     1      -8.127   4.637  71.160  1.00  0.00    -0.088 C  
HETATM   14  C   UNL     1      -7.474   3.809  72.285  1.00  0.00    -0.061 A  
HETATM   15  C   UNL     1      -8.397   3.604  73.335  1.00  0.00    -0.083 A  
HETATM   16  C   UNL     1      -9.616   4.321  73.047  1.00  0.00    -0.155 A  
HETATM   17  C   UNL     1      -8.071   2.838  74.444  1.00  0.00    -0.067 A  
HETATM   18  C   UNL     1      -9.499   4.964  71.794  1.00  0.00    -0.199 A  
HETATM   19  C   UNL     1      -6.799   2.271  74.512  1.00  0.00    -0.027 A  
HETATM   20  C   UNL     1      -5.865   2.500  73.493  1.00  0.00     0.000 A  
HETATM   21  C   UNL     1     -10.529   5.784  71.346  1.00  0.00    -0.296 A  
HETATM   22  C   UNL     1     -11.685   5.911  72.129  1.00  0.00    -0.287 A  
HETATM   23  C   UNL     1      -6.189   3.289  72.385  1.00  0.00    -0.013 A  
HETATM   24  C   UNL     1     -11.793   5.262  73.363  1.00  0.00     0.323 A  
HETATM   25  C   UNL     1     -10.751   4.466  73.836  1.00  0.00    -0.340 A  
ENDBRANCH  10  13
ENDBRANCH   9  10
ENDBRANCH   8   9
ENDBRANCH   7   8
ENDBRANCH   6   7
ENDBRANCH   5   6
ENDBRANCH   4   5
ENDBRANCH   2   4
BRANCH   2  26
HETATM   26  C   UNL     1      -8.823   9.660  67.920  1.00  0.00    -0.119 C  
HETATM   27  C   UNL     1      -8.478  13.271  67.107  1.00  0.00    -0.182 A  
HETATM   28  C   UNL     1      -7.485   9.723  67.153  1.00  0.00    -0.088 A  
HETATM   29  C   UNL     1      -9.663  13.829  67.573  1.00  0.00    -0.230 A  
HETATM   30  C   UNL     1      -7.212  11.062  66.785  1.00  0.00    -0.139 A  
HETATM   31  C   UNL     1      -8.317  11.897  67.195  1.00  0.00    -0.174 A  
HETATM   32  C   UNL     1      -6.069  11.397  66.074  1.00  0.00     0.143 A  
HETATM   33  C   UNL     1     -10.706  13.022  68.052  1.00  0.00    -0.248 A  
HETATM   34  C   UNL     1      -6.615   8.710  66.752  1.00  0.00    -0.061 A  
HETATM   35  C   UNL     1      -9.332  11.087  67.749  1.00  0.00    -0.162 A  
HETATM   36  C   UNL     1      -5.176  10.383  65.724  1.00  0.00    -0.075 A  
HETATM   37  C   UNL     1     -10.562  11.629  68.105  1.00  0.00    -0.230 A  
HETATM   38  C   UNL     1      -5.446   9.052  66.060  1.00  0.00    -0.041 A  
ENDBRANCH   2  26
TORSDOF 9
ENDMDL
MODEL      420
REMARK 921   NORMALIZED FREE ENERGY PREDICTED BY IDOCK:    1.44 KCAL/MOL
REMARK 922        TOTAL FREE ENERGY PREDICTED BY IDOCK:    0.43 KCAL/MOL
REMARK 923 INTER-LIGAND FREE ENERGY PREDICTED BY IDOCK:   -2.53 KCAL/MOL
REMARK 924 INTRA-LIGAND FREE ENERGY PREDICTED BY IDOCK:    2.96 KCAL/MOL
REMARK 927      BINDING AFFINITY PREDICTED BY RF-SCORE:    0.00 PKD
ROOT
HETATM    1  C   UNL     1      -9.462  15.496  70.304  1.00  0.00     0.498 C  
HETATM    2  N   UNL     1      -9.120  14.414  69.286  1.00  0.00     0.097 N  
HETATM    3  C   UNL     1      -8.115  13.446  69.904  1.00  0.00     1.932 C  
ENDROOT
BRANCH   2   4
HETATM    4  C   UNL     1     -10.393  13.704  68.872  1.00  0.00    -0.114 C  
BRANCH   4   5
HETATM    5  C   UNL     1     -10.737  12.427  69.638  1.00  0.00     0.384 C  
BRANCH   5   6
HETATM    6  C   UNL     1     -10.060  11.231  68.955  1.00  0.00    -0.147 C  
BRANCH   6   7
HETATM    7  C   UNL     1      -8.825  10.695  69.703  1.00  0.00     0.140 C  
BRANCH   7   8
HETATM    8  C   UNL     1      -8.562   9.198  69.483  1.00  0.00    -0.138 C  
BRANCH   8   9
HETATM    9  C   UNL     1      -7.510   8.736  70.491  1.00  0.00    -0.075 C  
BRANCH   9  10
HETATM   10  N   UNL     1      -6.278   8.073  69.894  1.00  0.00    -0.029 N  
HETATM   11  C   UNL     1      -5.386   9.094  69.194  1.00  0.00    -0.036 C  
HETATM   12  C   UNL     1      -5.419   7.404  70.957  1.00  0.00    -0.027 C  
BRANCH  10  13
HETATM   13  C   UNL     1      -6.800   6.979  68.842  1.00  0.00    -0.072 C  
HETATM   14  C   UNL     1      -6.791   7.458  67.378  1.00  0.00    -0.078 A  
HETATM   15  C   UNL     1      -8.103   7.443  66.853  1.00  0.00    -0.120 A  
HETATM   16  C   UNL     1      -9.004   6.889  67.835  1.00  0.00    -0.121 A  
HETATM   17  C   UNL     1      -8.373   7.885  65.566  1.00  0.00    -0.152 A  
HETATM   18  C   UNL     1      -8.284   6.578  69.011  1.00  0.00    -0.116 A  
HETATM   19  C   UNL     1      -7.314   8.346  64.785  1.00  0.00    -0.088 A  
HETATM   20  C   UNL     1      -6.005   8.330  65.284  1.00  0.00    -0.045 A  
HETATM   21  C   UNL     1      -8.937   5.955  70.070  1.00  0.00    -0.146 A  
HETATM   22  C   UNL     1     -10.311   5.699  69.963  1.00  0.00    -0.345 A  
HETATM   23  C   UNL     1      -5.733   7.866  66.574  1.00  0.00    -0.039 A  
HETATM   24  C   UNL     1     -11.015   6.020  68.798  1.00  0.00    -0.384 A  
HETATM   25  C   UNL     1     -10.361   6.613  67.718  1.00  0.00    -0.239 A  
ENDBRANCH  10  13
ENDBRANCH   9  10
ENDBRANCH   8   9
ENDBRANCH   7   8
ENDBRANCH   6   7
ENDBRANCH   5   6
ENDBRANCH   4   5
ENDBRANCH   2   4
BRANCH   2  26
HETATM   26  C   UNL     1      -8.485  15.071  67.957  1.00  0.00    -0.149 C  
HETATM   27  C   UNL     1     -10.494  14.914  64.834  1.00  0.00    -0.389 A  
HETATM   28  C   UNL     1      -8.881  16.544  67.718  1.00  0.00    -0.197 A  
HETATM   29  C   UNL     1     -10.411  13.579  64.454  1.00  0.00    -0.366 A  
HETATM   30  C   UNL     1      -9.673  16.637  66.549  1.00  0.00    -0.291 A  
HETATM   31  C   UNL     1      -9.778  15.329  65.946  1.00  0.00    -0.390 A  
HETATM   32  C   UNL     1     -10.156  17.858  66.100  1.00  0.00    -0.322 A  
HETATM   33  C   UNL     1      -9.568  12.684  65.130  1.00  0.00     0.098 A  
HETATM   34  C   UNL     1      -8.535  17.705  68.407  1.00  0.00    -0.287 A  
HETATM   35  C   UNL     1      -8.989  14.415  66.677  1.00  0.00    -0.232 A  
HETATM   36  C   UNL     1      -9.850  19.009  66.827  1.00  0.00    -0.395 A  
HETATM   37  C   UNL     1      -8.812  13.110  66.230  1.00  0.00     0.195 A  
HETATM   38  C   UNL     1      -9.048  18.934  67.971  1.00  0.00    -0.340 A  
ENDBRANCH   2  26
TORSDOF 9
ENDMDL
MODEL      421
REMARK 921   NORMALIZED FREE ENERGY PREDICTED BY IDOCK:    1.49 KCAL/MOL
REMARK 922        TOTAL FREE ENERGY PREDICTED BY IDOCK:    0.51 KCAL/MOL
REMARK 923 INTER-LIGAND FREE ENERGY PREDICTED BY IDOCK:   -3.61 KCAL/MOL
REMARK 924 INTRA-LIGAND FREE ENERGY PREDICTED BY IDOCK:    4.12 KCAL/MOL
REMARK 927      BINDING AFFINITY PREDICTED BY RF-SCORE:    0.00 PKD
ROOT
HETATM    1  C   UNL     1      -8.546  12.405  69.709  1.00  0.00     2.355 C  
HETATM    2  N   UNL     1      -9.186  11.047  69.442  1.00  0.00     0.090 N  
HETATM    3  C   UNL     1     -10.695  11.226  69.298  1.00  0.00    -0.179 C  
ENDROOT
BRANCH   2   4
HETATM    4  C   UNL     1      -8.576  10.450  68.190  1.00  0.00    -0.125 C  
BRANCH   4   5
HETATM    5  C   UNL     1      -7.653  11.364  67.384  1.00  0.00    -0.124 C  
BRANCH   5   6
HETATM    6  C   UNL     1      -7.057  12.428  68.315  1.00  0.00    -0.098 C  
BRANCH   6   7
HETATM    7  C   UNL     1      -6.653  13.732  67.603  1.00  0.00    -0.181 C  
BRANCH   7   8
HETATM    8  C   UNL     1      -7.839  14.636  67.233  1.00  0.00    -0.213 C  
BRANCH   8   9
HETATM    9  C   UNL     1      -9.084  13.763  67.073  1.00  0.00    -0.246 C  
BRANCH   9  10
HETATM   10  N   UNL     1     -10.151  14.311  66.138  1.00  0.00    -0.301 N  
HETATM   11  C   UNL     1      -9.538  14.819  64.837  1.00  0.00     0.609 C  
HETATM   12  C   UNL     1     -11.169  13.249  65.752  1.00  0.00    -0.294 C  
BRANCH  10  13
HETATM   13  C   UNL     1     -10.880  15.512  66.915  1.00  0.00    -0.301 C  
HETATM   14  C   UNL     1     -10.010  16.773  67.083  1.00  0.00    -0.274 A  
HETATM   15  C   UNL     1      -9.815  17.049  68.455  1.00  0.00    -0.283 A  
HETATM   16  C   UNL     1     -10.577  16.112  69.244  1.00  0.00    -0.280 A  
HETATM   17  C   UNL     1      -9.017  18.104  68.873  1.00  0.00    -0.140 A  
HETATM   18  C   UNL     1     -11.240  15.205  68.387  1.00  0.00    -0.307 A  
HETATM   19  C   UNL     1      -8.408  18.902  67.907  1.00  0.00    -0.310 A  
HETATM   20  C   UNL     1      -8.626  18.658  66.545  1.00  0.00    -0.307 A  
HETATM   21  C   UNL     1     -12.103  14.256  68.927  1.00  0.00    -0.314 A  
HETATM   22  C   UNL     1     -12.252  14.190  70.319  1.00  0.00    -0.416 A  
HETATM   23  C   UNL     1      -9.446  17.607  66.125  1.00  0.00    -0.178 A  
HETATM   24  C   UNL     1     -11.583  15.087  71.158  1.00  0.00    -0.377 A  
HETATM   25  C   UNL     1     -10.744  16.064  70.623  1.00  0.00    -0.058 A  
ENDBRANCH  10  13
ENDBRANCH   9  10
ENDBRANCH   8   9
ENDBRANCH   7   8
ENDBRANCH   6   7
ENDBRANCH   5   6
ENDBRANCH   4   5
ENDBRANCH   2   4
BRANCH   2  26
HETATM   26  C   UNL     1      -8.878  10.031  70.655  1.00  0.00     0.617 C  
HETATM   27  C   UNL     1      -9.887   6.480  70.221  1.00  0.00    -0.185 A  
HETATM   28  C   UNL     1      -7.528   9.292  70.547  1.00  0.00    -0.136 A  
HETATM   29  C   UNL     1     -11.272   6.514  70.335  1.00  0.00    -0.414 A  
HETATM   30  C   UNL     1      -7.759   7.908  70.363  1.00  0.00    -0.087 A  
HETATM   31  C   UNL     1      -9.181   7.658  70.410  1.00  0.00    -0.156 A  
HETATM   32  C   UNL     1      -6.708   7.010  70.245  1.00  0.00    -0.052 A  
HETATM   33  C   UNL     1     -11.941   7.690  70.706  1.00  0.00    -0.192 A  
HETATM   34  C   UNL     1      -6.220   9.760  70.663  1.00  0.00    -0.095 A  
HETATM   35  C   UNL     1      -9.855   8.862  70.706  1.00  0.00    -0.278 A  
HETATM   36  C   UNL     1      -5.401   7.495  70.308  1.00  0.00    -0.023 A  
HETATM   37  C   UNL     1     -11.227   8.873  70.937  1.00  0.00    -0.334 A  
HETATM   38  C   UNL     1      -5.159   8.858  70.514  1.00  0.00    -0.020 A  
ENDBRANCH   2  26
TORSDOF 9
ENDMDL
MODEL      422
REMARK 921   NORMALIZED FREE ENERGY PREDICTED BY IDOCK:    1.67 KCAL/MOL
REMARK 922        TOTAL FREE ENERGY PREDICTED BY IDOCK:    0.79 KCAL/MOL
REMARK 923 INTER-LIGAND FREE ENERGY PREDICTED BY IDOCK:   -4.62 KCAL/MOL
REMARK 924 INTRA-LIGAND FREE ENERGY PREDICTED BY IDOCK:    5.41 KCAL/MOL
REMARK 927      BINDING AFFINITY PREDICTED BY RF-SCORE:    0.00 PKD
ROOT
HETATM    1  C   UNL     1      -7.690   7.131  68.113  1.00  0.00    -0.117 C  
HETATM    2  N   UNL     1      -7.860   7.050  69.627  1.00  0.00    -0.116 N  
HETATM    3  C   UNL     1      -6.482   6.978  70.280  1.00  0.00    -0.043 C  
ENDROOT
BRANCH   2   4
HETATM    4  C   UNL     1      -8.638   8.258  70.104  1.00  0.00    -0.128 C  
BRANCH   4   5
HETATM    5  C   UNL     1      -9.601   8.885  69.096  1.00  0.00    -0.162 C  
BRANCH   5   6
HETATM    6  C   UNL     1      -8.798   9.685  68.061  1.00  0.00    -0.119 C  
BRANCH   6   7
HETATM    7  C   UNL     1      -7.438  10.191  68.575  1.00  0.00    -0.086 C  
BRANCH   7   8
HETATM    8  C   UNL     1      -6.952  11.479  67.894  1.00  0.00    -0.075 C  
BRANCH   8   9
HETATM    9  C   UNL     1      -8.000  11.914  66.870  1.00  0.00    -0.132 C  
BRANCH   9  10
HETATM   10  N   UNL     1      -9.302  12.444  67.451  1.00  0.00    -0.177 N  
HETATM   11  C   UNL     1      -9.516  11.943  68.876  1.00  0.00     0.110 C  
HETATM   12  C   UNL     1      -9.319  13.964  67.519  1.00  0.00    -0.217 C  
BRANCH  10  13
HETATM   13  C   UNL     1     -10.484  11.925  66.497  1.00  0.00    -0.221 C  
HETATM   14  C   UNL     1      -9.999  11.314  65.168  1.00  0.00    -0.312 A  
HETATM   15  C   UNL     1     -10.506  12.056  64.078  1.00  0.00    -0.410 A  
HETATM   16  C   UNL     1     -11.391  13.084  64.570  1.00  0.00    -0.377 A  
HETATM   17  C   UNL     1     -10.167  11.742  62.770  1.00  0.00     0.168 A  
HETATM   18  C   UNL     1     -11.432  13.033  65.982  1.00  0.00    -0.374 A  
HETATM   19  C   UNL     1      -9.312  10.665  62.543  1.00  0.00    -0.316 A  
HETATM   20  C   UNL     1      -8.834   9.901  63.616  1.00  0.00    -0.256 A  
HETATM   21  C   UNL     1     -12.287  13.884  66.674  1.00  0.00    -0.411 A  
HETATM   22  C   UNL     1     -13.051  14.812  65.952  1.00  0.00     0.745 A  
HETATM   23  C   UNL     1      -9.192  10.206  64.932  1.00  0.00    -0.281 A  
HETATM   24  C   UNL     1     -12.995  14.860  64.556  1.00  0.00     0.620 A  
HETATM   25  C   UNL     1     -12.166  13.986  63.852  1.00  0.00    -0.336 A  
ENDBRANCH  10  13
ENDBRANCH   9  10
ENDBRANCH   8   9
ENDBRANCH   7   8
ENDBRANCH   6   7
ENDBRANCH   5   6
ENDBRANCH   4   5
ENDBRANCH   2   4
BRANCH   2  26
HETATM   26  C   UNL     1      -8.713   5.741  70.027  1.00  0.00    -0.132 C  
HETATM   27  C   UNL     1      -7.080   3.234  72.232  1.00  0.00    -0.038 A  
HETATM   28  C   UNL     1      -9.500   5.868  71.349  1.00  0.00    -0.168 A  
HETATM   29  C   UNL     1      -6.150   2.618  71.401  1.00  0.00    -0.014 A  
HETATM   30  C   UNL     1      -8.971   4.967  72.303  1.00  0.00    -0.142 A  
HETATM   31  C   UNL     1      -7.923   4.189  71.685  1.00  0.00    -0.082 A  
HETATM   32  C   UNL     1      -9.506   4.871  73.580  1.00  0.00    -0.139 A  
HETATM   33  C   UNL     1      -6.109   2.898  70.026  1.00  0.00    -0.024 A  
HETATM   34  C   UNL     1     -10.611   6.642  71.678  1.00  0.00    -0.245 A  
HETATM   35  C   UNL     1      -7.833   4.531  70.319  1.00  0.00    -0.060 A  
HETATM   36  C   UNL     1     -10.585   5.689  73.918  1.00  0.00    -0.285 A  
HETATM   37  C   UNL     1      -6.987   3.834  69.463  1.00  0.00    -0.042 A  
HETATM   38  C   UNL     1     -11.132   6.568  72.977  1.00  0.00    -0.230 A  
ENDBRANCH   2  26
TORSDOF 9
ENDMDL
MODEL      423
REMARK 921   NORMALIZED FREE ENERGY PREDICTED BY IDOCK:    2.05 KCAL/MOL
REMARK 922        TOTAL FREE ENERGY PREDICTED BY IDOCK:    1.36 KCAL/MOL
REMARK 923 INTER-LIGAND FREE ENERGY PREDICTED BY IDOCK:   -1.20 KCAL/MOL
REMARK 924 INTRA-LIGAND FREE ENERGY PREDICTED BY IDOCK:    2.55 KCAL/MOL
REMARK 927      BINDING AFFINITY PREDICTED BY RF-SCORE:    0.00 PKD
ROOT
HETATM    1  C   UNL     1      -7.480   8.550  69.026  1.00  0.00    -0.089 C  
HETATM    2  N   UNL     1      -7.864   9.674  69.983  1.00  0.00    -0.147 N  
HETATM    3  C   UNL     1      -6.600  10.223  70.640  1.00  0.00    -0.036 C  
ENDROOT
BRANCH   2   4
HETATM    4  C   UNL     1      -8.601  10.749  69.213  1.00  0.00    -0.033 C  
BRANCH   4   5
HETATM    5  C   UNL     1      -7.856  11.370  68.032  1.00  0.00    -0.121 C  
BRANCH   5   6
HETATM    6  C   UNL     1      -8.238  12.852  67.916  1.00  0.00    -0.165 C  
BRANCH   6   7
HETATM    7  C   UNL     1      -9.381  13.281  68.855  1.00  0.00     0.240 C  
BRANCH   7   8
HETATM    8  C   UNL     1      -9.313  14.753  69.290  1.00  0.00    -0.050 C  
BRANCH   8   9
HETATM    9  C   UNL     1      -9.813  15.625  68.137  1.00  0.00    -0.212 C  
BRANCH   9  10
HETATM   10  N   UNL     1      -9.742  17.125  68.373  1.00  0.00    -0.272 N  
HETATM   11  C   UNL     1     -10.778  17.866  67.534  1.00  0.00    -0.321 C  
HETATM   12  C   UNL     1     -10.020  17.488  69.824  1.00  0.00     0.442 C  
BRANCH  10  13
HETATM   13  C   UNL     1      -8.261  17.592  67.965  1.00  0.00    -0.239 C  
HETATM   14  C   UNL     1      -7.239  16.441  67.878  1.00  0.00    -0.150 A  
HETATM   15  C   UNL     1      -6.199  16.644  68.813  1.00  0.00    -0.147 A  
HETATM   16  C   UNL     1      -6.389  17.913  69.472  1.00  0.00    -0.212 A  
HETATM   17  C   UNL     1      -5.180  15.716  68.973  1.00  0.00    -0.096 A  
HETATM   18  C   UNL     1      -7.571  18.521  68.992  1.00  0.00    -0.204 A  
HETATM   19  C   UNL     1      -5.195  14.568  68.182  1.00  0.00    -0.118 A  
HETATM   20  C   UNL     1      -6.202  14.377  67.227  1.00  0.00     0.418 A  
HETATM   21  C   UNL     1      -7.914  19.796  69.430  1.00  0.00     0.090 A  
HETATM   22  C   UNL     1      -7.101  20.427  70.382  1.00  0.00     0.680 A  
HETATM   23  C   UNL     1      -7.217  15.323  67.054  1.00  0.00    -0.012 A  
HETATM   24  C   UNL     1      -5.939  19.812  70.858  1.00  0.00    -0.247 A  
HETATM   25  C   UNL     1      -5.568  18.548  70.397  1.00  0.00    -0.212 A  
ENDBRANCH  10  13
ENDBRANCH   9  10
ENDBRANCH   8   9
ENDBRANCH   7   8
ENDBRANCH   6   7
ENDBRANCH   5   6
ENDBRANCH   4   5
ENDBRANCH   2   4
BRANCH   2  26
HETATM   26  C   UNL     1      -8.867   9.126  71.120  1.00  0.00    -0.164 C  
HETATM   27  C   UNL     1     -12.477   8.903  70.264  1.00  0.00     0.627 A  
HETATM   28  C   UNL     1      -9.124   7.604  71.070  1.00  0.00    -0.150 A  
HETATM   29  C   UNL     1     -12.896  10.228  70.251  1.00  0.00    -0.125 A  
HETATM   30  C   UNL     1     -10.478   7.364  70.736  1.00  0.00    -0.221 A  
HETATM   31  C   UNL     1     -11.168   8.628  70.628  1.00  0.00    -0.284 A  
HETATM   32  C   UNL     1     -10.978   6.074  70.634  1.00  0.00    -0.376 A  
HETATM   33  C   UNL     1     -12.043  11.263  70.666  1.00  0.00    -0.480 A  
HETATM   34  C   UNL     1      -8.284   6.528  71.351  1.00  0.00    -0.120 A  
HETATM   35  C   UNL     1     -10.282   9.672  70.970  1.00  0.00    -0.252 A  
HETATM   36  C   UNL     1     -10.117   5.000  70.864  1.00  0.00    -0.302 A  
HETATM   37  C   UNL     1     -10.731  10.985  71.072  1.00  0.00     2.000 A  
HETATM   38  C   UNL     1      -8.781   5.225  71.218  1.00  0.00    -0.136 A  
ENDBRANCH   2  26
TORSDOF 9
ENDMDL
MODEL      424
REMARK 921   NORMALIZED FREE ENERGY PREDICTED BY IDOCK:    2.23 KCAL/MOL
REMARK 922        TOTAL FREE ENERGY PREDICTED BY IDOCK:    1.63 KCAL/MOL
REMARK 923 INTER-LIGAND FREE ENERGY PREDICTED BY IDOCK:   -4.56 KCAL/MOL
REMARK 924 INTRA-LIGAND FREE ENERGY PREDICTED BY IDOCK:    6.20 KCAL/MOL
REMARK 927      BINDING AFFINITY PREDICTED BY RF-SCORE:    0.00 PKD
ROOT
HETATM    1  C   UNL     1      -9.110   9.614  70.753  1.00  0.00     0.036 C  
HETATM    2  N   UNL     1      -9.101   9.195  69.286  1.00  0.00    -0.143 N  
HETATM    3  C   UNL     1      -8.793   7.703  69.195  1.00  0.00    -0.139 C  
ENDROOT
BRANCH   2   4
HETATM    4  C   UNL     1     -10.445   9.523  68.670  1.00  0.00    -0.211 C  
BRANCH   4   5
HETATM    5  C   UNL     1     -10.961   8.549  67.611  1.00  0.00     0.092 C  
BRANCH   5   6
HETATM    6  C   UNL     1      -9.914   7.451  67.382  1.00  0.00    -0.239 C  
BRANCH   6   7
HETATM    7  C   UNL     1     -10.506   6.099  66.945  1.00  0.00    -0.340 C  
BRANCH   7   8
HETATM    8  C   UNL     1     -10.379   4.990  68.000  1.00  0.00    -0.096 C  
BRANCH   8   9
HETATM    9  C   UNL     1      -8.969   5.039  68.590  1.00  0.00    -0.106 C  
BRANCH   9  10
HETATM   10  N   UNL     1      -8.459   3.732  69.177  1.00  0.00    -0.071 N  
HETATM   11  C   UNL     1      -8.646   2.576  68.199  1.00  0.00    -0.083 C  
HETATM   12  C   UNL     1      -6.973   3.792  69.497  1.00  0.00    -0.042 C  
BRANCH  10  13
HETATM   13  C   UNL     1      -9.298   3.465  70.519  1.00  0.00    -0.161 C  
HETATM   14  C   UNL     1     -10.099   4.685  71.015  1.00  0.00    -0.246 A  
HETATM   15  C   UNL     1      -9.657   5.067  72.301  1.00  0.00    -0.184 A  
HETATM   16  C   UNL     1      -8.666   4.125  72.765  1.00  0.00    -0.108 A  
HETATM   17  C   UNL     1     -10.182   6.177  72.947  1.00  0.00    -0.206 A  
HETATM   18  C   UNL     1      -8.439   3.152  71.766  1.00  0.00    -0.088 A  
HETATM   19  C   UNL     1     -11.171   6.917  72.300  1.00  0.00    -0.299 A  
HETATM   20  C   UNL     1     -11.642   6.524  71.041  1.00  0.00    -0.405 A  
HETATM   21  C   UNL     1      -7.577   2.091  72.026  1.00  0.00    -0.040 A  
HETATM   22  C   UNL     1      -6.912   2.044  73.259  1.00  0.00    -0.027 A  
HETATM   23  C   UNL     1     -11.125   5.394  70.401  1.00  0.00     0.067 A  
HETATM   24  C   UNL     1      -7.138   3.019  74.236  1.00  0.00    -0.042 A  
HETATM   25  C   UNL     1      -8.027   4.066  73.998  1.00  0.00    -0.084 A  
ENDBRANCH  10  13
ENDBRANCH   9  10
ENDBRANCH   8   9
ENDBRANCH   7   8
ENDBRANCH   6   7
ENDBRANCH   5   6
ENDBRANCH   4   5
ENDBRANCH   2   4
BRANCH   2  26
HETATM   26  C   UNL     1      -7.985  10.025  68.471  1.00  0.00    -0.102 C  
HETATM   27  C   UNL     1      -9.064  13.156  66.784  1.00  0.00    -0.214 A  
HETATM   28  C   UNL     1      -7.279  11.127  69.290  1.00  0.00    -0.112 A  
HETATM   29  C   UNL     1      -9.809  12.707  65.700  1.00  0.00    -0.213 A  
HETATM   30  C   UNL     1      -7.614  12.397  68.761  1.00  0.00    -0.033 A  
HETATM   31  C   UNL     1      -8.445  12.216  67.593  1.00  0.00    -0.163 A  
HETATM   32  C   UNL     1      -7.104  13.565  69.309  1.00  0.00     0.038 A  
HETATM   33  C   UNL     1      -9.878  11.342  65.382  1.00  0.00    -0.277 A  
HETATM   34  C   UNL     1      -6.380  11.041  70.351  1.00  0.00    -0.063 A  
HETATM   35  C   UNL     1      -8.576  10.837  67.324  1.00  0.00    -0.130 A  
HETATM   36  C   UNL     1      -6.247  13.471  70.406  1.00  0.00    -0.028 A  
HETATM   37  C   UNL     1      -9.221  10.392  66.175  1.00  0.00    -0.199 A  
HETATM   38  C   UNL     1      -5.889  12.222  70.924  1.00  0.00     0.095 A  
ENDBRANCH   2  26
TORSDOF 9
ENDMDL
MODEL      425
REMARK 921   NORMALIZED FREE ENERGY PREDICTED BY IDOCK:    2.37 KCAL/MOL
REMARK 922        TOTAL FREE ENERGY PREDICTED BY IDOCK:    1.85 KCAL/MOL
REMARK 923 INTER-LIGAND FREE ENERGY PREDICTED BY IDOCK:   -3.86 KCAL/MOL
REMARK 924 INTRA-LIGAND FREE ENERGY PREDICTED BY IDOCK:    5.71 KCAL/MOL
REMARK 927      BINDING AFFINITY PREDICTED BY RF-SCORE:    0.00 PKD
ROOT
HETATM    1  C   UNL     1      -8.908   9.407  71.130  1.00  0.00     0.084 C  
HETATM    2  N   UNL     1      -9.069   8.972  69.677  1.00  0.00    -0.149 N  
HETATM    3  C   UNL     1      -8.896   7.458  69.587  1.00  0.00    -0.141 C  
ENDROOT
BRANCH   2   4
HETATM    4  C   UNL     1     -10.433   9.405  69.180  1.00  0.00    -0.217 C  
BRANCH   4   5
HETATM    5  C   UNL     1     -11.119   8.471  68.183  1.00  0.00     0.301 C  
BRANCH   5   6
HETATM    6  C   UNL     1     -10.175   7.309  67.848  1.00  0.00    -0.237 C  
BRANCH   6   7
HETATM    7  C   UNL     1     -10.895   5.982  67.545  1.00  0.00    -0.393 C  
BRANCH   7   8
HETATM    8  C   UNL     1     -10.653   4.886  68.594  1.00  0.00     0.215 C  
BRANCH   8   9
HETATM    9  C   UNL     1      -9.159   4.841  68.917  1.00  0.00    -0.115 C  
BRANCH   9  10
HETATM   10  N   UNL     1      -8.650   3.524  69.479  1.00  0.00    -0.064 N  
HETATM   11  C   UNL     1      -8.996   2.359  68.558  1.00  0.00    -0.129 C  
HETATM   12  C   UNL     1      -7.137   3.518  69.637  1.00  0.00    -0.042 C  
BRANCH  10  13
HETATM   13  C   UNL     1      -9.351   3.326  70.911  1.00  0.00    -0.150 C  
HETATM   14  C   UNL     1     -10.060   4.586  71.444  1.00  0.00    -0.230 A  
HETATM   15  C   UNL     1      -9.474   4.993  72.664  1.00  0.00    -0.161 A  
HETATM   16  C   UNL     1      -8.467   4.036  73.054  1.00  0.00    -0.093 A  
HETATM   17  C   UNL     1      -9.897   6.139  73.322  1.00  0.00    -0.170 A  
HETATM   18  C   UNL     1      -8.374   3.024  72.071  1.00  0.00    -0.065 A  
HETATM   19  C   UNL     1     -10.927   6.890  72.757  1.00  0.00    -0.315 A  
HETATM   20  C   UNL     1     -11.538   6.473  71.567  1.00  0.00    -0.366 A  
HETATM   21  C   UNL     1      -7.520   1.946  72.276  1.00  0.00    -0.039 A  
HETATM   22  C   UNL     1      -6.731   1.916  73.434  1.00  0.00    -0.018 A  
HETATM   23  C   UNL     1     -11.124   5.307  70.916  1.00  0.00     0.115 A  
HETATM   24  C   UNL     1      -6.824   2.928  74.395  1.00  0.00    -0.035 A  
HETATM   25  C   UNL     1      -7.704   3.995  74.215  1.00  0.00    -0.079 A  
ENDBRANCH  10  13
ENDBRANCH   9  10
ENDBRANCH   8   9
ENDBRANCH   7   8
ENDBRANCH   6   7
ENDBRANCH   5   6
ENDBRANCH   4   5
ENDBRANCH   2   4
BRANCH   2  26
HETATM   26  C   UNL     1      -7.968   9.696  68.749  1.00  0.00    -0.089 C  
HETATM   27  C   UNL     1      -6.119   7.582  66.313  1.00  0.00    -0.041 A  
HETATM   28  C   UNL     1      -8.500  10.183  67.384  1.00  0.00    -0.122 A  
HETATM   29  C   UNL     1      -5.252   6.841  67.110  1.00  0.00    -0.009 A  
HETATM   30  C   UNL     1      -7.883   9.446  66.345  1.00  0.00    -0.100 A  
HETATM   31  C   UNL     1      -6.916   8.540  66.920  1.00  0.00    -0.074 A  
HETATM   32  C   UNL     1      -8.177   9.692  65.012  1.00  0.00    -0.137 A  
HETATM   33  C   UNL     1      -5.128   7.101  68.483  1.00  0.00    -0.016 A  
HETATM   34  C   UNL     1      -9.384  11.211  67.064  1.00  0.00    -0.182 A  
HETATM   35  C   UNL     1      -6.853   8.751  68.314  1.00  0.00    -0.066 A  
HETATM   36  C   UNL     1      -9.105  10.688  64.703  1.00  0.00    -0.238 A  
HETATM   37  C   UNL     1      -5.904   8.096  69.093  1.00  0.00    -0.034 A  
HETATM   38  C   UNL     1      -9.704  11.440  65.719  1.00  0.00    -0.263 A  
ENDBRANCH   2  26
TORSDOF 9
ENDMDL
MODEL      426
REMARK 921   NORMALIZED FREE ENERGY PREDICTED BY IDOCK:    2.58 KCAL/MOL
REMARK 922        TOTAL FREE ENERGY PREDICTED BY IDOCK:    2.17 KCAL/MOL
REMARK 923 INTER-LIGAND FREE ENERGY PREDICTED BY IDOCK:   -1.45 KCAL/MOL
REMARK 924 INTRA-LIGAND FREE ENERGY PREDICTED BY IDOCK:    3.62 KCAL/MOL
REMARK 927      BINDING AFFINITY PREDICTED BY RF-SCORE:    0.00 PKD
ROOT
HETATM    1  C   UNL     1      -9.988   3.436  67.969  1.00  0.00     0.440 C  
HETATM    2  N   UNL     1      -9.469   4.771  67.444  1.00  0.00    -0.138 N  
HETATM    3  C   UNL     1     -10.604   5.790  67.464  1.00  0.00    -0.253 C  
ENDROOT
BRANCH   2   4
HETATM    4  C   UNL     1      -8.303   5.219  68.300  1.00  0.00    -0.097 C  
BRANCH   4   5
HETATM    5  C   UNL     1      -8.628   6.195  69.431  1.00  0.00    -0.123 C  
BRANCH   5   6
HETATM    6  C   UNL     1      -8.212   5.572  70.770  1.00  0.00    -0.117 C  
BRANCH   6   7
HETATM    7  C   UNL     1      -8.398   6.503  71.982  1.00  0.00    -0.107 C  
BRANCH   7   8
HETATM    8  C   UNL     1      -8.433   7.997  71.623  1.00  0.00    -0.155 C  
BRANCH   8   9
HETATM    9  C   UNL     1      -7.216   8.317  70.754  1.00  0.00    -0.055 C  
BRANCH   9  10
HETATM   10  N   UNL     1      -7.513   9.053  69.458  1.00  0.00    -0.074 N  
HETATM   11  C   UNL     1      -6.232   9.365  68.692  1.00  0.00    -0.044 C  
HETATM   12  C   UNL     1      -8.386   8.230  68.523  1.00  0.00    -0.129 C  
BRANCH  10  13
HETATM   13  C   UNL     1      -8.267  10.414  69.855  1.00  0.00     0.074 C  
HETATM   14  C   UNL     1      -9.648  10.585  69.193  1.00  0.00    -0.214 A  
HETATM   15  C   UNL     1      -9.656  11.741  68.379  1.00  0.00    -0.191 A  
HETATM   16  C   UNL     1      -8.396  12.431  68.516  1.00  0.00    -0.081 A  
HETATM   17  C   UNL     1     -10.769  12.087  67.626  1.00  0.00    -0.252 A  
HETATM   18  C   UNL     1      -7.555  11.706  69.391  1.00  0.00     0.213 A  
HETATM   19  C   UNL     1     -11.897  11.270  67.690  1.00  0.00    -0.102 A  
HETATM   20  C   UNL     1     -11.910  10.144  68.522  1.00  0.00     0.365 A  
HETATM   21  C   UNL     1      -6.312  12.226  69.736  1.00  0.00    -0.091 A  
HETATM   22  C   UNL     1      -5.902  13.438  69.163  1.00  0.00    -0.082 A  
HETATM   23  C   UNL     1     -10.795   9.807  69.295  1.00  0.00    -0.240 A  
HETATM   24  C   UNL     1      -6.738  14.141  68.290  1.00  0.00    -0.108 A  
HETATM   25  C   UNL     1      -8.000  13.644  67.966  1.00  0.00    -0.154 A  
ENDBRANCH  10  13
ENDBRANCH   9  10
ENDBRANCH   8   9
ENDBRANCH   7   8
ENDBRANCH   6   7
ENDBRANCH   5   6
ENDBRANCH   4   5
ENDBRANCH   2   4
BRANCH   2  26
HETATM   26  C   UNL     1      -8.921   4.607  65.936  1.00  0.00    -0.127 C  
HETATM   27  C   UNL     1      -6.490   1.873  65.279  1.00  0.00    -0.023 A  
HETATM   28  C   UNL     1      -9.727   3.621  65.064  1.00  0.00    -0.162 A  
HETATM   29  C   UNL     1      -5.316   2.326  65.870  1.00  0.00    -0.005 A  
HETATM   30  C   UNL     1      -8.919   2.504  64.742  1.00  0.00    -0.125 A  
HETATM   31  C   UNL     1      -7.596   2.709  65.284  1.00  0.00    -0.076 A  
HETATM   32  C   UNL     1      -9.400   1.468  63.955  1.00  0.00    -0.122 A  
HETATM   33  C   UNL     1      -5.221   3.624  66.394  1.00  0.00    -0.009 A  
HETATM   34  C   UNL     1     -11.016   3.709  64.541  1.00  0.00     0.140 A  
HETATM   35  C   UNL     1      -7.530   3.987  65.880  1.00  0.00    -0.084 A  
HETATM   36  C   UNL     1     -10.711   1.538  63.481  1.00  0.00    -0.098 A  
HETATM   37  C   UNL     1      -6.325   4.486  66.364  1.00  0.00    -0.033 A  
HETATM   38  C   UNL     1     -11.512   2.648  63.772  1.00  0.00     0.985 A  
ENDBRANCH   2  26
TORSDOF 9
ENDMDL
MODEL      427
REMARK 921   NORMALIZED FREE ENERGY PREDICTED BY IDOCK:    2.93 KCAL/MOL
REMARK 922        TOTAL FREE ENERGY PREDICTED BY IDOCK:    2.70 KCAL/MOL
REMARK 923 INTER-LIGAND FREE ENERGY PREDICTED BY IDOCK:   -2.73 KCAL/MOL
REMARK 924 INTRA-LIGAND FREE ENERGY PREDICTED BY IDOCK:    5.43 KCAL/MOL
REMARK 927      BINDING AFFINITY PREDICTED BY RF-SCORE:    0.00 PKD
ROOT
HETATM    1  C   UNL     1      -8.184  10.965  69.669  1.00  0.00     0.279 C  
HETATM    2  N   UNL     1      -8.410   9.551  69.143  1.00  0.00    -0.118 N  
HETATM    3  C   UNL     1      -7.472   9.301  67.965  1.00  0.00    -0.083 C  
ENDROOT
BRANCH   2   4
HETATM    4  C   UNL     1      -8.170   8.561  70.264  1.00  0.00    -0.115 C  
BRANCH   4   5
HETATM    5  C   UNL     1      -7.970   9.153  71.659  1.00  0.00     0.158 C  
BRANCH   5   6
HETATM    6  C   UNL     1      -6.627   8.671  72.224  1.00  0.00    -0.069 C  
BRANCH   6   7
HETATM    7  C   UNL     1      -5.618   8.221  71.150  1.00  0.00    -0.033 C  
BRANCH   7   8
HETATM    8  C   UNL     1      -5.792   6.762  70.702  1.00  0.00    -0.027 C  
BRANCH   8   9
HETATM    9  C   UNL     1      -7.153   6.262  71.188  1.00  0.00    -0.074 C  
BRANCH   9  10
HETATM   10  N   UNL     1      -8.077   5.724  70.106  1.00  0.00    -0.106 N  
HETATM   11  C   UNL     1      -9.185   6.720  69.781  1.00  0.00    -0.146 C  
HETATM   12  C   UNL     1      -7.337   5.460  68.804  1.00  0.00    -0.074 C  
BRANCH  10  13
HETATM   13  C   UNL     1      -8.706   4.358  70.667  1.00  0.00    -0.090 C  
HETATM   14  C   UNL     1     -10.023   4.543  71.445  1.00  0.00    -0.259 A  
HETATM   15  C   UNL     1      -9.867   4.100  72.777  1.00  0.00    -0.197 A  
HETATM   16  C   UNL     1      -8.551   3.530  72.940  1.00  0.00    -0.087 A  
HETATM   17  C   UNL     1     -10.895   4.212  73.702  1.00  0.00    -0.346 A  
HETATM   18  C   UNL     1      -7.839   3.634  71.724  1.00  0.00    -0.062 A  
HETATM   19  C   UNL     1     -12.103   4.771  73.289  1.00  0.00     0.243 A  
HETATM   20  C   UNL     1     -12.279   5.179  71.961  1.00  0.00     1.163 A  
HETATM   21  C   UNL     1      -6.569   3.075  71.622  1.00  0.00    -0.019 A  
HETATM   22  C   UNL     1      -6.004   2.465  72.751  1.00  0.00    -0.008 A  
HETATM   23  C   UNL     1     -11.249   5.047  71.025  1.00  0.00     0.632 A  
HETATM   24  C   UNL     1      -6.715   2.377  73.953  1.00  0.00    -0.023 A  
HETATM   25  C   UNL     1      -8.002   2.903  74.053  1.00  0.00    -0.064 A  
ENDBRANCH  10  13
ENDBRANCH   9  10
ENDBRANCH   8   9
ENDBRANCH   7   8
ENDBRANCH   6   7
ENDBRANCH   5   6
ENDBRANCH   4   5
ENDBRANCH   2   4
BRANCH   2  26
HETATM   26  C   UNL     1      -9.938   9.367  68.661  1.00  0.00    -0.173 C  
HETATM   27  C   UNL     1     -12.312  12.134  69.388  1.00  0.00     0.014 A  
HETATM   28  C   UNL     1     -10.244   9.946  67.263  1.00  0.00    -0.277 A  
HETATM   29  C   UNL     1     -12.522  12.037  70.759  1.00  0.00    -0.372 A  
HETATM   30  C   UNL     1     -11.140  11.034  67.387  1.00  0.00    -0.370 A  
HETATM   31  C   UNL     1     -11.514  11.181  68.774  1.00  0.00    -0.366 A  
HETATM   32  C   UNL     1     -11.588  11.730  66.273  1.00  0.00    -0.223 A  
HETATM   33  C   UNL     1     -12.004  10.963  71.499  1.00  0.00     0.043 A  
HETATM   34  C   UNL     1      -9.839   9.531  65.996  1.00  0.00    -0.353 A  
HETATM   35  C   UNL     1     -10.925  10.142  69.527  1.00  0.00    -0.295 A  
HETATM   36  C   UNL     1     -11.135  11.342  65.012  1.00  0.00    -0.159 A  
HETATM   37  C   UNL     1     -11.230   9.976  70.874  1.00  0.00    -0.415 A  
HETATM   38  C   UNL     1     -10.267  10.253  64.874  1.00  0.00    -0.261 A  
ENDBRANCH   2  26
TORSDOF 9
ENDMDL
MODEL      428
REMARK 921   NORMALIZED FREE ENERGY PREDICTED BY IDOCK:    3.14 KCAL/MOL
REMARK 922        TOTAL FREE ENERGY PREDICTED BY IDOCK:    3.03 KCAL/MOL
REMARK 923 INTER-LIGAND FREE ENERGY PREDICTED BY IDOCK:    0.40 KCAL/MOL
REMARK 924 INTRA-LIGAND FREE ENERGY PREDICTED BY IDOCK:    2.63 KCAL/MOL
REMARK 927      BINDING AFFINITY PREDICTED BY RF-SCORE:    0.00 PKD
ROOT
HETATM    1  C   UNL     1     -12.942  12.064  69.208  1.00  0.00     1.587 C  
HETATM    2  N   UNL     1     -11.744  11.830  70.123  1.00  0.00    -0.304 N  
HETATM    3  C   UNL     1     -12.131  12.195  71.554  1.00  0.00     0.691 C  
ENDROOT
BRANCH   2   4
HETATM    4  C   UNL     1     -11.314  10.382  70.015  1.00  0.00    -0.313 C  
BRANCH   4   5
HETATM    5  C   UNL     1     -11.389   9.754  68.624  1.00  0.00     0.024 C  
BRANCH   5   6
HETATM    6  C   UNL     1     -10.523   8.488  68.594  1.00  0.00    -0.200 C  
BRANCH   6   7
HETATM    7  C   UNL     1      -9.506   8.449  67.439  1.00  0.00    -0.185 C  
BRANCH   7   8
HETATM    8  C   UNL     1      -9.965   7.622  66.229  1.00  0.00    -0.021 C  
BRANCH   8   9
HETATM    9  C   UNL     1      -9.125   6.346  66.164  1.00  0.00    -0.131 C  
BRANCH   9  10
HETATM   10  N   UNL     1      -9.858   5.061  66.517  1.00  0.00    -0.177 N  
HETATM   11  C   UNL     1     -10.070   4.942  68.023  1.00  0.00    -0.077 C  
HETATM   12  C   UNL     1     -11.237   4.998  65.879  1.00  0.00     0.414 C  
BRANCH  10  13
HETATM   13  C   UNL     1      -8.952   3.846  65.986  1.00  0.00    -0.133 C  
HETATM   14  C   UNL     1      -7.920   3.336  67.010  1.00  0.00    -0.079 A  
HETATM   15  C   UNL     1      -6.611   3.500  66.504  1.00  0.00    -0.041 A  
HETATM   16  C   UNL     1      -6.681   4.003  65.153  1.00  0.00    -0.048 A  
HETATM   17  C   UNL     1      -5.497   3.168  67.260  1.00  0.00    -0.020 A  
HETATM   18  C   UNL     1      -8.033   4.200  64.793  1.00  0.00    -0.093 A  
HETATM   19  C   UNL     1      -5.690   2.657  68.543  1.00  0.00    -0.023 A  
HETATM   20  C   UNL     1      -6.985   2.456  69.038  1.00  0.00    -0.040 A  
HETATM   21  C   UNL     1      -8.347   4.606  63.500  1.00  0.00    -0.113 A  
HETATM   22  C   UNL     1      -7.305   4.863  62.599  1.00  0.00    -0.043 A  
HETATM   23  C   UNL     1      -8.107   2.773  68.267  1.00  0.00    -0.071 A  
HETATM   24  C   UNL     1      -5.969   4.675  62.969  1.00  0.00    -0.017 A  
HETATM   25  C   UNL     1      -5.648   4.233  64.253  1.00  0.00    -0.014 A  
ENDBRANCH  10  13
ENDBRANCH   9  10
ENDBRANCH   8   9
ENDBRANCH   7   8
ENDBRANCH   6   7
ENDBRANCH   5   6
ENDBRANCH   4   5
ENDBRANCH   2   4
BRANCH   2  26
HETATM   26  C   UNL     1     -10.495  12.737  69.657  1.00  0.00     0.778 C  
HETATM   27  C   UNL     1      -8.345  11.423  66.923  1.00  0.00    -0.159 A  
HETATM   28  C   UNL     1     -10.797  13.690  68.481  1.00  0.00    -0.275 A  
HETATM   29  C   UNL     1      -7.631  10.396  67.530  1.00  0.00    -0.094 A  
HETATM   30  C   UNL     1     -10.046  13.297  67.348  1.00  0.00    -0.233 A  
HETATM   31  C   UNL     1      -9.203  12.181  67.706  1.00  0.00    -0.189 A  
HETATM   32  C   UNL     1     -10.125  13.996  66.152  1.00  0.00    -0.319 A  
HETATM   33  C   UNL     1      -7.713  10.172  68.913  1.00  0.00    -0.093 A  
HETATM   34  C   UNL     1     -11.596  14.830  68.414  1.00  0.00    -0.350 A  
HETATM   35  C   UNL     1      -9.350  11.910  69.083  1.00  0.00     0.408 A  
HETATM   36  C   UNL     1     -10.969  15.105  66.077  1.00  0.00    -0.332 A  
HETATM   37  C   UNL     1      -8.549  10.962  69.713  1.00  0.00     0.554 A  
HETATM   38  C   UNL     1     -11.699  15.518  67.198  1.00  0.00     0.132 A  
ENDBRANCH   2  26
TORSDOF 9
ENDMDL
MODEL      429
REMARK 921   NORMALIZED FREE ENERGY PREDICTED BY IDOCK:    5.59 KCAL/MOL
REMARK 922        TOTAL FREE ENERGY PREDICTED BY IDOCK:    6.77 KCAL/MOL
REMARK 923 INTER-LIGAND FREE ENERGY PREDICTED BY IDOCK:   -3.33 KCAL/MOL
REMARK 924 INTRA-LIGAND FREE ENERGY PREDICTED BY IDOCK:   10.10 KCAL/MOL
REMARK 927      BINDING AFFINITY PREDICTED BY RF-SCORE:    0.00 PKD
ROOT
HETATM    1  C   UNL     1      -9.555   3.230  67.842  1.00  0.00    -0.084 C  
HETATM    2  N   UNL     1      -8.952   4.608  67.590  1.00  0.00    -0.109 N  
HETATM    3  C   UNL     1      -9.990   5.676  67.924  1.00  0.00    -0.143 C  
ENDROOT
BRANCH   2   4
HETATM    4  C   UNL     1      -7.704   4.763  68.434  1.00  0.00    -0.081 C  
BRANCH   4   5
HETATM    5  C   UNL     1      -7.870   5.505  69.760  1.00  0.00    -0.082 C  
BRANCH   5   6
HETATM    6  C   UNL     1      -7.572   4.542  70.917  1.00  0.00    -0.056 C  
BRANCH   6   7
HETATM    7  C   UNL     1      -7.753   5.163  72.314  1.00  0.00    -0.100 C  
BRANCH   7   8
HETATM    8  C   UNL     1      -7.733   6.699  72.323  1.00  0.00    -0.096 C  
BRANCH   8   9
HETATM    9  C   UNL     1      -6.562   7.176  71.463  1.00  0.00    -0.048 C  
BRANCH   9  10
HETATM   10  N   UNL     1      -6.942   7.951  70.211  1.00  0.00    -0.048 N  
HETATM   11  C   UNL     1      -5.704   8.413  69.449  1.00  0.00    -0.031 C  
HETATM   12  C   UNL     1      -7.756   7.106  69.243  1.00  0.00    -0.108 C  
BRANCH  10  13
HETATM   13  C   UNL     1      -7.804   9.218  70.691  1.00  0.00    -0.158 C  
HETATM   14  C   UNL     1      -9.215   8.864  71.199  1.00  0.00    -0.324 A  
HETATM   15  C   UNL     1     -10.192   9.493  70.395  1.00  0.00    -0.337 A  
HETATM   16  C   UNL     1      -9.541  10.338  69.423  1.00  0.00    -0.237 A  
HETATM   17  C   UNL     1     -11.548   9.288  70.611  1.00  0.00    -0.305 A  
HETATM   18  C   UNL     1      -8.139  10.231  69.572  1.00  0.00    -0.170 A  
HETATM   19  C   UNL     1     -11.936   8.444  71.651  1.00  0.00    -0.357 A  
HETATM   20  C   UNL     1     -10.974   7.846  72.476  1.00  0.00    -0.412 A  
HETATM   21  C   UNL     1      -7.305  11.022  68.789  1.00  0.00    -0.111 A  
HETATM   22  C   UNL     1      -7.877  11.872  67.832  1.00  0.00    -0.138 A  
HETATM   23  C   UNL     1      -9.610   8.070  72.269  1.00  0.00    -0.286 A  
HETATM   24  C   UNL     1      -9.265  11.962  67.688  1.00  0.00    -0.183 A  
HETATM   25  C   UNL     1     -10.111  11.198  68.493  1.00  0.00    -0.208 A  
ENDBRANCH  10  13
ENDBRANCH   9  10
ENDBRANCH   8   9
ENDBRANCH   7   8
ENDBRANCH   6   7
ENDBRANCH   5   6
ENDBRANCH   4   5
ENDBRANCH   2   4
BRANCH   2  26
HETATM   26  C   UNL     1      -8.508   4.754  66.047  1.00  0.00    -0.116 C  
HETATM   27  C   UNL     1      -6.826   1.843  64.461  1.00  0.00    -0.035 A  
HETATM   28  C   UNL     1      -9.555   4.254  65.028  1.00  0.00    -0.179 A  
HETATM   29  C   UNL     1      -5.558   1.842  65.033  1.00  0.00    -0.012 A  
HETATM   30  C   UNL     1      -9.048   3.121  64.347  1.00  0.00    -0.123 A  
HETATM   31  C   UNL     1      -7.698   2.868  64.792  1.00  0.00    -0.077 A  
HETATM   32  C   UNL     1      -9.789   2.479  63.365  1.00  0.00    -0.116 A  
HETATM   33  C   UNL     1      -5.139   2.888  65.869  1.00  0.00    -0.008 A  
HETATM   34  C   UNL     1     -10.801   4.767  64.675  1.00  0.00     0.440 A  
HETATM   35  C   UNL     1      -7.308   3.882  65.694  1.00  0.00    -0.073 A  
HETATM   36  C   UNL     1     -11.059   2.967  63.055  1.00  0.00    -0.051 A  
HETATM   37  C   UNL     1      -6.004   3.947  66.174  1.00  0.00    -0.027 A  
HETATM   38  C   UNL     1     -11.561   4.100  63.705  1.00  0.00     1.260 A  
ENDBRANCH   2  26
TORSDOF 9
ENDMDL
MODEL      430
REMARK 921   NORMALIZED FREE ENERGY PREDICTED BY IDOCK:    7.26 KCAL/MOL
REMARK 922        TOTAL FREE ENERGY PREDICTED BY IDOCK:    9.32 KCAL/MOL
REMARK 923 INTER-LIGAND FREE ENERGY PREDICTED BY IDOCK:    6.79 KCAL/MOL
REMARK 924 INTRA-LIGAND FREE ENERGY PREDICTED BY IDOCK:    2.53 KCAL/MOL
REMARK 927      BINDING AFFINITY PREDICTED BY RF-SCORE:    0.00 PKD
ROOT
HETATM    1  C   UNL     1     -11.129  11.618  68.707  1.00  0.00    -0.230 C  
HETATM    2  N   UNL     1     -10.759  10.789  67.482  1.00  0.00    -0.244 N  
HETATM    3  C   UNL     1      -9.322  10.295  67.629  1.00  0.00    -0.144 C  
ENDROOT
BRANCH   2   4
HETATM    4  C   UNL     1     -11.732   9.635  67.352  1.00  0.00     2.127 C  
BRANCH   4   5
HETATM    5  C   UNL     1     -12.082   8.895  68.642  1.00  0.00     2.736 C  
BRANCH   5   6
HETATM    6  C   UNL     1     -12.373   9.918  69.748  1.00  0.00     0.312 C  
BRANCH   6   7
HETATM    7  C   UNL     1     -12.357   9.328  71.171  1.00  0.00    -0.363 C  
BRANCH   7   8
HETATM    8  C   UNL     1     -12.029   7.829  71.222  1.00  0.00    -0.324 C  
BRANCH   8   9
HETATM    9  C   UNL     1     -10.639   7.614  70.623  1.00  0.00    -0.221 C  
BRANCH   9  10
HETATM   10  N   UNL     1      -9.863   6.429  71.176  1.00  0.00    -0.179 N  
HETATM   11  C   UNL     1      -9.679   6.544  72.686  1.00  0.00    -0.160 C  
HETATM   12  C   UNL     1     -10.582   5.111  70.927  1.00  0.00    -0.132 C  
BRANCH  10  13
HETATM   13  C   UNL     1      -8.436   6.421  70.442  1.00  0.00    -0.131 C  
HETATM   14  C   UNL     1      -7.606   5.146  70.690  1.00  0.00    -0.071 A  
HETATM   15  C   UNL     1      -6.394   5.474  71.337  1.00  0.00    -0.035 A  
HETATM   16  C   UNL     1      -6.291   6.908  71.463  1.00  0.00    -0.041 A  
HETATM   17  C   UNL     1      -5.492   4.493  71.723  1.00  0.00    -0.004 A  
HETATM   18  C   UNL     1      -7.453   7.511  70.930  1.00  0.00    -0.073 A  
HETATM   19  C   UNL     1      -5.802   3.160  71.454  1.00  0.00    -0.013 A  
HETATM   20  C   UNL     1      -6.985   2.830  70.780  1.00  0.00    -0.033 A  
HETATM   21  C   UNL     1      -7.540   8.898  70.872  1.00  0.00    -0.122 A  
HETATM   22  C   UNL     1      -6.490   9.666  71.393  1.00  0.00     0.105 A  
HETATM   23  C   UNL     1      -7.883   3.821  70.374  1.00  0.00    -0.047 A  
HETATM   24  C   UNL     1      -5.349   9.058  71.927  1.00  0.00    -0.055 A  
HETATM   25  C   UNL     1      -5.238   7.668  71.958  1.00  0.00    -0.036 A  
ENDBRANCH  10  13
ENDBRANCH   9  10
ENDBRANCH   8   9
ENDBRANCH   7   8
ENDBRANCH   6   7
ENDBRANCH   5   6
ENDBRANCH   4   5
ENDBRANCH   2   4
BRANCH   2  26
HETATM   26  C   UNL     1     -10.887  11.677  66.142  1.00  0.00    -0.294 C  
HETATM   27  C   UNL     1      -8.476  14.471  65.697  1.00  0.00     2.161 A  
HETATM   28  C   UNL     1     -10.006  11.199  64.968  1.00  0.00    -0.325 A  
HETATM   29  C   UNL     1      -8.905  15.427  66.612  1.00  0.00    -0.330 A  
HETATM   30  C   UNL     1      -9.018  12.173  64.691  1.00  0.00     0.821 A  
HETATM   31  C   UNL     1      -9.221  13.311  65.558  1.00  0.00     0.498 A  
HETATM   32  C   UNL     1      -8.096  11.996  63.669  1.00  0.00     2.554 A  
HETATM   33  C   UNL     1     -10.101  15.262  67.327  1.00  0.00    -0.236 A  
HETATM   34  C   UNL     1     -10.090  10.060  64.171  1.00  0.00     0.254 A  
HETATM   35  C   UNL     1     -10.383  13.103  66.332  1.00  0.00    -0.289 A  
HETATM   36  C   UNL     1      -8.154  10.827  62.910  1.00  0.00    -0.060 A  
HETATM   37  C   UNL     1     -10.878  14.107  67.159  1.00  0.00    -0.291 A  
HETATM   38  C   UNL     1      -9.141   9.866  63.158  1.00  0.00    -0.290 A  
ENDBRANCH   2  26
TORSDOF 9
ENDMDL
MODEL      431
REMARK 921   NORMALIZED FREE ENERGY PREDICTED BY IDOCK:    8.17 KCAL/MOL
REMARK 922        TOTAL FREE ENERGY PREDICTED BY IDOCK:   10.70 KCAL/MOL
REMARK 923 INTER-LIGAND FREE ENERGY PREDICTED BY IDOCK:    3.96 KCAL/MOL
REMARK 924 INTRA-LIGAND FREE ENERGY PREDICTED BY IDOCK:    6.73 KCAL/MOL
REMARK 927      BINDING AFFINITY PREDICTED BY RF-SCORE:    0.00 PKD
ROOT
HETATM    1  C   UNL     1     -10.380   5.905  67.689  1.00  0.00    -0.212 C  
HETATM    2  N   UNL     1      -9.253   6.815  67.212  1.00  0.00    -0.131 N  
HETATM    3  C   UNL     1      -9.427   7.085  65.720  1.00  0.00     0.312 C  
ENDROOT
BRANCH   2   4
HETATM    4  C   UNL     1      -9.278   8.098  68.016  1.00  0.00    -0.132 C  
BRANCH   4   5
HETATM    5  C   UNL     1      -8.421   8.123  69.281  1.00  0.00    -0.134 C  
BRANCH   5   6
HETATM    6  C   UNL     1      -8.953   9.206  70.230  1.00  0.00    -0.245 C  
BRANCH   6   7
HETATM    7  C   UNL     1      -8.629  10.644  69.787  1.00  0.00     0.252 C  
BRANCH   7   8
HETATM    8  C   UNL     1      -7.126  10.947  69.694  1.00  0.00    -0.117 C  
BRANCH   8   9
HETATM    9  C   UNL     1      -6.913  12.037  68.643  1.00  0.00    -0.096 C  
BRANCH   9  10
HETATM   10  N   UNL     1      -7.922  12.056  67.506  1.00  0.00    -0.149 N  
HETATM   11  C   UNL     1      -7.231  12.210  66.155  1.00  0.00     1.052 C  
HETATM   12  C   UNL     1      -8.727  10.767  67.437  1.00  0.00    -0.126 C  
BRANCH  10  13
HETATM   13  C   UNL     1      -8.902  13.300  67.773  1.00  0.00    -0.197 C  
HETATM   14  C   UNL     1     -10.038  13.004  68.772  1.00  0.00    -0.066 A  
HETATM   15  C   UNL     1     -11.292  13.160  68.140  1.00  0.00    -0.328 A  
HETATM   16  C   UNL     1     -11.094  13.640  66.794  1.00  0.00    -0.315 A  
HETATM   17  C   UNL     1     -12.477  12.895  68.812  1.00  0.00     0.421 A  
HETATM   18  C   UNL     1      -9.709  13.762  66.538  1.00  0.00    -0.301 A  
HETATM   19  C   UNL     1     -12.411  12.473  70.139  1.00  0.00    -0.092 A  
HETATM   20  C   UNL     1     -11.173  12.352  70.784  1.00  0.00     1.726 A  
HETATM   21  C   UNL     1      -9.281  14.287  65.323  1.00  0.00     0.917 A  
HETATM   22  C   UNL     1     -10.237  14.634  64.359  1.00  0.00     0.603 A  
HETATM   23  C   UNL     1      -9.981  12.638  70.111  1.00  0.00     3.068 A  
HETATM   24  C   UNL     1     -11.605  14.499  64.620  1.00  0.00    -0.413 A  
HETATM   25  C   UNL     1     -12.044  14.006  65.849  1.00  0.00    -0.448 A  
ENDBRANCH  10  13
ENDBRANCH   9  10
ENDBRANCH   8   9
ENDBRANCH   7   8
ENDBRANCH   6   7
ENDBRANCH   5   6
ENDBRANCH   4   5
ENDBRANCH   2   4
BRANCH   2  26
HETATM   26  C   UNL     1      -7.821   6.118  67.467  1.00  0.00    -0.102 C  
HETATM   27  C   UNL     1      -7.780   2.929  69.378  1.00  0.00    -0.045 A  
HETATM   28  C   UNL     1      -7.416   5.075  66.404  1.00  0.00    -0.087 A  
HETATM   29  C   UNL     1      -8.045   3.324  70.685  1.00  0.00    -0.063 A  
HETATM   30  C   UNL     1      -7.372   3.789  66.995  1.00  0.00    -0.071 A  
HETATM   31  C   UNL     1      -7.652   3.910  68.406  1.00  0.00    -0.062 A  
HETATM   32  C   UNL     1      -7.023   2.667  66.256  1.00  0.00    -0.052 A  
HETATM   33  C   UNL     1      -8.111   4.681  71.034  1.00  0.00    -0.086 A  
HETATM   34  C   UNL     1      -7.056   5.228  65.067  1.00  0.00    -0.062 A  
HETATM   35  C   UNL     1      -7.796   5.275  68.737  1.00  0.00    -0.083 A  
HETATM   36  C   UNL     1      -6.716   2.823  64.904  1.00  0.00    -0.040 A  
HETATM   37  C   UNL     1      -7.943   5.676  70.061  1.00  0.00    -0.091 A  
HETATM   38  C   UNL     1      -6.733   4.092  64.314  1.00  0.00    -0.044 A  
ENDBRANCH   2  26
TORSDOF 9
ENDMDL
MODEL      432
REMARK 921   NORMALIZED FREE ENERGY PREDICTED BY IDOCK:   11.63 KCAL/MOL
REMARK 922        TOTAL FREE ENERGY PREDICTED BY IDOCK:   15.98 KCAL/MOL
REMARK 923 INTER-LIGAND FREE ENERGY PREDICTED BY IDOCK:   -2.48 KCAL/MOL
REMARK 924 INTRA-LIGAND FREE ENERGY PREDICTED BY IDOCK:   18.46 KCAL/MOL
REMARK 927      BINDING AFFINITY PREDICTED BY RF-SCORE:    0.00 PKD
ROOT
HETATM    1  C   UNL     1      -9.356  10.637  70.633  1.00  0.00     2.125 C  
HETATM    2  N   UNL     1     -10.023   9.279  70.438  1.00  0.00    -0.219 N  
HETATM    3  C   UNL     1      -9.325   8.539  69.300  1.00  0.00    -0.154 C  
ENDROOT
BRANCH   2   4
HETATM    4  C   UNL     1      -9.949   8.500  71.735  1.00  0.00    -0.275 C  
BRANCH   4   5
HETATM    5  C   UNL     1      -8.793   7.509  71.866  1.00  0.00    -0.134 C  
BRANCH   5   6
HETATM    6  C   UNL     1      -7.773   7.773  70.750  1.00  0.00    -0.084 C  
BRANCH   6   7
HETATM    7  C   UNL     1      -8.336   8.570  69.559  1.00  0.00    -0.118 C  
BRANCH   7   8
HETATM    8  C   UNL     1      -7.826  10.016  69.477  1.00  0.00    -0.155 C  
BRANCH   8   9
HETATM    9  C   UNL     1      -7.333  10.278  68.053  1.00  0.00    -0.086 C  
BRANCH   9  10
HETATM   10  N   UNL     1      -6.524  11.552  67.865  1.00  0.00    -0.054 N  
HETATM   11  C   UNL     1      -6.108  12.146  69.206  1.00  0.00    -0.090 C  
HETATM   12  C   UNL     1      -5.242  11.302  67.085  1.00  0.00    -0.063 C  
BRANCH  10  13
HETATM   13  C   UNL     1      -7.459  12.584  67.066  1.00  0.00    -0.003 C  
HETATM   14  C   UNL     1      -7.854  13.833  67.878  1.00  0.00    -0.159 A  
HETATM   15  C   UNL     1      -9.258  13.892  68.027  1.00  0.00    -0.193 A  
HETATM   16  C   UNL     1      -9.863  12.812  67.285  1.00  0.00    -0.207 A  
HETATM   17  C   UNL     1      -9.865  14.895  68.769  1.00  0.00    -0.225 A  
HETATM   18  C   UNL     1      -8.851  12.030  66.682  1.00  0.00    -0.191 A  
HETATM   19  C   UNL     1      -9.059  15.861  69.368  1.00  0.00    -0.222 A  
HETATM   20  C   UNL     1      -7.669  15.831  69.195  1.00  0.00    -0.220 A  
HETATM   21  C   UNL     1      -9.205  10.976  65.847  1.00  0.00    -0.220 A  
HETATM   22  C   UNL     1     -10.563  10.681  65.666  1.00  0.00    -0.175 A  
HETATM   23  C   UNL     1      -7.061  14.831  68.431  1.00  0.00    -0.114 A  
HETATM   24  C   UNL     1     -11.556  11.455  66.275  1.00  0.00     0.110 A  
HETATM   25  C   UNL     1     -11.210  12.536  67.085  1.00  0.00    -0.352 A  
ENDBRANCH  10  13
ENDBRANCH   9  10
ENDBRANCH   8   9
ENDBRANCH   7   8
ENDBRANCH   6   7
ENDBRANCH   5   6
ENDBRANCH   4   5
ENDBRANCH   2   4
BRANCH   2  26
HETATM   26  C   UNL     1     -11.584   9.465  70.079  1.00  0.00    -0.009 C  
HETATM   27  C   UNL     1     -14.073   8.235  72.551  1.00  0.00    -0.175 A  
HETATM   28  C   UNL     1     -12.216  10.766  70.620  1.00  0.00    -0.474 A  
HETATM   29  C   UNL     1     -14.004   6.851  72.428  1.00  0.00     0.223 A  
HETATM   30  C   UNL     1     -13.190  10.448  71.597  1.00  0.00    -0.502 A  
HETATM   31  C   UNL     1     -13.304   9.011  71.698  1.00  0.00    -0.433 A  
HETATM   32  C   UNL     1     -13.919  11.439  72.239  1.00  0.00     0.549 A  
HETATM   33  C   UNL     1     -13.235   6.250  71.420  1.00  0.00     0.687 A  
HETATM   34  C   UNL     1     -12.017  12.096  70.257  1.00  0.00    -0.389 A  
HETATM   35  C   UNL     1     -12.468   8.409  70.733  1.00  0.00     0.126 A  
HETATM   36  C   UNL     1     -13.674  12.772  71.908  1.00  0.00    -0.207 A  
HETATM   37  C   UNL     1     -12.488   7.033  70.531  1.00  0.00    -0.085 A  
HETATM   38  C   UNL     1     -12.731  13.098  70.927  1.00  0.00    -0.313 A  
ENDBRANCH   2  26
TORSDOF 9
ENDMDL
MODEL      433
REMARK 921   NORMALIZED FREE ENERGY PREDICTED BY IDOCK:   11.94 KCAL/MOL
REMARK 922        TOTAL FREE ENERGY PREDICTED BY IDOCK:   16.46 KCAL/MOL
REMARK 923 INTER-LIGAND FREE ENERGY PREDICTED BY IDOCK:    2.44 KCAL/MOL
REMARK 924 INTRA-LIGAND FREE ENERGY PREDICTED BY IDOCK:   14.03 KCAL/MOL
REMARK 927      BINDING AFFINITY PREDICTED BY RF-SCORE:    0.00 PKD
ROOT
HETATM    1  C   UNL     1     -11.609  14.997  69.721  1.00  0.00    -0.304 C  
HETATM    2  N   UNL     1     -10.988  13.802  69.005  1.00  0.00    -0.254 N  
HETATM    3  C   UNL     1      -9.662  14.229  68.380  1.00  0.00    -0.225 C  
ENDROOT
BRANCH   2   4
HETATM    4  C   UNL     1     -10.796  12.675  69.999  1.00  0.00     0.910 C  
BRANCH   4   5
HETATM    5  C   UNL     1      -9.584  11.772  69.774  1.00  0.00     1.572 C  
BRANCH   5   6
HETATM    6  C   UNL     1      -9.708  10.529  70.666  1.00  0.00     1.313 C  
BRANCH   6   7
HETATM    7  C   UNL     1     -11.045  10.429  71.422  1.00  0.00     0.603 C  
BRANCH   7   8
HETATM    8  C   UNL     1     -11.652   9.018  71.436  1.00  0.00    -0.396 C  
BRANCH   8   9
HETATM    9  C   UNL     1     -10.934   8.169  70.387  1.00  0.00    -0.247 C  
BRANCH   9  10
HETATM   10  N   UNL     1      -9.449   8.451  70.222  1.00  0.00    -0.163 N  
HETATM   11  C   UNL     1      -9.094   8.707  68.761  1.00  0.00    -0.142 C  
HETATM   12  C   UNL     1      -9.013   9.686  70.996  1.00  0.00     0.339 C  
BRANCH  10  13
HETATM   13  C   UNL     1      -8.665   7.159  70.765  1.00  0.00    -0.147 C  
HETATM   14  C   UNL     1      -8.303   6.136  69.670  1.00  0.00    -0.124 A  
HETATM   15  C   UNL     1      -8.929   4.897  69.937  1.00  0.00    -0.138 A  
HETATM   16  C   UNL     1      -9.623   4.974  71.200  1.00  0.00    -0.226 A  
HETATM   17  C   UNL     1      -8.806   3.824  69.067  1.00  0.00    -0.152 A  
HETATM   18  C   UNL     1      -9.478   6.273  71.738  1.00  0.00    -0.158 A  
HETATM   19  C   UNL     1      -8.040   3.985  67.913  1.00  0.00    -0.089 A  
HETATM   20  C   UNL     1      -7.386   5.198  67.660  1.00  0.00    -0.075 A  
HETATM   21  C   UNL     1     -10.000   6.556  72.996  1.00  0.00    -0.185 A  
HETATM   22  C   UNL     1     -10.705   5.555  73.678  1.00  0.00    -0.321 A  
HETATM   23  C   UNL     1      -7.495   6.272  68.548  1.00  0.00    -0.088 A  
HETATM   24  C   UNL     1     -10.851   4.276  73.131  1.00  0.00    -0.303 A  
HETATM   25  C   UNL     1     -10.300   3.974  71.886  1.00  0.00    -0.088 A  
ENDBRANCH  10  13
ENDBRANCH   9  10
ENDBRANCH   8   9
ENDBRANCH   7   8
ENDBRANCH   6   7
ENDBRANCH   5   6
ENDBRANCH   4   5
ENDBRANCH   2   4
BRANCH   2  26
HETATM   26  C   UNL     1     -11.976  13.261  67.852  1.00  0.00    -0.309 C  
HETATM   27  C   UNL     1     -11.322  14.376  64.367  1.00  0.00    -0.263 A  
HETATM   28  C   UNL     1     -11.500  11.970  67.152  1.00  0.00    -0.401 A  
HETATM   29  C   UNL     1     -11.724  15.708  64.365  1.00  0.00    -0.218 A  
HETATM   30  C   UNL     1     -11.197  12.250  65.798  1.00  0.00    -0.378 A  
HETATM   31  C   UNL     1     -11.506  13.634  65.523  1.00  0.00    -0.317 A  
HETATM   32  C   UNL     1     -10.754  11.256  64.938  1.00  0.00    -0.337 A  
HETATM   33  C   UNL     1     -12.368  16.272  65.476  1.00  0.00     2.253 A  
HETATM   34  C   UNL     1     -11.400  10.662  67.622  1.00  0.00    -0.284 A  
HETATM   35  C   UNL     1     -12.082  14.219  66.671  1.00  0.00    -0.448 A  
HETATM   36  C   UNL     1     -10.604   9.959  65.431  1.00  0.00     0.405 A  
HETATM   37  C   UNL     1     -12.592  15.513  66.633  1.00  0.00     1.746 A  
HETATM   38  C   UNL     1     -10.923   9.664  66.761  1.00  0.00     0.078 A  
ENDBRANCH   2  26
TORSDOF 9
ENDMDL
MODEL      434
REMARK 921   NORMALIZED FREE ENERGY PREDICTED BY IDOCK:   24.29 KCAL/MOL
REMARK 922        TOTAL FREE ENERGY PREDICTED BY IDOCK:   35.31 KCAL/MOL
REMARK 923 INTER-LIGAND FREE ENERGY PREDICTED BY IDOCK:   29.51 KCAL/MOL
REMARK 924 INTRA-LIGAND FREE ENERGY PREDICTED BY IDOCK:    5.80 KCAL/MOL
REMARK 927      BINDING AFFINITY PREDICTED BY RF-SCORE:    0.00 PKD
ROOT
HETATM    1  C   UNL     1     -11.660  12.207  68.042  1.00  0.00    -0.348 C  
HETATM    2  N   UNL     1     -11.454  13.690  67.749  1.00  0.00    -0.299 N  
HETATM    3  C   UNL     1     -12.771  14.430  67.968  1.00  0.00     0.932 C  
ENDROOT
BRANCH   2   4
HETATM    4  C   UNL     1     -10.360  14.225  68.650  1.00  0.00    -0.246 C  
BRANCH   4   5
HETATM    5  C   UNL     1     -10.000  13.367  69.862  1.00  0.00     1.741 C  
BRANCH   5   6
HETATM    6  C   UNL     1      -9.308  14.245  70.914  1.00  0.00     3.745 C  
BRANCH   6   7
HETATM    7  C   UNL     1      -7.787  14.379  70.719  1.00  0.00     2.219 C  
BRANCH   7   8
HETATM    8  C   UNL     1      -6.972  13.247  71.363  1.00  0.00     3.635 C  
BRANCH   8   9
HETATM    9  C   UNL     1      -6.881  12.087  70.371  1.00  0.00     1.174 C  
BRANCH   9  10
HETATM   10  N   UNL     1      -6.198  10.833  70.892  1.00  0.00     0.048 N  
HETATM   11  C   UNL     1      -5.430  10.121  69.783  1.00  0.00    -0.038 C  
HETATM   12  C   UNL     1      -5.188  11.146  71.985  1.00  0.00     0.236 C  
BRANCH  10  13
HETATM   13  C   UNL     1      -7.352   9.878  71.469  1.00  0.00     1.196 C  
HETATM   14  C   UNL     1      -7.157   8.385  71.141  1.00  0.00    -0.066 A  
HETATM   15  C   UNL     1      -8.239   7.912  70.366  1.00  0.00    -0.119 A  
HETATM   16  C   UNL     1      -9.218   8.962  70.220  1.00  0.00    -0.207 A  
HETATM   17  C   UNL     1      -8.274   6.608  69.891  1.00  0.00    -0.127 A  
HETATM   18  C   UNL     1      -8.756  10.129  70.871  1.00  0.00     1.393 A  
HETATM   19  C   UNL     1      -7.213   5.759  70.200  1.00  0.00    -0.072 A  
HETATM   20  C   UNL     1      -6.153   6.209  70.999  1.00  0.00    -0.035 A  
HETATM   21  C   UNL     1      -9.576  11.251  70.930  1.00  0.00     5.300 A  
HETATM   22  C   UNL     1     -10.825  11.213  70.294  1.00  0.00     0.319 A  
HETATM   23  C   UNL     1      -6.130   7.516  71.493  1.00  0.00    -0.036 A  
HETATM   24  C   UNL     1     -11.267  10.056  69.645  1.00  0.00    -0.285 A  
HETATM   25  C   UNL     1     -10.466   8.915  69.611  1.00  0.00    -0.218 A  
ENDBRANCH  10  13
ENDBRANCH   9  10
ENDBRANCH   8   9
ENDBRANCH   7   8
ENDBRANCH   6   7
ENDBRANCH   5   6
ENDBRANCH   4   5
ENDBRANCH   2   4
BRANCH   2  26
HETATM   26  C   UNL     1     -10.967  13.899  66.227  1.00  0.00    -0.298 C  
HETATM   27  C   UNL     1     -10.147  10.859  64.252  1.00  0.00    -0.413 A  
HETATM   28  C   UNL     1     -12.098  13.845  65.177  1.00  0.00    -0.415 A  
HETATM   29  C   UNL     1      -8.939  10.430  64.791  1.00  0.00    -0.228 A  
HETATM   30  C   UNL     1     -11.920  12.711  64.349  1.00  0.00    -0.469 A  
HETATM   31  C   UNL     1     -10.701  12.036  64.728  1.00  0.00    -0.352 A  
HETATM   32  C   UNL     1     -12.798  12.431  63.311  1.00  0.00    -0.172 A  
HETATM   33  C   UNL     1      -8.254  11.203  65.741  1.00  0.00    -0.004 A  
HETATM   34  C   UNL     1     -13.145  14.727  64.919  1.00  0.00     0.623 A  
HETATM   35  C   UNL     1     -10.055  12.778  65.741  1.00  0.00    -0.296 A  
HETATM   36  C   UNL     1     -13.876  13.290  63.094  1.00  0.00     4.864 A  
HETATM   37  C   UNL     1      -8.792  12.414  66.196  1.00  0.00     0.108 A  
HETATM   38  C   UNL     1     -14.049  14.427  63.891  1.00  0.00     6.724 A  
ENDBRANCH   2  26
TORSDOF 9
ENDMDL
MODEL      435
REMARK 921   NORMALIZED FREE ENERGY PREDICTED BY IDOCK:   24.46 KCAL/MOL
REMARK 922        TOTAL FREE ENERGY PREDICTED BY IDOCK:   35.56 KCAL/MOL
REMARK 923 INTER-LIGAND FREE ENERGY PREDICTED BY IDOCK:   33.19 KCAL/MOL
REMARK 924 INTRA-LIGAND FREE ENERGY PREDICTED BY IDOCK:    2.38 KCAL/MOL
REMARK 927      BINDING AFFINITY PREDICTED BY RF-SCORE:    0.00 PKD
ROOT
HETATM    1  C   UNL     1     -10.844  11.702  67.842  1.00  0.00    -0.210 C  
HETATM    2  N   UNL     1     -10.374  11.091  66.526  1.00  0.00    -0.238 N  
HETATM    3  C   UNL     1      -8.976  10.510  66.717  1.00  0.00    -0.137 C  
ENDROOT
BRANCH   2   4
HETATM    4  C   UNL     1     -11.363  10.029  66.092  1.00  0.00     1.323 C  
BRANCH   4   5
HETATM    5  C   UNL     1     -11.897   9.111  67.191  1.00  0.00     3.836 C  
BRANCH   5   6
HETATM    6  C   UNL     1     -12.262   9.954  68.420  1.00  0.00     2.113 C  
BRANCH   6   7
HETATM    7  C   UNL     1     -12.502   9.130  69.699  1.00  0.00     1.563 C  
BRANCH   7   8
HETATM    8  C   UNL     1     -12.365   7.613  69.501  1.00  0.00     1.762 C  
BRANCH   8   9
HETATM    9  C   UNL     1     -10.947   7.313  69.013  1.00  0.00    -0.047 C  
BRANCH   9  10
HETATM   10  N   UNL     1     -10.398   5.948  69.398  1.00  0.00    -0.221 N  
HETATM   11  C   UNL     1     -10.389   5.763  70.912  1.00  0.00    -0.237 C  
HETATM   12  C   UNL     1     -11.237   4.815  68.828  1.00  0.00     2.728 C  
BRANCH  10  13
HETATM   13  C   UNL     1      -8.902   5.866  68.820  1.00  0.00    -0.111 C  
HETATM   14  C   UNL     1      -7.959   6.961  69.357  1.00  0.00    -0.115 A  
HETATM   15  C   UNL     1      -7.488   7.761  68.292  1.00  0.00    -0.104 A  
HETATM   16  C   UNL     1      -7.972   7.227  67.042  1.00  0.00    -0.109 A  
HETATM   17  C   UNL     1      -6.665   8.855  68.519  1.00  0.00    -0.060 A  
HETATM   18  C   UNL     1      -8.786   6.100  67.296  1.00  0.00    -0.107 A  
HETATM   19  C   UNL     1      -6.299   9.152  69.831  1.00  0.00    -0.042 A  
HETATM   20  C   UNL     1      -6.731   8.342  70.889  1.00  0.00    -0.040 A  
HETATM   21  C   UNL     1      -9.299   5.371  66.228  1.00  0.00    -0.163 A  
HETATM   22  C   UNL     1      -9.038   5.806  64.922  1.00  0.00     0.250 A  
HETATM   23  C   UNL     1      -7.545   7.229  70.656  1.00  0.00    -0.091 A  
HETATM   24  C   UNL     1      -8.240   6.929  64.683  1.00  0.00    -0.026 A  
HETATM   25  C   UNL     1      -7.691   7.645  65.747  1.00  0.00    -0.100 A  
ENDBRANCH  10  13
ENDBRANCH   9  10
ENDBRANCH   8   9
ENDBRANCH   7   8
ENDBRANCH   6   7
ENDBRANCH   5   6
ENDBRANCH   4   5
ENDBRANCH   2   4
BRANCH   2  26
HETATM   26  C   UNL     1     -10.336  12.213  65.368  1.00  0.00    -0.269 C  
HETATM   27  C   UNL     1      -7.915  15.006  65.760  1.00  0.00     2.898 A  
HETATM   28  C   UNL     1      -9.306  11.946  64.250  1.00  0.00     0.184 A  
HETATM   29  C   UNL     1      -8.468  15.783  66.772  1.00  0.00    -0.304 A  
HETATM   30  C   UNL     1      -8.300  12.940  64.286  1.00  0.00     4.998 A  
HETATM   31  C   UNL     1      -8.624  13.901  65.315  1.00  0.00     2.998 A  
HETATM   32  C   UNL     1      -7.252  12.940  63.377  1.00  0.00    11.052 A  
HETATM   33  C   UNL     1      -9.745  15.506  67.283  1.00  0.00    -0.218 A  
HETATM   34  C   UNL     1      -9.275  10.974  63.252  1.00  0.00    -0.283 A  
HETATM   35  C   UNL     1      -9.875  13.572  65.880  1.00  0.00    -0.255 A  
HETATM   36  C   UNL     1      -7.199  11.931  62.414  1.00  0.00     1.506 A  
HETATM   37  C   UNL     1     -10.482  14.414  66.807  1.00  0.00    -0.273 A  
HETATM   38  C   UNL     1      -8.201  10.956  62.352  1.00  0.00    -0.264 A  
ENDBRANCH   2  26
TORSDOF 9
ENDMDL
MODEL      436
REMARK 921   NORMALIZED FREE ENERGY PREDICTED BY IDOCK:   25.76 KCAL/MOL
REMARK 922        TOTAL FREE ENERGY PREDICTED BY IDOCK:   37.55 KCAL/MOL
REMARK 923 INTER-LIGAND FREE ENERGY PREDICTED BY IDOCK:   22.95 KCAL/MOL
REMARK 924 INTRA-LIGAND FREE ENERGY PREDICTED BY IDOCK:   14.60 KCAL/MOL
REMARK 927      BINDING AFFINITY PREDICTED BY RF-SCORE:    0.00 PKD
ROOT
HETATM    1  C   UNL     1     -10.423   7.633  66.130  1.00  0.00     0.887 C  
HETATM    2  N   UNL     1      -9.345   8.233  65.234  1.00  0.00     0.244 N  
HETATM    3  C   UNL     1      -9.681   7.930  63.776  1.00  0.00     4.051 C  
ENDROOT
BRANCH   2   4
HETATM    4  C   UNL     1      -9.265   9.725  65.486  1.00  0.00    -0.215 C  
BRANCH   4   5
HETATM    5  C   UNL     1     -10.435  10.563  64.973  1.00  0.00    -0.221 C  
BRANCH   5   6
HETATM    6  C   UNL     1     -11.701   9.696  64.939  1.00  0.00     7.103 C  
BRANCH   6   7
HETATM    7  C   UNL     1     -12.754  10.081  65.994  1.00  0.00    10.800 C  
BRANCH   7   8
HETATM    8  C   UNL     1     -12.306  11.200  66.947  1.00  0.00     2.402 C  
BRANCH   8   9
HETATM    9  C   UNL     1     -10.834  10.981  67.296  1.00  0.00    -0.281 C  
BRANCH   9  10
HETATM   10  N   UNL     1      -9.866  12.003  66.721  1.00  0.00    -0.201 N  
HETATM   11  C   UNL     1      -8.955  11.372  65.673  1.00  0.00    -0.123 C  
HETATM   12  C   UNL     1     -10.590  13.149  66.031  1.00  0.00    -0.281 C  
BRANCH  10  13
HETATM   13  C   UNL     1      -8.995  12.564  67.948  1.00  0.00    -0.188 C  
HETATM   14  C   UNL     1      -9.556  13.853  68.580  1.00  0.00    -0.142 A  
HETATM   15  C   UNL     1      -8.618  14.902  68.457  1.00  0.00    -0.162 A  
HETATM   16  C   UNL     1      -7.405  14.392  67.864  1.00  0.00    -0.163 A  
HETATM   17  C   UNL     1      -8.907  16.185  68.899  1.00  0.00    -0.248 A  
HETATM   18  C   UNL     1      -7.566  13.019  67.570  1.00  0.00    -0.166 A  
HETATM   19  C   UNL     1     -10.151  16.425  69.480  1.00  0.00    -0.199 A  
HETATM   20  C   UNL     1     -11.072  15.382  69.639  1.00  0.00    -0.280 A  
HETATM   21  C   UNL     1      -6.491  12.295  67.064  1.00  0.00    -0.051 A  
HETATM   22  C   UNL     1      -5.285  12.962  66.809  1.00  0.00     0.912 A  
HETATM   23  C   UNL     1     -10.772  14.086  69.212  1.00  0.00    -0.144 A  
HETATM   24  C   UNL     1      -5.140  14.323  67.095  1.00  0.00     0.893 A  
HETATM   25  C   UNL     1      -6.202  15.049  67.635  1.00  0.00    -0.134 A  
ENDBRANCH  10  13
ENDBRANCH   9  10
ENDBRANCH   8   9
ENDBRANCH   7   8
ENDBRANCH   6   7
ENDBRANCH   5   6
ENDBRANCH   4   5
ENDBRANCH   2   4
BRANCH   2  26
HETATM   26  C   UNL     1      -7.902   7.608  65.593  1.00  0.00    -0.109 C  
HETATM   27  C   UNL     1      -7.741   5.151  68.377  1.00  0.00    -0.080 A  
HETATM   28  C   UNL     1      -7.581   6.281  64.874  1.00  0.00    -0.092 A  
HETATM   29  C   UNL     1      -7.910   5.931  69.516  1.00  0.00    -0.098 A  
HETATM   30  C   UNL     1      -7.501   5.235  65.824  1.00  0.00    -0.082 A  
HETATM   31  C   UNL     1      -7.679   5.786  67.147  1.00  0.00    -0.101 A  
HETATM   32  C   UNL     1      -7.212   3.933  65.441  1.00  0.00    -0.068 A  
HETATM   33  C   UNL     1      -7.943   7.331  69.439  1.00  0.00    -0.125 A  
HETATM   34  C   UNL     1      -7.316   6.012  63.532  1.00  0.00    -0.065 A  
HETATM   35  C   UNL     1      -7.790   7.190  67.055  1.00  0.00    -0.108 A  
HETATM   36  C   UNL     1      -7.002   3.662  64.088  1.00  0.00    -0.046 A  
HETATM   37  C   UNL     1      -7.840   7.978  68.200  1.00  0.00    -0.126 A  
HETATM   38  C   UNL     1      -7.055   4.692  63.142  1.00  0.00    -0.043 A  
ENDBRANCH   2  26
TORSDOF 9
ENDMDL
MODEL      437
REMARK 921   NORMALIZED FREE ENERGY PREDICTED BY IDOCK:   29.48 KCAL/MOL
REMARK 922        TOTAL FREE ENERGY PREDICTED BY IDOCK:   43.22 KCAL/MOL
REMARK 923 INTER-LIGAND FREE ENERGY PREDICTED BY IDOCK:   26.14 KCAL/MOL
REMARK 924 INTRA-LIGAND FREE ENERGY PREDICTED BY IDOCK:   17.07 KCAL/MOL
REMARK 927      BINDING AFFINITY PREDICTED BY RF-SCORE:    0.00 PKD
ROOT
HETATM    1  C   UNL     1      -7.202  10.495  67.843  1.00  0.00    -0.084 C  
HETATM    2  N   UNL     1      -8.460  11.243  67.414  1.00  0.00    -0.134 N  
HETATM    3  C   UNL     1      -9.264  11.620  68.656  1.00  0.00    -0.108 C  
ENDROOT
BRANCH   2   4
HETATM    4  C   UNL     1      -8.060  12.469  66.619  1.00  0.00     0.150 C  
BRANCH   4   5
HETATM    5  C   UNL     1      -7.905  13.769  67.407  1.00  0.00    -0.167 C  
BRANCH   5   6
HETATM    6  C   UNL     1      -9.131  14.658  67.159  1.00  0.00    -0.236 C  
BRANCH   6   7
HETATM    7  C   UNL     1      -8.790  16.075  66.663  1.00  0.00    -0.307 C  
BRANCH   7   8
HETATM    8  C   UNL     1      -8.773  17.139  67.771  1.00  0.00    -0.220 C  
BRANCH   8   9
HETATM    9  C   UNL     1      -7.843  18.274  67.342  1.00  0.00    -0.226 C  
BRANCH   9  10
HETATM   10  N   UNL     1      -7.189  18.105  65.980  1.00  0.00    -0.275 N  
HETATM   11  C   UNL     1      -6.271  19.279  65.658  1.00  0.00    -0.218 C  
HETATM   12  C   UNL     1      -6.328  16.852  65.913  1.00  0.00     0.794 C  
BRANCH  10  13
HETATM   13  C   UNL     1      -8.374  18.013  64.901  1.00  0.00     3.953 C  
HETATM   14  C   UNL     1      -9.555  18.963  65.181  1.00  0.00     2.072 A  
HETATM   15  C   UNL     1     -10.739  18.219  65.382  1.00  0.00     0.213 A  
HETATM   16  C   UNL     1     -10.467  16.819  65.162  1.00  0.00    -0.070 A  
HETATM   17  C   UNL     1     -11.936  18.840  65.708  1.00  0.00     4.292 A  
HETATM   18  C   UNL     1      -9.099  16.648  64.853  1.00  0.00     2.976 A  
HETATM   19  C   UNL     1     -11.955  20.228  65.830  1.00  0.00     3.010 A  
HETATM   20  C   UNL     1     -10.794  20.977  65.595  1.00  0.00     2.384 A  
HETATM   21  C   UNL     1      -8.623  15.384  64.522  1.00  0.00     7.286 A  
HETATM   22  C   UNL     1      -9.507  14.296  64.555  1.00  0.00     1.906 A  
HETATM   23  C   UNL     1      -9.593  20.351  65.248  1.00  0.00     0.652 A  
HETATM   24  C   UNL     1     -10.858  14.476  64.873  1.00  0.00    -0.436 A  
HETATM   25  C   UNL     1     -11.350  15.746  65.172  1.00  0.00    -0.155 A  
ENDBRANCH  10  13
ENDBRANCH   9  10
ENDBRANCH   8   9
ENDBRANCH   7   8
ENDBRANCH   6   7
ENDBRANCH   5   6
ENDBRANCH   4   5
ENDBRANCH   2   4
BRANCH   2  26
HETATM   26  C   UNL     1      -9.363  10.319  66.450  1.00  0.00    -0.165 C  
HETATM   27  C   UNL     1     -11.670  12.036  64.094  1.00  0.00    -0.457 A  
HETATM   28  C   UNL     1      -8.737  10.029  65.069  1.00  0.00    -0.192 A  
HETATM   29  C   UNL     1     -12.683  12.517  64.915  1.00  0.00    -0.371 A  
HETATM   30  C   UNL     1      -9.515  10.643  64.058  1.00  0.00    -0.329 A  
HETATM   31  C   UNL     1     -10.666  11.270  64.665  1.00  0.00    -0.371 A  
HETATM   32  C   UNL     1      -9.176  10.529  62.717  1.00  0.00    -0.324 A  
HETATM   33  C   UNL     1     -12.737  12.178  66.276  1.00  0.00     1.825 A  
HETATM   34  C   UNL     1      -7.636   9.253  64.712  1.00  0.00    -0.109 A  
HETATM   35  C   UNL     1     -10.672  10.991  66.049  1.00  0.00    -0.242 A  
HETATM   36  C   UNL     1      -8.041   9.795  62.373  1.00  0.00    -0.141 A  
HETATM   37  C   UNL     1     -11.745  11.370  66.848  1.00  0.00     0.062 A  
HETATM   38  C   UNL     1      -7.276   9.163  63.361  1.00  0.00    -0.095 A  
ENDBRANCH   2  26
TORSDOF 9
ENDMDL
MODEL      438
REMARK 921   NORMALIZED FREE ENERGY PREDICTED BY IDOCK:   32.14 KCAL/MOL
REMARK 922        TOTAL FREE ENERGY PREDICTED BY IDOCK:   47.28 KCAL/MOL
REMARK 923 INTER-LIGAND FREE ENERGY PREDICTED BY IDOCK:   34.45 KCAL/MOL
REMARK 924 INTRA-LIGAND FREE ENERGY PREDICTED BY IDOCK:   12.83 KCAL/MOL
REMARK 927      BINDING AFFINITY PREDICTED BY RF-SCORE:    0.00 PKD
ROOT
HETATM    1  C   UNL     1     -11.705  12.206  68.089  1.00  0.00    -0.341 C  
HETATM    2  N   UNL     1     -11.494  13.708  67.929  1.00  0.00    -0.295 N  
HETATM    3  C   UNL     1     -12.852  14.404  67.910  1.00  0.00     1.394 C  
ENDROOT
BRANCH   2   4
HETATM    4  C   UNL     1     -10.629  14.210  69.066  1.00  0.00    -0.213 C  
BRANCH   4   5
HETATM    5  C   UNL     1     -10.424  13.250  70.238  1.00  0.00     2.024 C  
BRANCH   5   6
HETATM    6  C   UNL     1     -10.116  14.058  71.505  1.00  0.00     5.267 C  
BRANCH   6   7
HETATM    7  C   UNL     1      -8.628  14.419  71.674  1.00  0.00     5.972 C  
BRANCH   7   8
HETATM    8  C   UNL     1      -7.718  13.210  71.939  1.00  0.00    10.019 C  
BRANCH   8   9
HETATM    9  C   UNL     1      -7.101  12.765  70.613  1.00  0.00     2.612 C  
BRANCH   9  10
HETATM   10  N   UNL     1      -6.612  11.326  70.569  1.00  0.00     0.231 N  
HETATM   11  C   UNL     1      -5.277  11.218  69.839  1.00  0.00    -0.058 C  
HETATM   12  C   UNL     1      -6.391  10.757  71.962  1.00  0.00     2.028 C  
BRANCH  10  13
HETATM   13  C   UNL     1      -7.735  10.475  69.800  1.00  0.00    -0.067 C  
HETATM   14  C   UNL     1      -9.163  10.684  70.340  1.00  0.00     1.400 A  
HETATM   15  C   UNL     1      -9.684   9.463  70.823  1.00  0.00    -0.332 A  
HETATM   16  C   UNL     1      -8.740   8.403  70.561  1.00  0.00    -0.152 A  
HETATM   17  C   UNL     1     -10.938   9.395  71.414  1.00  0.00    -0.443 A  
HETATM   18  C   UNL     1      -7.590   8.941  69.940  1.00  0.00    -0.063 A  
HETATM   19  C   UNL     1     -11.688  10.565  71.520  1.00  0.00     0.037 A  
HETATM   20  C   UNL     1     -11.195  11.773  71.011  1.00  0.00     1.970 A  
HETATM   21  C   UNL     1      -6.575   8.088  69.521  1.00  0.00    -0.038 A  
HETATM   22  C   UNL     1      -6.695   6.714  69.775  1.00  0.00    -0.050 A  
HETATM   23  C   UNL     1      -9.940  11.836  70.397  1.00  0.00     3.346 A  
HETATM   24  C   UNL     1      -7.834   6.195  70.399  1.00  0.00    -0.106 A  
HETATM   25  C   UNL     1      -8.873   7.039  70.790  1.00  0.00    -0.149 A  
ENDBRANCH  10  13
ENDBRANCH   9  10
ENDBRANCH   8   9
ENDBRANCH   7   8
ENDBRANCH   6   7
ENDBRANCH   5   6
ENDBRANCH   4   5
ENDBRANCH   2   4
BRANCH   2  26
HETATM   26  C   UNL     1     -10.710  14.023  66.556  1.00  0.00    -0.281 C  
HETATM   27  C   UNL     1      -9.132  11.161  64.784  1.00  0.00    -0.096 A  
HETATM   28  C   UNL     1     -11.568  13.881  65.280  1.00  0.00    -0.332 A  
HETATM   29  C   UNL     1      -8.032  10.849  65.575  1.00  0.00     0.002 A  
HETATM   30  C   UNL     1     -11.083  12.803  64.501  1.00  0.00    -0.365 A  
HETATM   31  C   UNL     1      -9.909  12.253  65.137  1.00  0.00    -0.178 A  
HETATM   32  C   UNL     1     -11.673  12.465  63.291  1.00  0.00    -0.466 A  
HETATM   33  C   UNL     1      -7.666  11.658  66.661  1.00  0.00    -0.065 A  
HETATM   34  C   UNL     1     -12.626  14.652  64.803  1.00  0.00    -0.169 A  
HETATM   35  C   UNL     1      -9.591  13.025  66.275  1.00  0.00    -0.243 A  
HETATM   36  C   UNL     1     -12.767  13.208  62.848  1.00  0.00     0.662 A  
HETATM   37  C   UNL     1      -8.426  12.786  66.997  1.00  0.00    -0.154 A  
HETATM   38  C   UNL     1     -13.241  14.291  63.597  1.00  0.00     2.138 A  
ENDBRANCH   2  26
TORSDOF 9
ENDMDL
MODEL      439
REMARK 921   NORMALIZED FREE ENERGY PREDICTED BY IDOCK:   41.87 KCAL/MOL
REMARK 922        TOTAL FREE ENERGY PREDICTED BY IDOCK:   62.13 KCAL/MOL
REMARK 923 INTER-LIGAND FREE ENERGY PREDICTED BY IDOCK:   44.55 KCAL/MOL
REMARK 924 INTRA-LIGAND FREE ENERGY PREDICTED BY IDOCK:   17.57 KCAL/MOL
REMARK 927      BINDING AFFINITY PREDICTED BY RF-SCORE:    0.00 PKD
ROOT
HETATM    1  C   UNL     1     -11.088  15.453  68.927  1.00  0.00    -0.275 C  
HETATM    2  N   UNL     1     -10.601  14.372  67.967  1.00  0.00    -0.238 N  
HETATM    3  C   UNL     1      -9.461  14.932  67.121  1.00  0.00    -0.225 C  
ENDROOT
BRANCH   2   4
HETATM    4  C   UNL     1     -10.159  13.164  68.766  1.00  0.00    -0.061 C  
BRANCH   4   5
HETATM    5  C   UNL     1      -8.989  12.364  68.193  1.00  0.00    -0.196 C  
BRANCH   5   6
HETATM    6  C   UNL     1      -8.457  11.408  69.269  1.00  0.00     0.277 C  
BRANCH   6   7
HETATM    7  C   UNL     1      -9.102  11.598  70.654  1.00  0.00     5.874 C  
BRANCH   7   8
HETATM    8  C   UNL     1      -9.447  10.283  71.370  1.00  0.00     3.010 C  
BRANCH   8   9
HETATM    9  C   UNL     1     -10.265   9.411  70.418  1.00  0.00    -0.255 C  
BRANCH   9  10
HETATM   10  N   UNL     1     -10.134   9.752  68.942  1.00  0.00    -0.175 N  
HETATM   11  C   UNL     1     -11.502   9.838  68.271  1.00  0.00     0.280 C  
HETATM   12  C   UNL     1      -9.461  11.099  68.726  1.00  0.00    -0.165 C  
BRANCH  10  13
HETATM   13  C   UNL     1      -9.258   8.588  68.269  1.00  0.00    -0.138 C  
HETATM   14  C   UNL     1     -10.092   7.469  67.615  1.00  0.00    -0.243 A  
HETATM   15  C   UNL     1      -9.823   6.232  68.243  1.00  0.00    -0.134 A  
HETATM   16  C   UNL     1      -8.781   6.411  69.226  1.00  0.00    -0.125 A  
HETATM   17  C   UNL     1     -10.492   5.074  67.875  1.00  0.00    -0.037 A  
HETATM   18  C   UNL     1      -8.398   7.771  69.262  1.00  0.00    -0.136 A  
HETATM   19  C   UNL     1     -11.442   5.148  66.858  1.00  0.00     1.964 A  
HETATM   20  C   UNL     1     -11.688   6.363  66.205  1.00  0.00     2.532 A  
HETATM   21  C   UNL     1      -7.347   8.166  70.084  1.00  0.00    -0.060 A  
HETATM   22  C   UNL     1      -6.727   7.208  70.899  1.00  0.00    -0.052 A  
HETATM   23  C   UNL     1     -10.999   7.525  66.564  1.00  0.00     0.729 A  
HETATM   24  C   UNL     1      -7.122   5.867  70.862  1.00  0.00    -0.068 A  
HETATM   25  C   UNL     1      -8.151   5.456  70.014  1.00  0.00    -0.085 A  
ENDBRANCH  10  13
ENDBRANCH   9  10
ENDBRANCH   8   9
ENDBRANCH   7   8
ENDBRANCH   6   7
ENDBRANCH   5   6
ENDBRANCH   4   5
ENDBRANCH   2   4
BRANCH   2  26
HETATM   26  C   UNL     1     -11.802  13.895  67.002  1.00  0.00    -0.415 C  
HETATM   27  C   UNL     1     -12.928  16.260  64.365  1.00  0.00     2.651 A  
HETATM   28  C   UNL     1     -11.343  13.212  65.696  1.00  0.00    -0.328 A  
HETATM   29  C   UNL     1     -13.617  17.240  65.071  1.00  0.00    11.306 A  
HETATM   30  C   UNL     1     -11.699  14.019  64.589  1.00  0.00    -0.417 A  
HETATM   31  C   UNL     1     -12.432  15.170  65.062  1.00  0.00     0.164 A  
HETATM   32  C   UNL     1     -11.410  13.629  63.290  1.00  0.00     0.745 A  
HETATM   33  C   UNL     1     -13.873  17.100  66.444  1.00  0.00    13.364 A  
HETATM   34  C   UNL     1     -10.734  11.978  65.479  1.00  0.00    -0.318 A  
HETATM   35  C   UNL     1     -12.618  15.062  66.457  1.00  0.00     0.800 A  
HETATM   36  C   UNL     1     -10.751  12.416  63.084  1.00  0.00    -0.059 A  
HETATM   37  C   UNL     1     -13.407  15.979  67.145  1.00  0.00     5.466 A  
HETATM   38  C   UNL     1     -10.415  11.598  64.168  1.00  0.00    -0.402 A  
ENDBRANCH   2  26
TORSDOF 9
ENDMDL
MODEL      440
REMARK 921   NORMALIZED FREE ENERGY PREDICTED BY IDOCK:   49.69 KCAL/MOL
REMARK 922        TOTAL FREE ENERGY PREDICTED BY IDOCK:   74.07 KCAL/MOL
REMARK 923 INTER-LIGAND FREE ENERGY PREDICTED BY IDOCK:   58.71 KCAL/MOL
REMARK 924 INTRA-LIGAND FREE ENERGY PREDICTED BY IDOCK:   15.36 KCAL/MOL
REMARK 927      BINDING AFFINITY PREDICTED BY RF-SCORE:    0.00 PKD
ROOT
HETATM    1  C   UNL     1     -10.716   7.088  66.130  1.00  0.00     1.103 C  
HETATM    2  N   UNL     1      -9.673   7.691  65.195  1.00  0.00     1.380 N  
HETATM    3  C   UNL     1     -10.026   7.331  63.754  1.00  0.00     5.932 C  
ENDROOT
BRANCH   2   4
HETATM    4  C   UNL     1      -9.635   9.192  65.399  1.00  0.00    -0.096 C  
BRANCH   4   5
HETATM    5  C   UNL     1     -10.842   9.977  64.885  1.00  0.00     1.361 C  
BRANCH   5   6
HETATM    6  C   UNL     1     -12.080   9.071  64.907  1.00  0.00    13.606 C  
BRANCH   6   7
HETATM    7  C   UNL     1     -13.123   9.457  65.973  1.00  0.00    18.216 C  
BRANCH   7   8
HETATM    8  C   UNL     1     -12.696  10.629  66.869  1.00  0.00     6.597 C  
BRANCH   8   9
HETATM    9  C   UNL     1     -11.205  10.490  67.176  1.00  0.00    -0.056 C  
BRANCH   9  10
HETATM   10  N   UNL     1     -10.302  11.520  66.517  1.00  0.00    -0.224 N  
HETATM   11  C   UNL     1      -9.404  10.876  65.466  1.00  0.00    -0.206 C  
HETATM   12  C   UNL     1     -11.098  12.602  65.804  1.00  0.00    -0.297 C  
BRANCH  10  13
HETATM   13  C   UNL     1      -9.411  12.173  67.683  1.00  0.00    -0.187 C  
HETATM   14  C   UNL     1      -8.418  11.195  68.339  1.00  0.00    -0.151 A  
HETATM   15  C   UNL     1      -8.709  11.058  69.715  1.00  0.00     0.744 A  
HETATM   16  C   UNL     1      -9.782  11.956  70.069  1.00  0.00     2.406 A  
HETATM   17  C   UNL     1      -7.992  10.187  70.523  1.00  0.00     0.434 A  
HETATM   18  C   UNL     1     -10.212  12.652  68.916  1.00  0.00    -0.004 A  
HETATM   19  C   UNL     1      -6.961   9.443  69.950  1.00  0.00    -0.071 A  
HETATM   20  C   UNL     1      -6.642   9.600  68.595  1.00  0.00    -0.051 A  
HETATM   21  C   UNL     1     -11.189  13.635  69.033  1.00  0.00    -0.316 A  
HETATM   22  C   UNL     1     -11.762  13.875  70.290  1.00  0.00    -0.294 A  
HETATM   23  C   UNL     1      -7.353  10.493  67.787  1.00  0.00    -0.086 A  
HETATM   24  C   UNL     1     -11.335  13.173  71.422  1.00  0.00     2.597 A  
HETATM   25  C   UNL     1     -10.331  12.211  71.320  1.00  0.00     7.571 A  
ENDBRANCH  10  13
ENDBRANCH   9  10
ENDBRANCH   8   9
ENDBRANCH   7   8
ENDBRANCH   6   7
ENDBRANCH   5   6
ENDBRANCH   4   5
ENDBRANCH   2   4
BRANCH   2  26
HETATM   26  C   UNL     1      -8.206   7.123  65.546  1.00  0.00    -0.139 C  
HETATM   27  C   UNL     1      -7.966   4.485  68.154  1.00  0.00    -0.080 A  
HETATM   28  C   UNL     1      -7.794   5.870  64.744  1.00  0.00    -0.113 A  
HETATM   29  C   UNL     1      -8.204   5.171  69.341  1.00  0.00    -0.087 A  
HETATM   30  C   UNL     1      -7.675   4.765  65.620  1.00  0.00    -0.090 A  
HETATM   31  C   UNL     1      -7.913   5.209  66.974  1.00  0.00    -0.100 A  
HETATM   32  C   UNL     1      -7.305   3.511  65.154  1.00  0.00    -0.072 A  
HETATM   33  C   UNL     1      -8.314   6.569  69.361  1.00  0.00    -0.123 A  
HETATM   34  C   UNL     1      -7.486   5.713  63.394  1.00  0.00    -0.066 A  
HETATM   35  C   UNL     1      -8.102   6.608  66.977  1.00  0.00    -0.113 A  
HETATM   36  C   UNL     1      -7.051   3.350  63.792  1.00  0.00    -0.049 A  
HETATM   37  C   UNL     1      -8.221   7.308  68.174  1.00  0.00    -0.124 A  
HETATM   38  C   UNL     1      -7.141   4.440  62.919  1.00  0.00    -0.040 A  
ENDBRANCH   2  26
TORSDOF 9
ENDMDL
