MODEL        1
REMARK 921   NORMALIZED FREE ENERGY PREDICTED BY IDOCK:   -6.78 KCAL/MOL
REMARK 922        TOTAL FREE ENERGY PREDICTED BY IDOCK:   -9.95 KCAL/MOL
REMARK 923 INTER-LIGAND FREE ENERGY PREDICTED BY IDOCK:   -9.16 KCAL/MOL
REMARK 924 INTRA-LIGAND FREE ENERGY PREDICTED BY IDOCK:   -0.79 KCAL/MOL
REMARK 927      BINDING AFFINITY PREDICTED BY RF-SCORE:    0.00 PKD
ROOT
HETATM    1  C   UNL     1     -13.407   9.217  71.718  1.00  0.00    -0.477 C  
HETATM    2  C   UNL     1     -12.019   9.554  71.194  1.00  0.00    -0.429 C  
ENDROOT
BRANCH   2   3
HETATM    3  C   UNL     1     -11.954  11.012  70.751  1.00  0.00    -0.436 C  
BRANCH   3   4
HETATM    4  C   UNL     1     -12.156  11.163  69.242  1.00  0.00    -0.377 C  
HETATM    5  C   UNL     1     -10.921  11.766  68.542  1.00  0.00    -0.270 C  
HETATM    6  C   UNL     1      -9.615  10.957  68.736  1.00  0.00    -0.195 C  
HETATM    7  C   UNL     1     -11.177  11.992  67.033  1.00  0.00    -0.320 C  
HETATM    8  C   UNL     1      -9.601   9.577  68.095  1.00  0.00    -0.153 C  
BRANCH   7   9
HETATM    9  N   UNL     1     -12.246  12.937  66.689  1.00  0.00    -0.447 NA 
HETATM   10  C   UNL     1     -11.932  14.325  67.024  1.00  0.00    -0.433 C  
HETATM   11  N   UNL     1     -10.796  14.813  66.239  1.00  0.00    -0.315 NA 
HETATM   12  C   UNL     1     -11.171  14.836  64.804  1.00  0.00    -0.385 C  
HETATM   13  H1  UNL     1     -12.729  12.802  62.593  1.00  0.00     0.000 HD 
HETATM   14  C   UNL     1     -11.676  13.477  64.241  1.00  0.00    -0.416 C  
HETATM   15  H2  UNL     1     -11.830  14.201  62.283  1.00  0.00     0.000 HD 
HETATM   16  C   UNL     1     -10.500  12.550  63.889  1.00  0.00    -0.464 C  
HETATM   17  N   UNL     1     -12.398  13.694  62.962  1.00  0.00    -0.550 NA 
HETATM   18  C   UNL     1     -12.654  12.850  65.277  1.00  0.00    -0.439 C  
BRANCH  11  19
HETATM   19  C   UNL     1     -10.420  16.189  66.632  1.00  0.00    -0.300 C  
HETATM   20  C   UNL     1     -10.012  15.677  69.142  1.00  0.00    -0.244 C  
HETATM   21  C   UNL     1     -10.653  16.623  68.104  1.00  0.00    -0.336 C  
HETATM   22  C   UNL     1     -10.189  18.090  68.305  1.00  0.00    -0.402 C  
HETATM   23  C   UNL     1      -8.491  15.672  69.204  1.00  0.00    -0.253 C  
BRANCH  22  24
HETATM   24  C   UNL     1     -10.889  19.131  67.412  1.00  0.00    -0.533 C  
BRANCH  24  25
HETATM   25  C   UNL     1      -9.944  20.189  66.841  1.00  0.00    -0.600 C  
HETATM   26  C   UNL     1      -8.606  19.587  66.437  1.00  0.00    -0.384 C  
ENDBRANCH  24  25
ENDBRANCH  22  24
ENDBRANCH  11  19
ENDBRANCH   7   9
ENDBRANCH   3   4
ENDBRANCH   2   3
TORSDOF 6
ENDMDL
MODEL        2
REMARK 921   NORMALIZED FREE ENERGY PREDICTED BY IDOCK:   -6.27 KCAL/MOL
REMARK 922        TOTAL FREE ENERGY PREDICTED BY IDOCK:   -9.26 KCAL/MOL
REMARK 923 INTER-LIGAND FREE ENERGY PREDICTED BY IDOCK:   -8.40 KCAL/MOL
REMARK 924 INTRA-LIGAND FREE ENERGY PREDICTED BY IDOCK:   -0.86 KCAL/MOL
REMARK 927      BINDING AFFINITY PREDICTED BY RF-SCORE:    0.00 PKD
ROOT
HETATM    1  C   UNL     1     -13.422   9.370  71.983  1.00  0.00    -0.522 C  
HETATM    2  C   UNL     1     -12.945  10.771  71.626  1.00  0.00    -0.581 C  
ENDROOT
BRANCH   2   3
HETATM    3  C   UNL     1     -11.705  10.704  70.740  1.00  0.00    -0.435 C  
BRANCH   3   4
HETATM    4  C   UNL     1     -12.030  11.009  69.276  1.00  0.00    -0.410 C  
HETATM    5  C   UNL     1     -10.762  11.231  68.428  1.00  0.00    -0.238 C  
HETATM    6  C   UNL     1      -9.776  10.037  68.424  1.00  0.00    -0.157 C  
HETATM    7  C   UNL     1     -11.112  11.624  66.973  1.00  0.00    -0.302 C  
HETATM    8  C   UNL     1     -10.289   8.769  67.757  1.00  0.00    -0.297 C  
BRANCH   7   9
HETATM    9  N   UNL     1     -11.849  12.881  66.799  1.00  0.00    -0.387 NA 
HETATM   10  C   UNL     1     -11.037  14.075  67.028  1.00  0.00    -0.304 C  
HETATM   11  N   UNL     1      -9.966  14.181  66.034  1.00  0.00    -0.313 NA 
HETATM   12  C   UNL     1     -10.565  14.372  64.691  1.00  0.00    -0.306 C  
HETATM   13  H1  UNL     1     -13.085  13.041  62.865  1.00  0.00     0.000 HD 
HETATM   14  C   UNL     1     -11.586  13.276  64.273  1.00  0.00    -0.400 C  
HETATM   15  H2  UNL     1     -11.844  14.071  62.353  1.00  0.00     0.000 HD 
HETATM   16  C   UNL     1     -10.871  12.023  63.743  1.00  0.00    -0.481 C  
HETATM   17  N   UNL     1     -12.415  13.760  63.139  1.00  0.00    -0.687 NA 
HETATM   18  C   UNL     1     -12.513  12.978  65.488  1.00  0.00    -0.438 C  
BRANCH  11  19
HETATM   19  C   UNL     1      -9.088  15.340  66.309  1.00  0.00    -0.302 C  
HETATM   20  C   UNL     1      -7.851  14.300  68.337  1.00  0.00    -0.140 C  
HETATM   21  C   UNL     1      -8.564  15.539  67.756  1.00  0.00    -0.158 C  
HETATM   22  C   UNL     1      -7.665  16.801  67.826  1.00  0.00    -0.180 C  
HETATM   23  C   UNL     1      -6.508  13.939  67.717  1.00  0.00    -0.178 C  
BRANCH  22  24
HETATM   24  C   UNL     1      -8.342  18.119  67.408  1.00  0.00    -0.239 C  
BRANCH  24  25
HETATM   25  C   UNL     1      -9.558  18.485  68.261  1.00  0.00    -0.370 C  
HETATM   26  C   UNL     1     -10.633  19.177  67.435  1.00  0.00    -0.577 C  
ENDBRANCH  24  25
ENDBRANCH  22  24
ENDBRANCH  11  19
ENDBRANCH   7   9
ENDBRANCH   3   4
ENDBRANCH   2   3
TORSDOF 6
ENDMDL
MODEL        3
REMARK 921   NORMALIZED FREE ENERGY PREDICTED BY IDOCK:   -6.20 KCAL/MOL
REMARK 922        TOTAL FREE ENERGY PREDICTED BY IDOCK:   -9.16 KCAL/MOL
REMARK 923 INTER-LIGAND FREE ENERGY PREDICTED BY IDOCK:   -8.33 KCAL/MOL
REMARK 924 INTRA-LIGAND FREE ENERGY PREDICTED BY IDOCK:   -0.83 KCAL/MOL
REMARK 927      BINDING AFFINITY PREDICTED BY RF-SCORE:    0.00 PKD
ROOT
HETATM    1  C   UNL     1     -10.197   8.516  71.957  1.00  0.00    -0.391 C  
HETATM    2  C   UNL     1     -10.254   9.541  70.832  1.00  0.00    -0.356 C  
ENDROOT
BRANCH   2   3
HETATM    3  C   UNL     1      -9.376   9.101  69.665  1.00  0.00    -0.177 C  
BRANCH   3   4
HETATM    4  C   UNL     1      -9.921   9.592  68.322  1.00  0.00    -0.184 C  
HETATM    5  C   UNL     1      -9.394  10.992  67.951  1.00  0.00    -0.160 C  
HETATM    6  C   UNL     1      -7.852  11.097  67.869  1.00  0.00    -0.111 C  
HETATM    7  C   UNL     1     -10.023  11.506  66.634  1.00  0.00    -0.207 C  
HETATM    8  C   UNL     1      -7.201  10.295  66.751  1.00  0.00    -0.105 C  
BRANCH   7   9
HETATM    9  N   UNL     1     -11.479  11.691  66.638  1.00  0.00    -0.467 NA 
HETATM   10  C   UNL     1     -11.972  12.448  67.787  1.00  0.00    -0.186 C  
HETATM   11  N   UNL     1     -11.465  13.822  67.769  1.00  0.00    -0.303 NA 
HETATM   12  C   UNL     1     -12.008  14.526  66.581  1.00  0.00    -0.338 C  
HETATM   13  H1  UNL     1     -12.442  13.896  63.285  1.00  0.00     0.000 HD 
HETATM   14  C   UNL     1     -11.722  13.824  65.224  1.00  0.00    -0.338 C  
HETATM   15  H2  UNL     1     -12.574  15.372  64.101  1.00  0.00     0.000 HD 
HETATM   16  C   UNL     1     -10.302  14.138  64.724  1.00  0.00    -0.387 C  
HETATM   17  N   UNL     1     -12.630  14.357  64.176  1.00  0.00    -0.745 NA 
HETATM   18  C   UNL     1     -11.982  12.299  65.394  1.00  0.00    -0.332 C  
BRANCH  11  19
HETATM   19  C   UNL     1     -11.891  14.570  68.973  1.00  0.00    -0.318 C  
HETATM   20  C   UNL     1      -9.712  15.950  69.250  1.00  0.00    -0.263 C  
HETATM   21  C   UNL     1     -10.794  15.094  69.940  1.00  0.00    -0.287 C  
HETATM   22  C   UNL     1     -11.450  15.849  71.126  1.00  0.00    -0.471 C  
HETATM   23  C   UNL     1     -10.153  17.314  68.736  1.00  0.00    -0.337 C  
BRANCH  22  24
HETATM   24  C   UNL     1     -12.436  15.022  71.970  1.00  0.00    -0.409 C  
BRANCH  24  25
HETATM   25  C   UNL     1     -13.161  15.834  73.044  1.00  0.00    -0.671 C  
HETATM   26  C   UNL     1     -12.423  15.790  74.374  1.00  0.00    -0.790 C  
ENDBRANCH  24  25
ENDBRANCH  22  24
ENDBRANCH  11  19
ENDBRANCH   7   9
ENDBRANCH   3   4
ENDBRANCH   2   3
TORSDOF 6
ENDMDL
MODEL        4
REMARK 921   NORMALIZED FREE ENERGY PREDICTED BY IDOCK:   -6.16 KCAL/MOL
REMARK 922        TOTAL FREE ENERGY PREDICTED BY IDOCK:   -9.11 KCAL/MOL
REMARK 923 INTER-LIGAND FREE ENERGY PREDICTED BY IDOCK:   -8.36 KCAL/MOL
REMARK 924 INTRA-LIGAND FREE ENERGY PREDICTED BY IDOCK:   -0.75 KCAL/MOL
REMARK 927      BINDING AFFINITY PREDICTED BY RF-SCORE:    0.00 PKD
ROOT
HETATM    1  C   UNL     1     -10.568   5.243  66.745  1.00  0.00    -0.309 C  
HETATM    2  C   UNL     1     -10.953   6.678  67.079  1.00  0.00    -0.463 C  
ENDROOT
BRANCH   2   3
HETATM    3  C   UNL     1      -9.734   7.591  66.995  1.00  0.00    -0.257 C  
BRANCH   3   4
HETATM    4  C   UNL     1     -10.093   8.978  66.459  1.00  0.00    -0.354 C  
HETATM    5  C   UNL     1      -9.665  10.107  67.417  1.00  0.00    -0.192 C  
HETATM    6  C   UNL     1      -8.151  10.134  67.740  1.00  0.00    -0.109 C  
HETATM    7  C   UNL     1     -10.113  11.494  66.899  1.00  0.00    -0.212 C  
HETATM    8  C   UNL     1      -7.238  10.460  66.566  1.00  0.00    -0.118 C  
BRANCH   7   9
HETATM    9  N   UNL     1     -11.560  11.703  66.770  1.00  0.00    -0.526 NA 
HETATM   10  C   UNL     1     -12.126  12.556  67.812  1.00  0.00    -0.052 C  
HETATM   11  N   UNL     1     -11.589  13.917  67.729  1.00  0.00    -0.326 NA 
HETATM   12  C   UNL     1     -12.019  14.532  66.449  1.00  0.00    -0.334 C  
HETATM   13  H1  UNL     1     -12.201  13.649  63.187  1.00  0.00     0.000 HD 
HETATM   14  C   UNL     1     -11.641  13.720  65.178  1.00  0.00    -0.331 C  
HETATM   15  H2  UNL     1     -12.364  15.187  63.872  1.00  0.00     0.000 HD 
HETATM   16  C   UNL     1     -10.178  13.970  64.773  1.00  0.00    -0.332 C  
HETATM   17  N   UNL     1     -12.450  14.181  64.021  1.00  0.00    -0.737 NA 
HETATM   18  C   UNL     1     -11.948  12.218  65.445  1.00  0.00    -0.332 C  
BRANCH  11  19
HETATM   19  C   UNL     1     -12.093  14.764  68.832  1.00  0.00    -0.205 C  
HETATM   20  C   UNL     1      -9.774  15.574  69.666  1.00  0.00    -0.276 C  
HETATM   21  C   UNL     1     -11.162  15.019  70.048  1.00  0.00    -0.301 C  
HETATM   22  C   UNL     1     -11.876  15.930  71.081  1.00  0.00    -0.483 C  
HETATM   23  C   UNL     1      -9.739  16.996  69.122  1.00  0.00    -0.165 C  
BRANCH  22  24
HETATM   24  C   UNL     1     -13.203  15.383  71.637  1.00  0.00    -0.563 C  
BRANCH  24  25
HETATM   25  C   UNL     1     -13.065  14.686  72.992  1.00  0.00    -0.616 C  
HETATM   26  C   UNL     1     -12.597  15.650  74.072  1.00  0.00    -0.767 C  
ENDBRANCH  24  25
ENDBRANCH  22  24
ENDBRANCH  11  19
ENDBRANCH   7   9
ENDBRANCH   3   4
ENDBRANCH   2   3
TORSDOF 6
ENDMDL
MODEL        5
REMARK 921   NORMALIZED FREE ENERGY PREDICTED BY IDOCK:   -6.12 KCAL/MOL
REMARK 922        TOTAL FREE ENERGY PREDICTED BY IDOCK:   -9.06 KCAL/MOL
REMARK 923 INTER-LIGAND FREE ENERGY PREDICTED BY IDOCK:   -8.34 KCAL/MOL
REMARK 924 INTRA-LIGAND FREE ENERGY PREDICTED BY IDOCK:   -0.71 KCAL/MOL
REMARK 927      BINDING AFFINITY PREDICTED BY RF-SCORE:    0.00 PKD
ROOT
HETATM    1  C   UNL     1      -7.010  20.210  66.561  1.00  0.00    -0.268 C  
HETATM    2  C   UNL     1      -6.736  20.381  68.049  1.00  0.00    -0.336 C  
ENDROOT
BRANCH   2   3
HETATM    3  C   UNL     1      -7.167  19.137  68.818  1.00  0.00    -0.368 C  
BRANCH   3   4
HETATM    4  C   UNL     1      -7.918  18.144  67.929  1.00  0.00    -0.249 C  
HETATM    5  C   UNL     1      -9.340  17.851  68.446  1.00  0.00    -0.290 C  
HETATM    6  C   UNL     1     -10.245  19.100  68.577  1.00  0.00    -0.448 C  
HETATM    7  C   UNL     1     -10.050  16.780  67.584  1.00  0.00    -0.275 C  
HETATM    8  C   UNL     1     -10.606  19.785  67.268  1.00  0.00    -0.565 C  
BRANCH   7   9
HETATM    9  N   UNL     1      -9.427  15.450  67.557  1.00  0.00    -0.204 NA 
HETATM   10  C   UNL     1     -10.079  14.479  68.433  1.00  0.00    -0.241 C  
HETATM   11  N   UNL     1     -11.450  14.210  67.994  1.00  0.00    -0.294 NA 
HETATM   12  C   UNL     1     -11.416  13.564  66.659  1.00  0.00    -0.339 C  
HETATM   13  H1  UNL     1      -9.810  13.998  63.712  1.00  0.00     0.000 HD 
HETATM   14  C   UNL     1     -10.645  14.363  65.571  1.00  0.00    -0.347 C  
HETATM   15  H2  UNL     1     -11.144  13.015  64.049  1.00  0.00     0.000 HD 
HETATM   16  C   UNL     1     -11.519  15.479  64.976  1.00  0.00    -0.218 C  
HETATM   17  N   UNL     1     -10.316  13.474  64.427  1.00  0.00    -0.391 NA 
HETATM   18  C   UNL     1      -9.323  14.896  66.196  1.00  0.00    -0.272 C  
BRANCH  11  19
HETATM   19  C   UNL     1     -12.144  13.292  68.925  1.00  0.00    -0.222 C  
HETATM   20  C   UNL     1     -11.947  14.799  71.027  1.00  0.00    -0.389 C  
HETATM   21  C   UNL     1     -11.802  13.381  70.437  1.00  0.00    -0.283 C  
HETATM   22  C   UNL     1     -12.637  12.343  71.232  1.00  0.00    -0.332 C  
HETATM   23  C   UNL     1     -13.365  15.343  71.140  1.00  0.00    -0.580 C  
BRANCH  22  24
HETATM   24  C   UNL     1     -12.439  10.875  70.811  1.00  0.00    -0.489 C  
BRANCH  24  25
HETATM   25  C   UNL     1     -12.766   9.867  71.914  1.00  0.00    -0.501 C  
HETATM   26  C   UNL     1     -11.727   8.757  71.984  1.00  0.00    -0.442 C  
ENDBRANCH  24  25
ENDBRANCH  22  24
ENDBRANCH  11  19
ENDBRANCH   7   9
ENDBRANCH   3   4
ENDBRANCH   2   3
TORSDOF 6
ENDMDL
MODEL        6
REMARK 921   NORMALIZED FREE ENERGY PREDICTED BY IDOCK:   -6.04 KCAL/MOL
REMARK 922        TOTAL FREE ENERGY PREDICTED BY IDOCK:   -8.95 KCAL/MOL
REMARK 923 INTER-LIGAND FREE ENERGY PREDICTED BY IDOCK:   -8.01 KCAL/MOL
REMARK 924 INTRA-LIGAND FREE ENERGY PREDICTED BY IDOCK:   -0.94 KCAL/MOL
REMARK 927      BINDING AFFINITY PREDICTED BY RF-SCORE:    0.00 PKD
ROOT
HETATM    1  C   UNL     1     -14.333  15.244  71.982  1.00  0.00    -0.689 C  
HETATM    2  C   UNL     1     -12.828  15.449  72.067  1.00  0.00    -0.468 C  
ENDROOT
BRANCH   2   3
HETATM    3  C   UNL     1     -12.092  14.264  71.450  1.00  0.00    -0.354 C  
BRANCH   3   4
HETATM    4  C   UNL     1     -12.632  13.912  70.063  1.00  0.00    -0.226 C  
HETATM    5  C   UNL     1     -11.569  13.241  69.171  1.00  0.00    -0.370 C  
HETATM    6  C   UNL     1     -10.970  11.938  69.757  1.00  0.00     0.092 C  
HETATM    7  C   UNL     1     -12.108  12.972  67.746  1.00  0.00    -0.193 C  
HETATM    8  C   UNL     1     -11.941  10.774  69.887  1.00  0.00    -0.418 C  
BRANCH   7   9
HETATM    9  N   UNL     1     -12.495  14.153  66.965  1.00  0.00    -0.218 NA 
HETATM   10  C   UNL     1     -11.479  15.204  66.946  1.00  0.00    -0.214 C  
HETATM   11  N   UNL     1     -10.262  14.747  66.271  1.00  0.00    -0.286 NA 
HETATM   12  C   UNL     1     -10.568  14.478  64.844  1.00  0.00    -0.427 C  
HETATM   13  H1  UNL     1     -12.985  12.927  63.055  1.00  0.00     0.000 HD 
HETATM   14  C   UNL     1     -11.730  13.473  64.607  1.00  0.00    -0.381 C  
HETATM   15  H2  UNL     1     -11.473  13.472  62.530  1.00  0.00     0.000 HD 
HETATM   16  C   UNL     1     -11.245  12.020  64.746  1.00  0.00    -0.373 C  
HETATM   17  N   UNL     1     -12.223  13.587  63.211  1.00  0.00    -0.656 NA 
HETATM   18  C   UNL     1     -12.889  13.822  65.585  1.00  0.00    -0.408 C  
BRANCH  11  19
HETATM   19  C   UNL     1      -9.199  15.775  66.321  1.00  0.00    -0.333 C  
HETATM   20  C   UNL     1      -8.924  15.789  68.900  1.00  0.00    -0.226 C  
HETATM   21  C   UNL     1      -9.060  16.627  67.612  1.00  0.00    -0.207 C  
HETATM   22  C   UNL     1      -7.891  17.635  67.459  1.00  0.00    -0.211 C  
HETATM   23  C   UNL     1      -7.625  15.011  69.068  1.00  0.00    -0.160 C  
BRANCH  22  24
HETATM   24  C   UNL     1      -8.017  18.619  66.282  1.00  0.00    -0.276 C  
BRANCH  24  25
HETATM   25  C   UNL     1      -8.890  19.837  66.586  1.00  0.00    -0.418 C  
HETATM   26  C   UNL     1     -10.270  19.708  65.956  1.00  0.00    -0.587 C  
ENDBRANCH  24  25
ENDBRANCH  22  24
ENDBRANCH  11  19
ENDBRANCH   7   9
ENDBRANCH   3   4
ENDBRANCH   2   3
TORSDOF 6
ENDMDL
MODEL        7
REMARK 921   NORMALIZED FREE ENERGY PREDICTED BY IDOCK:   -5.62 KCAL/MOL
REMARK 922        TOTAL FREE ENERGY PREDICTED BY IDOCK:   -8.38 KCAL/MOL
REMARK 923 INTER-LIGAND FREE ENERGY PREDICTED BY IDOCK:   -8.32 KCAL/MOL
REMARK 924 INTRA-LIGAND FREE ENERGY PREDICTED BY IDOCK:   -0.06 KCAL/MOL
REMARK 927      BINDING AFFINITY PREDICTED BY RF-SCORE:    0.00 PKD
ROOT
HETATM    1  C   UNL     1     -12.971  11.411  71.702  1.00  0.00    -0.523 C  
HETATM    2  C   UNL     1     -12.285  10.075  71.457  1.00  0.00    -0.496 C  
ENDROOT
BRANCH   2   3
HETATM    3  C   UNL     1     -11.179  10.225  70.418  1.00  0.00    -0.407 C  
BRANCH   3   4
HETATM    4  C   UNL     1     -11.714  10.738  69.080  1.00  0.00    -0.357 C  
HETATM    5  C   UNL     1     -10.587  11.032  68.070  1.00  0.00    -0.241 C  
HETATM    6  C   UNL     1      -9.680   9.820  67.749  1.00  0.00    -0.167 C  
HETATM    7  C   UNL     1     -11.142  11.631  66.756  1.00  0.00    -0.309 C  
HETATM    8  C   UNL     1     -10.359   8.671  67.018  1.00  0.00    -0.368 C  
BRANCH   7   9
HETATM    9  N   UNL     1     -11.829  12.924  66.871  1.00  0.00    -0.385 NA 
HETATM   10  C   UNL     1     -10.941  14.033  67.215  1.00  0.00    -0.295 C  
HETATM   11  N   UNL     1      -9.962  14.273  66.152  1.00  0.00    -0.302 NA 
HETATM   12  C   UNL     1     -10.673  14.712  64.926  1.00  0.00    -0.427 C  
HETATM   13  H1  UNL     1     -13.412  13.800  63.162  1.00  0.00     0.000 HD 
HETATM   14  C   UNL     1     -11.781  13.739  64.433  1.00  0.00    -0.408 C  
HETATM   15  H2  UNL     1     -12.174  14.860  62.710  1.00  0.00     0.000 HD 
HETATM   16  C   UNL     1     -11.180  12.573  63.632  1.00  0.00    -0.545 C  
HETATM   17  N   UNL     1     -12.686  14.438  63.485  1.00  0.00    -0.555 NA 
HETATM   18  C   UNL     1     -12.605  13.268  65.666  1.00  0.00    -0.406 C  
BRANCH  11  19
HETATM   19  C   UNL     1      -9.006  15.338  66.529  1.00  0.00    -0.305 C  
HETATM   20  C   UNL     1     -10.771  17.008  67.438  1.00  0.00    -0.240 C  
HETATM   21  C   UNL     1      -9.516  16.804  66.564  1.00  0.00    -0.287 C  
HETATM   22  C   UNL     1      -8.366  17.756  66.985  1.00  0.00    -0.242 C  
HETATM   23  C   UNL     1     -10.581  16.857  68.942  1.00  0.00    -0.353 C  
BRANCH  22  24
HETATM   24  C   UNL     1      -7.124  17.732  66.076  1.00  0.00    -0.335 C  
BRANCH  24  25
HETATM   25  C   UNL     1      -5.888  17.117  66.735  1.00  0.00    -0.234 C  
HETATM   26  C   UNL     1      -6.108  16.873  68.221  1.00  0.00    -0.133 C  
ENDBRANCH  24  25
ENDBRANCH  22  24
ENDBRANCH  11  19
ENDBRANCH   7   9
ENDBRANCH   3   4
ENDBRANCH   2   3
TORSDOF 6
ENDMDL
MODEL        8
REMARK 921   NORMALIZED FREE ENERGY PREDICTED BY IDOCK:   -5.62 KCAL/MOL
REMARK 922        TOTAL FREE ENERGY PREDICTED BY IDOCK:   -8.38 KCAL/MOL
REMARK 923 INTER-LIGAND FREE ENERGY PREDICTED BY IDOCK:   -7.37 KCAL/MOL
REMARK 924 INTRA-LIGAND FREE ENERGY PREDICTED BY IDOCK:   -1.01 KCAL/MOL
REMARK 927      BINDING AFFINITY PREDICTED BY RF-SCORE:    0.00 PKD
ROOT
HETATM    1  C   UNL     1     -10.076   5.555  69.691  1.00  0.00    -0.309 C  
HETATM    2  C   UNL     1     -10.889   5.846  70.944  1.00  0.00    -0.347 C  
ENDROOT
BRANCH   2   3
HETATM    3  C   UNL     1     -11.270   7.321  71.003  1.00  0.00    -0.291 C  
BRANCH   3   4
HETATM    4  C   UNL     1     -10.922   8.056  69.706  1.00  0.00    -0.138 C  
HETATM    5  C   UNL     1     -10.249   9.418  69.966  1.00  0.00    -0.262 C  
HETATM    6  C   UNL     1      -8.944   9.341  70.796  1.00  0.00    -0.292 C  
HETATM    7  C   UNL     1      -9.984  10.183  68.648  1.00  0.00    -0.170 C  
HETATM    8  C   UNL     1      -7.782   8.626  70.122  1.00  0.00    -0.081 C  
BRANCH   7   9
HETATM    9  N   UNL     1     -11.168  10.545  67.858  1.00  0.00    -0.311 NA 
HETATM   10  C   UNL     1     -11.988  11.587  68.472  1.00  0.00    -0.224 C  
HETATM   11  N   UNL     1     -11.252  12.851  68.563  1.00  0.00    -0.256 NA 
HETATM   12  C   UNL     1     -10.962  13.343  67.194  1.00  0.00    -0.280 C  
HETATM   13  H1  UNL     1      -9.822  12.077  64.270  1.00  0.00     0.000 HD 
HETATM   14  C   UNL     1     -10.199  12.335  66.288  1.00  0.00    -0.229 C  
HETATM   15  H2  UNL     1     -10.016  13.699  64.710  1.00  0.00     0.000 HD 
HETATM   16  C   UNL     1      -8.690  12.354  66.584  1.00  0.00    -0.119 C  
HETATM   17  N   UNL     1     -10.323  12.738  64.864  1.00  0.00    -0.308 NA 
HETATM   18  C   UNL     1     -10.836  10.928  66.474  1.00  0.00    -0.171 C  
BRANCH  11  19
HETATM   19  C   UNL     1     -12.046  13.888  69.259  1.00  0.00    -0.339 C  
HETATM   20  C   UNL     1     -10.086  15.539  69.661  1.00  0.00    -0.297 C  
HETATM   21  C   UNL     1     -11.315  14.824  70.259  1.00  0.00    -0.277 C  
HETATM   22  C   UNL     1     -12.321  15.834  70.872  1.00  0.00    -0.451 C  
HETATM   23  C   UNL     1     -10.367  16.600  68.606  1.00  0.00    -0.304 C  
BRANCH  22  24
HETATM   24  C   UNL     1     -13.508  15.208  71.626  1.00  0.00    -0.535 C  
BRANCH  24  25
HETATM   25  C   UNL     1     -13.106  14.456  72.896  1.00  0.00    -0.612 C  
HETATM   26  C   UNL     1     -12.440  15.379  73.906  1.00  0.00    -0.763 C  
ENDBRANCH  24  25
ENDBRANCH  22  24
ENDBRANCH  11  19
ENDBRANCH   7   9
ENDBRANCH   3   4
ENDBRANCH   2   3
TORSDOF 6
ENDMDL
MODEL        9
REMARK 921   NORMALIZED FREE ENERGY PREDICTED BY IDOCK:   -5.57 KCAL/MOL
REMARK 922        TOTAL FREE ENERGY PREDICTED BY IDOCK:   -8.31 KCAL/MOL
REMARK 923 INTER-LIGAND FREE ENERGY PREDICTED BY IDOCK:   -7.95 KCAL/MOL
REMARK 924 INTRA-LIGAND FREE ENERGY PREDICTED BY IDOCK:   -0.36 KCAL/MOL
REMARK 927      BINDING AFFINITY PREDICTED BY RF-SCORE:    0.00 PKD
ROOT
HETATM    1  C   UNL     1      -9.326  16.072  66.223  1.00  0.00    -0.356 C  
HETATM    2  C   UNL     1     -10.652  16.475  65.594  1.00  0.00    -0.317 C  
ENDROOT
BRANCH   2   3
HETATM    3  C   UNL     1     -11.213  15.334  64.752  1.00  0.00    -0.405 C  
BRANCH   3   4
HETATM    4  C   UNL     1     -10.485  14.014  65.016  1.00  0.00    -0.440 C  
HETATM    5  C   UNL     1     -11.410  12.946  65.633  1.00  0.00    -0.344 C  
HETATM    6  C   UNL     1     -12.653  12.603  64.777  1.00  0.00    -0.530 C  
HETATM    7  C   UNL     1     -10.636  11.650  65.972  1.00  0.00    -0.258 C  
HETATM    8  C   UNL     1     -12.363  11.925  63.446  1.00  0.00    -0.577 C  
BRANCH   7   9
HETATM    9  N   UNL     1      -9.565  11.775  66.969  1.00  0.00    -0.184 NA 
HETATM   10  C   UNL     1     -10.012  12.331  68.245  1.00  0.00    -0.216 C  
HETATM   11  N   UNL     1     -10.972  11.439  68.901  1.00  0.00    -0.212 NA 
HETATM   12  C   UNL     1     -10.292  10.167  69.250  1.00  0.00    -0.223 C  
HETATM   13  H1  UNL     1      -8.189   7.968  67.770  1.00  0.00     0.000 HD 
HETATM   14  C   UNL     1      -9.610   9.445  68.054  1.00  0.00    -0.138 C  
HETATM   15  H2  UNL     1      -9.066   7.783  69.205  1.00  0.00     0.000 HD 
HETATM   16  C   UNL     1     -10.633   8.641  67.234  1.00  0.00    -0.308 C  
HETATM   17  N   UNL     1      -8.636   8.442  68.555  1.00  0.00    -0.135 NA 
HETATM   18  C   UNL     1      -8.853  10.508  67.205  1.00  0.00    -0.136 C  
BRANCH  11  19
HETATM   19  C   UNL     1     -11.492  12.034  70.152  1.00  0.00    -0.016 C  
HETATM   20  C   UNL     1     -12.988  10.027  70.832  1.00  0.00    -0.397 C  
HETATM   21  C   UNL     1     -12.875  11.557  70.673  1.00  0.00    -0.151 C  
HETATM   22  C   UNL     1     -13.229  12.297  71.990  1.00  0.00    -0.508 C  
HETATM   23  C   UNL     1     -12.160   9.399  71.946  1.00  0.00    -0.427 C  
BRANCH  22  24
HETATM   24  C   UNL     1     -13.291  13.832  71.889  1.00  0.00    -0.499 C  
BRANCH  24  25
HETATM   25  C   UNL     1     -12.917  14.551  73.186  1.00  0.00    -0.577 C  
HETATM   26  C   UNL     1     -11.987  15.727  72.926  1.00  0.00    -0.599 C  
ENDBRANCH  24  25
ENDBRANCH  22  24
ENDBRANCH  11  19
ENDBRANCH   7   9
ENDBRANCH   3   4
ENDBRANCH   2   3
TORSDOF 6
ENDMDL
MODEL       10
REMARK 921   NORMALIZED FREE ENERGY PREDICTED BY IDOCK:   -5.48 KCAL/MOL
REMARK 922        TOTAL FREE ENERGY PREDICTED BY IDOCK:   -8.19 KCAL/MOL
REMARK 923 INTER-LIGAND FREE ENERGY PREDICTED BY IDOCK:   -7.35 KCAL/MOL
REMARK 924 INTRA-LIGAND FREE ENERGY PREDICTED BY IDOCK:   -0.84 KCAL/MOL
REMARK 927      BINDING AFFINITY PREDICTED BY RF-SCORE:    0.00 PKD
ROOT
HETATM    1  C   UNL     1      -9.432   6.611  67.147  1.00  0.00    -0.158 C  
HETATM    2  C   UNL     1     -10.777   7.301  67.326  1.00  0.00    -0.391 C  
ENDROOT
BRANCH   2   3
HETATM    3  C   UNL     1     -10.637   8.514  68.239  1.00  0.00    -0.173 C  
BRANCH   3   4
HETATM    4  C   UNL     1     -10.663   9.828  67.457  1.00  0.00    -0.327 C  
HETATM    5  C   UNL     1      -9.564  10.807  67.915  1.00  0.00    -0.171 C  
HETATM    6  C   UNL     1      -8.123  10.252  67.802  1.00  0.00    -0.103 C  
HETATM    7  C   UNL     1      -9.661  12.161  67.173  1.00  0.00    -0.199 C  
HETATM    8  C   UNL     1      -7.633   9.991  66.385  1.00  0.00    -0.104 C  
BRANCH   7   9
HETATM    9  N   UNL     1     -10.895  12.929  67.382  1.00  0.00    -0.247 NA 
HETATM   10  C   UNL     1     -10.665  14.345  67.662  1.00  0.00    -0.263 C  
HETATM   11  N   UNL     1     -10.050  15.015  66.513  1.00  0.00    -0.267 NA 
HETATM   12  C   UNL     1     -10.999  14.994  65.373  1.00  0.00    -0.373 C  
HETATM   13  H1  UNL     1     -13.050  12.764  63.867  1.00  0.00     0.000 HD 
HETATM   14  C   UNL     1     -11.501  13.579  64.970  1.00  0.00    -0.318 C  
HETATM   15  H2  UNL     1     -12.572  14.291  63.318  1.00  0.00     0.000 HD 
HETATM   16  C   UNL     1     -10.471  12.854  64.088  1.00  0.00    -0.429 C  
HETATM   17  N   UNL     1     -12.721  13.692  64.131  1.00  0.00    -0.649 NA 
HETATM   18  C   UNL     1     -11.849  12.793  66.268  1.00  0.00    -0.423 C  
BRANCH  11  19
HETATM   19  C   UNL     1      -9.738  16.429  66.818  1.00  0.00    -0.251 C  
HETATM   20  C   UNL     1      -7.723  15.955  68.382  1.00  0.00    -0.140 C  
HETATM   21  C   UNL     1      -9.025  16.752  68.159  1.00  0.00    -0.224 C  
HETATM   22  C   UNL     1      -8.788  18.280  68.279  1.00  0.00    -0.301 C  
HETATM   23  C   UNL     1      -6.551  16.307  67.476  1.00  0.00    -0.193 C  
BRANCH  22  24
HETATM   24  C   UNL     1     -10.055  19.152  68.221  1.00  0.00    -0.499 C  
BRANCH  24  25
HETATM   25  C   UNL     1      -9.973  20.295  67.208  1.00  0.00    -0.580 C  
HETATM   26  C   UNL     1     -10.470  19.864  65.836  1.00  0.00    -0.567 C  
ENDBRANCH  24  25
ENDBRANCH  22  24
ENDBRANCH  11  19
ENDBRANCH   7   9
ENDBRANCH   3   4
ENDBRANCH   2   3
TORSDOF 6
ENDMDL
MODEL       11
REMARK 921   NORMALIZED FREE ENERGY PREDICTED BY IDOCK:   -5.46 KCAL/MOL
REMARK 922        TOTAL FREE ENERGY PREDICTED BY IDOCK:   -8.16 KCAL/MOL
REMARK 923 INTER-LIGAND FREE ENERGY PREDICTED BY IDOCK:   -7.87 KCAL/MOL
REMARK 924 INTRA-LIGAND FREE ENERGY PREDICTED BY IDOCK:   -0.29 KCAL/MOL
REMARK 927      BINDING AFFINITY PREDICTED BY RF-SCORE:    0.00 PKD
ROOT
HETATM    1  C   UNL     1      -7.172  20.144  67.846  1.00  0.00    -0.329 C  
HETATM    2  C   UNL     1      -6.587  18.873  67.247  1.00  0.00    -0.199 C  
ENDROOT
BRANCH   2   3
HETATM    3  C   UNL     1      -7.274  17.643  67.830  1.00  0.00    -0.196 C  
BRANCH   3   4
HETATM    4  C   UNL     1      -8.039  16.854  66.764  1.00  0.00    -0.276 C  
HETATM    5  C   UNL     1      -9.514  16.623  67.150  1.00  0.00    -0.236 C  
HETATM    6  C   UNL     1     -10.320  17.920  67.406  1.00  0.00    -0.383 C  
HETATM    7  C   UNL     1     -10.246  15.751  66.103  1.00  0.00    -0.315 C  
HETATM    8  C   UNL     1     -10.530  18.809  66.190  1.00  0.00    -0.499 C  
BRANCH   7   9
HETATM    9  N   UNL     1      -9.735  14.387  65.922  1.00  0.00    -0.300 NA 
HETATM   10  C   UNL     1      -9.827  13.560  67.124  1.00  0.00    -0.245 C  
HETATM   11  N   UNL     1     -11.224  13.341  67.506  1.00  0.00    -0.270 NA 
HETATM   12  C   UNL     1     -11.901  12.556  66.444  1.00  0.00    -0.381 C  
HETATM   13  H1  UNL     1     -12.092  12.566  63.065  1.00  0.00     0.000 HD 
HETATM   14  C   UNL     1     -11.819  13.181  65.022  1.00  0.00    -0.354 C  
HETATM   15  H2  UNL     1     -13.050  11.716  64.171  1.00  0.00     0.000 HD 
HETATM   16  C   UNL     1     -12.873  14.285  64.839  1.00  0.00    -0.126 C  
HETATM   17  N   UNL     1     -12.146  12.156  63.998  1.00  0.00    -0.433 NA 
HETATM   18  C   UNL     1     -10.365  13.685  64.790  1.00  0.00    -0.392 C  
BRANCH  11  19
HETATM   19  C   UNL     1     -11.324  12.576  68.769  1.00  0.00    -0.293 C  
HETATM   20  C   UNL     1     -10.686  10.269  67.767  1.00  0.00    -0.324 C  
HETATM   21  C   UNL     1     -11.642  11.058  68.686  1.00  0.00    -0.385 C  
HETATM   22  C   UNL     1     -11.697  10.449  70.112  1.00  0.00    -0.394 C  
HETATM   23  C   UNL     1      -9.251  10.117  68.255  1.00  0.00    -0.130 C  
BRANCH  22  24
HETATM   24  C   UNL     1     -12.736  11.077  71.058  1.00  0.00    -0.485 C  
BRANCH  24  25
HETATM   25  C   UNL     1     -13.220  10.131  72.158  1.00  0.00    -0.463 C  
HETATM   26  C   UNL     1     -12.462   8.812  72.136  1.00  0.00    -0.460 C  
ENDBRANCH  24  25
ENDBRANCH  22  24
ENDBRANCH  11  19
ENDBRANCH   7   9
ENDBRANCH   3   4
ENDBRANCH   2   3
TORSDOF 6
ENDMDL
MODEL       12
REMARK 921   NORMALIZED FREE ENERGY PREDICTED BY IDOCK:   -5.41 KCAL/MOL
REMARK 922        TOTAL FREE ENERGY PREDICTED BY IDOCK:   -8.10 KCAL/MOL
REMARK 923 INTER-LIGAND FREE ENERGY PREDICTED BY IDOCK:   -8.08 KCAL/MOL
REMARK 924 INTRA-LIGAND FREE ENERGY PREDICTED BY IDOCK:   -0.02 KCAL/MOL
REMARK 927      BINDING AFFINITY PREDICTED BY RF-SCORE:    0.00 PKD
ROOT
HETATM    1  C   UNL     1     -13.599   8.256  71.416  1.00  0.00    -0.266 C  
HETATM    2  C   UNL     1     -13.661   9.498  72.293  1.00  0.00    -0.494 C  
ENDROOT
BRANCH   2   3
HETATM    3  C   UNL     1     -12.802  10.612  71.704  1.00  0.00    -0.570 C  
BRANCH   3   4
HETATM    4  C   UNL     1     -12.655  10.480  70.186  1.00  0.00    -0.246 C  
HETATM    5  C   UNL     1     -11.205  10.706  69.715  1.00  0.00    -0.363 C  
HETATM    6  C   UNL     1     -10.168   9.744  70.346  1.00  0.00    -0.343 C  
HETATM    7  C   UNL     1     -11.093  10.655  68.173  1.00  0.00    -0.285 C  
HETATM    8  C   UNL     1     -10.317   8.280  69.961  1.00  0.00    -0.212 C  
BRANCH   7   9
HETATM    9  N   UNL     1     -11.843  11.677  67.433  1.00  0.00    -0.630 NA 
HETATM   10  C   UNL     1     -11.605  13.039  67.907  1.00  0.00    -0.342 C  
HETATM   11  N   UNL     1     -10.211  13.435  67.694  1.00  0.00    -0.226 NA 
HETATM   12  C   UNL     1      -9.935  13.479  66.237  1.00  0.00    -0.298 C  
HETATM   13  H1  UNL     1     -10.542  11.557  63.519  1.00  0.00     0.000 HD 
HETATM   14  C   UNL     1     -10.247  12.159  65.476  1.00  0.00    -0.265 C  
HETATM   15  H2  UNL     1      -9.500  12.882  63.659  1.00  0.00     0.000 HD 
HETATM   16  C   UNL     1      -9.103  11.144  65.633  1.00  0.00    -0.221 C  
HETATM   17  N   UNL     1     -10.337  12.423  64.017  1.00  0.00    -0.390 NA 
HETATM   18  C   UNL     1     -11.615  11.614  65.979  1.00  0.00    -0.026 C  
BRANCH  11  19
HETATM   19  C   UNL     1      -9.942  14.781  68.248  1.00  0.00    -0.222 C  
HETATM   20  C   UNL     1     -12.110  14.958  69.660  1.00  0.00    -0.334 C  
HETATM   21  C   UNL     1     -11.151  15.656  68.674  1.00  0.00    -0.317 C  
HETATM   22  C   UNL     1     -10.652  17.016  69.228  1.00  0.00    -0.276 C  
HETATM   23  C   UNL     1     -11.574  14.710  71.064  1.00  0.00    -0.277 C  
BRANCH  22  24
HETATM   24  C   UNL     1      -9.809  17.857  68.252  1.00  0.00    -0.348 C  
BRANCH  24  25
HETATM   25  C   UNL     1     -10.090  19.359  68.329  1.00  0.00    -0.531 C  
HETATM   26  C   UNL     1     -10.270  19.966  66.946  1.00  0.00    -0.600 C  
ENDBRANCH  24  25
ENDBRANCH  22  24
ENDBRANCH  11  19
ENDBRANCH   7   9
ENDBRANCH   3   4
ENDBRANCH   2   3
TORSDOF 6
ENDMDL
MODEL       13
REMARK 921   NORMALIZED FREE ENERGY PREDICTED BY IDOCK:   -5.41 KCAL/MOL
REMARK 922        TOTAL FREE ENERGY PREDICTED BY IDOCK:   -8.09 KCAL/MOL
REMARK 923 INTER-LIGAND FREE ENERGY PREDICTED BY IDOCK:   -7.21 KCAL/MOL
REMARK 924 INTRA-LIGAND FREE ENERGY PREDICTED BY IDOCK:   -0.88 KCAL/MOL
REMARK 927      BINDING AFFINITY PREDICTED BY RF-SCORE:    0.00 PKD
ROOT
HETATM    1  C   UNL     1     -12.400  13.470  63.816  1.00  0.00    -0.392 C  
HETATM    2  C   UNL     1     -12.371  12.021  63.352  1.00  0.00    -0.635 C  
ENDROOT
BRANCH   2   3
HETATM    3  C   UNL     1     -11.032  11.377  63.695  1.00  0.00    -0.443 C  
BRANCH   3   4
HETATM    4  C   UNL     1     -10.102  12.344  64.431  1.00  0.00    -0.293 C  
HETATM    5  C   UNL     1      -9.919  11.968  65.915  1.00  0.00    -0.260 C  
HETATM    6  C   UNL     1      -9.357  10.545  66.151  1.00  0.00    -0.210 C  
HETATM    7  C   UNL     1      -9.047  13.005  66.661  1.00  0.00    -0.176 C  
HETATM    8  C   UNL     1      -7.931  10.318  65.672  1.00  0.00    -0.150 C  
BRANCH   7   9
HETATM    9  N   UNL     1      -9.578  14.372  66.730  1.00  0.00    -0.258 NA 
HETATM   10  C   UNL     1     -10.572  14.563  67.785  1.00  0.00    -0.250 C  
HETATM   11  N   UNL     1      -9.977  14.374  69.110  1.00  0.00    -0.133 NA 
HETATM   12  C   UNL     1      -8.959  15.428  69.341  1.00  0.00    -0.258 C  
HETATM   13  H1  UNL     1      -6.419  16.869  67.631  1.00  0.00     0.000 HD 
HETATM   14  C   UNL     1      -7.850  15.510  68.254  1.00  0.00    -0.127 C  
HETATM   15  H2  UNL     1      -6.779  16.988  69.279  1.00  0.00     0.000 HD 
HETATM   16  C   UNL     1      -6.762  14.449  68.490  1.00  0.00    -0.097 C  
HETATM   17  N   UNL     1      -7.146  16.815  68.344  1.00  0.00    -0.166 NA 
HETATM   18  C   UNL     1      -8.521  15.390  66.856  1.00  0.00    -0.252 C  
BRANCH  11  19
HETATM   19  C   UNL     1     -10.994  14.483  70.178  1.00  0.00    -0.014 C  
HETATM   20  C   UNL     1     -12.269  12.300  69.597  1.00  0.00    -0.175 C  
HETATM   21  C   UNL     1     -12.369  13.797  69.958  1.00  0.00    -0.364 C  
HETATM   22  C   UNL     1     -13.282  14.028  71.191  1.00  0.00    -0.337 C  
HETATM   23  C   UNL     1     -11.788  11.368  70.701  1.00  0.00    -0.327 C  
BRANCH  22  24
HETATM   24  C   UNL     1     -13.564  15.501  71.537  1.00  0.00    -0.571 C  
BRANCH  24  25
HETATM   25  C   UNL     1     -13.497  15.807  73.034  1.00  0.00    -0.672 C  
HETATM   26  C   UNL     1     -12.393  15.016  73.719  1.00  0.00    -0.654 C  
ENDBRANCH  24  25
ENDBRANCH  22  24
ENDBRANCH  11  19
ENDBRANCH   7   9
ENDBRANCH   3   4
ENDBRANCH   2   3
TORSDOF 6
ENDMDL
MODEL       14
REMARK 921   NORMALIZED FREE ENERGY PREDICTED BY IDOCK:   -5.38 KCAL/MOL
REMARK 922        TOTAL FREE ENERGY PREDICTED BY IDOCK:   -8.05 KCAL/MOL
REMARK 923 INTER-LIGAND FREE ENERGY PREDICTED BY IDOCK:   -7.23 KCAL/MOL
REMARK 924 INTRA-LIGAND FREE ENERGY PREDICTED BY IDOCK:   -0.83 KCAL/MOL
REMARK 927      BINDING AFFINITY PREDICTED BY RF-SCORE:    0.00 PKD
ROOT
HETATM    1  C   UNL     1      -9.340  19.962  67.516  1.00  0.00    -0.465 C  
HETATM    2  C   UNL     1      -8.873  19.312  66.221  1.00  0.00    -0.341 C  
ENDROOT
BRANCH   2   3
HETATM    3  C   UNL     1      -8.196  17.977  66.508  1.00  0.00    -0.298 C  
BRANCH   3   4
HETATM    4  C   UNL     1      -9.136  16.793  66.270  1.00  0.00    -0.320 C  
HETATM    5  C   UNL     1      -9.101  15.773  67.425  1.00  0.00    -0.206 C  
HETATM    6  C   UNL     1      -9.469  16.360  68.810  1.00  0.00    -0.247 C  
HETATM    7  C   UNL     1      -9.991  14.544  67.126  1.00  0.00    -0.252 C  
HETATM    8  C   UNL     1     -10.908  16.836  68.956  1.00  0.00    -0.291 C  
BRANCH   7   9
HETATM    9  N   UNL     1      -9.612  13.735  65.961  1.00  0.00    -0.225 NA 
HETATM   10  C   UNL     1      -9.595  12.297  66.223  1.00  0.00    -0.242 C  
HETATM   11  N   UNL     1     -10.937  11.805  66.543  1.00  0.00    -0.283 NA 
HETATM   12  C   UNL     1     -11.812  11.972  65.356  1.00  0.00    -0.192 C  
HETATM   13  H1  UNL     1     -12.473  14.361  63.053  1.00  0.00     0.000 HD 
HETATM   14  C   UNL     1     -11.884  13.422  64.801  1.00  0.00    -0.380 C  
HETATM   15  H2  UNL     1     -13.326  12.934  63.363  1.00  0.00     0.000 HD 
HETATM   16  C   UNL     1     -12.870  14.279  65.612  1.00  0.00    -0.321 C  
HETATM   17  N   UNL     1     -12.425  13.410  63.417  1.00  0.00    -0.739 NA 
HETATM   18  C   UNL     1     -10.444  14.012  64.777  1.00  0.00    -0.421 C  
BRANCH  11  19
HETATM   19  C   UNL     1     -10.915  10.367  66.892  1.00  0.00    -0.097 C  
HETATM   20  C   UNL     1     -10.070  10.668  69.326  1.00  0.00    -0.227 C  
HETATM   21  C   UNL     1      -9.933   9.894  67.998  1.00  0.00    -0.179 C  
HETATM   22  C   UNL     1     -10.072   8.364  68.211  1.00  0.00    -0.232 C  
HETATM   23  C   UNL     1     -11.348  10.431  70.119  1.00  0.00    -0.397 C  
BRANCH  22  24
HETATM   24  C   UNL     1      -9.801   7.497  66.968  1.00  0.00    -0.280 C  
BRANCH  24  25
HETATM   25  C   UNL     1     -10.811   6.364  66.774  1.00  0.00    -0.361 C  
HETATM   26  C   UNL     1     -10.235   5.022  67.200  1.00  0.00    -0.234 C  
ENDBRANCH  24  25
ENDBRANCH  22  24
ENDBRANCH  11  19
ENDBRANCH   7   9
ENDBRANCH   3   4
ENDBRANCH   2   3
TORSDOF 6
ENDMDL
MODEL       15
REMARK 921   NORMALIZED FREE ENERGY PREDICTED BY IDOCK:   -5.31 KCAL/MOL
REMARK 922        TOTAL FREE ENERGY PREDICTED BY IDOCK:   -7.96 KCAL/MOL
REMARK 923 INTER-LIGAND FREE ENERGY PREDICTED BY IDOCK:   -7.17 KCAL/MOL
REMARK 924 INTRA-LIGAND FREE ENERGY PREDICTED BY IDOCK:   -0.79 KCAL/MOL
REMARK 927      BINDING AFFINITY PREDICTED BY RF-SCORE:    0.00 PKD
ROOT
HETATM    1  C   UNL     1      -9.990   8.063  66.621  1.00  0.00    -0.326 C  
HETATM    2  C   UNL     1      -9.049   8.980  65.854  1.00  0.00    -0.264 C  
ENDROOT
BRANCH   2   3
HETATM    3  C   UNL     1      -9.834  10.077  65.142  1.00  0.00    -0.388 C  
BRANCH   3   4
HETATM    4  C   UNL     1     -10.098  11.277  66.054  1.00  0.00    -0.283 C  
HETATM    5  C   UNL     1     -10.038  12.616  65.294  1.00  0.00    -0.271 C  
HETATM    6  C   UNL     1     -11.032  12.730  64.112  1.00  0.00    -0.435 C  
HETATM    7  C   UNL     1     -10.221  13.821  66.247  1.00  0.00    -0.297 C  
HETATM    8  C   UNL     1     -12.504  12.742  64.497  1.00  0.00    -0.501 C  
BRANCH   7   9
HETATM    9  N   UNL     1      -9.200  13.986  67.289  1.00  0.00    -0.220 NA 
HETATM   10  C   UNL     1      -8.412  15.210  67.152  1.00  0.00    -0.212 C  
HETATM   11  N   UNL     1      -9.252  16.398  67.322  1.00  0.00    -0.213 NA 
HETATM   12  C   UNL     1      -9.775  16.428  68.710  1.00  0.00    -0.250 C  
HETATM   13  H1  UNL     1     -11.173  14.264  70.903  1.00  0.00     0.000 HD 
HETATM   14  C   UNL     1     -10.550  15.151  69.141  1.00  0.00    -0.256 C  
HETATM   15  H2  UNL     1     -11.085  15.950  71.000  1.00  0.00     0.000 HD 
HETATM   16  C   UNL     1     -11.998  15.178  68.625  1.00  0.00    -0.270 C  
HETATM   17  N   UNL     1     -10.664  15.102  70.621  1.00  0.00    -0.194 NA 
HETATM   18  C   UNL     1      -9.754  13.906  68.652  1.00  0.00    -0.160 C  
BRANCH  11  19
HETATM   19  C   UNL     1      -8.479  17.640  67.101  1.00  0.00    -0.226 C  
HETATM   20  C   UNL     1     -10.512  19.164  66.579  1.00  0.00    -0.534 C  
HETATM   21  C   UNL     1      -9.087  18.730  66.178  1.00  0.00    -0.152 C  
HETATM   22  C   UNL     1      -8.125  19.944  66.085  1.00  0.00    -0.347 C  
HETATM   23  C   UNL     1     -10.640  19.949  67.878  1.00  0.00    -0.424 C  
BRANCH  22  24
HETATM   24  C   UNL     1      -6.718  19.631  65.546  1.00  0.00    -0.313 C  
BRANCH  24  25
HETATM   25  C   UNL     1      -5.588  20.233  66.383  1.00  0.00    -0.195 C  
HETATM   26  C   UNL     1      -6.115  21.240  67.394  1.00  0.00    -0.434 C  
ENDBRANCH  24  25
ENDBRANCH  22  24
ENDBRANCH  11  19
ENDBRANCH   7   9
ENDBRANCH   3   4
ENDBRANCH   2   3
TORSDOF 6
ENDMDL
MODEL       16
REMARK 921   NORMALIZED FREE ENERGY PREDICTED BY IDOCK:   -5.19 KCAL/MOL
REMARK 922        TOTAL FREE ENERGY PREDICTED BY IDOCK:   -7.80 KCAL/MOL
REMARK 923 INTER-LIGAND FREE ENERGY PREDICTED BY IDOCK:   -6.63 KCAL/MOL
REMARK 924 INTRA-LIGAND FREE ENERGY PREDICTED BY IDOCK:   -1.16 KCAL/MOL
REMARK 927      BINDING AFFINITY PREDICTED BY RF-SCORE:    0.00 PKD
ROOT
HETATM    1  C   UNL     1     -13.047  11.871  71.734  1.00  0.00    -0.465 C  
HETATM    2  C   UNL     1     -12.695  10.604  70.967  1.00  0.00    -0.512 C  
ENDROOT
BRANCH   2   3
HETATM    3  C   UNL     1     -12.759   9.388  71.885  1.00  0.00    -0.484 C  
BRANCH   3   4
HETATM    4  C   UNL     1     -12.175   8.138  71.225  1.00  0.00    -0.302 C  
HETATM    5  C   UNL     1     -10.711   8.336  70.784  1.00  0.00    -0.244 C  
HETATM    6  C   UNL     1      -9.744   8.727  71.927  1.00  0.00    -0.386 C  
HETATM    7  C   UNL     1     -10.167   7.093  70.041  1.00  0.00    -0.196 C  
HETATM    8  C   UNL     1      -9.528   7.662  72.993  1.00  0.00    -0.282 C  
BRANCH   7   9
HETATM    9  N   UNL     1     -10.844   6.737  68.788  1.00  0.00    -0.238 NA 
HETATM   10  C   UNL     1     -10.882   7.823  67.811  1.00  0.00    -0.041 C  
HETATM   11  N   UNL     1      -9.532   8.179  67.367  1.00  0.00    -0.150 NA 
HETATM   12  C   UNL     1      -8.939   7.028  66.643  1.00  0.00    -0.142 C  
HETATM   13  H1  UNL     1      -8.680   3.679  67.056  1.00  0.00     0.000 HD 
HETATM   14  C   UNL     1      -8.912   5.698  67.447  1.00  0.00    -0.107 C  
HETATM   15  H2  UNL     1      -7.861   4.671  65.957  1.00  0.00     0.000 HD 
HETATM   16  C   UNL     1      -7.722   5.661  68.421  1.00  0.00    -0.092 C  
HETATM   17  N   UNL     1      -8.698   4.552  66.527  1.00  0.00    -0.112 NA 
HETATM   18  C   UNL     1     -10.285   5.527  68.160  1.00  0.00    -0.177 C  
BRANCH  11  19
HETATM   19  C   UNL     1      -9.556   9.334  66.441  1.00  0.00    -0.238 C  
HETATM   20  C   UNL     1     -10.120  11.130  68.226  1.00  0.00    -0.196 C  
HETATM   21  C   UNL     1     -10.423  10.564  66.823  1.00  0.00    -0.302 C  
HETATM   22  C   UNL     1     -10.305  11.656  65.728  1.00  0.00    -0.292 C  
HETATM   23  C   UNL     1      -8.769  11.811  68.404  1.00  0.00    -0.155 C  
BRANCH  22  24
HETATM   24  C   UNL     1     -10.735  11.224  64.315  1.00  0.00    -0.416 C  
BRANCH  24  25
HETATM   25  C   UNL     1     -11.901  12.035  63.748  1.00  0.00    -0.581 C  
HETATM   26  C   UNL     1     -12.593  12.851  64.830  1.00  0.00    -0.525 C  
ENDBRANCH  24  25
ENDBRANCH  22  24
ENDBRANCH  11  19
ENDBRANCH   7   9
ENDBRANCH   3   4
ENDBRANCH   2   3
TORSDOF 6
ENDMDL
MODEL       17
REMARK 921   NORMALIZED FREE ENERGY PREDICTED BY IDOCK:   -5.17 KCAL/MOL
REMARK 922        TOTAL FREE ENERGY PREDICTED BY IDOCK:   -7.78 KCAL/MOL
REMARK 923 INTER-LIGAND FREE ENERGY PREDICTED BY IDOCK:   -7.65 KCAL/MOL
REMARK 924 INTRA-LIGAND FREE ENERGY PREDICTED BY IDOCK:   -0.13 KCAL/MOL
REMARK 927      BINDING AFFINITY PREDICTED BY RF-SCORE:    0.00 PKD
ROOT
HETATM    1  C   UNL     1      -5.713  20.094  69.373  1.00  0.00    -0.326 C  
HETATM    2  C   UNL     1      -6.038  21.062  68.244  1.00  0.00    -0.349 C  
ENDROOT
BRANCH   2   3
HETATM    3  C   UNL     1      -7.468  20.853  67.757  1.00  0.00    -0.157 C  
BRANCH   3   4
HETATM    4  C   UNL     1      -7.854  19.373  67.726  1.00  0.00    -0.315 C  
HETATM    5  C   UNL     1      -9.263  19.121  68.297  1.00  0.00    -0.385 C  
HETATM    6  C   UNL     1     -10.396  19.890  67.575  1.00  0.00    -0.557 C  
HETATM    7  C   UNL     1      -9.599  17.611  68.337  1.00  0.00    -0.310 C  
HETATM    8  C   UNL     1     -10.648  19.477  66.132  1.00  0.00    -0.585 C  
BRANCH   7   9
HETATM    9  N   UNL     1      -8.743  16.777  69.189  1.00  0.00    -0.161 NA 
HETATM   10  C   UNL     1      -9.268  15.431  69.412  1.00  0.00    -0.268 C  
HETATM   11  N   UNL     1      -9.325  14.674  68.159  1.00  0.00    -0.191 NA 
HETATM   12  C   UNL     1      -7.946  14.472  67.650  1.00  0.00    -0.177 C  
HETATM   13  H1  UNL     1      -5.141  16.317  67.227  1.00  0.00     0.000 HD 
HETATM   14  C   UNL     1      -7.126  15.779  67.458  1.00  0.00    -0.186 C  
HETATM   15  H2  UNL     1      -5.489  14.778  66.619  1.00  0.00     0.000 HD 
HETATM   16  C   UNL     1      -7.483  16.469  66.130  1.00  0.00     0.083 C  
HETATM   17  N   UNL     1      -5.679  15.460  67.354  1.00  0.00    -0.342 NA 
HETATM   18  C   UNL     1      -7.357  16.691  68.697  1.00  0.00    -0.203 C  
BRANCH  11  19
HETATM   19  C   UNL     1      -9.934  13.341  68.362  1.00  0.00    -0.226 C  
HETATM   20  C   UNL     1     -12.098  13.796  67.007  1.00  0.00    -0.436 C  
HETATM   21  C   UNL     1     -11.480  13.221  68.299  1.00  0.00    -0.351 C  
HETATM   22  C   UNL     1     -11.909  11.749  68.532  1.00  0.00    -0.365 C  
HETATM   23  C   UNL     1     -11.815  13.029  65.722  1.00  0.00    -0.453 C  
BRANCH  22  24
HETATM   24  C   UNL     1     -11.464  11.136  69.872  1.00  0.00    -0.386 C  
BRANCH  24  25
HETATM   25  C   UNL     1     -12.462  11.353  71.011  1.00  0.00    -0.486 C  
HETATM   26  C   UNL     1     -13.116  10.047  71.439  1.00  0.00    -0.512 C  
ENDBRANCH  24  25
ENDBRANCH  22  24
ENDBRANCH  11  19
ENDBRANCH   7   9
ENDBRANCH   3   4
ENDBRANCH   2   3
TORSDOF 6
ENDMDL
MODEL       18
REMARK 921   NORMALIZED FREE ENERGY PREDICTED BY IDOCK:   -5.06 KCAL/MOL
REMARK 922        TOTAL FREE ENERGY PREDICTED BY IDOCK:   -7.63 KCAL/MOL
REMARK 923 INTER-LIGAND FREE ENERGY PREDICTED BY IDOCK:   -6.51 KCAL/MOL
REMARK 924 INTRA-LIGAND FREE ENERGY PREDICTED BY IDOCK:   -1.12 KCAL/MOL
REMARK 927      BINDING AFFINITY PREDICTED BY RF-SCORE:    0.00 PKD
ROOT
HETATM    1  C   UNL     1     -11.201  15.601  64.615  1.00  0.00    -0.380 C  
HETATM    2  C   UNL     1     -12.403  14.693  64.393  1.00  0.00    -0.420 C  
ENDROOT
BRANCH   2   3
HETATM    3  C   UNL     1     -12.568  13.731  65.565  1.00  0.00    -0.551 C  
BRANCH   3   4
HETATM    4  C   UNL     1     -11.221  13.237  66.098  1.00  0.00    -0.317 C  
HETATM    5  C   UNL     1     -11.029  11.722  65.895  1.00  0.00    -0.354 C  
HETATM    6  C   UNL     1     -11.122  11.254  64.422  1.00  0.00    -0.273 C  
HETATM    7  C   UNL     1      -9.702  11.228  66.517  1.00  0.00    -0.202 C  
HETATM    8  C   UNL     1     -10.015  11.758  63.506  1.00  0.00    -0.430 C  
BRANCH   7   9
HETATM    9  N   UNL     1      -9.566  11.386  67.970  1.00  0.00    -0.177 NA 
HETATM   10  C   UNL     1      -9.928  10.190  68.728  1.00  0.00    -0.179 C  
HETATM   11  N   UNL     1      -9.015   9.083  68.431  1.00  0.00    -0.134 NA 
HETATM   12  C   UNL     1      -7.652   9.439  68.895  1.00  0.00    -0.075 C  
HETATM   13  H1  UNL     1      -5.580  12.111  68.756  1.00  0.00     0.000 HD 
HETATM   14  C   UNL     1      -7.095  10.771  68.318  1.00  0.00    -0.078 C  
HETATM   15  H2  UNL     1      -5.221  10.524  69.218  1.00  0.00     0.000 HD 
HETATM   16  C   UNL     1      -6.529  10.569  66.903  1.00  0.00    -0.080 C  
HETATM   17  N   UNL     1      -5.945  11.237  69.135  1.00  0.00    -0.046 NA 
HETATM   18  C   UNL     1      -8.224  11.840  68.373  1.00  0.00    -0.154 C  
BRANCH  11  19
HETATM   19  C   UNL     1      -9.425   7.845  69.130  1.00  0.00    -0.155 C  
HETATM   20  C   UNL     1     -10.857   6.875  67.197  1.00  0.00    -0.447 C  
HETATM   21  C   UNL     1     -10.757   7.168  68.708  1.00  0.00    -0.199 C  
HETATM   22  C   UNL     1     -10.995   5.891  69.556  1.00  0.00    -0.438 C  
HETATM   23  C   UNL     1      -9.936   5.789  66.656  1.00  0.00    -0.212 C  
BRANCH  22  24
HETATM   24  C   UNL     1     -11.064   6.112  71.077  1.00  0.00    -0.359 C  
BRANCH  24  25
HETATM   25  C   UNL     1     -12.243   6.977  71.523  1.00  0.00    -0.407 C  
HETATM   26  C   UNL     1     -11.779   8.199  72.302  1.00  0.00    -0.439 C  
ENDBRANCH  24  25
ENDBRANCH  22  24
ENDBRANCH  11  19
ENDBRANCH   7   9
ENDBRANCH   3   4
ENDBRANCH   2   3
TORSDOF 6
ENDMDL
MODEL       19
REMARK 921   NORMALIZED FREE ENERGY PREDICTED BY IDOCK:   -5.06 KCAL/MOL
REMARK 922        TOTAL FREE ENERGY PREDICTED BY IDOCK:   -7.62 KCAL/MOL
REMARK 923 INTER-LIGAND FREE ENERGY PREDICTED BY IDOCK:   -6.64 KCAL/MOL
REMARK 924 INTRA-LIGAND FREE ENERGY PREDICTED BY IDOCK:   -0.98 KCAL/MOL
REMARK 927      BINDING AFFINITY PREDICTED BY RF-SCORE:    0.00 PKD
ROOT
HETATM    1  C   UNL     1     -14.367   8.636  72.078  1.00  0.00    -0.512 C  
HETATM    2  C   UNL     1     -13.952   7.412  71.275  1.00  0.00    -0.374 C  
ENDROOT
BRANCH   2   3
HETATM    3  C   UNL     1     -12.736   6.745  71.909  1.00  0.00    -0.298 C  
BRANCH   3   4
HETATM    4  C   UNL     1     -11.547   6.687  70.947  1.00  0.00    -0.416 C  
HETATM    5  C   UNL     1     -10.929   8.077  70.694  1.00  0.00    -0.250 C  
HETATM    6  C   UNL     1     -10.434   8.801  71.969  1.00  0.00    -0.414 C  
HETATM    7  C   UNL     1      -9.786   8.010  69.654  1.00  0.00    -0.169 C  
HETATM    8  C   UNL     1      -9.258   8.145  72.678  1.00  0.00    -0.332 C  
BRANCH   7   9
HETATM    9  N   UNL     1     -10.159   7.564  68.306  1.00  0.00    -0.177 NA 
HETATM   10  C   UNL     1     -10.658   8.637  67.449  1.00  0.00    -0.228 C  
HETATM   11  N   UNL     1      -9.614   9.632  67.190  1.00  0.00    -0.161 NA 
HETATM   12  C   UNL     1      -8.518   8.998  66.417  1.00  0.00    -0.120 C  
HETATM   13  H1  UNL     1      -6.737   6.122  66.505  1.00  0.00     0.000 HD 
HETATM   14  C   UNL     1      -7.907   7.730  67.077  1.00  0.00    -0.112 C  
HETATM   15  H2  UNL     1      -6.430   7.523  65.608  1.00  0.00     0.000 HD 
HETATM   16  C   UNL     1      -6.884   8.107  68.163  1.00  0.00    -0.076 C  
HETATM   17  N   UNL     1      -7.138   6.953  66.071  1.00  0.00    -0.071 NA 
HETATM   18  C   UNL     1      -9.069   6.848  67.619  1.00  0.00    -0.118 C  
BRANCH  11  19
HETATM   19  C   UNL     1     -10.135  10.765  66.392  1.00  0.00    -0.227 C  
HETATM   20  C   UNL     1     -11.092  12.116  68.389  1.00  0.00    -0.289 C  
HETATM   21  C   UNL     1     -11.329  11.578  66.962  1.00  0.00    -0.340 C  
HETATM   22  C   UNL     1     -11.714  12.714  65.979  1.00  0.00    -0.470 C  
HETATM   23  C   UNL     1     -10.050  13.217  68.533  1.00  0.00    -0.208 C  
BRANCH  22  24
HETATM   24  C   UNL     1     -12.115  12.257  64.565  1.00  0.00    -0.462 C  
BRANCH  24  25
HETATM   25  C   UNL     1     -12.059  13.369  63.517  1.00  0.00    -0.497 C  
HETATM   26  C   UNL     1     -12.265  14.740  64.143  1.00  0.00    -0.321 C  
ENDBRANCH  24  25
ENDBRANCH  22  24
ENDBRANCH  11  19
ENDBRANCH   7   9
ENDBRANCH   3   4
ENDBRANCH   2   3
TORSDOF 6
ENDMDL
MODEL       20
REMARK 921   NORMALIZED FREE ENERGY PREDICTED BY IDOCK:   -5.04 KCAL/MOL
REMARK 922        TOTAL FREE ENERGY PREDICTED BY IDOCK:   -7.59 KCAL/MOL
REMARK 923 INTER-LIGAND FREE ENERGY PREDICTED BY IDOCK:   -7.43 KCAL/MOL
REMARK 924 INTRA-LIGAND FREE ENERGY PREDICTED BY IDOCK:   -0.16 KCAL/MOL
REMARK 927      BINDING AFFINITY PREDICTED BY RF-SCORE:    0.00 PKD
ROOT
HETATM    1  C   UNL     1      -9.870  10.343  64.391  1.00  0.00    -0.395 C  
HETATM    2  C   UNL     1      -9.757   9.851  65.827  1.00  0.00    -0.332 C  
ENDROOT
BRANCH   2   3
HETATM    3  C   UNL     1      -8.795   8.671  65.913  1.00  0.00    -0.221 C  
BRANCH   3   4
HETATM    4  C   UNL     1      -8.768   8.054  67.313  1.00  0.00    -0.132 C  
HETATM    5  C   UNL     1     -10.180   7.735  67.842  1.00  0.00    -0.259 C  
HETATM    6  C   UNL     1     -10.998   6.771  66.948  1.00  0.00    -0.370 C  
HETATM    7  C   UNL     1     -10.136   7.194  69.290  1.00  0.00    -0.176 C  
HETATM    8  C   UNL     1     -10.456   5.353  66.851  1.00  0.00    -0.337 C  
BRANCH   7   9
HETATM    9  N   UNL     1      -9.600   8.105  70.309  1.00  0.00    -0.170 NA 
HETATM   10  C   UNL     1     -10.354   9.350  70.439  1.00  0.00    -0.262 C  
HETATM   11  N   UNL     1     -11.717   9.093  70.911  1.00  0.00    -0.284 NA 
HETATM   12  C   UNL     1     -11.658   8.531  72.283  1.00  0.00    -0.374 C  
HETATM   13  H1  UNL     1      -9.885   6.178  73.947  1.00  0.00     0.000 HD 
HETATM   14  C   UNL     1     -10.785   7.253  72.425  1.00  0.00    -0.246 C  
HETATM   15  H2  UNL     1     -11.295   6.976  74.436  1.00  0.00     0.000 HD 
HETATM   16  C   UNL     1     -11.556   6.000  71.976  1.00  0.00    -0.333 C  
HETATM   17  N   UNL     1     -10.458   7.017  73.854  1.00  0.00    -0.365 NA 
HETATM   18  C   UNL     1      -9.464   7.469  71.631  1.00  0.00    -0.149 C  
BRANCH  11  19
HETATM   19  C   UNL     1     -12.513  10.340  70.965  1.00  0.00    -0.384 C  
HETATM   20  C   UNL     1     -11.112  11.659  69.226  1.00  0.00    -0.291 C  
HETATM   21  C   UNL     1     -11.812  11.676  70.601  1.00  0.00    -0.238 C  
HETATM   22  C   UNL     1     -12.817  12.852  70.716  1.00  0.00    -0.128 C  
HETATM   23  C   UNL     1     -12.020  11.605  68.005  1.00  0.00    -0.187 C  
BRANCH  22  24
HETATM   24  C   UNL     1     -13.455  13.042  72.104  1.00  0.00    -0.638 C  
BRANCH  24  25
HETATM   25  C   UNL     1     -14.000  14.450  72.346  1.00  0.00    -0.585 C  
HETATM   26  C   UNL     1     -12.919  15.388  72.864  1.00  0.00    -0.577 C  
ENDBRANCH  24  25
ENDBRANCH  22  24
ENDBRANCH  11  19
ENDBRANCH   7   9
ENDBRANCH   3   4
ENDBRANCH   2   3
TORSDOF 6
ENDMDL
MODEL       21
REMARK 921   NORMALIZED FREE ENERGY PREDICTED BY IDOCK:   -5.01 KCAL/MOL
REMARK 922        TOTAL FREE ENERGY PREDICTED BY IDOCK:   -7.56 KCAL/MOL
REMARK 923 INTER-LIGAND FREE ENERGY PREDICTED BY IDOCK:   -6.50 KCAL/MOL
REMARK 924 INTRA-LIGAND FREE ENERGY PREDICTED BY IDOCK:   -1.05 KCAL/MOL
REMARK 927      BINDING AFFINITY PREDICTED BY RF-SCORE:    0.00 PKD
ROOT
HETATM    1  C   UNL     1     -10.647   5.475  66.629  1.00  0.00    -0.365 C  
HETATM    2  C   UNL     1     -10.384   6.066  68.007  1.00  0.00    -0.250 C  
ENDROOT
BRANCH   2   3
HETATM    3  C   UNL     1     -10.562   7.581  67.981  1.00  0.00    -0.217 C  
BRANCH   3   4
HETATM    4  C   UNL     1      -9.221   8.317  67.999  1.00  0.00    -0.142 C  
HETATM    5  C   UNL     1      -9.288   9.641  68.785  1.00  0.00    -0.148 C  
HETATM    6  C   UNL     1      -9.731   9.490  70.261  1.00  0.00    -0.314 C  
HETATM    7  C   UNL     1      -7.948  10.412  68.718  1.00  0.00    -0.122 C  
HETATM    8  C   UNL     1      -8.764   8.731  71.158  1.00  0.00    -0.265 C  
BRANCH   7   9
HETATM    9  N   UNL     1      -7.512  10.841  67.384  1.00  0.00    -0.096 NA 
HETATM   10  C   UNL     1      -8.547  11.539  66.623  1.00  0.00    -0.176 C  
HETATM   11  N   UNL     1      -8.916  12.800  67.271  1.00  0.00    -0.191 NA 
HETATM   12  C   UNL     1      -7.747  13.713  67.261  1.00  0.00    -0.074 C  
HETATM   13  H1  UNL     1      -4.431  13.535  67.913  1.00  0.00     0.000 HD 
HETATM   14  C   UNL     1      -6.459  13.127  67.907  1.00  0.00    -0.138 C  
HETATM   15  H2  UNL     1      -5.388  14.912  67.692  1.00  0.00     0.000 HD 
HETATM   16  C   UNL     1      -6.503  13.247  69.440  1.00  0.00    -0.097 C  
HETATM   17  N   UNL     1      -5.275  13.919  67.488  1.00  0.00    -0.335 NA 
HETATM   18  C   UNL     1      -6.288  11.660  67.418  1.00  0.00    -0.100 C  
BRANCH  11  19
HETATM   19  C   UNL     1     -10.022  13.471  66.553  1.00  0.00    -0.287 C  
HETATM   20  C   UNL     1     -11.905  12.777  68.196  1.00  0.00    -0.372 C  
HETATM   21  C   UNL     1     -11.459  12.909  66.725  1.00  0.00    -0.391 C  
HETATM   22  C   UNL     1     -12.462  13.755  65.898  1.00  0.00    -0.512 C  
HETATM   23  C   UNL     1     -12.139  14.078  68.953  1.00  0.00    -0.351 C  
BRANCH  22  24
HETATM   24  C   UNL     1     -12.182  13.819  64.386  1.00  0.00    -0.440 C  
BRANCH  24  25
HETATM   25  C   UNL     1     -12.278  12.464  63.682  1.00  0.00    -0.653 C  
HETATM   26  C   UNL     1     -10.901  11.899  63.365  1.00  0.00    -0.469 C  
ENDBRANCH  24  25
ENDBRANCH  22  24
ENDBRANCH  11  19
ENDBRANCH   7   9
ENDBRANCH   3   4
ENDBRANCH   2   3
TORSDOF 6
ENDMDL
MODEL       22
REMARK 921   NORMALIZED FREE ENERGY PREDICTED BY IDOCK:   -5.01 KCAL/MOL
REMARK 922        TOTAL FREE ENERGY PREDICTED BY IDOCK:   -7.55 KCAL/MOL
REMARK 923 INTER-LIGAND FREE ENERGY PREDICTED BY IDOCK:   -7.06 KCAL/MOL
REMARK 924 INTRA-LIGAND FREE ENERGY PREDICTED BY IDOCK:   -0.50 KCAL/MOL
REMARK 927      BINDING AFFINITY PREDICTED BY RF-SCORE:    0.00 PKD
ROOT
HETATM    1  C   UNL     1     -12.823   9.983  71.423  1.00  0.00    -0.519 C  
HETATM    2  C   UNL     1     -12.930  11.497  71.531  1.00  0.00    -0.485 C  
ENDROOT
BRANCH   2   3
HETATM    3  C   UNL     1     -12.430  12.161  70.253  1.00  0.00    -0.164 C  
BRANCH   3   4
HETATM    4  C   UNL     1     -11.454  13.303  70.542  1.00  0.00     0.318 C  
HETATM    5  C   UNL     1     -11.859  14.614  69.839  1.00  0.00    -0.372 C  
HETATM    6  C   UNL     1     -13.270  15.132  70.210  1.00  0.00    -0.051 C  
HETATM    7  C   UNL     1     -10.814  15.731  70.074  1.00  0.00    -0.342 C  
HETATM    8  C   UNL     1     -13.444  15.574  71.656  1.00  0.00    -0.584 C  
BRANCH   7   9
HETATM    9  N   UNL     1      -9.465  15.479  69.552  1.00  0.00    -0.270 NA 
HETATM   10  C   UNL     1      -9.409  14.402  68.564  1.00  0.00    -0.204 C  
HETATM   11  N   UNL     1     -10.168  14.751  67.361  1.00  0.00    -0.236 NA 
HETATM   12  C   UNL     1      -9.527  15.915  66.702  1.00  0.00    -0.241 C  
HETATM   13  H1  UNL     1      -8.243  18.911  67.613  1.00  0.00     0.000 HD 
HETATM   14  C   UNL     1      -9.350  17.163  67.613  1.00  0.00    -0.239 C  
HETATM   15  H2  UNL     1      -8.602  18.349  66.059  1.00  0.00     0.000 HD 
HETATM   16  C   UNL     1     -10.655  17.972  67.706  1.00  0.00    -0.409 C  
HETATM   17  N   UNL     1      -8.358  18.092  67.015  1.00  0.00    -0.234 NA 
HETATM   18  C   UNL     1      -8.830  16.688  69.001  1.00  0.00    -0.201 C  
BRANCH  11  19
HETATM   19  C   UNL     1     -10.185  13.633  66.392  1.00  0.00    -0.292 C  
HETATM   20  C   UNL     1     -12.641  13.952  65.618  1.00  0.00    -0.553 C  
HETATM   21  C   UNL     1     -11.547  12.961  66.069  1.00  0.00    -0.424 C  
HETATM   22  C   UNL     1     -11.345  11.824  65.034  1.00  0.00    -0.288 C  
HETATM   23  C   UNL     1     -12.444  14.604  64.256  1.00  0.00    -0.267 C  
BRANCH  22  24
HETATM   24  C   UNL     1     -10.381  10.704  65.464  1.00  0.00    -0.297 C  
BRANCH  24  25
HETATM   25  C   UNL     1      -9.420  10.258  64.360  1.00  0.00    -0.360 C  
HETATM   26  C   UNL     1      -9.855  10.776  62.997  1.00  0.00    -0.344 C  
ENDBRANCH  24  25
ENDBRANCH  22  24
ENDBRANCH  11  19
ENDBRANCH   7   9
ENDBRANCH   3   4
ENDBRANCH   2   3
TORSDOF 6
ENDMDL
MODEL       23
REMARK 921   NORMALIZED FREE ENERGY PREDICTED BY IDOCK:   -5.00 KCAL/MOL
REMARK 922        TOTAL FREE ENERGY PREDICTED BY IDOCK:   -7.54 KCAL/MOL
REMARK 923 INTER-LIGAND FREE ENERGY PREDICTED BY IDOCK:   -6.74 KCAL/MOL
REMARK 924 INTRA-LIGAND FREE ENERGY PREDICTED BY IDOCK:   -0.80 KCAL/MOL
REMARK 927      BINDING AFFINITY PREDICTED BY RF-SCORE:    0.00 PKD
ROOT
HETATM    1  C   UNL     1     -10.455  17.761  66.078  1.00  0.00    -0.286 C  
HETATM    2  C   UNL     1     -10.315  16.296  66.465  1.00  0.00    -0.310 C  
ENDROOT
BRANCH   2   3
HETATM    3  C   UNL     1     -10.673  15.396  65.287  1.00  0.00    -0.439 C  
BRANCH   3   4
HETATM    4  C   UNL     1     -10.121  13.979  65.459  1.00  0.00    -0.343 C  
HETATM    5  C   UNL     1     -11.162  13.011  66.054  1.00  0.00    -0.320 C  
HETATM    6  C   UNL     1     -12.465  12.882  65.227  1.00  0.00    -0.552 C  
HETATM    7  C   UNL     1     -10.559  11.608  66.300  1.00  0.00    -0.258 C  
HETATM    8  C   UNL     1     -12.306  12.245  63.854  1.00  0.00    -0.606 C  
BRANCH   7   9
HETATM    9  N   UNL     1      -9.453  11.536  67.263  1.00  0.00    -0.168 NA 
HETATM   10  C   UNL     1      -9.606  10.474  68.256  1.00  0.00    -0.158 C  
HETATM   11  N   UNL     1      -9.577   9.154  67.622  1.00  0.00    -0.146 NA 
HETATM   12  C   UNL     1      -8.240   8.932  67.020  1.00  0.00    -0.106 C  
HETATM   13  H1  UNL     1      -6.029  10.663  65.131  1.00  0.00     0.000 HD 
HETATM   14  C   UNL     1      -7.790  10.027  66.012  1.00  0.00    -0.119 C  
HETATM   15  H2  UNL     1      -6.033   9.012  65.499  1.00  0.00     0.000 HD 
HETATM   16  C   UNL     1      -8.419   9.799  64.627  1.00  0.00    -0.179 C  
HETATM   17  N   UNL     1      -6.324   9.944  65.792  1.00  0.00    -0.078 NA 
HETATM   18  C   UNL     1      -8.136  11.420  66.613  1.00  0.00    -0.155 C  
BRANCH  11  19
HETATM   19  C   UNL     1      -9.816   8.077  68.609  1.00  0.00    -0.174 C  
HETATM   20  C   UNL     1     -11.071   6.475  67.000  1.00  0.00    -0.411 C  
HETATM   21  C   UNL     1     -11.033   7.138  68.393  1.00  0.00    -0.080 C  
HETATM   22  C   UNL     1     -11.098   6.084  69.529  1.00  0.00    -0.468 C  
HETATM   23  C   UNL     1      -9.998   5.432  66.718  1.00  0.00    -0.217 C  
BRANCH  22  24
HETATM   24  C   UNL     1     -11.217   6.655  70.954  1.00  0.00    -0.352 C  
BRANCH  24  25
HETATM   25  C   UNL     1     -12.580   7.280  71.256  1.00  0.00    -0.402 C  
HETATM   26  C   UNL     1     -12.437   8.635  71.934  1.00  0.00    -0.412 C  
ENDBRANCH  24  25
ENDBRANCH  22  24
ENDBRANCH  11  19
ENDBRANCH   7   9
ENDBRANCH   3   4
ENDBRANCH   2   3
TORSDOF 6
ENDMDL
MODEL       24
REMARK 921   NORMALIZED FREE ENERGY PREDICTED BY IDOCK:   -4.98 KCAL/MOL
REMARK 922        TOTAL FREE ENERGY PREDICTED BY IDOCK:   -7.52 KCAL/MOL
REMARK 923 INTER-LIGAND FREE ENERGY PREDICTED BY IDOCK:   -6.80 KCAL/MOL
REMARK 924 INTRA-LIGAND FREE ENERGY PREDICTED BY IDOCK:   -0.71 KCAL/MOL
REMARK 927      BINDING AFFINITY PREDICTED BY RF-SCORE:    0.00 PKD
ROOT
HETATM    1  C   UNL     1     -10.400  19.774  66.714  1.00  0.00    -0.604 C  
HETATM    2  C   UNL     1     -10.417  19.348  68.175  1.00  0.00    -0.476 C  
ENDROOT
BRANCH   2   3
HETATM    3  C   UNL     1      -9.606  18.071  68.368  1.00  0.00    -0.338 C  
BRANCH   3   4
HETATM    4  C   UNL     1     -10.207  16.888  67.606  1.00  0.00    -0.306 C  
HETATM    5  C   UNL     1     -10.059  15.559  68.372  1.00  0.00    -0.214 C  
HETATM    6  C   UNL     1     -10.705  15.555  69.779  1.00  0.00    -0.301 C  
HETATM    7  C   UNL     1     -10.593  14.364  67.548  1.00  0.00    -0.265 C  
HETATM    8  C   UNL     1     -12.222  15.674  69.801  1.00  0.00    -0.293 C  
BRANCH   7   9
HETATM    9  N   UNL     1      -9.907  14.091  66.280  1.00  0.00    -0.296 NA 
HETATM   10  C   UNL     1      -9.484  12.701  66.128  1.00  0.00    -0.175 C  
HETATM   11  N   UNL     1     -10.639  11.801  66.078  1.00  0.00    -0.251 NA 
HETATM   12  C   UNL     1     -11.435  12.098  64.862  1.00  0.00    -0.325 C  
HETATM   13  H1  UNL     1     -12.606  14.830  63.246  1.00  0.00     0.000 HD 
HETATM   14  C   UNL     1     -11.894  13.577  64.731  1.00  0.00    -0.381 C  
HETATM   15  H2  UNL     1     -13.017  13.207  63.003  1.00  0.00     0.000 HD 
HETATM   16  C   UNL     1     -13.146  13.848  65.582  1.00  0.00    -0.205 C  
HETATM   17  N   UNL     1     -12.305  13.859  63.332  1.00  0.00    -0.752 NA 
HETATM   18  C   UNL     1     -10.696  14.499  65.104  1.00  0.00    -0.406 C  
BRANCH  11  19
HETATM   19  C   UNL     1     -10.216  10.384  66.009  1.00  0.00    -0.228 C  
HETATM   20  C   UNL     1      -9.217  10.258  68.400  1.00  0.00    -0.136 C  
HETATM   21  C   UNL     1      -9.033   9.926  66.905  1.00  0.00    -0.154 C  
HETATM   22  C   UNL     1      -8.756   8.415  66.685  1.00  0.00    -0.144 C  
HETATM   23  C   UNL     1     -10.301   9.483  69.138  1.00  0.00    -0.218 C  
BRANCH  22  24
HETATM   24  C   UNL     1      -8.411   8.011  65.240  1.00  0.00    -0.151 C  
BRANCH  24  25
HETATM   25  C   UNL     1      -7.064   8.548  64.754  1.00  0.00    -0.080 C  
HETATM   26  C   UNL     1      -7.236   9.549  63.621  1.00  0.00    -0.106 C  
ENDBRANCH  24  25
ENDBRANCH  22  24
ENDBRANCH  11  19
ENDBRANCH   7   9
ENDBRANCH   3   4
ENDBRANCH   2   3
TORSDOF 6
ENDMDL
MODEL       25
REMARK 921   NORMALIZED FREE ENERGY PREDICTED BY IDOCK:   -4.93 KCAL/MOL
REMARK 922        TOTAL FREE ENERGY PREDICTED BY IDOCK:   -7.45 KCAL/MOL
REMARK 923 INTER-LIGAND FREE ENERGY PREDICTED BY IDOCK:   -6.66 KCAL/MOL
REMARK 924 INTRA-LIGAND FREE ENERGY PREDICTED BY IDOCK:   -0.79 KCAL/MOL
REMARK 927      BINDING AFFINITY PREDICTED BY RF-SCORE:    0.00 PKD
ROOT
HETATM    1  C   UNL     1      -7.326   6.391  64.845  1.00  0.00    -0.079 C  
HETATM    2  C   UNL     1      -6.760   7.426  65.808  1.00  0.00    -0.052 C  
ENDROOT
BRANCH   2   3
HETATM    3  C   UNL     1      -7.799   7.805  66.857  1.00  0.00    -0.107 C  
BRANCH   3   4
HETATM    4  C   UNL     1      -8.609   9.036  66.444  1.00  0.00    -0.136 C  
HETATM    5  C   UNL     1      -8.286  10.269  67.309  1.00  0.00    -0.121 C  
HETATM    6  C   UNL     1      -6.797  10.692  67.293  1.00  0.00    -0.079 C  
HETATM    7  C   UNL     1      -9.176  11.477  66.934  1.00  0.00    -0.176 C  
HETATM    8  C   UNL     1      -6.277  11.198  65.955  1.00  0.00    -0.023 C  
BRANCH   7   9
HETATM    9  N   UNL     1     -10.621  11.306  67.130  1.00  0.00    -0.223 NA 
HETATM   10  C   UNL     1     -11.202  12.254  68.078  1.00  0.00    -0.269 C  
HETATM   11  N   UNL     1     -11.098  13.628  67.579  1.00  0.00    -0.271 NA 
HETATM   12  C   UNL     1     -11.915  13.761  66.348  1.00  0.00    -0.438 C  
HETATM   13  H1  UNL     1     -12.443  12.018  63.496  1.00  0.00     0.000 HD 
HETATM   14  C   UNL     1     -11.565  12.747  65.223  1.00  0.00    -0.344 C  
HETATM   15  H2  UNL     1     -12.906  13.604  63.862  1.00  0.00     0.000 HD 
HETATM   16  C   UNL     1     -10.336  13.208  64.422  1.00  0.00    -0.390 C  
HETATM   17  N   UNL     1     -12.673  12.683  64.235  1.00  0.00    -0.712 NA 
HETATM   18  C   UNL     1     -11.378  11.343  65.867  1.00  0.00    -0.020 C  
BRANCH  11  19
HETATM   19  C   UNL     1     -11.608  14.601  68.570  1.00  0.00    -0.317 C  
HETATM   20  C   UNL     1      -9.620  16.259  68.405  1.00  0.00    -0.216 C  
HETATM   21  C   UNL     1     -10.581  15.483  69.330  1.00  0.00    -0.250 C  
HETATM   22  C   UNL     1     -11.319  16.432  70.311  1.00  0.00    -0.207 C  
HETATM   23  C   UNL     1     -10.233  17.382  67.580  1.00  0.00    -0.342 C  
BRANCH  22  24
HETATM   24  C   UNL     1     -12.188  15.735  71.374  1.00  0.00    -0.500 C  
BRANCH  24  25
HETATM   25  C   UNL     1     -11.967  16.261  72.793  1.00  0.00    -0.636 C  
HETATM   26  C   UNL     1     -12.439  15.263  73.840  1.00  0.00    -0.752 C  
ENDBRANCH  24  25
ENDBRANCH  22  24
ENDBRANCH  11  19
ENDBRANCH   7   9
ENDBRANCH   3   4
ENDBRANCH   2   3
TORSDOF 6
ENDMDL
MODEL       26
REMARK 921   NORMALIZED FREE ENERGY PREDICTED BY IDOCK:   -4.90 KCAL/MOL
REMARK 922        TOTAL FREE ENERGY PREDICTED BY IDOCK:   -7.41 KCAL/MOL
REMARK 923 INTER-LIGAND FREE ENERGY PREDICTED BY IDOCK:   -6.61 KCAL/MOL
REMARK 924 INTRA-LIGAND FREE ENERGY PREDICTED BY IDOCK:   -0.81 KCAL/MOL
REMARK 927      BINDING AFFINITY PREDICTED BY RF-SCORE:    0.00 PKD
ROOT
HETATM    1  C   UNL     1     -10.623  17.559  67.854  1.00  0.00    -0.390 C  
HETATM    2  C   UNL     1      -9.455  16.960  68.624  1.00  0.00    -0.268 C  
ENDROOT
BRANCH   2   3
HETATM    3  C   UNL     1      -9.889  15.692  69.351  1.00  0.00    -0.284 C  
BRANCH   3   4
HETATM    4  C   UNL     1      -9.536  14.429  68.563  1.00  0.00    -0.212 C  
HETATM    5  C   UNL     1     -10.668  13.384  68.590  1.00  0.00    -0.275 C  
HETATM    6  C   UNL     1     -12.022  13.889  68.034  1.00  0.00    -0.390 C  
HETATM    7  C   UNL     1     -10.259  12.082  67.862  1.00  0.00    -0.196 C  
HETATM    8  C   UNL     1     -12.036  14.216  66.548  1.00  0.00    -0.481 C  
BRANCH   7   9
HETATM    9  N   UNL     1      -9.120  11.350  68.431  1.00  0.00    -0.175 NA 
HETATM   10  C   UNL     1      -9.490  10.432  69.507  1.00  0.00    -0.139 C  
HETATM   11  N   UNL     1     -10.357   9.361  69.011  1.00  0.00    -0.205 NA 
HETATM   12  C   UNL     1      -9.599   8.533  68.041  1.00  0.00    -0.149 C  
HETATM   13  H1  UNL     1      -7.525   9.030  65.413  1.00  0.00     0.000 HD 
HETATM   14  C   UNL     1      -8.982   9.325  66.853  1.00  0.00    -0.130 C  
HETATM   15  H2  UNL     1      -8.280   7.597  65.902  1.00  0.00     0.000 HD 
HETATM   16  C   UNL     1     -10.030   9.595  65.761  1.00  0.00    -0.342 C  
HETATM   17  N   UNL     1      -7.930   8.510  66.192  1.00  0.00    -0.100 NA 
HETATM   18  C   UNL     1      -8.339  10.627  67.412  1.00  0.00    -0.119 C  
BRANCH  11  19
HETATM   19  C   UNL     1     -10.803   8.476  70.110  1.00  0.00    -0.233 C  
HETATM   20  C   UNL     1     -12.205  10.258  71.371  1.00  0.00    -0.481 C  
HETATM   21  C   UNL     1     -11.164   9.124  71.474  1.00  0.00    -0.430 C  
HETATM   22  C   UNL     1     -11.610   8.030  72.480  1.00  0.00    -0.464 C  
HETATM   23  C   UNL     1     -13.622   9.844  70.998  1.00  0.00    -0.168 C  
BRANCH  22  24
HETATM   24  C   UNL     1     -10.569   6.931  72.764  1.00  0.00    -0.270 C  
BRANCH  24  25
HETATM   25  C   UNL     1     -10.977   5.548  72.256  1.00  0.00    -0.296 C  
HETATM   26  C   UNL     1     -11.112   4.550  73.397  1.00  0.00    -0.408 C  
ENDBRANCH  24  25
ENDBRANCH  22  24
ENDBRANCH  11  19
ENDBRANCH   7   9
ENDBRANCH   3   4
ENDBRANCH   2   3
TORSDOF 6
ENDMDL
MODEL       27
REMARK 921   NORMALIZED FREE ENERGY PREDICTED BY IDOCK:   -4.89 KCAL/MOL
REMARK 922        TOTAL FREE ENERGY PREDICTED BY IDOCK:   -7.40 KCAL/MOL
REMARK 923 INTER-LIGAND FREE ENERGY PREDICTED BY IDOCK:   -6.42 KCAL/MOL
REMARK 924 INTRA-LIGAND FREE ENERGY PREDICTED BY IDOCK:   -0.98 KCAL/MOL
REMARK 927      BINDING AFFINITY PREDICTED BY RF-SCORE:    0.00 PKD
ROOT
HETATM    1  C   UNL     1     -10.249   4.923  71.964  1.00  0.00    -0.263 C  
HETATM    2  C   UNL     1     -11.350   5.747  72.616  1.00  0.00    -0.349 C  
ENDROOT
BRANCH   2   3
HETATM    3  C   UNL     1     -12.084   6.579  71.570  1.00  0.00    -0.363 C  
BRANCH   3   4
HETATM    4  C   UNL     1     -11.181   6.946  70.391  1.00  0.00    -0.359 C  
HETATM    5  C   UNL     1     -10.826   8.446  70.367  1.00  0.00    -0.246 C  
HETATM    6  C   UNL     1     -10.117   8.958  71.645  1.00  0.00    -0.411 C  
HETATM    7  C   UNL     1      -9.986   8.812  69.121  1.00  0.00    -0.191 C  
HETATM    8  C   UNL     1      -8.728   8.389  71.893  1.00  0.00    -0.258 C  
BRANCH   7   9
HETATM    9  N   UNL     1     -10.630   8.605  67.819  1.00  0.00    -0.218 NA 
HETATM   10  C   UNL     1     -10.766   9.827  67.029  1.00  0.00    -0.166 C  
HETATM   11  N   UNL     1      -9.453  10.367  66.665  1.00  0.00    -0.161 NA 
HETATM   12  C   UNL     1      -8.762   9.405  65.773  1.00  0.00    -0.158 C  
HETATM   13  H1  UNL     1      -8.207   6.069  65.644  1.00  0.00     0.000 HD 
HETATM   14  C   UNL     1      -8.616   7.970  66.353  1.00  0.00    -0.145 C  
HETATM   15  H2  UNL     1      -7.480   7.293  64.730  1.00  0.00     0.000 HD 
HETATM   16  C   UNL     1      -7.426   7.881  67.323  1.00  0.00    -0.093 C  
HETATM   17  N   UNL     1      -8.303   7.011  65.263  1.00  0.00    -0.126 NA 
HETATM   18  C   UNL     1      -9.967   7.566  67.011  1.00  0.00    -0.234 C  
BRANCH  11  19
HETATM   19  C   UNL     1      -9.581  11.650  65.938  1.00  0.00    -0.229 C  
HETATM   20  C   UNL     1      -9.455  13.186  68.024  1.00  0.00    -0.220 C  
HETATM   21  C   UNL     1     -10.172  12.869  66.695  1.00  0.00    -0.251 C  
HETATM   22  C   UNL     1     -10.214  14.106  65.759  1.00  0.00    -0.347 C  
HETATM   23  C   UNL     1      -8.034  13.725  67.915  1.00  0.00    -0.157 C  
BRANCH  22  24
HETATM   24  C   UNL     1     -11.040  13.932  64.472  1.00  0.00    -0.374 C  
BRANCH  24  25
HETATM   25  C   UNL     1     -12.355  13.179  64.680  1.00  0.00    -0.463 C  
HETATM   26  C   UNL     1     -12.510  12.037  63.685  1.00  0.00    -0.637 C  
ENDBRANCH  24  25
ENDBRANCH  22  24
ENDBRANCH  11  19
ENDBRANCH   7   9
ENDBRANCH   3   4
ENDBRANCH   2   3
TORSDOF 6
ENDMDL
MODEL       28
REMARK 921   NORMALIZED FREE ENERGY PREDICTED BY IDOCK:   -4.89 KCAL/MOL
REMARK 922        TOTAL FREE ENERGY PREDICTED BY IDOCK:   -7.39 KCAL/MOL
REMARK 923 INTER-LIGAND FREE ENERGY PREDICTED BY IDOCK:   -6.08 KCAL/MOL
REMARK 924 INTRA-LIGAND FREE ENERGY PREDICTED BY IDOCK:   -1.31 KCAL/MOL
REMARK 927      BINDING AFFINITY PREDICTED BY RF-SCORE:    0.00 PKD
ROOT
HETATM    1  C   UNL     1      -7.938   9.818  66.042  1.00  0.00    -0.111 C  
HETATM    2  C   UNL     1      -7.858   9.626  67.550  1.00  0.00    -0.095 C  
ENDROOT
BRANCH   2   3
HETATM    3  C   UNL     1      -7.809   8.142  67.898  1.00  0.00    -0.122 C  
BRANCH   3   4
HETATM    4  C   UNL     1      -8.779   7.785  69.027  1.00  0.00    -0.135 C  
HETATM    5  C   UNL     1     -10.241   8.120  68.673  1.00  0.00    -0.226 C  
HETATM    6  C   UNL     1     -10.769   7.421  67.397  1.00  0.00    -0.348 C  
HETATM    7  C   UNL     1     -11.193   7.833  69.859  1.00  0.00    -0.062 C  
HETATM    8  C   UNL     1     -10.888   5.906  67.484  1.00  0.00    -0.335 C  
BRANCH   7   9
HETATM    9  N   UNL     1     -10.962   8.612  71.081  1.00  0.00    -0.246 NA 
HETATM   10  C   UNL     1     -10.919  10.056  70.859  1.00  0.00    -0.267 C  
HETATM   11  N   UNL     1     -12.214  10.555  70.390  1.00  0.00    -0.311 NA 
HETATM   12  C   UNL     1     -13.226  10.358  71.456  1.00  0.00    -0.386 C  
HETATM   13  H1  UNL     1     -14.154   7.911  73.601  1.00  0.00     0.000 HD 
HETATM   14  C   UNL     1     -13.360   8.894  71.962  1.00  0.00    -0.421 C  
HETATM   15  H2  UNL     1     -14.968   9.345  73.225  1.00  0.00     0.000 HD 
HETATM   16  C   UNL     1     -14.236   8.057  71.016  1.00  0.00    -0.118 C  
HETATM   17  N   UNL     1     -14.066   8.871  73.269  1.00  0.00    -0.117 NA 
HETATM   18  C   UNL     1     -11.932   8.305  72.147  1.00  0.00    -0.369 C  
BRANCH  11  19
HETATM   19  C   UNL     1     -12.154  12.001  70.082  1.00  0.00    -0.298 C  
HETATM   20  C   UNL     1     -10.758  11.783  67.907  1.00  0.00    -0.241 C  
HETATM   21  C   UNL     1     -10.958  12.526  69.244  1.00  0.00    -0.138 C  
HETATM   22  C   UNL     1     -11.089  14.058  69.033  1.00  0.00    -0.296 C  
HETATM   23  C   UNL     1     -11.823  12.007  66.842  1.00  0.00    -0.250 C  
BRANCH  22  24
HETATM   24  C   UNL     1     -11.141  14.900  70.320  1.00  0.00    -0.228 C  
BRANCH  24  25
HETATM   25  C   UNL     1     -12.448  15.675  70.498  1.00  0.00    -0.440 C  
HETATM   26  C   UNL     1     -13.293  15.098  71.623  1.00  0.00    -0.521 C  
ENDBRANCH  24  25
ENDBRANCH  22  24
ENDBRANCH  11  19
ENDBRANCH   7   9
ENDBRANCH   3   4
ENDBRANCH   2   3
TORSDOF 6
ENDMDL
MODEL       29
REMARK 921   NORMALIZED FREE ENERGY PREDICTED BY IDOCK:   -4.83 KCAL/MOL
REMARK 922        TOTAL FREE ENERGY PREDICTED BY IDOCK:   -7.31 KCAL/MOL
REMARK 923 INTER-LIGAND FREE ENERGY PREDICTED BY IDOCK:   -6.51 KCAL/MOL
REMARK 924 INTRA-LIGAND FREE ENERGY PREDICTED BY IDOCK:   -0.80 KCAL/MOL
REMARK 927      BINDING AFFINITY PREDICTED BY RF-SCORE:    0.00 PKD
ROOT
HETATM    1  C   UNL     1      -9.271  15.923  65.727  1.00  0.00    -0.241 C  
HETATM    2  C   UNL     1     -10.706  16.325  65.415  1.00  0.00    -0.342 C  
ENDROOT
BRANCH   2   3
HETATM    3  C   UNL     1     -11.460  15.163  64.779  1.00  0.00    -0.383 C  
BRANCH   3   4
HETATM    4  C   UNL     1     -10.573  13.927  64.610  1.00  0.00    -0.432 C  
HETATM    5  C   UNL     1     -11.192  12.668  65.248  1.00  0.00    -0.335 C  
HETATM    6  C   UNL     1     -12.589  12.290  64.698  1.00  0.00    -0.376 C  
HETATM    7  C   UNL     1     -10.242  11.451  65.143  1.00  0.00    -0.277 C  
HETATM    8  C   UNL     1     -12.621  11.856  63.240  1.00  0.00    -0.473 C  
BRANCH   7   9
HETATM    9  N   UNL     1      -8.952  11.572  65.833  1.00  0.00    -0.185 NA 
HETATM   10  C   UNL     1      -8.860  12.740  66.707  1.00  0.00    -0.159 C  
HETATM   11  N   UNL     1      -9.818  12.649  67.811  1.00  0.00    -0.206 NA 
HETATM   12  C   UNL     1      -9.460  11.494  68.671  1.00  0.00    -0.141 C  
HETATM   13  H1  UNL     1      -8.551   8.260  68.263  1.00  0.00     0.000 HD 
HETATM   14  C   UNL     1      -9.361  10.134  67.924  1.00  0.00    -0.141 C  
HETATM   15  H2  UNL     1      -9.021   9.050  69.683  1.00  0.00     0.000 HD 
HETATM   16  C   UNL     1     -10.752   9.511  67.717  1.00  0.00    -0.302 C  
HETATM   17  N   UNL     1      -8.615   9.153  68.753  1.00  0.00    -0.130 NA 
HETATM   18  C   UNL     1      -8.593  10.360  66.590  1.00  0.00    -0.125 C  
BRANCH  11  19
HETATM   19  C   UNL     1      -9.790  13.867  68.651  1.00  0.00    -0.175 C  
HETATM   20  C   UNL     1     -12.323  13.898  69.210  1.00  0.00    -0.201 C  
HETATM   21  C   UNL     1     -11.088  14.711  68.767  1.00  0.00    -0.274 C  
HETATM   22  C   UNL     1     -10.845  15.932  69.692  1.00  0.00    -0.314 C  
HETATM   23  C   UNL     1     -12.320  13.391  70.646  1.00  0.00    -0.423 C  
BRANCH  22  24
HETATM   24  C   UNL     1      -9.725  16.888  69.243  1.00  0.00    -0.110 C  
BRANCH  24  25
HETATM   25  C   UNL     1     -10.236  18.206  68.658  1.00  0.00    -0.382 C  
HETATM   26  C   UNL     1      -9.090  19.104  68.217  1.00  0.00    -0.385 C  
ENDBRANCH  24  25
ENDBRANCH  22  24
ENDBRANCH  11  19
ENDBRANCH   7   9
ENDBRANCH   3   4
ENDBRANCH   2   3
TORSDOF 6
ENDMDL
MODEL       30
REMARK 921   NORMALIZED FREE ENERGY PREDICTED BY IDOCK:   -4.83 KCAL/MOL
REMARK 922        TOTAL FREE ENERGY PREDICTED BY IDOCK:   -7.31 KCAL/MOL
REMARK 923 INTER-LIGAND FREE ENERGY PREDICTED BY IDOCK:   -6.42 KCAL/MOL
REMARK 924 INTRA-LIGAND FREE ENERGY PREDICTED BY IDOCK:   -0.89 KCAL/MOL
REMARK 927      BINDING AFFINITY PREDICTED BY RF-SCORE:    0.00 PKD
ROOT
HETATM    1  C   UNL     1     -11.889  14.689  68.600  1.00  0.00    -0.346 C  
HETATM    2  C   UNL     1     -10.847  15.381  67.733  1.00  0.00    -0.302 C  
ENDROOT
BRANCH   2   3
HETATM    3  C   UNL     1     -11.040  15.008  66.267  1.00  0.00    -0.334 C  
BRANCH   3   4
HETATM    4  C   UNL     1     -10.193  13.798  65.866  1.00  0.00    -0.322 C  
HETATM    5  C   UNL     1     -10.952  12.468  66.034  1.00  0.00    -0.318 C  
HETATM    6  C   UNL     1     -12.270  12.374  65.226  1.00  0.00    -0.418 C  
HETATM    7  C   UNL     1     -10.051  11.253  65.707  1.00  0.00    -0.247 C  
HETATM    8  C   UNL     1     -12.108  12.365  63.713  1.00  0.00    -0.618 C  
BRANCH   7   9
HETATM    9  N   UNL     1      -8.872  11.071  66.562  1.00  0.00    -0.163 NA 
HETATM   10  C   UNL     1      -9.084  10.137  67.666  1.00  0.00    -0.137 C  
HETATM   11  N   UNL     1      -9.344   8.784  67.169  1.00  0.00    -0.145 NA 
HETATM   12  C   UNL     1      -8.137   8.284  66.467  1.00  0.00    -0.105 C  
HETATM   13  H1  UNL     1      -5.898   9.441  64.209  1.00  0.00     0.000 HD 
HETATM   14  C   UNL     1      -7.629   9.197  65.315  1.00  0.00    -0.098 C  
HETATM   15  H2  UNL     1      -6.131   7.852  64.741  1.00  0.00     0.000 HD 
HETATM   16  C   UNL     1      -8.438   8.967  64.027  1.00  0.00    -0.175 C  
HETATM   17  N   UNL     1      -6.230   8.842  64.965  1.00  0.00    -0.064 NA 
HETATM   18  C   UNL     1      -7.672  10.674  65.803  1.00  0.00    -0.130 C  
BRANCH  11  19
HETATM   19  C   UNL     1      -9.644   7.851  68.278  1.00  0.00    -0.156 C  
HETATM   20  C   UNL     1     -11.074   6.191  66.888  1.00  0.00    -0.301 C  
HETATM   21  C   UNL     1     -10.941   7.002  68.194  1.00  0.00    -0.165 C  
HETATM   22  C   UNL     1     -11.062   6.094  69.446  1.00  0.00    -0.479 C  
HETATM   23  C   UNL     1     -10.100   5.034  66.708  1.00  0.00    -0.270 C  
BRANCH  22  24
HETATM   24  C   UNL     1     -11.093   6.831  70.796  1.00  0.00    -0.323 C  
BRANCH  24  25
HETATM   25  C   UNL     1     -12.504   7.148  71.295  1.00  0.00    -0.425 C  
HETATM   26  C   UNL     1     -12.651   8.616  71.667  1.00  0.00    -0.381 C  
ENDBRANCH  24  25
ENDBRANCH  22  24
ENDBRANCH  11  19
ENDBRANCH   7   9
ENDBRANCH   3   4
ENDBRANCH   2   3
TORSDOF 6
ENDMDL
MODEL       31
REMARK 921   NORMALIZED FREE ENERGY PREDICTED BY IDOCK:   -4.82 KCAL/MOL
REMARK 922        TOTAL FREE ENERGY PREDICTED BY IDOCK:   -7.30 KCAL/MOL
REMARK 923 INTER-LIGAND FREE ENERGY PREDICTED BY IDOCK:   -6.13 KCAL/MOL
REMARK 924 INTRA-LIGAND FREE ENERGY PREDICTED BY IDOCK:   -1.17 KCAL/MOL
REMARK 927      BINDING AFFINITY PREDICTED BY RF-SCORE:    0.00 PKD
ROOT
HETATM    1  C   UNL     1     -12.654  13.578  65.228  1.00  0.00    -0.517 C  
HETATM    2  C   UNL     1     -11.765  14.058  66.366  1.00  0.00    -0.407 C  
ENDROOT
BRANCH   2   3
HETATM    3  C   UNL     1     -11.544  12.939  67.379  1.00  0.00    -0.414 C  
BRANCH   3   4
HETATM    4  C   UNL     1     -10.097  12.441  67.378  1.00  0.00    -0.205 C  
HETATM    5  C   UNL     1      -9.996  10.934  67.072  1.00  0.00    -0.227 C  
HETATM    6  C   UNL     1     -10.611  10.511  65.716  1.00  0.00    -0.137 C  
HETATM    7  C   UNL     1      -8.535  10.433  67.161  1.00  0.00    -0.126 C  
HETATM    8  C   UNL     1      -9.904  11.052  64.481  1.00  0.00    -0.343 C  
BRANCH   7   9
HETATM    9  N   UNL     1      -7.888  10.547  68.474  1.00  0.00    -0.105 NA 
HETATM   10  C   UNL     1      -8.713  10.066  69.580  1.00  0.00    -0.194 C  
HETATM   11  N   UNL     1      -8.965   8.628  69.462  1.00  0.00    -0.143 NA 
HETATM   12  C   UNL     1      -7.681   7.897  69.591  1.00  0.00    -0.103 C  
HETATM   13  H1  UNL     1      -4.526   8.154  68.395  1.00  0.00     0.000 HD 
HETATM   14  C   UNL     1      -6.578   8.338  68.588  1.00  0.00    -0.054 C  
HETATM   15  H2  UNL     1      -5.238   6.858  69.216  1.00  0.00     0.000 HD 
HETATM   16  C   UNL     1      -6.782   7.680  67.213  1.00  0.00    -0.068 C  
HETATM   17  N   UNL     1      -5.249   7.865  69.053  1.00  0.00    -0.022 NA 
HETATM   18  C   UNL     1      -6.568   9.893  68.521  1.00  0.00    -0.054 C  
BRANCH  11  19
HETATM   19  C   UNL     1      -9.869   8.150  70.532  1.00  0.00    -0.186 C  
HETATM   20  C   UNL     1     -10.957   6.234  69.163  1.00  0.00    -0.442 C  
HETATM   21  C   UNL     1     -11.179   7.425  70.119  1.00  0.00    -0.239 C  
HETATM   22  C   UNL     1     -11.974   7.004  71.382  1.00  0.00    -0.380 C  
HETATM   23  C   UNL     1     -10.265   5.013  69.754  1.00  0.00    -0.336 C  
BRANCH  22  24
HETATM   24  C   UNL     1     -12.374   8.155  72.324  1.00  0.00    -0.371 C  
BRANCH  24  25
HETATM   25  C   UNL     1     -13.431   9.092  71.738  1.00  0.00    -0.478 C  
HETATM   26  C   UNL     1     -12.914  10.519  71.628  1.00  0.00    -0.581 C  
ENDBRANCH  24  25
ENDBRANCH  22  24
ENDBRANCH  11  19
ENDBRANCH   7   9
ENDBRANCH   3   4
ENDBRANCH   2   3
TORSDOF 6
ENDMDL
MODEL       32
REMARK 921   NORMALIZED FREE ENERGY PREDICTED BY IDOCK:   -4.82 KCAL/MOL
REMARK 922        TOTAL FREE ENERGY PREDICTED BY IDOCK:   -7.30 KCAL/MOL
REMARK 923 INTER-LIGAND FREE ENERGY PREDICTED BY IDOCK:   -6.26 KCAL/MOL
REMARK 924 INTRA-LIGAND FREE ENERGY PREDICTED BY IDOCK:   -1.03 KCAL/MOL
REMARK 927      BINDING AFFINITY PREDICTED BY RF-SCORE:    0.00 PKD
ROOT
HETATM    1  C   UNL     1     -13.129  10.653  71.671  1.00  0.00    -0.555 C  
HETATM    2  C   UNL     1     -12.071   9.674  71.180  1.00  0.00    -0.448 C  
ENDROOT
BRANCH   2   3
HETATM    3  C   UNL     1     -12.337   8.279  71.735  1.00  0.00    -0.366 C  
BRANCH   3   4
HETATM    4  C   UNL     1     -11.915   7.182  70.755  1.00  0.00    -0.352 C  
HETATM    5  C   UNL     1     -10.452   7.337  70.295  1.00  0.00    -0.231 C  
HETATM    6  C   UNL     1      -9.414   7.330  71.443  1.00  0.00    -0.165 C  
HETATM    7  C   UNL     1     -10.071   6.271  69.240  1.00  0.00    -0.175 C  
HETATM    8  C   UNL     1      -9.286   6.015  72.200  1.00  0.00    -0.155 C  
BRANCH   7   9
HETATM    9  N   UNL     1     -10.820   6.310  67.978  1.00  0.00    -0.302 NA 
HETATM   10  C   UNL     1     -10.762   7.602  67.299  1.00  0.00    -0.274 C  
HETATM   11  N   UNL     1      -9.393   7.915  66.880  1.00  0.00    -0.154 NA 
HETATM   12  C   UNL     1      -8.957   6.925  65.865  1.00  0.00    -0.064 C  
HETATM   13  H1  UNL     1      -9.072   3.571  65.434  1.00  0.00     0.000 HD 
HETATM   14  C   UNL     1      -9.060   5.441  66.318  1.00  0.00    -0.143 C  
HETATM   15  H2  UNL     1      -8.176   4.713  64.565  1.00  0.00     0.000 HD 
HETATM   16  C   UNL     1      -7.854   5.041  67.185  1.00  0.00    -0.096 C  
HETATM   17  N   UNL     1      -9.005   4.544  65.136  1.00  0.00    -0.142 NA 
HETATM   18  C   UNL     1     -10.422   5.242  67.044  1.00  0.00    -0.229 C  
BRANCH  11  19
HETATM   19  C   UNL     1      -9.311   9.260  66.267  1.00  0.00    -0.200 C  
HETATM   20  C   UNL     1      -9.673  10.604  68.455  1.00  0.00    -0.177 C  
HETATM   21  C   UNL     1     -10.046  10.434  66.968  1.00  0.00    -0.264 C  
HETATM   22  C   UNL     1      -9.831  11.747  66.170  1.00  0.00    -0.254 C  
HETATM   23  C   UNL     1      -8.259  11.089  68.747  1.00  0.00    -0.146 C  
BRANCH  22  24
HETATM   24  C   UNL     1     -10.317  11.719  64.710  1.00  0.00    -0.333 C  
BRANCH  24  25
HETATM   25  C   UNL     1     -11.539  12.602  64.449  1.00  0.00    -0.415 C  
HETATM   26  C   UNL     1     -12.428  12.020  63.360  1.00  0.00    -0.625 C  
ENDBRANCH  24  25
ENDBRANCH  22  24
ENDBRANCH  11  19
ENDBRANCH   7   9
ENDBRANCH   3   4
ENDBRANCH   2   3
TORSDOF 6
ENDMDL
MODEL       33
REMARK 921   NORMALIZED FREE ENERGY PREDICTED BY IDOCK:   -4.82 KCAL/MOL
REMARK 922        TOTAL FREE ENERGY PREDICTED BY IDOCK:   -7.29 KCAL/MOL
REMARK 923 INTER-LIGAND FREE ENERGY PREDICTED BY IDOCK:   -6.64 KCAL/MOL
REMARK 924 INTRA-LIGAND FREE ENERGY PREDICTED BY IDOCK:   -0.65 KCAL/MOL
REMARK 927      BINDING AFFINITY PREDICTED BY RF-SCORE:    0.00 PKD
ROOT
HETATM    1  C   UNL     1      -9.322  10.004  64.381  1.00  0.00    -0.348 C  
HETATM    2  C   UNL     1      -8.482   9.813  65.636  1.00  0.00    -0.147 C  
ENDROOT
BRANCH   2   3
HETATM    3  C   UNL     1      -8.109   8.344  65.810  1.00  0.00    -0.117 C  
BRANCH   3   4
HETATM    4  C   UNL     1      -8.403   7.842  67.226  1.00  0.00    -0.122 C  
HETATM    5  C   UNL     1      -9.909   7.855  67.553  1.00  0.00    -0.221 C  
HETATM    6  C   UNL     1     -10.781   7.010  66.593  1.00  0.00    -0.133 C  
HETATM    7  C   UNL     1     -10.177   7.427  69.016  1.00  0.00    -0.199 C  
HETATM    8  C   UNL     1     -10.540   5.508  66.644  1.00  0.00    -0.365 C  
BRANCH   7   9
HETATM    9  N   UNL     1      -9.605   8.287  70.059  1.00  0.00    -0.167 NA 
HETATM   10  C   UNL     1     -10.128   9.652  70.049  1.00  0.00    -0.252 C  
HETATM   11  N   UNL     1     -11.561   9.669  70.356  1.00  0.00    -0.255 NA 
HETATM   12  C   UNL     1     -11.766   9.186  71.743  1.00  0.00    -0.386 C  
HETATM   13  H1  UNL     1     -10.660   6.657  73.701  1.00  0.00     0.000 HD 
HETATM   14  C   UNL     1     -11.165   7.784  72.040  1.00  0.00    -0.278 C  
HETATM   15  H2  UNL     1     -11.947   7.719  73.981  1.00  0.00     0.000 HD 
HETATM   16  C   UNL     1     -12.095   6.664  71.544  1.00  0.00    -0.406 C  
HETATM   17  N   UNL     1     -11.055   7.578  73.507  1.00  0.00    -0.245 NA 
HETATM   18  C   UNL     1      -9.743   7.715  71.410  1.00  0.00    -0.163 C  
BRANCH  11  19
HETATM   19  C   UNL     1     -12.115  11.038  70.264  1.00  0.00    -0.362 C  
HETATM   20  C   UNL     1     -10.722  11.783  68.207  1.00  0.00    -0.246 C  
HETATM   21  C   UNL     1     -11.240  12.144  69.615  1.00  0.00    -0.137 C  
HETATM   22  C   UNL     1     -12.006  13.493  69.614  1.00  0.00    -0.397 C  
HETATM   23  C   UNL     1     -11.764  11.717  67.099  1.00  0.00    -0.267 C  
BRANCH  22  24
HETATM   24  C   UNL     1     -12.431  14.011  71.000  1.00  0.00    -0.444 C  
BRANCH  24  25
HETATM   25  C   UNL     1     -13.015  15.425  70.978  1.00  0.00    -0.556 C  
HETATM   26  C   UNL     1     -12.643  16.204  72.231  1.00  0.00    -0.428 C  
ENDBRANCH  24  25
ENDBRANCH  22  24
ENDBRANCH  11  19
ENDBRANCH   7   9
ENDBRANCH   3   4
ENDBRANCH   2   3
TORSDOF 6
ENDMDL
MODEL       34
REMARK 921   NORMALIZED FREE ENERGY PREDICTED BY IDOCK:   -4.80 KCAL/MOL
REMARK 922        TOTAL FREE ENERGY PREDICTED BY IDOCK:   -7.28 KCAL/MOL
REMARK 923 INTER-LIGAND FREE ENERGY PREDICTED BY IDOCK:   -6.28 KCAL/MOL
REMARK 924 INTRA-LIGAND FREE ENERGY PREDICTED BY IDOCK:   -0.99 KCAL/MOL
REMARK 927      BINDING AFFINITY PREDICTED BY RF-SCORE:    0.00 PKD
ROOT
HETATM    1  C   UNL     1     -13.149  15.497  70.881  1.00  0.00    -0.508 C  
HETATM    2  C   UNL     1     -12.286  14.430  70.224  1.00  0.00    -0.410 C  
ENDROOT
BRANCH   2   3
HETATM    3  C   UNL     1     -11.775  14.915  68.872  1.00  0.00    -0.343 C  
BRANCH   3   4
HETATM    4  C   UNL     1     -10.584  14.090  68.378  1.00  0.00    -0.259 C  
HETATM    5  C   UNL     1     -11.007  12.701  67.860  1.00  0.00    -0.262 C  
HETATM    6  C   UNL     1     -12.034  12.733  66.702  1.00  0.00    -0.411 C  
HETATM    7  C   UNL     1      -9.782  11.850  67.448  1.00  0.00    -0.184 C  
HETATM    8  C   UNL     1     -11.528  13.330  65.397  1.00  0.00    -0.328 C  
BRANCH   7   9
HETATM    9  N   UNL     1      -8.826  11.528  68.514  1.00  0.00    -0.157 NA 
HETATM   10  C   UNL     1      -9.155  10.307  69.249  1.00  0.00    -0.194 C  
HETATM   11  N   UNL     1      -9.084   9.133  68.376  1.00  0.00    -0.133 NA 
HETATM   12  C   UNL     1      -7.683   8.947  67.924  1.00  0.00    -0.101 C  
HETATM   13  H1  UNL     1      -5.169  10.866  66.721  1.00  0.00     0.000 HD 
HETATM   14  C   UNL     1      -7.058  10.184  67.220  1.00  0.00    -0.088 C  
HETATM   15  H2  UNL     1      -5.283   9.179  66.752  1.00  0.00     0.000 HD 
HETATM   16  C   UNL     1      -7.493  10.264  65.747  1.00  0.00    -0.144 C  
HETATM   17  N   UNL     1      -5.579  10.054  67.183  1.00  0.00    -0.045 NA 
HETATM   18  C   UNL     1      -7.436  11.456  68.033  1.00  0.00    -0.100 C  
BRANCH  11  19
HETATM   19  C   UNL     1      -9.497   7.905  69.091  1.00  0.00    -0.155 C  
HETATM   20  C   UNL     1     -10.958   6.930  67.182  1.00  0.00    -0.427 C  
HETATM   21  C   UNL     1     -10.839   7.236  68.689  1.00  0.00    -0.112 C  
HETATM   22  C   UNL     1     -11.080   5.969  69.551  1.00  0.00    -0.468 C  
HETATM   23  C   UNL     1     -10.052   5.831  66.642  1.00  0.00    -0.235 C  
BRANCH  22  24
HETATM   24  C   UNL     1     -11.131   6.205  71.072  1.00  0.00    -0.359 C  
BRANCH  24  25
HETATM   25  C   UNL     1     -12.234   7.169  71.510  1.00  0.00    -0.396 C  
HETATM   26  C   UNL     1     -11.684   8.291  72.379  1.00  0.00    -0.463 C  
ENDBRANCH  24  25
ENDBRANCH  22  24
ENDBRANCH  11  19
ENDBRANCH   7   9
ENDBRANCH   3   4
ENDBRANCH   2   3
TORSDOF 6
ENDMDL
MODEL       35
REMARK 921   NORMALIZED FREE ENERGY PREDICTED BY IDOCK:   -4.80 KCAL/MOL
REMARK 922        TOTAL FREE ENERGY PREDICTED BY IDOCK:   -7.27 KCAL/MOL
REMARK 923 INTER-LIGAND FREE ENERGY PREDICTED BY IDOCK:   -6.28 KCAL/MOL
REMARK 924 INTRA-LIGAND FREE ENERGY PREDICTED BY IDOCK:   -0.99 KCAL/MOL
REMARK 927      BINDING AFFINITY PREDICTED BY RF-SCORE:    0.00 PKD
ROOT
HETATM    1  C   UNL     1      -5.949  13.629  68.277  1.00  0.00    -0.106 C  
HETATM    2  C   UNL     1      -6.036  14.336  69.622  1.00  0.00    -0.112 C  
ENDROOT
BRANCH   2   3
HETATM    3  C   UNL     1      -7.127  15.401  69.596  1.00  0.00    -0.180 C  
BRANCH   3   4
HETATM    4  C   UNL     1      -7.946  15.352  68.305  1.00  0.00    -0.128 C  
HETATM    5  C   UNL     1      -9.379  14.833  68.537  1.00  0.00    -0.199 C  
HETATM    6  C   UNL     1     -10.204  15.660  69.554  1.00  0.00    -0.277 C  
HETATM    7  C   UNL     1     -10.162  14.709  67.209  1.00  0.00    -0.241 C  
HETATM    8  C   UNL     1     -10.533  17.082  69.125  1.00  0.00    -0.323 C  
BRANCH   7   9
HETATM    9  N   UNL     1      -9.624  13.762  66.224  1.00  0.00    -0.274 NA 
HETATM   10  C   UNL     1      -9.608  12.376  66.689  1.00  0.00    -0.229 C  
HETATM   11  N   UNL     1     -10.968  11.881  66.914  1.00  0.00    -0.273 NA 
HETATM   12  C   UNL     1     -11.694  11.847  65.621  1.00  0.00    -0.145 C  
HETATM   13  H1  UNL     1     -12.120  13.865  62.939  1.00  0.00     0.000 HD 
HETATM   14  C   UNL     1     -11.730  13.202  64.859  1.00  0.00    -0.340 C  
HETATM   15  H2  UNL     1     -12.972  12.462  63.346  1.00  0.00     0.000 HD 
HETATM   16  C   UNL     1     -12.827  14.124  65.417  1.00  0.00    -0.393 C  
HETATM   17  N   UNL     1     -12.096  12.976  63.438  1.00  0.00    -0.619 NA 
HETATM   18  C   UNL     1     -10.311  13.839  64.923  1.00  0.00    -0.398 C  
BRANCH  11  19
HETATM   19  C   UNL     1     -10.957  10.507  67.465  1.00  0.00    -0.303 C  
HETATM   20  C   UNL     1     -11.212  11.186  69.955  1.00  0.00    -0.261 C  
HETATM   21  C   UNL     1     -10.474  10.305  68.926  1.00  0.00    -0.231 C  
HETATM   22  C   UNL     1     -10.545   8.802  69.305  1.00  0.00    -0.210 C  
HETATM   23  C   UNL     1     -12.675  10.847  70.210  1.00  0.00    -0.285 C  
BRANCH  22  24
HETATM   24  C   UNL     1      -9.710   7.858  68.420  1.00  0.00    -0.170 C  
BRANCH  24  25
HETATM   25  C   UNL     1      -9.544   6.453  69.001  1.00  0.00    -0.136 C  
HETATM   26  C   UNL     1     -10.838   5.946  69.620  1.00  0.00    -0.444 C  
ENDBRANCH  24  25
ENDBRANCH  22  24
ENDBRANCH  11  19
ENDBRANCH   7   9
ENDBRANCH   3   4
ENDBRANCH   2   3
TORSDOF 6
ENDMDL
MODEL       36
REMARK 921   NORMALIZED FREE ENERGY PREDICTED BY IDOCK:   -4.80 KCAL/MOL
REMARK 922        TOTAL FREE ENERGY PREDICTED BY IDOCK:   -7.27 KCAL/MOL
REMARK 923 INTER-LIGAND FREE ENERGY PREDICTED BY IDOCK:   -6.31 KCAL/MOL
REMARK 924 INTRA-LIGAND FREE ENERGY PREDICTED BY IDOCK:   -0.95 KCAL/MOL
REMARK 927      BINDING AFFINITY PREDICTED BY RF-SCORE:    0.00 PKD
ROOT
HETATM    1  C   UNL     1     -13.546   8.907  71.924  1.00  0.00    -0.474 C  
HETATM    2  C   UNL     1     -13.516  10.427  72.001  1.00  0.00    -0.360 C  
ENDROOT
BRANCH   2   3
HETATM    3  C   UNL     1     -12.310  10.976  71.246  1.00  0.00    -0.426 C  
BRANCH   3   4
HETATM    4  C   UNL     1     -12.366  10.641  69.754  1.00  0.00    -0.263 C  
HETATM    5  C   UNL     1     -10.984  10.739  69.078  1.00  0.00    -0.289 C  
HETATM    6  C   UNL     1      -9.900   9.824  69.697  1.00  0.00    -0.241 C  
HETATM    7  C   UNL     1     -11.076  10.482  67.555  1.00  0.00    -0.290 C  
HETATM    8  C   UNL     1     -10.137   8.329  69.536  1.00  0.00    -0.197 C  
BRANCH   7   9
HETATM    9  N   UNL     1     -11.889  11.431  66.784  1.00  0.00    -0.350 NA 
HETATM   10  C   UNL     1     -11.767  12.815  67.239  1.00  0.00    -0.378 C  
HETATM   11  N   UNL     1     -10.404  13.315  67.045  1.00  0.00    -0.245 NA 
HETATM   12  C   UNL     1     -10.104  13.358  65.593  1.00  0.00    -0.274 C  
HETATM   13  H1  UNL     1     -10.504  11.353  62.897  1.00  0.00     0.000 HD 
HETATM   14  C   UNL     1     -10.297  12.006  64.849  1.00  0.00    -0.278 C  
HETATM   15  H2  UNL     1      -9.572  12.757  63.035  1.00  0.00     0.000 HD 
HETATM   16  C   UNL     1      -9.080  11.086  65.044  1.00  0.00    -0.182 C  
HETATM   17  N   UNL     1     -10.378  12.240  63.385  1.00  0.00    -0.415 NA 
HETATM   18  C   UNL     1     -11.628  11.363  65.336  1.00  0.00     0.214 C  
BRANCH  11  19
HETATM   19  C   UNL     1     -10.251  14.686  67.581  1.00  0.00    -0.232 C  
HETATM   20  C   UNL     1      -7.807  14.410  68.406  1.00  0.00    -0.138 C  
HETATM   21  C   UNL     1      -9.229  14.919  68.726  1.00  0.00    -0.193 C  
HETATM   22  C   UNL     1      -9.222  16.415  69.135  1.00  0.00    -0.216 C  
HETATM   23  C   UNL     1      -7.041  15.173  67.334  1.00  0.00    -0.219 C  
BRANCH  22  24
HETATM   24  C   UNL     1     -10.572  16.974  69.617  1.00  0.00    -0.087 C  
BRANCH  24  25
HETATM   25  C   UNL     1     -11.192  16.182  70.770  1.00  0.00    -0.356 C  
HETATM   26  C   UNL     1     -12.409  15.390  70.315  1.00  0.00    -0.425 C  
ENDBRANCH  24  25
ENDBRANCH  22  24
ENDBRANCH  11  19
ENDBRANCH   7   9
ENDBRANCH   3   4
ENDBRANCH   2   3
TORSDOF 6
ENDMDL
MODEL       37
REMARK 921   NORMALIZED FREE ENERGY PREDICTED BY IDOCK:   -4.76 KCAL/MOL
REMARK 922        TOTAL FREE ENERGY PREDICTED BY IDOCK:   -7.21 KCAL/MOL
REMARK 923 INTER-LIGAND FREE ENERGY PREDICTED BY IDOCK:   -6.25 KCAL/MOL
REMARK 924 INTRA-LIGAND FREE ENERGY PREDICTED BY IDOCK:   -0.96 KCAL/MOL
REMARK 927      BINDING AFFINITY PREDICTED BY RF-SCORE:    0.00 PKD
ROOT
HETATM    1  C   UNL     1      -9.799  10.454  64.943  1.00  0.00    -0.400 C  
HETATM    2  C   UNL     1      -8.616   9.755  65.598  1.00  0.00    -0.154 C  
ENDROOT
BRANCH   2   3
HETATM    3  C   UNL     1      -8.755   8.241  65.475  1.00  0.00    -0.173 C  
BRANCH   3   4
HETATM    4  C   UNL     1      -8.514   7.532  66.809  1.00  0.00    -0.124 C  
HETATM    5  C   UNL     1      -9.819   7.308  67.599  1.00  0.00    -0.189 C  
HETATM    6  C   UNL     1     -10.892   6.484  66.845  1.00  0.00    -0.427 C  
HETATM    7  C   UNL     1      -9.546   6.670  68.981  1.00  0.00    -0.133 C  
HETATM    8  C   UNL     1     -10.528   5.032  66.573  1.00  0.00    -0.325 C  
BRANCH   7   9
HETATM    9  N   UNL     1      -8.728   7.459  69.911  1.00  0.00    -0.140 NA 
HETATM   10  C   UNL     1      -9.298   8.766  70.231  1.00  0.00    -0.174 C  
HETATM   11  N   UNL     1     -10.569   8.625  70.947  1.00  0.00    -0.205 NA 
HETATM   12  C   UNL     1     -10.318   7.980  72.259  1.00  0.00    -0.271 C  
HETATM   13  H1  UNL     1      -8.543   5.361  73.460  1.00  0.00     0.000 HD 
HETATM   14  C   UNL     1      -9.585   6.611  72.181  1.00  0.00    -0.147 C  
HETATM   15  H2  UNL     1      -9.736   6.270  74.241  1.00  0.00     0.000 HD 
HETATM   16  C   UNL     1     -10.563   5.474  71.842  1.00  0.00    -0.293 C  
HETATM   17  N   UNL     1      -9.024   6.258  73.511  1.00  0.00    -0.124 NA 
HETATM   18  C   UNL     1      -8.420   6.735  71.157  1.00  0.00    -0.125 C  
BRANCH  11  19
HETATM   19  C   UNL     1     -11.194   9.942  71.201  1.00  0.00    -0.334 C  
HETATM   20  C   UNL     1     -13.641   9.090  71.315  1.00  0.00    -0.252 C  
HETATM   21  C   UNL     1     -12.668  10.153  70.763  1.00  0.00    -0.397 C  
HETATM   22  C   UNL     1     -13.128  11.590  71.122  1.00  0.00    -0.188 C  
HETATM   23  C   UNL     1     -13.901   9.125  72.815  1.00  0.00    -0.282 C  
BRANCH  22  24
HETATM   24  C   UNL     1     -12.303  12.725  70.488  1.00  0.00    -0.355 C  
BRANCH  24  25
HETATM   25  C   UNL     1     -12.411  14.057  71.232  1.00  0.00    -0.448 C  
HETATM   26  C   UNL     1     -13.520  14.028  72.274  1.00  0.00    -0.597 C  
ENDBRANCH  24  25
ENDBRANCH  22  24
ENDBRANCH  11  19
ENDBRANCH   7   9
ENDBRANCH   3   4
ENDBRANCH   2   3
TORSDOF 6
ENDMDL
MODEL       38
REMARK 921   NORMALIZED FREE ENERGY PREDICTED BY IDOCK:   -4.76 KCAL/MOL
REMARK 922        TOTAL FREE ENERGY PREDICTED BY IDOCK:   -7.21 KCAL/MOL
REMARK 923 INTER-LIGAND FREE ENERGY PREDICTED BY IDOCK:   -6.47 KCAL/MOL
REMARK 924 INTRA-LIGAND FREE ENERGY PREDICTED BY IDOCK:   -0.74 KCAL/MOL
REMARK 927      BINDING AFFINITY PREDICTED BY RF-SCORE:    0.00 PKD
ROOT
HETATM    1  C   UNL     1      -8.764  10.868  66.667  1.00  0.00    -0.156 C  
HETATM    2  C   UNL     1      -9.890   9.969  66.176  1.00  0.00    -0.309 C  
ENDROOT
BRANCH   2   3
HETATM    3  C   UNL     1      -9.344   8.606  65.764  1.00  0.00    -0.227 C  
BRANCH   3   4
HETATM    4  C   UNL     1      -8.855   7.796  66.967  1.00  0.00    -0.136 C  
HETATM    5  C   UNL     1     -10.017   7.283  67.840  1.00  0.00    -0.192 C  
HETATM    6  C   UNL     1     -11.039   6.393  67.092  1.00  0.00    -0.422 C  
HETATM    7  C   UNL     1      -9.500   6.541  69.096  1.00  0.00    -0.135 C  
HETATM    8  C   UNL     1     -10.503   5.056  66.600  1.00  0.00    -0.301 C  
BRANCH   7   9
HETATM    9  N   UNL     1      -8.704   7.337  70.039  1.00  0.00    -0.140 NA 
HETATM   10  C   UNL     1      -8.925   8.777  69.925  1.00  0.00    -0.152 C  
HETATM   11  N   UNL     1     -10.303   9.128  70.279  1.00  0.00    -0.200 NA 
HETATM   12  C   UNL     1     -10.532   8.813  71.710  1.00  0.00    -0.346 C  
HETATM   13  H1  UNL     1      -9.887   6.268  73.845  1.00  0.00     0.000 HD 
HETATM   14  C   UNL     1     -10.227   7.341  72.109  1.00  0.00    -0.190 C  
HETATM   15  H2  UNL     1     -10.902   7.601  74.074  1.00  0.00     0.000 HD 
HETATM   16  C   UNL     1     -11.399   6.413  71.747  1.00  0.00    -0.337 C  
HETATM   17  N   UNL     1     -10.086   7.233  73.584  1.00  0.00    -0.329 NA 
HETATM   18  C   UNL     1      -8.888   6.918  71.439  1.00  0.00    -0.133 C  
BRANCH  11  19
HETATM   19  C   UNL     1     -10.558  10.573  70.086  1.00  0.00    -0.105 C  
HETATM   20  C   UNL     1     -13.109  10.486  70.547  1.00  0.00    -0.198 C  
HETATM   21  C   UNL     1     -11.978  11.015  69.641  1.00  0.00    -0.424 C  
HETATM   22  C   UNL     1     -12.033  12.559  69.502  1.00  0.00    -0.329 C  
HETATM   23  C   UNL     1     -13.180  11.069  71.952  1.00  0.00    -0.503 C  
BRANCH  22  24
HETATM   24  C   UNL     1     -11.037  13.168  68.499  1.00  0.00    -0.296 C  
BRANCH  24  25
HETATM   25  C   UNL     1     -11.703  13.940  67.359  1.00  0.00    -0.422 C  
HETATM   26  C   UNL     1     -12.004  13.038  66.171  1.00  0.00    -0.488 C  
ENDBRANCH  24  25
ENDBRANCH  22  24
ENDBRANCH  11  19
ENDBRANCH   7   9
ENDBRANCH   3   4
ENDBRANCH   2   3
TORSDOF 6
ENDMDL
MODEL       39
REMARK 921   NORMALIZED FREE ENERGY PREDICTED BY IDOCK:   -4.74 KCAL/MOL
REMARK 922        TOTAL FREE ENERGY PREDICTED BY IDOCK:   -7.19 KCAL/MOL
REMARK 923 INTER-LIGAND FREE ENERGY PREDICTED BY IDOCK:   -6.33 KCAL/MOL
REMARK 924 INTRA-LIGAND FREE ENERGY PREDICTED BY IDOCK:   -0.85 KCAL/MOL
REMARK 927      BINDING AFFINITY PREDICTED BY RF-SCORE:    0.00 PKD
ROOT
HETATM    1  C   UNL     1      -5.578  21.097  68.541  1.00  0.00    -0.347 C  
HETATM    2  C   UNL     1      -5.238  19.625  68.352  1.00  0.00    -0.203 C  
ENDROOT
BRANCH   2   3
HETATM    3  C   UNL     1      -6.228  18.966  67.398  1.00  0.00    -0.179 C  
BRANCH   3   4
HETATM    4  C   UNL     1      -7.440  18.392  68.135  1.00  0.00    -0.279 C  
HETATM    5  C   UNL     1      -7.430  16.852  68.173  1.00  0.00    -0.178 C  
HETATM    6  C   UNL     1      -6.174  16.234  68.836  1.00  0.00    -0.138 C  
HETATM    7  C   UNL     1      -8.705  16.290  68.844  1.00  0.00    -0.253 C  
HETATM    8  C   UNL     1      -6.021  16.509  70.325  1.00  0.00    -0.053 C  
BRANCH   7   9
HETATM    9  N   UNL     1      -9.978  16.595  68.180  1.00  0.00    -0.251 NA 
HETATM   10  C   UNL     1     -10.368  15.608  67.174  1.00  0.00    -0.285 C  
HETATM   11  N   UNL     1     -10.621  14.303  67.788  1.00  0.00    -0.251 NA 
HETATM   12  C   UNL     1     -11.789  14.412  68.697  1.00  0.00    -0.331 C  
HETATM   13  H1  UNL     1     -12.916  16.536  71.077  1.00  0.00     0.000 HD 
HETATM   14  C   UNL     1     -11.663  15.510  69.790  1.00  0.00    -0.349 C  
HETATM   15  H2  UNL     1     -13.466  14.979  70.710  1.00  0.00     0.000 HD 
HETATM   16  C   UNL     1     -10.821  15.017  70.979  1.00  0.00    -0.040 C  
HETATM   17  N   UNL     1     -13.000  15.816  70.360  1.00  0.00    -0.341 NA 
HETATM   18  C   UNL     1     -11.086  16.796  69.130  1.00  0.00    -0.141 C  
BRANCH  11  19
HETATM   19  C   UNL     1     -10.934  13.278  66.767  1.00  0.00    -0.287 C  
HETATM   20  C   UNL     1     -10.073  11.240  68.121  1.00  0.00    -0.195 C  
HETATM   21  C   UNL     1     -10.101  11.968  66.761  1.00  0.00    -0.223 C  
HETATM   22  C   UNL     1     -10.590  11.034  65.623  1.00  0.00    -0.263 C  
HETATM   23  C   UNL     1     -11.381  10.609  68.578  1.00  0.00    -0.348 C  
BRANCH  22  24
HETATM   24  C   UNL     1     -10.511  11.626  64.204  1.00  0.00    -0.402 C  
BRANCH  24  25
HETATM   25  C   UNL     1     -11.873  11.807  63.533  1.00  0.00    -0.481 C  
HETATM   26  C   UNL     1     -12.282  13.272  63.482  1.00  0.00    -0.513 C  
ENDBRANCH  24  25
ENDBRANCH  22  24
ENDBRANCH  11  19
ENDBRANCH   7   9
ENDBRANCH   3   4
ENDBRANCH   2   3
TORSDOF 6
ENDMDL
MODEL       40
REMARK 921   NORMALIZED FREE ENERGY PREDICTED BY IDOCK:   -4.71 KCAL/MOL
REMARK 922        TOTAL FREE ENERGY PREDICTED BY IDOCK:   -7.16 KCAL/MOL
REMARK 923 INTER-LIGAND FREE ENERGY PREDICTED BY IDOCK:   -6.83 KCAL/MOL
REMARK 924 INTRA-LIGAND FREE ENERGY PREDICTED BY IDOCK:   -0.33 KCAL/MOL
REMARK 927      BINDING AFFINITY PREDICTED BY RF-SCORE:    0.00 PKD
ROOT
HETATM    1  C   UNL     1      -8.342   8.793  64.363  1.00  0.00    -0.165 C  
HETATM    2  C   UNL     1      -8.913   8.103  65.595  1.00  0.00    -0.128 C  
ENDROOT
BRANCH   2   3
HETATM    3  C   UNL     1      -9.708   9.092  66.440  1.00  0.00    -0.337 C  
BRANCH   3   4
HETATM    4  C   UNL     1      -9.621  10.517  65.890  1.00  0.00    -0.254 C  
HETATM    5  C   UNL     1      -8.960  11.491  66.886  1.00  0.00    -0.179 C  
HETATM    6  C   UNL     1      -7.527  11.094  67.317  1.00  0.00    -0.118 C  
HETATM    7  C   UNL     1      -8.960  12.942  66.348  1.00  0.00    -0.005 C  
HETATM    8  C   UNL     1      -6.479  11.134  66.214  1.00  0.00    -0.082 C  
BRANCH   7   9
HETATM    9  N   UNL     1     -10.277  13.549  66.117  1.00  0.00    -0.296 NA 
HETATM   10  C   UNL     1     -11.091  13.665  67.325  1.00  0.00    -0.293 C  
HETATM   11  N   UNL     1     -10.472  14.576  68.291  1.00  0.00    -0.237 NA 
HETATM   12  C   UNL     1     -10.436  15.943  67.716  1.00  0.00    -0.287 C  
HETATM   13  H1  UNL     1      -9.630  17.395  64.768  1.00  0.00     0.000 HD 
HETATM   14  C   UNL     1      -9.726  16.050  66.337  1.00  0.00    -0.284 C  
HETATM   15  H2  UNL     1      -9.908  18.134  66.264  1.00  0.00     0.000 HD 
HETATM   16  C   UNL     1      -8.198  16.111  66.503  1.00  0.00    -0.343 C  
HETATM   17  N   UNL     1     -10.097  17.325  65.672  1.00  0.00    -0.591 NA 
HETATM   18  C   UNL     1     -10.192  14.860  65.450  1.00  0.00    -0.379 C  
BRANCH  11  19
HETATM   19  C   UNL     1     -11.247  14.633  69.551  1.00  0.00    -0.269 C  
HETATM   20  C   UNL     1     -12.256  12.250  69.385  1.00  0.00    -0.120 C  
HETATM   21  C   UNL     1     -12.512  13.743  69.677  1.00  0.00    -0.176 C  
HETATM   22  C   UNL     1     -13.170  13.949  71.067  1.00  0.00    -0.260 C  
HETATM   23  C   UNL     1     -11.414  11.495  70.405  1.00  0.00    -0.069 C  
BRANCH  22  24
HETATM   24  C   UNL     1     -13.601  15.392  71.386  1.00  0.00    -0.604 C  
BRANCH  24  25
HETATM   25  C   UNL     1     -13.609  15.718  72.880  1.00  0.00    -0.660 C  
HETATM   26  C   UNL     1     -12.415  15.102  73.594  1.00  0.00    -0.692 C  
ENDBRANCH  24  25
ENDBRANCH  22  24
ENDBRANCH  11  19
ENDBRANCH   7   9
ENDBRANCH   3   4
ENDBRANCH   2   3
TORSDOF 6
ENDMDL
MODEL       41
REMARK 921   NORMALIZED FREE ENERGY PREDICTED BY IDOCK:   -4.69 KCAL/MOL
REMARK 922        TOTAL FREE ENERGY PREDICTED BY IDOCK:   -7.13 KCAL/MOL
REMARK 923 INTER-LIGAND FREE ENERGY PREDICTED BY IDOCK:   -6.55 KCAL/MOL
REMARK 924 INTRA-LIGAND FREE ENERGY PREDICTED BY IDOCK:   -0.58 KCAL/MOL
REMARK 927      BINDING AFFINITY PREDICTED BY RF-SCORE:    0.00 PKD
ROOT
HETATM    1  C   UNL     1     -11.112   6.625  67.130  1.00  0.00    -0.427 C  
HETATM    2  C   UNL     1     -10.222   6.750  68.358  1.00  0.00    -0.193 C  
ENDROOT
BRANCH   2   3
HETATM    3  C   UNL     1     -10.249   8.177  68.894  1.00  0.00    -0.221 C  
BRANCH   3   4
HETATM    4  C   UNL     1     -10.609   9.192  67.808  1.00  0.00    -0.289 C  
HETATM    5  C   UNL     1      -9.398  10.041  67.372  1.00  0.00    -0.167 C  
HETATM    6  C   UNL     1      -8.200   9.221  66.834  1.00  0.00    -0.119 C  
HETATM    7  C   UNL     1      -9.801  11.118  66.338  1.00  0.00    -0.211 C  
HETATM    8  C   UNL     1      -8.451   8.479  65.529  1.00  0.00    -0.183 C  
BRANCH   7   9
HETATM    9  N   UNL     1     -10.765  12.127  66.792  1.00  0.00    -0.227 NA 
HETATM   10  C   UNL     1     -10.146  13.376  67.233  1.00  0.00    -0.238 C  
HETATM   11  N   UNL     1      -9.466  14.046  66.122  1.00  0.00    -0.233 NA 
HETATM   12  C   UNL     1     -10.472  14.450  65.108  1.00  0.00    -0.415 C  
HETATM   13  H1  UNL     1     -13.153  13.080  63.564  1.00  0.00     0.000 HD 
HETATM   14  C   UNL     1     -11.362  13.290  64.579  1.00  0.00    -0.363 C  
HETATM   15  H2  UNL     1     -12.330  14.506  63.176  1.00  0.00     0.000 HD 
HETATM   16  C   UNL     1     -10.633  12.482  63.492  1.00  0.00    -0.394 C  
HETATM   17  N   UNL     1     -12.569  13.841  63.911  1.00  0.00    -0.697 NA 
HETATM   18  C   UNL     1     -11.805  12.418  65.789  1.00  0.00    -0.406 C  
BRANCH  11  19
HETATM   19  C   UNL     1      -8.765  15.268  66.577  1.00  0.00    -0.279 C  
HETATM   20  C   UNL     1      -7.414  14.140  68.483  1.00  0.00    -0.123 C  
HETATM   21  C   UNL     1      -8.290  15.335  68.054  1.00  0.00    -0.146 C  
HETATM   22  C   UNL     1      -7.580  16.689  68.321  1.00  0.00    -0.181 C  
HETATM   23  C   UNL     1      -6.027  14.059  67.860  1.00  0.00    -0.144 C  
BRANCH  22  24
HETATM   24  C   UNL     1      -8.433  17.944  68.065  1.00  0.00    -0.256 C  
BRANCH  24  25
HETATM   25  C   UNL     1      -9.870  17.828  68.575  1.00  0.00    -0.355 C  
HETATM   26  C   UNL     1     -10.873  18.324  67.543  1.00  0.00    -0.282 C  
ENDBRANCH  24  25
ENDBRANCH  22  24
ENDBRANCH  11  19
ENDBRANCH   7   9
ENDBRANCH   3   4
ENDBRANCH   2   3
TORSDOF 6
ENDMDL
MODEL       42
REMARK 921   NORMALIZED FREE ENERGY PREDICTED BY IDOCK:   -4.69 KCAL/MOL
REMARK 922        TOTAL FREE ENERGY PREDICTED BY IDOCK:   -7.12 KCAL/MOL
REMARK 923 INTER-LIGAND FREE ENERGY PREDICTED BY IDOCK:   -6.67 KCAL/MOL
REMARK 924 INTRA-LIGAND FREE ENERGY PREDICTED BY IDOCK:   -0.45 KCAL/MOL
REMARK 927      BINDING AFFINITY PREDICTED BY RF-SCORE:    0.00 PKD
ROOT
HETATM    1  C   UNL     1      -6.708  10.172  63.334  1.00  0.00    -0.128 C  
HETATM    2  C   UNL     1      -7.734   9.133  62.903  1.00  0.00    -0.116 C  
ENDROOT
BRANCH   2   3
HETATM    3  C   UNL     1      -9.149   9.661  63.110  1.00  0.00    -0.228 C  
BRANCH   3   4
HETATM    4  C   UNL     1      -9.275  10.474  64.401  1.00  0.00    -0.281 C  
HETATM    5  C   UNL     1      -9.978   9.687  65.524  1.00  0.00    -0.279 C  
HETATM    6  C   UNL     1      -9.286   8.355  65.905  1.00  0.00    -0.217 C  
HETATM    7  C   UNL     1     -10.173  10.555  66.790  1.00  0.00    -0.234 C  
HETATM    8  C   UNL     1      -7.909   8.493  66.537  1.00  0.00    -0.096 C  
BRANCH   7   9
HETATM    9  N   UNL     1     -11.022  11.743  66.639  1.00  0.00    -0.281 NA 
HETATM   10  C   UNL     1     -11.730  12.119  67.861  1.00  0.00    -0.336 C  
HETATM   11  N   UNL     1     -10.791  12.516  68.912  1.00  0.00    -0.224 NA 
HETATM   12  C   UNL     1     -10.075  13.744  68.487  1.00  0.00    -0.225 C  
HETATM   13  H1  UNL     1      -8.542  14.906  65.703  1.00  0.00     0.000 HD 
HETATM   14  C   UNL     1      -9.342  13.628  67.120  1.00  0.00    -0.240 C  
HETATM   15  H2  UNL     1      -8.492  15.535  67.272  1.00  0.00     0.000 HD 
HETATM   16  C   UNL     1      -7.983  12.925  67.276  1.00  0.00    -0.151 C  
HETATM   17  N   UNL     1      -9.022  14.982  66.599  1.00  0.00    -0.271 NA 
HETATM   18  C   UNL     1     -10.287  12.908  66.115  1.00  0.00    -0.276 C  
BRANCH  11  19
HETATM   19  C   UNL     1     -11.495  12.818  70.178  1.00  0.00     0.084 C  
HETATM   20  C   UNL     1     -12.570  10.477  70.482  1.00  0.00    -0.423 C  
HETATM   21  C   UNL     1     -12.773  12.006  70.520  1.00  0.00    -0.082 C  
HETATM   22  C   UNL     1     -13.350  12.472  71.883  1.00  0.00    -0.467 C  
HETATM   23  C   UNL     1     -11.693   9.883  71.576  1.00  0.00    -0.414 C  
BRANCH  22  24
HETATM   24  C   UNL     1     -13.728  13.962  71.964  1.00  0.00    -0.577 C  
BRANCH  24  25
HETATM   25  C   UNL     1     -12.971  14.732  73.048  1.00  0.00    -0.609 C  
HETATM   26  C   UNL     1     -11.990  15.728  72.446  1.00  0.00    -0.600 C  
ENDBRANCH  24  25
ENDBRANCH  22  24
ENDBRANCH  11  19
ENDBRANCH   7   9
ENDBRANCH   3   4
ENDBRANCH   2   3
TORSDOF 6
ENDMDL
MODEL       43
REMARK 921   NORMALIZED FREE ENERGY PREDICTED BY IDOCK:   -4.67 KCAL/MOL
REMARK 922        TOTAL FREE ENERGY PREDICTED BY IDOCK:   -7.10 KCAL/MOL
REMARK 923 INTER-LIGAND FREE ENERGY PREDICTED BY IDOCK:   -6.15 KCAL/MOL
REMARK 924 INTRA-LIGAND FREE ENERGY PREDICTED BY IDOCK:   -0.95 KCAL/MOL
REMARK 927      BINDING AFFINITY PREDICTED BY RF-SCORE:    0.00 PKD
ROOT
HETATM    1  C   UNL     1     -10.742  16.636  68.366  1.00  0.00    -0.353 C  
HETATM    2  C   UNL     1     -11.654  16.099  69.460  1.00  0.00    -0.254 C  
ENDROOT
BRANCH   2   3
HETATM    3  C   UNL     1     -11.363  14.626  69.723  1.00  0.00    -0.315 C  
BRANCH   3   4
HETATM    4  C   UNL     1     -10.361  14.051  68.719  1.00  0.00    -0.225 C  
HETATM    5  C   UNL     1     -10.959  12.900  67.886  1.00  0.00    -0.266 C  
HETATM    6  C   UNL     1     -12.224  13.282  67.080  1.00  0.00    -0.310 C  
HETATM    7  C   UNL     1      -9.906  12.275  66.941  1.00  0.00    -0.209 C  
HETATM    8  C   UNL     1     -12.007  14.294  65.965  1.00  0.00    -0.412 C  
BRANCH   7   9
HETATM    9  N   UNL     1      -8.745  11.648  67.584  1.00  0.00    -0.151 NA 
HETATM   10  C   UNL     1      -9.089  10.824  68.742  1.00  0.00    -0.178 C  
HETATM   11  N   UNL     1      -9.907   9.675  68.346  1.00  0.00    -0.150 NA 
HETATM   12  C   UNL     1      -9.108   8.790  67.464  1.00  0.00    -0.133 C  
HETATM   13  H1  UNL     1      -7.029   9.116  64.814  1.00  0.00     0.000 HD 
HETATM   14  C   UNL     1      -8.510   9.488  66.210  1.00  0.00    -0.115 C  
HETATM   15  H2  UNL     1      -7.731   7.707  65.434  1.00  0.00     0.000 HD 
HETATM   16  C   UNL     1      -9.557   9.610  65.090  1.00  0.00    -0.324 C  
HETATM   17  N   UNL     1      -7.421   8.658  65.636  1.00  0.00    -0.084 NA 
HETATM   18  C   UNL     1      -7.925  10.863  66.645  1.00  0.00    -0.148 C  
BRANCH  11  19
HETATM   19  C   UNL     1     -10.330   8.883  69.522  1.00  0.00    -0.213 C  
HETATM   20  C   UNL     1     -11.717  10.758  70.658  1.00  0.00    -0.442 C  
HETATM   21  C   UNL     1     -10.669   9.640  70.835  1.00  0.00    -0.402 C  
HETATM   22  C   UNL     1     -11.090   8.631  71.935  1.00  0.00    -0.416 C  
HETATM   23  C   UNL     1     -13.139  10.310  70.346  1.00  0.00    -0.089 C  
BRANCH  22  24
HETATM   24  C   UNL     1     -10.040   7.563  72.289  1.00  0.00    -0.244 C  
BRANCH  24  25
HETATM   25  C   UNL     1     -10.201   6.980  73.694  1.00  0.00    -0.396 C  
HETATM   26  C   UNL     1     -10.749   5.561  73.652  1.00  0.00    -0.321 C  
ENDBRANCH  24  25
ENDBRANCH  22  24
ENDBRANCH  11  19
ENDBRANCH   7   9
ENDBRANCH   3   4
ENDBRANCH   2   3
TORSDOF 6
ENDMDL
MODEL       44
REMARK 921   NORMALIZED FREE ENERGY PREDICTED BY IDOCK:   -4.65 KCAL/MOL
REMARK 922        TOTAL FREE ENERGY PREDICTED BY IDOCK:   -7.07 KCAL/MOL
REMARK 923 INTER-LIGAND FREE ENERGY PREDICTED BY IDOCK:   -6.33 KCAL/MOL
REMARK 924 INTRA-LIGAND FREE ENERGY PREDICTED BY IDOCK:   -0.73 KCAL/MOL
REMARK 927      BINDING AFFINITY PREDICTED BY RF-SCORE:    0.00 PKD
ROOT
HETATM    1  C   UNL     1      -9.935   5.134  69.303  1.00  0.00    -0.280 C  
HETATM    2  C   UNL     1     -10.537   5.509  70.650  1.00  0.00    -0.329 C  
ENDROOT
BRANCH   2   3
HETATM    3  C   UNL     1     -11.545   6.642  70.486  1.00  0.00    -0.448 C  
BRANCH   3   4
HETATM    4  C   UNL     1     -10.960   7.823  69.709  1.00  0.00    -0.162 C  
HETATM    5  C   UNL     1     -10.794   9.079  70.586  1.00  0.00    -0.295 C  
HETATM    6  C   UNL     1      -9.895   8.879  71.831  1.00  0.00    -0.364 C  
HETATM    7  C   UNL     1     -10.284  10.286  69.763  1.00  0.00    -0.220 C  
HETATM    8  C   UNL     1      -8.428   8.598  71.537  1.00  0.00    -0.238 C  
BRANCH   7   9
HETATM    9  N   UNL     1     -11.162  10.752  68.682  1.00  0.00    -0.254 NA 
HETATM   10  C   UNL     1     -11.157  12.203  68.505  1.00  0.00    -0.252 C  
HETATM   11  N   UNL     1      -9.836  12.677  68.085  1.00  0.00    -0.222 NA 
HETATM   12  C   UNL     1      -9.524  12.123  66.745  1.00  0.00    -0.212 C  
HETATM   13  H1  UNL     1      -9.731   9.139  65.163  1.00  0.00     0.000 HD 
HETATM   14  C   UNL     1      -9.599  10.573  66.649  1.00  0.00    -0.172 C  
HETATM   15  H2  UNL     1      -8.916  10.537  64.670  1.00  0.00     0.000 HD 
HETATM   16  C   UNL     1      -8.315   9.920  67.186  1.00  0.00    -0.121 C  
HETATM   17  N   UNL     1      -9.682  10.156  65.226  1.00  0.00    -0.279 NA 
HETATM   18  C   UNL     1     -10.880  10.096  67.393  1.00  0.00    -0.261 C  
BRANCH  11  19
HETATM   19  C   UNL     1      -9.800  14.153  67.986  1.00  0.00    -0.223 C  
HETATM   20  C   UNL     1      -7.456  14.464  69.051  1.00  0.00    -0.119 C  
HETATM   21  C   UNL     1      -8.923  14.938  68.999  1.00  0.00    -0.174 C  
HETATM   22  C   UNL     1      -9.022  16.460  68.719  1.00  0.00    -0.245 C  
HETATM   23  C   UNL     1      -6.604  14.759  67.824  1.00  0.00    -0.188 C  
BRANCH  22  24
HETATM   24  C   UNL     1     -10.440  17.054  68.796  1.00  0.00    -0.347 C  
BRANCH  24  25
HETATM   25  C   UNL     1     -10.629  18.313  67.949  1.00  0.00    -0.392 C  
HETATM   26  C   UNL     1     -10.040  19.540  68.628  1.00  0.00    -0.535 C  
ENDBRANCH  24  25
ENDBRANCH  22  24
ENDBRANCH  11  19
ENDBRANCH   7   9
ENDBRANCH   3   4
ENDBRANCH   2   3
TORSDOF 6
ENDMDL
MODEL       45
REMARK 921   NORMALIZED FREE ENERGY PREDICTED BY IDOCK:   -4.64 KCAL/MOL
REMARK 922        TOTAL FREE ENERGY PREDICTED BY IDOCK:   -7.06 KCAL/MOL
REMARK 923 INTER-LIGAND FREE ENERGY PREDICTED BY IDOCK:   -5.95 KCAL/MOL
REMARK 924 INTRA-LIGAND FREE ENERGY PREDICTED BY IDOCK:   -1.11 KCAL/MOL
REMARK 927      BINDING AFFINITY PREDICTED BY RF-SCORE:    0.00 PKD
ROOT
HETATM    1  C   UNL     1      -6.192   9.185  68.987  1.00  0.00    -0.043 C  
HETATM    2  C   UNL     1      -7.048   7.966  68.673  1.00  0.00    -0.076 C  
ENDROOT
BRANCH   2   3
HETATM    3  C   UNL     1      -6.924   6.926  69.781  1.00  0.00    -0.062 C  
BRANCH   3   4
HETATM    4  C   UNL     1      -8.113   6.967  70.743  1.00  0.00    -0.114 C  
HETATM    5  C   UNL     1      -9.466   6.988  70.005  1.00  0.00    -0.161 C  
HETATM    6  C   UNL     1      -9.700   5.784  69.060  1.00  0.00    -0.180 C  
HETATM    7  C   UNL     1     -10.651   7.117  70.990  1.00  0.00    -0.221 C  
HETATM    8  C   UNL     1      -9.826   4.431  69.746  1.00  0.00    -0.284 C  
BRANCH   7   9
HETATM    9  N   UNL     1     -10.695   8.344  71.796  1.00  0.00    -0.262 NA 
HETATM   10  C   UNL     1     -10.615   9.570  71.004  1.00  0.00    -0.322 C  
HETATM   11  N   UNL     1     -11.781   9.708  70.128  1.00  0.00    -0.153 NA 
HETATM   12  C   UNL     1     -12.999   9.864  70.961  1.00  0.00    -0.331 C  
HETATM   13  H1  UNL     1     -14.353   8.421  73.706  1.00  0.00     0.000 HD 
HETATM   14  C   UNL     1     -13.230   8.726  71.995  1.00  0.00    -0.395 C  
HETATM   15  H2  UNL     1     -15.076   9.493  72.615  1.00  0.00     0.000 HD 
HETATM   16  C   UNL     1     -13.874   7.496  71.334  1.00  0.00    -0.439 C  
HETATM   17  N   UNL     1     -14.202   9.168  73.028  1.00  0.00    -0.304 NA 
HETATM   18  C   UNL     1     -11.871   8.404  72.682  1.00  0.00    -0.290 C  
BRANCH  11  19
HETATM   19  C   UNL     1     -11.666  10.903  69.263  1.00  0.00    -0.324 C  
HETATM   20  C   UNL     1      -9.702  10.030  67.812  1.00  0.00    -0.174 C  
HETATM   21  C   UNL     1     -10.291  11.210  68.612  1.00  0.00    -0.219 C  
HETATM   22  C   UNL     1     -10.388  12.494  67.747  1.00  0.00    -0.224 C  
HETATM   23  C   UNL     1     -10.422   9.658  66.523  1.00  0.00    -0.213 C  
BRANCH  22  24
HETATM   24  C   UNL     1     -10.824  13.765  68.498  1.00  0.00    -0.280 C  
BRANCH  24  25
HETATM   25  C   UNL     1     -11.905  14.570  67.775  1.00  0.00    -0.390 C  
HETATM   26  C   UNL     1     -12.284  13.932  66.447  1.00  0.00    -0.487 C  
ENDBRANCH  24  25
ENDBRANCH  22  24
ENDBRANCH  11  19
ENDBRANCH   7   9
ENDBRANCH   3   4
ENDBRANCH   2   3
TORSDOF 6
ENDMDL
MODEL       46
REMARK 921   NORMALIZED FREE ENERGY PREDICTED BY IDOCK:   -4.63 KCAL/MOL
REMARK 922        TOTAL FREE ENERGY PREDICTED BY IDOCK:   -7.04 KCAL/MOL
REMARK 923 INTER-LIGAND FREE ENERGY PREDICTED BY IDOCK:   -6.82 KCAL/MOL
REMARK 924 INTRA-LIGAND FREE ENERGY PREDICTED BY IDOCK:   -0.22 KCAL/MOL
REMARK 927      BINDING AFFINITY PREDICTED BY RF-SCORE:    0.00 PKD
ROOT
HETATM    1  C   UNL     1      -9.762   4.762  70.355  1.00  0.00    -0.289 C  
HETATM    2  C   UNL     1     -10.586   5.535  71.375  1.00  0.00    -0.310 C  
ENDROOT
BRANCH   2   3
HETATM    3  C   UNL     1     -11.549   6.487  70.673  1.00  0.00    -0.442 C  
BRANCH   3   4
HETATM    4  C   UNL     1     -10.845   7.334  69.610  1.00  0.00    -0.238 C  
HETATM    5  C   UNL     1     -10.730   8.815  70.021  1.00  0.00    -0.236 C  
HETATM    6  C   UNL     1      -9.975   9.056  71.351  1.00  0.00    -0.388 C  
HETATM    7  C   UNL     1     -10.096   9.669  68.898  1.00  0.00    -0.187 C  
HETATM    8  C   UNL     1      -8.496   8.698  71.336  1.00  0.00    -0.240 C  
BRANCH   7   9
HETATM    9  N   UNL     1     -10.837   9.734  67.633  1.00  0.00    -0.279 NA 
HETATM   10  C   UNL     1     -11.199  11.092  67.233  1.00  0.00    -0.277 C  
HETATM   11  N   UNL     1     -10.006  11.895  66.957  1.00  0.00    -0.201 NA 
HETATM   12  C   UNL     1      -9.295  11.324  65.787  1.00  0.00    -0.223 C  
HETATM   13  H1  UNL     1      -8.353   8.267  64.682  1.00  0.00     0.000 HD 
HETATM   14  C   UNL     1      -8.918   9.822  65.925  1.00  0.00    -0.156 C  
HETATM   15  H2  UNL     1      -7.876   9.786  64.110  1.00  0.00     0.000 HD 
HETATM   16  C   UNL     1      -7.635   9.645  66.755  1.00  0.00    -0.098 C  
HETATM   17  N   UNL     1      -8.601   9.252  64.591  1.00  0.00    -0.178 NA 
HETATM   18  C   UNL     1     -10.137   9.062  66.525  1.00  0.00    -0.283 C  
BRANCH  11  19
HETATM   19  C   UNL     1     -10.361  13.295  66.633  1.00  0.00    -0.274 C  
HETATM   20  C   UNL     1     -11.100  12.853  64.186  1.00  0.00    -0.438 C  
HETATM   21  C   UNL     1     -10.291  13.747  65.149  1.00  0.00    -0.391 C  
HETATM   22  C   UNL     1     -10.704  15.237  65.028  1.00  0.00    -0.461 C  
HETATM   23  C   UNL     1     -12.616  12.918  64.314  1.00  0.00    -0.363 C  
BRANCH  22  24
HETATM   24  C   UNL     1      -9.850  16.227  65.841  1.00  0.00    -0.365 C  
BRANCH  24  25
HETATM   25  C   UNL     1     -10.649  17.040  66.860  1.00  0.00    -0.208 C  
HETATM   26  C   UNL     1     -10.194  16.757  68.284  1.00  0.00    -0.295 C  
ENDBRANCH  24  25
ENDBRANCH  22  24
ENDBRANCH  11  19
ENDBRANCH   7   9
ENDBRANCH   3   4
ENDBRANCH   2   3
TORSDOF 6
ENDMDL
MODEL       47
REMARK 921   NORMALIZED FREE ENERGY PREDICTED BY IDOCK:   -4.57 KCAL/MOL
REMARK 922        TOTAL FREE ENERGY PREDICTED BY IDOCK:   -6.97 KCAL/MOL
REMARK 923 INTER-LIGAND FREE ENERGY PREDICTED BY IDOCK:   -6.57 KCAL/MOL
REMARK 924 INTRA-LIGAND FREE ENERGY PREDICTED BY IDOCK:   -0.40 KCAL/MOL
REMARK 927      BINDING AFFINITY PREDICTED BY RF-SCORE:    0.00 PKD
ROOT
HETATM    1  C   UNL     1     -12.649  10.971  71.082  1.00  0.00    -0.522 C  
HETATM    2  C   UNL     1     -12.290  12.422  70.794  1.00  0.00    -0.377 C  
ENDROOT
BRANCH   2   3
HETATM    3  C   UNL     1     -12.156  12.652  69.293  1.00  0.00    -0.218 C  
BRANCH   3   4
HETATM    4  C   UNL     1     -10.970  13.557  68.954  1.00  0.00    -0.286 C  
HETATM    5  C   UNL     1     -11.401  15.011  68.678  1.00  0.00    -0.311 C  
HETATM    6  C   UNL     1     -12.156  15.689  69.847  1.00  0.00    -0.360 C  
HETATM    7  C   UNL     1     -10.200  15.889  68.253  1.00  0.00    -0.227 C  
HETATM    8  C   UNL     1     -11.336  15.920  71.108  1.00  0.00    -0.435 C  
BRANCH   7   9
HETATM    9  N   UNL     1      -9.522  15.505  67.010  1.00  0.00    -0.220 NA 
HETATM   10  C   UNL     1      -8.781  16.597  66.382  1.00  0.00    -0.310 C  
HETATM   11  N   UNL     1      -7.677  17.044  67.235  1.00  0.00    -0.164 NA 
HETATM   12  C   UNL     1      -6.695  15.941  67.376  1.00  0.00    -0.194 C  
HETATM   13  H1  UNL     1      -6.742  12.611  67.977  1.00  0.00     0.000 HD 
HETATM   14  C   UNL     1      -7.287  14.606  67.909  1.00  0.00    -0.154 C  
HETATM   15  H2  UNL     1      -5.419  13.665  67.995  1.00  0.00     0.000 HD 
HETATM   16  C   UNL     1      -7.431  14.635  69.440  1.00  0.00    -0.112 C  
HETATM   17  N   UNL     1      -6.353  13.487  67.626  1.00  0.00    -0.215 NA 
HETATM   18  C   UNL     1      -8.635  14.340  67.178  1.00  0.00    -0.216 C  
BRANCH  11  19
HETATM   19  C   UNL     1      -6.975  18.205  66.644  1.00  0.00    -0.210 C  
HETATM   20  C   UNL     1      -7.391  19.836  68.618  1.00  0.00    -0.342 C  
HETATM   21  C   UNL     1      -7.406  19.629  67.089  1.00  0.00    -0.245 C  
HETATM   22  C   UNL     1      -6.547  20.695  66.359  1.00  0.00    -0.307 C  
HETATM   23  C   UNL     1      -6.022  19.855  69.285  1.00  0.00    -0.318 C  
BRANCH  22  24
HETATM   24  C   UNL     1      -6.620  20.662  64.822  1.00  0.00    -0.275 C  
BRANCH  24  25
HETATM   25  C   UNL     1      -5.255  20.551  64.141  1.00  0.00    -0.223 C  
HETATM   26  C   UNL     1      -5.183  19.338  63.224  1.00  0.00    -0.326 C  
ENDBRANCH  24  25
ENDBRANCH  22  24
ENDBRANCH  11  19
ENDBRANCH   7   9
ENDBRANCH   3   4
ENDBRANCH   2   3
TORSDOF 6
ENDMDL
MODEL       48
REMARK 921   NORMALIZED FREE ENERGY PREDICTED BY IDOCK:   -4.56 KCAL/MOL
REMARK 922        TOTAL FREE ENERGY PREDICTED BY IDOCK:   -6.95 KCAL/MOL
REMARK 923 INTER-LIGAND FREE ENERGY PREDICTED BY IDOCK:   -5.86 KCAL/MOL
REMARK 924 INTRA-LIGAND FREE ENERGY PREDICTED BY IDOCK:   -1.09 KCAL/MOL
REMARK 927      BINDING AFFINITY PREDICTED BY RF-SCORE:    0.00 PKD
ROOT
HETATM    1  C   UNL     1      -9.050   5.060  69.477  1.00  0.00    -0.150 C  
HETATM    2  C   UNL     1      -9.874   5.031  70.756  1.00  0.00    -0.279 C  
ENDROOT
BRANCH   2   3
HETATM    3  C   UNL     1     -10.834   6.215  70.800  1.00  0.00    -0.350 C  
BRANCH   3   4
HETATM    4  C   UNL     1     -10.497   7.266  69.739  1.00  0.00    -0.236 C  
HETATM    5  C   UNL     1     -10.172   8.640  70.357  1.00  0.00    -0.218 C  
HETATM    6  C   UNL     1      -8.993   8.630  71.360  1.00  0.00    -0.286 C  
HETATM    7  C   UNL     1      -9.921   9.709  69.267  1.00  0.00    -0.191 C  
HETATM    8  C   UNL     1      -7.630   8.310  70.763  1.00  0.00    -0.073 C  
BRANCH   7   9
HETATM    9  N   UNL     1     -11.049  10.006  68.376  1.00  0.00    -0.218 NA 
HETATM   10  C   UNL     1     -11.517  11.388  68.461  1.00  0.00    -0.297 C  
HETATM   11  N   UNL     1     -10.484  12.323  68.008  1.00  0.00    -0.211 NA 
HETATM   12  C   UNL     1     -10.218  12.092  66.567  1.00  0.00    -0.206 C  
HETATM   13  H1  UNL     1      -9.729   9.454  64.505  1.00  0.00     0.000 HD 
HETATM   14  C   UNL     1      -9.826  10.632  66.203  1.00  0.00    -0.217 C  
HETATM   15  H2  UNL     1      -9.467  11.096  64.193  1.00  0.00     0.000 HD 
HETATM   16  C   UNL     1      -8.338  10.369  66.490  1.00  0.00    -0.130 C  
HETATM   17  N   UNL     1      -9.987  10.412  64.743  1.00  0.00    -0.334 NA 
HETATM   18  C   UNL     1     -10.773   9.664  66.970  1.00  0.00    -0.155 C  
BRANCH  11  19
HETATM   19  C   UNL     1     -10.919  13.728  68.170  1.00  0.00    -0.246 C  
HETATM   20  C   UNL     1      -8.543  14.767  68.233  1.00  0.00    -0.164 C  
HETATM   21  C   UNL     1      -9.950  14.722  68.865  1.00  0.00    -0.233 C  
HETATM   22  C   UNL     1     -10.593  16.132  68.929  1.00  0.00    -0.275 C  
HETATM   23  C   UNL     1      -8.446  15.378  66.841  1.00  0.00    -0.287 C  
BRANCH  22  24
HETATM   24  C   UNL     1     -11.935  16.212  69.680  1.00  0.00    -0.070 C  
BRANCH  24  25
HETATM   25  C   UNL     1     -11.840  15.830  71.157  1.00  0.00    -0.471 C  
HETATM   26  C   UNL     1     -13.182  15.365  71.703  1.00  0.00    -0.563 C  
ENDBRANCH  24  25
ENDBRANCH  22  24
ENDBRANCH  11  19
ENDBRANCH   7   9
ENDBRANCH   3   4
ENDBRANCH   2   3
TORSDOF 6
ENDMDL
MODEL       49
REMARK 921   NORMALIZED FREE ENERGY PREDICTED BY IDOCK:   -4.55 KCAL/MOL
REMARK 922        TOTAL FREE ENERGY PREDICTED BY IDOCK:   -6.93 KCAL/MOL
REMARK 923 INTER-LIGAND FREE ENERGY PREDICTED BY IDOCK:   -6.39 KCAL/MOL
REMARK 924 INTRA-LIGAND FREE ENERGY PREDICTED BY IDOCK:   -0.54 KCAL/MOL
REMARK 927      BINDING AFFINITY PREDICTED BY RF-SCORE:    0.00 PKD
ROOT
HETATM    1  C   UNL     1      -9.450   4.034  68.882  1.00  0.00    -0.237 C  
HETATM    2  C   UNL     1      -9.523   3.707  70.366  1.00  0.00    -0.255 C  
ENDROOT
BRANCH   2   3
HETATM    3  C   UNL     1     -10.112   4.879  71.143  1.00  0.00    -0.277 C  
BRANCH   3   4
HETATM    4  C   UNL     1      -9.724   6.227  70.530  1.00  0.00    -0.196 C  
HETATM    5  C   UNL     1     -10.952   7.039  70.074  1.00  0.00    -0.303 C  
HETATM    6  C   UNL     1     -11.975   7.340  71.196  1.00  0.00    -0.363 C  
HETATM    7  C   UNL     1     -10.536   8.357  69.379  1.00  0.00    -0.217 C  
HETATM    8  C   UNL     1     -11.480   8.261  72.302  1.00  0.00    -0.452 C  
BRANCH   7   9
HETATM    9  N   UNL     1      -9.752   8.222  68.145  1.00  0.00    -0.154 NA 
HETATM   10  C   UNL     1      -9.902   9.349  67.227  1.00  0.00    -0.179 C  
HETATM   11  N   UNL     1      -9.377  10.583  67.817  1.00  0.00    -0.148 NA 
HETATM   12  C   UNL     1      -7.914  10.441  68.020  1.00  0.00    -0.105 C  
HETATM   13  H1  UNL     1      -5.771   8.118  69.229  1.00  0.00     0.000 HD 
HETATM   14  C   UNL     1      -7.492   9.210  68.870  1.00  0.00    -0.075 C  
HETATM   15  H2  UNL     1      -5.467   9.742  68.865  1.00  0.00     0.000 HD 
HETATM   16  C   UNL     1      -7.643   9.495  70.374  1.00  0.00    -0.169 C  
HETATM   17  N   UNL     1      -6.048   8.926  68.671  1.00  0.00    -0.045 NA 
HETATM   18  C   UNL     1      -8.321   7.980  68.400  1.00  0.00    -0.127 C  
BRANCH  11  19
HETATM   19  C   UNL     1      -9.602  11.744  66.928  1.00  0.00    -0.193 C  
HETATM   20  C   UNL     1     -11.896  12.436  67.921  1.00  0.00    -0.370 C  
HETATM   21  C   UNL     1     -11.064  12.182  66.646  1.00  0.00    -0.353 C  
HETATM   22  C   UNL     1     -11.076  13.413  65.701  1.00  0.00    -0.298 C  
HETATM   23  C   UNL     1     -11.510  13.653  68.750  1.00  0.00    -0.346 C  
BRANCH  22  24
HETATM   24  C   UNL     1     -10.398  13.203  64.336  1.00  0.00    -0.390 C  
BRANCH  24  25
HETATM   25  C   UNL     1     -10.935  12.001  63.558  1.00  0.00    -0.514 C  
HETATM   26  C   UNL     1     -12.443  12.080  63.375  1.00  0.00    -0.625 C  
ENDBRANCH  24  25
ENDBRANCH  22  24
ENDBRANCH  11  19
ENDBRANCH   7   9
ENDBRANCH   3   4
ENDBRANCH   2   3
TORSDOF 6
ENDMDL
MODEL       50
REMARK 921   NORMALIZED FREE ENERGY PREDICTED BY IDOCK:   -4.55 KCAL/MOL
REMARK 922        TOTAL FREE ENERGY PREDICTED BY IDOCK:   -6.93 KCAL/MOL
REMARK 923 INTER-LIGAND FREE ENERGY PREDICTED BY IDOCK:   -5.68 KCAL/MOL
REMARK 924 INTRA-LIGAND FREE ENERGY PREDICTED BY IDOCK:   -1.25 KCAL/MOL
REMARK 927      BINDING AFFINITY PREDICTED BY RF-SCORE:    0.00 PKD
ROOT
HETATM    1  C   UNL     1     -13.081  11.535  71.658  1.00  0.00    -0.478 C  
HETATM    2  C   UNL     1     -12.413  10.239  71.220  1.00  0.00    -0.514 C  
ENDROOT
BRANCH   2   3
HETATM    3  C   UNL     1     -12.694   9.127  72.225  1.00  0.00    -0.447 C  
BRANCH   3   4
HETATM    4  C   UNL     1     -12.117   7.784  71.772  1.00  0.00    -0.332 C  
HETATM    5  C   UNL     1     -10.606   7.864  71.478  1.00  0.00    -0.262 C  
HETATM    6  C   UNL     1      -9.743   8.338  72.674  1.00  0.00    -0.357 C  
HETATM    7  C   UNL     1     -10.059   6.521  70.940  1.00  0.00    -0.185 C  
HETATM    8  C   UNL     1      -9.703   7.392  73.865  1.00  0.00    -0.287 C  
BRANCH   7   9
HETATM    9  N   UNL     1     -10.619   6.056  69.665  1.00  0.00    -0.267 NA 
HETATM   10  C   UNL     1     -10.630   7.078  68.620  1.00  0.00    -0.210 C  
HETATM   11  N   UNL     1      -9.268   7.475  68.257  1.00  0.00    -0.139 NA 
HETATM   12  C   UNL     1      -8.568   6.314  67.654  1.00  0.00    -0.114 C  
HETATM   13  H1  UNL     1      -8.189   3.013  68.298  1.00  0.00     0.000 HD 
HETATM   14  C   UNL     1      -8.543   5.037  68.542  1.00  0.00    -0.094 C  
HETATM   15  H2  UNL     1      -7.333   3.977  67.203  1.00  0.00     0.000 HD 
HETATM   16  C   UNL     1      -7.432   5.120  69.602  1.00  0.00    -0.061 C  
HETATM   17  N   UNL     1      -8.205   3.850  67.716  1.00  0.00    -0.092 NA 
HETATM   18  C   UNL     1      -9.958   4.840  69.159  1.00  0.00    -0.163 C  
BRANCH  11  19
HETATM   19  C   UNL     1      -9.272   8.569  67.260  1.00  0.00    -0.141 C  
HETATM   20  C   UNL     1      -9.313  10.522  68.967  1.00  0.00    -0.205 C  
HETATM   21  C   UNL     1      -9.897   9.931  67.666  1.00  0.00    -0.198 C  
HETATM   22  C   UNL     1      -9.796  10.934  66.487  1.00  0.00    -0.245 C  
HETATM   23  C   UNL     1      -7.871  11.007  68.902  1.00  0.00    -0.138 C  
BRANCH  22  24
HETATM   24  C   UNL     1     -10.487  10.493  65.185  1.00  0.00    -0.225 C  
BRANCH  24  25
HETATM   25  C   UNL     1      -9.550  10.433  63.977  1.00  0.00    -0.376 C  
HETATM   26  C   UNL     1      -8.093  10.330  64.404  1.00  0.00    -0.149 C  
ENDBRANCH  24  25
ENDBRANCH  22  24
ENDBRANCH  11  19
ENDBRANCH   7   9
ENDBRANCH   3   4
ENDBRANCH   2   3
TORSDOF 6
ENDMDL
MODEL       51
REMARK 921   NORMALIZED FREE ENERGY PREDICTED BY IDOCK:   -4.50 KCAL/MOL
REMARK 922        TOTAL FREE ENERGY PREDICTED BY IDOCK:   -6.87 KCAL/MOL
REMARK 923 INTER-LIGAND FREE ENERGY PREDICTED BY IDOCK:   -5.85 KCAL/MOL
REMARK 924 INTRA-LIGAND FREE ENERGY PREDICTED BY IDOCK:   -1.02 KCAL/MOL
REMARK 927      BINDING AFFINITY PREDICTED BY RF-SCORE:    0.00 PKD
ROOT
HETATM    1  C   UNL     1      -9.947   3.317  73.902  1.00  0.00    -0.165 C  
HETATM    2  C   UNL     1      -8.493   3.619  74.238  1.00  0.00    -0.088 C  
ENDROOT
BRANCH   2   3
HETATM    3  C   UNL     1      -8.076   4.961  73.645  1.00  0.00    -0.106 C  
BRANCH   3   4
HETATM    4  C   UNL     1      -9.274   5.750  73.113  1.00  0.00    -0.136 C  
HETATM    5  C   UNL     1      -9.035   6.291  71.689  1.00  0.00    -0.144 C  
HETATM    6  C   UNL     1      -8.717   5.203  70.634  1.00  0.00    -0.142 C  
HETATM    7  C   UNL     1     -10.221   7.158  71.203  1.00  0.00    -0.191 C  
HETATM    8  C   UNL     1      -9.851   4.234  70.333  1.00  0.00    -0.268 C  
BRANCH   7   9
HETATM    9  N   UNL     1     -10.495   8.375  71.977  1.00  0.00    -0.286 NA 
HETATM   10  C   UNL     1     -10.423   9.603  71.187  1.00  0.00    -0.211 C  
HETATM   11  N   UNL     1     -11.462   9.626  70.154  1.00  0.00    -0.223 NA 
HETATM   12  C   UNL     1     -12.794   9.664  70.806  1.00  0.00    -0.104 C  
HETATM   13  H1  UNL     1     -14.376   8.098  73.355  1.00  0.00     0.000 HD 
HETATM   14  C   UNL     1     -13.057   8.510  71.814  1.00  0.00    -0.355 C  
HETATM   15  H2  UNL     1     -15.038   9.094  72.159  1.00  0.00     0.000 HD 
HETATM   16  C   UNL     1     -13.482   7.223  71.087  1.00  0.00    -0.243 C  
HETATM   17  N   UNL     1     -14.203   8.856  72.694  1.00  0.00    -0.561 NA 
HETATM   18  C   UNL     1     -11.784   8.321  72.689  1.00  0.00    -0.337 C  
BRANCH  11  19
HETATM   19  C   UNL     1     -11.342  10.827  69.297  1.00  0.00    -0.286 C  
HETATM   20  C   UNL     1      -9.401   9.942  67.821  1.00  0.00    -0.154 C  
HETATM   21  C   UNL     1      -9.970  11.123  68.635  1.00  0.00    -0.210 C  
HETATM   22  C   UNL     1     -10.061  12.414  67.780  1.00  0.00    -0.203 C  
HETATM   23  C   UNL     1     -10.137   9.588  66.536  1.00  0.00    -0.326 C  
BRANCH  22  24
HETATM   24  C   UNL     1     -10.476  13.684  68.544  1.00  0.00    -0.249 C  
BRANCH  24  25
HETATM   25  C   UNL     1     -11.834  14.245  68.119  1.00  0.00    -0.374 C  
HETATM   26  C   UNL     1     -12.156  13.896  66.673  1.00  0.00    -0.485 C  
ENDBRANCH  24  25
ENDBRANCH  22  24
ENDBRANCH  11  19
ENDBRANCH   7   9
ENDBRANCH   3   4
ENDBRANCH   2   3
TORSDOF 6
ENDMDL
MODEL       52
REMARK 921   NORMALIZED FREE ENERGY PREDICTED BY IDOCK:   -4.50 KCAL/MOL
REMARK 922        TOTAL FREE ENERGY PREDICTED BY IDOCK:   -6.86 KCAL/MOL
REMARK 923 INTER-LIGAND FREE ENERGY PREDICTED BY IDOCK:   -5.97 KCAL/MOL
REMARK 924 INTRA-LIGAND FREE ENERGY PREDICTED BY IDOCK:   -0.89 KCAL/MOL
REMARK 927      BINDING AFFINITY PREDICTED BY RF-SCORE:    0.00 PKD
ROOT
HETATM    1  C   UNL     1     -10.515   8.066  66.826  1.00  0.00    -0.319 C  
HETATM    2  C   UNL     1      -9.467   8.915  66.120  1.00  0.00    -0.318 C  
ENDROOT
BRANCH   2   3
HETATM    3  C   UNL     1     -10.128  10.069  65.375  1.00  0.00    -0.317 C  
BRANCH   3   4
HETATM    4  C   UNL     1     -10.449  11.243  66.303  1.00  0.00    -0.308 C  
HETATM    5  C   UNL     1      -9.879  12.577  65.783  1.00  0.00    -0.244 C  
HETATM    6  C   UNL     1     -10.373  12.979  64.371  1.00  0.00    -0.397 C  
HETATM    7  C   UNL     1     -10.139  13.733  66.776  1.00  0.00    -0.265 C  
HETATM    8  C   UNL     1     -11.857  13.299  64.266  1.00  0.00    -0.469 C  
BRANCH   7   9
HETATM    9  N   UNL     1      -9.520  13.603  68.101  1.00  0.00    -0.212 NA 
HETATM   10  C   UNL     1      -8.552  14.657  68.403  1.00  0.00    -0.169 C  
HETATM   11  N   UNL     1      -9.205  15.967  68.471  1.00  0.00    -0.193 NA 
HETATM   12  C   UNL     1     -10.157  15.978  69.609  1.00  0.00    -0.244 C  
HETATM   13  H1  UNL     1     -12.533  13.944  70.900  1.00  0.00     0.000 HD 
HETATM   14  C   UNL     1     -11.220  14.843  69.578  1.00  0.00    -0.277 C  
HETATM   15  H2  UNL     1     -12.223  15.566  71.267  1.00  0.00     0.000 HD 
HETATM   16  C   UNL     1     -12.384  15.198  68.638  1.00  0.00     0.084 C  
HETATM   17  N   UNL     1     -11.836  14.688  70.920  1.00  0.00    -0.311 NA 
HETATM   18  C   UNL     1     -10.509  13.514  69.189  1.00  0.00     0.035 C  
BRANCH  11  19
HETATM   19  C   UNL     1      -8.219  17.049  68.693  1.00  0.00    -0.261 C  
HETATM   20  C   UNL     1      -8.403  18.104  66.331  1.00  0.00    -0.272 C  
HETATM   21  C   UNL     1      -7.470  17.625  67.462  1.00  0.00    -0.206 C  
HETATM   22  C   UNL     1      -6.494  18.744  67.911  1.00  0.00    -0.217 C  
HETATM   23  C   UNL     1      -9.235  19.347  66.621  1.00  0.00    -0.393 C  
BRANCH  22  24
HETATM   24  C   UNL     1      -5.423  18.316  68.930  1.00  0.00    -0.197 C  
BRANCH  24  25
HETATM   25  C   UNL     1      -5.390  19.181  70.191  1.00  0.00    -0.229 C  
HETATM   26  C   UNL     1      -6.530  20.188  70.209  1.00  0.00    -0.275 C  
ENDBRANCH  24  25
ENDBRANCH  22  24
ENDBRANCH  11  19
ENDBRANCH   7   9
ENDBRANCH   3   4
ENDBRANCH   2   3
TORSDOF 6
ENDMDL
MODEL       53
REMARK 921   NORMALIZED FREE ENERGY PREDICTED BY IDOCK:   -4.50 KCAL/MOL
REMARK 922        TOTAL FREE ENERGY PREDICTED BY IDOCK:   -6.86 KCAL/MOL
REMARK 923 INTER-LIGAND FREE ENERGY PREDICTED BY IDOCK:   -6.95 KCAL/MOL
REMARK 924 INTRA-LIGAND FREE ENERGY PREDICTED BY IDOCK:    0.09 KCAL/MOL
REMARK 927      BINDING AFFINITY PREDICTED BY RF-SCORE:    0.00 PKD
ROOT
HETATM    1  C   UNL     1     -10.200   5.124  67.490  1.00  0.00    -0.210 C  
HETATM    2  C   UNL     1     -10.436   6.624  67.376  1.00  0.00    -0.325 C  
ENDROOT
BRANCH   2   3
HETATM    3  C   UNL     1      -9.532   7.227  66.306  1.00  0.00    -0.133 C  
BRANCH   3   4
HETATM    4  C   UNL     1      -9.910   8.674  65.985  1.00  0.00    -0.183 C  
HETATM    5  C   UNL     1      -9.384   9.667  67.040  1.00  0.00    -0.180 C  
HETATM    6  C   UNL     1      -7.848   9.642  67.235  1.00  0.00    -0.095 C  
HETATM    7  C   UNL     1      -9.850  11.112  66.744  1.00  0.00    -0.200 C  
HETATM    8  C   UNL     1      -7.031  10.111  66.040  1.00  0.00    -0.117 C  
BRANCH   7   9
HETATM    9  N   UNL     1     -11.299  11.345  66.766  1.00  0.00    -0.405 NA 
HETATM   10  C   UNL     1     -11.829  11.631  68.098  1.00  0.00    -0.244 C  
HETATM   11  N   UNL     1     -11.285  12.886  68.622  1.00  0.00    -0.263 NA 
HETATM   12  C   UNL     1     -11.749  14.010  67.772  1.00  0.00    -0.368 C  
HETATM   13  H1  UNL     1     -12.034  14.695  64.470  1.00  0.00     0.000 HD 
HETATM   14  C   UNL     1     -11.414  13.863  66.260  1.00  0.00    -0.339 C  
HETATM   15  H2  UNL     1     -12.168  15.756  65.780  1.00  0.00     0.000 HD 
HETATM   16  C   UNL     1      -9.963  14.281  65.970  1.00  0.00    -0.337 C  
HETATM   17  N   UNL     1     -12.254  14.791  65.461  1.00  0.00    -0.175 NA 
HETATM   18  C   UNL     1     -11.723  12.400  65.829  1.00  0.00    -0.414 C  
BRANCH  11  19
HETATM   19  C   UNL     1     -11.751  13.140  70.003  1.00  0.00    -0.221 C  
HETATM   20  C   UNL     1     -12.444  10.698  70.534  1.00  0.00    -0.445 C  
HETATM   21  C   UNL     1     -12.823  12.191  70.604  1.00  0.00    -0.031 C  
HETATM   22  C   UNL     1     -13.166  12.627  72.053  1.00  0.00    -0.531 C  
HETATM   23  C   UNL     1     -11.297  10.248  71.430  1.00  0.00     0.018 C  
BRANCH  22  24
HETATM   24  C   UNL     1     -13.701  14.063  72.201  1.00  0.00    -0.603 C  
BRANCH  24  25
HETATM   25  C   UNL     1     -12.807  14.971  73.046  1.00  0.00    -0.574 C  
HETATM   26  C   UNL     1     -12.251  16.128  72.229  1.00  0.00    -0.577 C  
ENDBRANCH  24  25
ENDBRANCH  22  24
ENDBRANCH  11  19
ENDBRANCH   7   9
ENDBRANCH   3   4
ENDBRANCH   2   3
TORSDOF 6
ENDMDL
MODEL       54
REMARK 921   NORMALIZED FREE ENERGY PREDICTED BY IDOCK:   -4.44 KCAL/MOL
REMARK 922        TOTAL FREE ENERGY PREDICTED BY IDOCK:   -6.79 KCAL/MOL
REMARK 923 INTER-LIGAND FREE ENERGY PREDICTED BY IDOCK:   -6.86 KCAL/MOL
REMARK 924 INTRA-LIGAND FREE ENERGY PREDICTED BY IDOCK:    0.07 KCAL/MOL
REMARK 927      BINDING AFFINITY PREDICTED BY RF-SCORE:    0.00 PKD
ROOT
HETATM    1  C   UNL     1     -14.149   8.616  72.001  1.00  0.00    -0.523 C  
HETATM    2  C   UNL     1     -12.646   8.843  72.077  1.00  0.00    -0.460 C  
ENDROOT
BRANCH   2   3
HETATM    3  C   UNL     1     -11.894   7.603  71.605  1.00  0.00    -0.323 C  
BRANCH   3   4
HETATM    4  C   UNL     1     -11.253   7.808  70.231  1.00  0.00    -0.215 C  
HETATM    5  C   UNL     1     -10.306   9.024  70.201  1.00  0.00    -0.237 C  
HETATM    6  C   UNL     1      -9.148   8.962  71.226  1.00  0.00    -0.323 C  
HETATM    7  C   UNL     1      -9.736   9.266  68.783  1.00  0.00    -0.157 C  
HETATM    8  C   UNL     1      -8.125   7.860  70.990  1.00  0.00    -0.098 C  
BRANCH   7   9
HETATM    9  N   UNL     1     -10.714   9.583  67.735  1.00  0.00    -0.262 NA 
HETATM   10  C   UNL     1     -11.097  10.993  67.695  1.00  0.00    -0.300 C  
HETATM   11  N   UNL     1      -9.954  11.840  67.346  1.00  0.00    -0.184 NA 
HETATM   12  C   UNL     1      -9.515  11.519  65.966  1.00  0.00    -0.229 C  
HETATM   13  H1  UNL     1      -8.930   8.753  64.107  1.00  0.00     0.000 HD 
HETATM   14  C   UNL     1      -9.174  10.022  65.723  1.00  0.00    -0.176 C  
HETATM   15  H2  UNL     1      -8.521  10.357  63.763  1.00  0.00     0.000 HD 
HETATM   16  C   UNL     1      -7.758   9.686  66.221  1.00  0.00    -0.101 C  
HETATM   17  N   UNL     1      -9.153   9.735  64.266  1.00  0.00    -0.246 NA 
HETATM   18  C   UNL     1     -10.276   9.152  66.396  1.00  0.00    -0.230 C  
BRANCH  11  19
HETATM   19  C   UNL     1     -10.314  13.275  67.387  1.00  0.00    -0.243 C  
HETATM   20  C   UNL     1     -11.244  13.413  64.969  1.00  0.00    -0.332 C  
HETATM   21  C   UNL     1     -10.352  14.061  66.049  1.00  0.00    -0.312 C  
HETATM   22  C   UNL     1     -10.753  15.536  66.311  1.00  0.00    -0.307 C  
HETATM   23  C   UNL     1     -12.745  13.440  65.226  1.00  0.00    -0.481 C  
BRANCH  22  24
HETATM   24  C   UNL     1      -9.826  16.313  67.264  1.00  0.00    -0.243 C  
BRANCH  24  25
HETATM   25  C   UNL     1     -10.541  17.391  68.080  1.00  0.00    -0.389 C  
HETATM   26  C   UNL     1     -10.591  18.716  67.335  1.00  0.00    -0.490 C  
ENDBRANCH  24  25
ENDBRANCH  22  24
ENDBRANCH  11  19
ENDBRANCH   7   9
ENDBRANCH   3   4
ENDBRANCH   2   3
TORSDOF 6
ENDMDL
MODEL       55
REMARK 921   NORMALIZED FREE ENERGY PREDICTED BY IDOCK:   -4.42 KCAL/MOL
REMARK 922        TOTAL FREE ENERGY PREDICTED BY IDOCK:   -6.76 KCAL/MOL
REMARK 923 INTER-LIGAND FREE ENERGY PREDICTED BY IDOCK:   -5.93 KCAL/MOL
REMARK 924 INTRA-LIGAND FREE ENERGY PREDICTED BY IDOCK:   -0.83 KCAL/MOL
REMARK 927      BINDING AFFINITY PREDICTED BY RF-SCORE:    0.00 PKD
ROOT
HETATM    1  C   UNL     1     -12.846  13.908  65.437  1.00  0.00    -0.466 C  
HETATM    2  C   UNL     1     -12.221  13.946  64.050  1.00  0.00    -0.413 C  
ENDROOT
BRANCH   2   3
HETATM    3  C   UNL     1     -11.389  12.692  63.804  1.00  0.00    -0.529 C  
BRANCH   3   4
HETATM    4  C   UNL     1     -10.275  12.530  64.841  1.00  0.00    -0.301 C  
HETATM    5  C   UNL     1     -10.075  11.061  65.263  1.00  0.00    -0.332 C  
HETATM    6  C   UNL     1      -9.740  10.099  64.098  1.00  0.00    -0.301 C  
HETATM    7  C   UNL     1      -9.007  10.928  66.374  1.00  0.00    -0.175 C  
HETATM    8  C   UNL     1      -8.397  10.336  63.421  1.00  0.00    -0.169 C  
BRANCH   7   9
HETATM    9  N   UNL     1      -9.305  11.599  67.645  1.00  0.00    -0.174 NA 
HETATM   10  C   UNL     1     -10.013  10.753  68.605  1.00  0.00    -0.182 C  
HETATM   11  N   UNL     1      -9.185   9.618  69.017  1.00  0.00    -0.150 NA 
HETATM   12  C   UNL     1      -7.997  10.123  69.749  1.00  0.00    -0.161 C  
HETATM   13  H1  UNL     1      -5.695  12.576  69.389  1.00  0.00     0.000 HD 
HETATM   14  C   UNL     1      -7.144  11.161  68.967  1.00  0.00    -0.113 C  
HETATM   15  H2  UNL     1      -5.675  11.263  70.455  1.00  0.00     0.000 HD 
HETATM   16  C   UNL     1      -6.199  10.467  67.972  1.00  0.00    -0.054 C  
HETATM   17  N   UNL     1      -6.254  11.895  69.903  1.00  0.00    -0.149 NA 
HETATM   18  C   UNL     1      -8.108  12.174  68.283  1.00  0.00    -0.166 C  
BRANCH  11  19
HETATM   19  C   UNL     1      -9.925   8.711  69.923  1.00  0.00    -0.186 C  
HETATM   20  C   UNL     1      -9.674   6.575  68.472  1.00  0.00    -0.129 C  
HETATM   21  C   UNL     1     -10.617   7.464  69.310  1.00  0.00    -0.220 C  
HETATM   22  C   UNL     1     -11.328   6.651  70.424  1.00  0.00    -0.421 C  
HETATM   23  C   UNL     1      -8.600   5.816  69.240  1.00  0.00    -0.111 C  
BRANCH  22  24
HETATM   24  C   UNL     1     -12.401   7.417  71.217  1.00  0.00    -0.380 C  
BRANCH  24  25
HETATM   25  C   UNL     1     -11.932   7.890  72.594  1.00  0.00    -0.299 C  
HETATM   26  C   UNL     1     -10.833   6.995  73.149  1.00  0.00    -0.350 C  
ENDBRANCH  24  25
ENDBRANCH  22  24
ENDBRANCH  11  19
ENDBRANCH   7   9
ENDBRANCH   3   4
ENDBRANCH   2   3
TORSDOF 6
ENDMDL
MODEL       56
REMARK 921   NORMALIZED FREE ENERGY PREDICTED BY IDOCK:   -4.42 KCAL/MOL
REMARK 922        TOTAL FREE ENERGY PREDICTED BY IDOCK:   -6.76 KCAL/MOL
REMARK 923 INTER-LIGAND FREE ENERGY PREDICTED BY IDOCK:   -5.98 KCAL/MOL
REMARK 924 INTRA-LIGAND FREE ENERGY PREDICTED BY IDOCK:   -0.78 KCAL/MOL
REMARK 927      BINDING AFFINITY PREDICTED BY RF-SCORE:    0.00 PKD
ROOT
HETATM    1  C   UNL     1     -13.659   8.542  71.901  1.00  0.00    -0.427 C  
HETATM    2  C   UNL     1     -12.276   8.271  71.325  1.00  0.00    -0.295 C  
ENDROOT
BRANCH   2   3
HETATM    3  C   UNL     1     -12.029   6.770  71.215  1.00  0.00    -0.414 C  
BRANCH   3   4
HETATM    4  C   UNL     1     -11.172   6.417  69.998  1.00  0.00    -0.475 C  
HETATM    5  C   UNL     1      -9.975   7.372  69.825  1.00  0.00    -0.188 C  
HETATM    6  C   UNL     1      -9.017   7.427  71.041  1.00  0.00    -0.151 C  
HETATM    7  C   UNL     1      -9.172   7.053  68.542  1.00  0.00    -0.137 C  
HETATM    8  C   UNL     1      -8.255   6.141  71.330  1.00  0.00    -0.123 C  
BRANCH   7   9
HETATM    9  N   UNL     1      -9.894   7.196  67.272  1.00  0.00    -0.155 NA 
HETATM   10  C   UNL     1     -10.423   8.539  67.044  1.00  0.00    -0.292 C  
HETATM   11  N   UNL     1      -9.340   9.518  66.920  1.00  0.00    -0.142 NA 
HETATM   12  C   UNL     1      -8.540   9.207  65.710  1.00  0.00    -0.153 C  
HETATM   13  H1  UNL     1      -7.189   6.475  64.239  1.00  0.00     0.000 HD 
HETATM   14  C   UNL     1      -7.973   7.760  65.659  1.00  0.00    -0.118 C  
HETATM   15  H2  UNL     1      -6.905   8.106  63.892  1.00  0.00     0.000 HD 
HETATM   16  C   UNL     1      -6.692   7.636  66.501  1.00  0.00    -0.058 C  
HETATM   17  N   UNL     1      -7.561   7.424  64.272  1.00  0.00    -0.105 NA 
HETATM   18  C   UNL     1      -9.093   6.777  66.108  1.00  0.00    -0.109 C  
BRANCH  11  19
HETATM   19  C   UNL     1      -9.869  10.892  66.774  1.00  0.00    -0.195 C  
HETATM   20  C   UNL     1     -11.556  10.769  68.741  1.00  0.00    -0.350 C  
HETATM   21  C   UNL     1     -11.309  11.182  67.275  1.00  0.00    -0.302 C  
HETATM   22  C   UNL     1     -11.664  12.673  67.034  1.00  0.00    -0.438 C  
HETATM   23  C   UNL     1     -10.837  11.587  69.805  1.00  0.00     0.049 C  
BRANCH  22  24
HETATM   24  C   UNL     1     -11.594  13.140  65.569  1.00  0.00    -0.365 C  
BRANCH  24  25
HETATM   25  C   UNL     1     -12.650  12.501  64.666  1.00  0.00    -0.507 C  
HETATM   26  C   UNL     1     -12.031  11.927  63.399  1.00  0.00    -0.528 C  
ENDBRANCH  24  25
ENDBRANCH  22  24
ENDBRANCH  11  19
ENDBRANCH   7   9
ENDBRANCH   3   4
ENDBRANCH   2   3
TORSDOF 6
ENDMDL
MODEL       57
REMARK 921   NORMALIZED FREE ENERGY PREDICTED BY IDOCK:   -4.40 KCAL/MOL
REMARK 922        TOTAL FREE ENERGY PREDICTED BY IDOCK:   -6.74 KCAL/MOL
REMARK 923 INTER-LIGAND FREE ENERGY PREDICTED BY IDOCK:   -6.45 KCAL/MOL
REMARK 924 INTRA-LIGAND FREE ENERGY PREDICTED BY IDOCK:   -0.29 KCAL/MOL
REMARK 927      BINDING AFFINITY PREDICTED BY RF-SCORE:    0.00 PKD
ROOT
HETATM    1  C   UNL     1     -10.898   6.236  67.014  1.00  0.00    -0.458 C  
HETATM    2  C   UNL     1      -9.483   6.327  67.565  1.00  0.00    -0.115 C  
ENDROOT
BRANCH   2   3
HETATM    3  C   UNL     1      -9.247   7.690  68.208  1.00  0.00    -0.139 C  
BRANCH   3   4
HETATM    4  C   UNL     1      -9.988   8.808  67.472  1.00  0.00    -0.254 C  
HETATM    5  C   UNL     1      -9.037   9.913  66.972  1.00  0.00    -0.156 C  
HETATM    6  C   UNL     1      -7.921   9.418  66.019  1.00  0.00    -0.110 C  
HETATM    7  C   UNL     1      -9.813  11.075  66.308  1.00  0.00    -0.215 C  
HETATM    8  C   UNL     1      -8.399   8.890  64.674  1.00  0.00    -0.179 C  
BRANCH   7   9
HETATM    9  N   UNL     1     -10.747  11.809  67.171  1.00  0.00    -0.230 NA 
HETATM   10  C   UNL     1     -10.128  12.911  67.904  1.00  0.00    -0.232 C  
HETATM   11  N   UNL     1      -9.642  13.946  66.989  1.00  0.00    -0.245 NA 
HETATM   12  C   UNL     1     -10.798  14.552  66.283  1.00  0.00    -0.317 C  
HETATM   13  H1  UNL     1     -13.607  13.496  64.719  1.00  0.00     0.000 HD 
HETATM   14  C   UNL     1     -11.701  13.539  65.526  1.00  0.00    -0.340 C  
HETATM   15  H2  UNL     1     -12.911  15.038  64.705  1.00  0.00     0.000 HD 
HETATM   16  C   UNL     1     -11.098  13.169  64.160  1.00  0.00    -0.426 C  
HETATM   17  N   UNL     1     -13.014  14.161  65.216  1.00  0.00    -0.735 NA 
HETATM   18  C   UNL     1     -11.929  12.302  66.443  1.00  0.00    -0.209 C  
BRANCH  11  19
HETATM   19  C   UNL     1      -8.940  15.025  67.719  1.00  0.00    -0.179 C  
HETATM   20  C   UNL     1     -11.067  16.228  68.587  1.00  0.00    -0.356 C  
HETATM   21  C   UNL     1      -9.679  16.373  67.929  1.00  0.00    -0.235 C  
HETATM   22  C   UNL     1      -8.774  17.358  68.715  1.00  0.00    -0.223 C  
HETATM   23  C   UNL     1     -11.082  15.795  70.047  1.00  0.00    -0.348 C  
BRANCH  22  24
HETATM   24  C   UNL     1      -7.423  17.684  68.054  1.00  0.00    -0.223 C  
BRANCH  24  25
HETATM   25  C   UNL     1      -7.524  18.689  66.906  1.00  0.00    -0.230 C  
HETATM   26  C   UNL     1      -6.749  18.222  65.682  1.00  0.00    -0.291 C  
ENDBRANCH  24  25
ENDBRANCH  22  24
ENDBRANCH  11  19
ENDBRANCH   7   9
ENDBRANCH   3   4
ENDBRANCH   2   3
TORSDOF 6
ENDMDL
MODEL       58
REMARK 921   NORMALIZED FREE ENERGY PREDICTED BY IDOCK:   -4.38 KCAL/MOL
REMARK 922        TOTAL FREE ENERGY PREDICTED BY IDOCK:   -6.70 KCAL/MOL
REMARK 923 INTER-LIGAND FREE ENERGY PREDICTED BY IDOCK:   -6.80 KCAL/MOL
REMARK 924 INTRA-LIGAND FREE ENERGY PREDICTED BY IDOCK:    0.09 KCAL/MOL
REMARK 927      BINDING AFFINITY PREDICTED BY RF-SCORE:    0.00 PKD
ROOT
HETATM    1  C   UNL     1     -10.618   3.684  64.066  1.00  0.00    -0.272 C  
HETATM    2  C   UNL     1      -9.727   4.380  65.085  1.00  0.00    -0.186 C  
ENDROOT
BRANCH   2   3
HETATM    3  C   UNL     1     -10.568   4.991  66.201  1.00  0.00    -0.321 C  
BRANCH   3   4
HETATM    4  C   UNL     1     -10.020   6.346  66.656  1.00  0.00    -0.207 C  
HETATM    5  C   UNL     1     -10.769   6.899  67.884  1.00  0.00    -0.294 C  
HETATM    6  C   UNL     1     -10.744   5.971  69.123  1.00  0.00    -0.399 C  
HETATM    7  C   UNL     1     -10.259   8.306  68.276  1.00  0.00    -0.208 C  
HETATM    8  C   UNL     1      -9.375   5.762  69.755  1.00  0.00    -0.175 C  
BRANCH   7   9
HETATM    9  N   UNL     1     -10.440   9.365  67.274  1.00  0.00    -0.265 NA 
HETATM   10  C   UNL     1     -11.254  10.485  67.743  1.00  0.00    -0.273 C  
HETATM   11  N   UNL     1     -10.597  11.186  68.849  1.00  0.00    -0.199 NA 
HETATM   12  C   UNL     1      -9.340  11.801  68.357  1.00  0.00    -0.185 C  
HETATM   13  H1  UNL     1      -6.704  10.904  66.434  1.00  0.00     0.000 HD 
HETATM   14  C   UNL     1      -8.352  10.808  67.682  1.00  0.00    -0.119 C  
HETATM   15  H2  UNL     1      -6.867  12.262  67.430  1.00  0.00     0.000 HD 
HETATM   16  C   UNL     1      -7.532  10.040  68.731  1.00  0.00    -0.081 C  
HETATM   17  N   UNL     1      -7.352  11.556  66.876  1.00  0.00    -0.146 NA 
HETATM   18  C   UNL     1      -9.163   9.871  66.741  1.00  0.00    -0.148 C  
BRANCH  11  19
HETATM   19  C   UNL     1     -11.453  12.268  69.384  1.00  0.00    -0.277 C  
HETATM   20  C   UNL     1     -10.922  14.006  67.532  1.00  0.00    -0.288 C  
HETATM   21  C   UNL     1     -11.080  13.736  69.043  1.00  0.00    -0.296 C  
HETATM   22  C   UNL     1     -12.101  14.707  69.693  1.00  0.00    -0.355 C  
HETATM   23  C   UNL     1     -12.196  13.955  66.699  1.00  0.00    -0.465 C  
BRANCH  22  24
HETATM   24  C   UNL     1     -12.216  14.615  71.226  1.00  0.00    -0.410 C  
BRANCH  24  25
HETATM   25  C   UNL     1     -12.037  15.956  71.940  1.00  0.00    -0.578 C  
HETATM   26  C   UNL     1     -12.797  15.995  73.257  1.00  0.00    -0.649 C  
ENDBRANCH  24  25
ENDBRANCH  22  24
ENDBRANCH  11  19
ENDBRANCH   7   9
ENDBRANCH   3   4
ENDBRANCH   2   3
TORSDOF 6
ENDMDL
MODEL       59
REMARK 921   NORMALIZED FREE ENERGY PREDICTED BY IDOCK:   -4.36 KCAL/MOL
REMARK 922        TOTAL FREE ENERGY PREDICTED BY IDOCK:   -6.68 KCAL/MOL
REMARK 923 INTER-LIGAND FREE ENERGY PREDICTED BY IDOCK:   -5.82 KCAL/MOL
REMARK 924 INTRA-LIGAND FREE ENERGY PREDICTED BY IDOCK:   -0.86 KCAL/MOL
REMARK 927      BINDING AFFINITY PREDICTED BY RF-SCORE:    0.00 PKD
ROOT
HETATM    1  C   UNL     1      -9.868  17.003  68.457  1.00  0.00    -0.290 C  
HETATM    2  C   UNL     1     -11.187  16.384  68.898  1.00  0.00    -0.304 C  
ENDROOT
BRANCH   2   3
HETATM    3  C   UNL     1     -11.011  14.894  69.173  1.00  0.00    -0.266 C  
BRANCH   3   4
HETATM    4  C   UNL     1     -10.052  14.236  68.179  1.00  0.00    -0.232 C  
HETATM    5  C   UNL     1     -10.733  13.126  67.354  1.00  0.00    -0.262 C  
HETATM    6  C   UNL     1     -11.964  13.594  66.540  1.00  0.00    -0.465 C  
HETATM    7  C   UNL     1      -9.728  12.415  66.418  1.00  0.00    -0.240 C  
HETATM    8  C   UNL     1     -11.667  14.577  65.416  1.00  0.00    -0.354 C  
BRANCH   7   9
HETATM    9  N   UNL     1      -8.619  11.708  67.072  1.00  0.00    -0.163 NA 
HETATM   10  C   UNL     1      -9.044  10.822  68.154  1.00  0.00    -0.151 C  
HETATM   11  N   UNL     1      -9.877   9.730  67.645  1.00  0.00    -0.159 NA 
HETATM   12  C   UNL     1      -9.064   8.877  66.744  1.00  0.00    -0.143 C  
HETATM   13  H1  UNL     1      -6.850   9.305  64.221  1.00  0.00     0.000 HD 
HETATM   14  C   UNL     1      -8.385   9.635  65.569  1.00  0.00    -0.139 C  
HETATM   15  H2  UNL     1      -7.624   7.883  64.713  1.00  0.00     0.000 HD 
HETATM   16  C   UNL     1      -9.372   9.865  64.412  1.00  0.00    -0.326 C  
HETATM   17  N   UNL     1      -7.295   8.807  64.992  1.00  0.00    -0.087 NA 
HETATM   18  C   UNL     1      -7.779  10.958  66.121  1.00  0.00    -0.133 C  
BRANCH  11  19
HETATM   19  C   UNL     1     -10.381   8.878  68.745  1.00  0.00    -0.211 C  
HETATM   20  C   UNL     1     -11.294  10.808  70.219  1.00  0.00    -0.374 C  
HETATM   21  C   UNL     1     -10.483   9.496  70.166  1.00  0.00    -0.299 C  
HETATM   22  C   UNL     1     -11.034   8.443  71.164  1.00  0.00    -0.292 C  
HETATM   23  C   UNL     1     -12.792  10.688  69.976  1.00  0.00    -0.067 C  
BRANCH  22  24
HETATM   24  C   UNL     1     -10.200   7.156  71.292  1.00  0.00    -0.199 C  
BRANCH  24  25
HETATM   25  C   UNL     1     -10.962   5.886  70.907  1.00  0.00    -0.335 C  
HETATM   26  C   UNL     1     -10.065   4.893  70.183  1.00  0.00    -0.332 C  
ENDBRANCH  24  25
ENDBRANCH  22  24
ENDBRANCH  11  19
ENDBRANCH   7   9
ENDBRANCH   3   4
ENDBRANCH   2   3
TORSDOF 6
ENDMDL
MODEL       60
REMARK 921   NORMALIZED FREE ENERGY PREDICTED BY IDOCK:   -4.32 KCAL/MOL
REMARK 922        TOTAL FREE ENERGY PREDICTED BY IDOCK:   -6.62 KCAL/MOL
REMARK 923 INTER-LIGAND FREE ENERGY PREDICTED BY IDOCK:   -6.34 KCAL/MOL
REMARK 924 INTRA-LIGAND FREE ENERGY PREDICTED BY IDOCK:   -0.29 KCAL/MOL
REMARK 927      BINDING AFFINITY PREDICTED BY RF-SCORE:    0.00 PKD
ROOT
HETATM    1  C   UNL     1     -12.511   9.274  71.327  1.00  0.00    -0.389 C  
HETATM    2  C   UNL     1     -12.754  10.595  70.610  1.00  0.00    -0.445 C  
ENDROOT
BRANCH   2   3
HETATM    3  C   UNL     1     -11.776  10.763  69.453  1.00  0.00    -0.378 C  
BRANCH   3   4
HETATM    4  C   UNL     1     -11.384  12.226  69.240  1.00  0.00    -0.317 C  
HETATM    5  C   UNL     1     -10.299  12.392  68.158  1.00  0.00    -0.231 C  
HETATM    6  C   UNL     1     -10.687  11.830  66.768  1.00  0.00    -0.289 C  
HETATM    7  C   UNL     1      -9.854  13.868  68.019  1.00  0.00    -0.234 C  
HETATM    8  C   UNL     1     -11.830  12.550  66.069  1.00  0.00    -0.478 C  
BRANCH   7   9
HETATM    9  N   UNL     1      -9.234  14.474  69.204  1.00  0.00    -0.050 NA 
HETATM   10  C   UNL     1      -8.523  15.719  68.923  1.00  0.00    -0.218 C  
HETATM   11  N   UNL     1      -9.447  16.761  68.464  1.00  0.00    -0.237 NA 
HETATM   12  C   UNL     1     -10.389  17.092  69.561  1.00  0.00    -0.156 C  
HETATM   13  H1  UNL     1     -12.278  15.428  71.823  1.00  0.00     0.000 HD 
HETATM   14  C   UNL     1     -11.179  15.879  70.128  1.00  0.00    -0.364 C  
HETATM   15  H2  UNL     1     -12.332  17.067  71.408  1.00  0.00     0.000 HD 
HETATM   16  C   UNL     1     -12.383  15.533  69.236  1.00  0.00    -0.106 C  
HETATM   17  N   UNL     1     -11.760  16.224  71.451  1.00  0.00    -0.434 NA 
HETATM   18  C   UNL     1     -10.192  14.688  70.303  1.00  0.00     0.494 C  
BRANCH  11  19
HETATM   19  C   UNL     1      -8.723  17.999  68.097  1.00  0.00    -0.272 C  
HETATM   20  C   UNL     1     -10.164  18.577  66.019  1.00  0.00    -0.371 C  
HETATM   21  C   UNL     1      -8.745  18.450  66.612  1.00  0.00    -0.295 C  
HETATM   22  C   UNL     1      -7.937  19.764  66.445  1.00  0.00    -0.335 C  
HETATM   23  C   UNL     1     -11.023  19.713  66.556  1.00  0.00    -0.322 C  
BRANCH  22  24
HETATM   24  C   UNL     1      -6.460  19.688  66.872  1.00  0.00    -0.202 C  
BRANCH  24  25
HETATM   25  C   UNL     1      -6.017  20.843  67.772  1.00  0.00    -0.362 C  
HETATM   26  C   UNL     1      -5.719  20.368  69.187  1.00  0.00    -0.349 C  
ENDBRANCH  24  25
ENDBRANCH  22  24
ENDBRANCH  11  19
ENDBRANCH   7   9
ENDBRANCH   3   4
ENDBRANCH   2   3
TORSDOF 6
ENDMDL
MODEL       61
REMARK 921   NORMALIZED FREE ENERGY PREDICTED BY IDOCK:   -4.29 KCAL/MOL
REMARK 922        TOTAL FREE ENERGY PREDICTED BY IDOCK:   -6.58 KCAL/MOL
REMARK 923 INTER-LIGAND FREE ENERGY PREDICTED BY IDOCK:   -6.29 KCAL/MOL
REMARK 924 INTRA-LIGAND FREE ENERGY PREDICTED BY IDOCK:   -0.29 KCAL/MOL
REMARK 927      BINDING AFFINITY PREDICTED BY RF-SCORE:    0.00 PKD
ROOT
HETATM    1  C   UNL     1     -12.751  15.348  70.841  1.00  0.00    -0.520 C  
HETATM    2  C   UNL     1     -12.123  14.471  69.767  1.00  0.00    -0.380 C  
ENDROOT
BRANCH   2   3
HETATM    3  C   UNL     1     -11.645  15.322  68.595  1.00  0.00    -0.370 C  
BRANCH   3   4
HETATM    4  C   UNL     1     -10.641  14.575  67.715  1.00  0.00    -0.250 C  
HETATM    5  C   UNL     1     -11.247  13.310  67.077  1.00  0.00    -0.319 C  
HETATM    6  C   UNL     1     -12.497  13.568  66.201  1.00  0.00    -0.424 C  
HETATM    7  C   UNL     1     -10.193  12.522  66.262  1.00  0.00    -0.248 C  
HETATM    8  C   UNL     1     -12.253  14.378  64.936  1.00  0.00    -0.440 C  
BRANCH   7   9
HETATM    9  N   UNL     1      -9.049  11.996  67.017  1.00  0.00    -0.185 NA 
HETATM   10  C   UNL     1      -9.429  11.155  68.150  1.00  0.00    -0.180 C  
HETATM   11  N   UNL     1     -10.114   9.941  67.699  1.00  0.00    -0.185 NA 
HETATM   12  C   UNL     1      -9.169   9.117  66.906  1.00  0.00    -0.148 C  
HETATM   13  H1  UNL     1      -6.892   9.591  64.449  1.00  0.00     0.000 HD 
HETATM   14  C   UNL     1      -8.518   9.852  65.701  1.00  0.00    -0.144 C  
HETATM   15  H2  UNL     1      -7.531   8.135  65.024  1.00  0.00     0.000 HD 
HETATM   16  C   UNL     1      -9.466   9.880  64.490  1.00  0.00    -0.328 C  
HETATM   17  N   UNL     1      -7.318   9.109  65.240  1.00  0.00    -0.091 NA 
HETATM   18  C   UNL     1      -8.087  11.273  66.167  1.00  0.00    -0.065 C  
BRANCH  11  19
HETATM   19  C   UNL     1     -10.576   9.126  68.845  1.00  0.00    -0.191 C  
HETATM   20  C   UNL     1      -8.225   8.374  69.640  1.00  0.00    -0.117 C  
HETATM   21  C   UNL     1      -9.677   7.956  69.326  1.00  0.00    -0.159 C  
HETATM   22  C   UNL     1     -10.339   7.239  70.531  1.00  0.00    -0.215 C  
HETATM   23  C   UNL     1      -8.025   9.258  70.864  1.00  0.00    -0.161 C  
BRANCH  22  24
HETATM   24  C   UNL     1     -11.736   6.651  70.263  1.00  0.00    -0.432 C  
BRANCH  24  25
HETATM   25  C   UNL     1     -12.751   6.941  71.371  1.00  0.00    -0.384 C  
HETATM   26  C   UNL     1     -12.852   8.431  71.661  1.00  0.00    -0.355 C  
ENDBRANCH  24  25
ENDBRANCH  22  24
ENDBRANCH  11  19
ENDBRANCH   7   9
ENDBRANCH   3   4
ENDBRANCH   2   3
TORSDOF 6
ENDMDL
MODEL       62
REMARK 921   NORMALIZED FREE ENERGY PREDICTED BY IDOCK:   -4.28 KCAL/MOL
REMARK 922        TOTAL FREE ENERGY PREDICTED BY IDOCK:   -6.57 KCAL/MOL
REMARK 923 INTER-LIGAND FREE ENERGY PREDICTED BY IDOCK:   -5.58 KCAL/MOL
REMARK 924 INTRA-LIGAND FREE ENERGY PREDICTED BY IDOCK:   -0.99 KCAL/MOL
REMARK 927      BINDING AFFINITY PREDICTED BY RF-SCORE:    0.00 PKD
ROOT
HETATM    1  C   UNL     1      -7.460  20.748  67.490  1.00  0.00    -0.337 C  
HETATM    2  C   UNL     1      -6.485  20.268  66.424  1.00  0.00    -0.244 C  
ENDROOT
BRANCH   2   3
HETATM    3  C   UNL     1      -7.106  19.148  65.597  1.00  0.00    -0.265 C  
BRANCH   3   4
HETATM    4  C   UNL     1      -8.013  18.248  66.439  1.00  0.00    -0.290 C  
HETATM    5  C   UNL     1      -7.495  16.798  66.516  1.00  0.00    -0.322 C  
HETATM    6  C   UNL     1      -6.067  16.658  67.099  1.00  0.00    -0.202 C  
HETATM    7  C   UNL     1      -8.469  15.886  67.298  1.00  0.00    -0.184 C  
HETATM    8  C   UNL     1      -5.918  17.041  68.564  1.00  0.00    -0.145 C  
BRANCH   7   9
HETATM    9  N   UNL     1      -9.811  15.726  66.724  1.00  0.00    -0.238 NA 
HETATM   10  C   UNL     1     -10.087  14.374  66.244  1.00  0.00    -0.297 C  
HETATM   11  N   UNL     1     -10.084  13.411  67.348  1.00  0.00    -0.235 NA 
HETATM   12  C   UNL     1     -11.200  13.729  68.273  1.00  0.00    -0.273 C  
HETATM   13  H1  UNL     1     -12.528  16.474  69.739  1.00  0.00     0.000 HD 
HETATM   14  C   UNL     1     -11.196  15.184  68.821  1.00  0.00    -0.284 C  
HETATM   15  H2  UNL     1     -12.831  14.846  70.085  1.00  0.00     0.000 HD 
HETATM   16  C   UNL     1     -10.217  15.332  69.998  1.00  0.00    -0.216 C  
HETATM   17  N   UNL     1     -12.531  15.520  69.380  1.00  0.00    -0.112 NA 
HETATM   18  C   UNL     1     -10.880  16.152  67.644  1.00  0.00    -0.297 C  
BRANCH  11  19
HETATM   19  C   UNL     1     -10.280  12.029  66.859  1.00  0.00    -0.208 C  
HETATM   20  C   UNL     1      -9.273  10.837  68.931  1.00  0.00    -0.180 C  
HETATM   21  C   UNL     1      -9.334  10.919  67.392  1.00  0.00    -0.166 C  
HETATM   22  C   UNL     1      -9.710   9.553  66.761  1.00  0.00    -0.254 C  
HETATM   23  C   UNL     1     -10.530  10.341  69.632  1.00  0.00    -0.286 C  
BRANCH  22  24
HETATM   24  C   UNL     1      -9.649   9.496  65.224  1.00  0.00    -0.314 C  
BRANCH  24  25
HETATM   25  C   UNL     1      -8.508   8.634  64.682  1.00  0.00    -0.150 C  
HETATM   26  C   UNL     1      -7.627   8.102  65.803  1.00  0.00    -0.082 C  
ENDBRANCH  24  25
ENDBRANCH  22  24
ENDBRANCH  11  19
ENDBRANCH   7   9
ENDBRANCH   3   4
ENDBRANCH   2   3
TORSDOF 6
ENDMDL
MODEL       63
REMARK 921   NORMALIZED FREE ENERGY PREDICTED BY IDOCK:   -4.28 KCAL/MOL
REMARK 922        TOTAL FREE ENERGY PREDICTED BY IDOCK:   -6.56 KCAL/MOL
REMARK 923 INTER-LIGAND FREE ENERGY PREDICTED BY IDOCK:   -6.82 KCAL/MOL
REMARK 924 INTRA-LIGAND FREE ENERGY PREDICTED BY IDOCK:    0.25 KCAL/MOL
REMARK 927      BINDING AFFINITY PREDICTED BY RF-SCORE:    0.00 PKD
ROOT
HETATM    1  C   UNL     1      -9.602  19.935  66.257  1.00  0.00    -0.526 C  
HETATM    2  C   UNL     1     -10.456  19.880  67.515  1.00  0.00    -0.535 C  
ENDROOT
BRANCH   2   3
HETATM    3  C   UNL     1     -10.120  18.638  68.334  1.00  0.00    -0.426 C  
BRANCH   3   4
HETATM    4  C   UNL     1     -10.557  17.351  67.631  1.00  0.00    -0.350 C  
HETATM    5  C   UNL     1     -10.066  16.087  68.362  1.00  0.00    -0.229 C  
HETATM    6  C   UNL     1     -10.538  15.971  69.832  1.00  0.00    -0.314 C  
HETATM    7  C   UNL     1     -10.442  14.800  67.589  1.00  0.00    -0.254 C  
HETATM    8  C   UNL     1     -12.037  15.788  70.023  1.00  0.00    -0.344 C  
BRANCH   7   9
HETATM    9  N   UNL     1      -9.861  14.654  66.249  1.00  0.00    -0.285 NA 
HETATM   10  C   UNL     1      -9.174  13.380  66.042  1.00  0.00     0.112 C  
HETATM   11  N   UNL     1     -10.112  12.258  66.120  1.00  0.00    -0.239 NA 
HETATM   12  C   UNL     1     -11.084  12.358  65.004  1.00  0.00    -0.304 C  
HETATM   13  H1  UNL     1     -12.979  14.754  63.546  1.00  0.00     0.000 HD 
HETATM   14  C   UNL     1     -11.856  13.706  64.934  1.00  0.00    -0.375 C  
HETATM   15  H2  UNL     1     -13.063  13.076  63.343  1.00  0.00     0.000 HD 
HETATM   16  C   UNL     1     -13.034  13.724  65.923  1.00  0.00    -0.240 C  
HETATM   17  N   UNL     1     -12.472  13.870  63.592  1.00  0.00    -0.805 NA 
HETATM   18  C   UNL     1     -10.845  14.865  65.173  1.00  0.00    -0.414 C  
BRANCH  11  19
HETATM   19  C   UNL     1      -9.411  10.960  65.996  1.00  0.00    -0.203 C  
HETATM   20  C   UNL     1      -9.626  10.754  63.419  1.00  0.00    -0.375 C  
HETATM   21  C   UNL     1      -9.756  10.051  64.786  1.00  0.00    -0.363 C  
HETATM   22  C   UNL     1      -8.912   8.750  64.842  1.00  0.00    -0.065 C  
HETATM   23  C   UNL     1      -8.214  11.106  62.971  1.00  0.00     0.162 C  
BRANCH  22  24
HETATM   24  C   UNL     1      -9.095   7.899  66.112  1.00  0.00    -0.210 C  
BRANCH  24  25
HETATM   25  C   UNL     1      -8.257   6.620  66.123  1.00  0.00    -0.124 C  
HETATM   26  C   UNL     1      -7.824   6.221  64.720  1.00  0.00    -0.110 C  
ENDBRANCH  24  25
ENDBRANCH  22  24
ENDBRANCH  11  19
ENDBRANCH   7   9
ENDBRANCH   3   4
ENDBRANCH   2   3
TORSDOF 6
ENDMDL
MODEL       64
REMARK 921   NORMALIZED FREE ENERGY PREDICTED BY IDOCK:   -4.21 KCAL/MOL
REMARK 922        TOTAL FREE ENERGY PREDICTED BY IDOCK:   -6.48 KCAL/MOL
REMARK 923 INTER-LIGAND FREE ENERGY PREDICTED BY IDOCK:   -6.14 KCAL/MOL
REMARK 924 INTRA-LIGAND FREE ENERGY PREDICTED BY IDOCK:   -0.34 KCAL/MOL
REMARK 927      BINDING AFFINITY PREDICTED BY RF-SCORE:    0.00 PKD
ROOT
HETATM    1  C   UNL     1      -6.189   6.374  66.593  1.00  0.00    -0.040 C  
HETATM    2  C   UNL     1      -6.666   7.293  67.709  1.00  0.00    -0.065 C  
ENDROOT
BRANCH   2   3
HETATM    3  C   UNL     1      -6.929   6.495  68.981  1.00  0.00    -0.075 C  
BRANCH   3   4
HETATM    4  C   UNL     1      -7.957   7.179  69.885  1.00  0.00    -0.122 C  
HETATM    5  C   UNL     1      -9.352   7.259  69.234  1.00  0.00    -0.154 C  
HETATM    6  C   UNL     1      -9.953   5.888  68.836  1.00  0.00    -0.201 C  
HETATM    7  C   UNL     1     -10.353   8.030  70.126  1.00  0.00    -0.215 C  
HETATM    8  C   UNL     1     -10.286   4.960  69.995  1.00  0.00    -0.313 C  
BRANCH   7   9
HETATM    9  N   UNL     1     -10.034   9.437  70.395  1.00  0.00    -0.234 NA 
HETATM   10  C   UNL     1     -10.027  10.277  69.198  1.00  0.00    -0.222 C  
HETATM   11  N   UNL     1     -11.361  10.351  68.599  1.00  0.00    -0.244 NA 
HETATM   12  C   UNL     1     -12.282  11.030  69.543  1.00  0.00    -0.282 C  
HETATM   13  H1  UNL     1     -13.004  10.919  72.847  1.00  0.00     0.000 HD 
HETATM   14  C   UNL     1     -12.357  10.385  70.955  1.00  0.00    -0.387 C  
HETATM   15  H2  UNL     1     -13.864  11.684  71.607  1.00  0.00     0.000 HD 
HETATM   16  C   UNL     1     -13.296   9.167  70.961  1.00  0.00    -0.089 C  
HETATM   17  N   UNL     1     -12.955  11.342  71.921  1.00  0.00    -0.433 NA 
HETATM   18  C   UNL     1     -10.911  10.038  71.415  1.00  0.00     0.137 C  
BRANCH  11  19
HETATM   19  C   UNL     1     -11.345  11.130  67.341  1.00  0.00    -0.255 C  
HETATM   20  C   UNL     1     -10.862  13.435  68.429  1.00  0.00    -0.284 C  
HETATM   21  C   UNL     1     -11.701  12.640  67.406  1.00  0.00    -0.432 C  
HETATM   22  C   UNL     1     -11.620  13.266  65.990  1.00  0.00    -0.384 C  
HETATM   23  C   UNL     1      -9.388  13.621  68.096  1.00  0.00    -0.212 C  
BRANCH  22  24
HETATM   24  C   UNL     1     -12.542  12.631  64.933  1.00  0.00    -0.525 C  
BRANCH  24  25
HETATM   25  C   UNL     1     -11.889  12.471  63.559  1.00  0.00    -0.616 C  
HETATM   26  C   UNL     1     -10.483  11.901  63.670  1.00  0.00    -0.493 C  
ENDBRANCH  24  25
ENDBRANCH  22  24
ENDBRANCH  11  19
ENDBRANCH   7   9
ENDBRANCH   3   4
ENDBRANCH   2   3
TORSDOF 6
ENDMDL
MODEL       65
REMARK 921   NORMALIZED FREE ENERGY PREDICTED BY IDOCK:   -4.20 KCAL/MOL
REMARK 922        TOTAL FREE ENERGY PREDICTED BY IDOCK:   -6.46 KCAL/MOL
REMARK 923 INTER-LIGAND FREE ENERGY PREDICTED BY IDOCK:   -5.47 KCAL/MOL
REMARK 924 INTRA-LIGAND FREE ENERGY PREDICTED BY IDOCK:   -0.99 KCAL/MOL
REMARK 927      BINDING AFFINITY PREDICTED BY RF-SCORE:    0.00 PKD
ROOT
HETATM    1  C   UNL     1     -13.330  11.844  72.049  1.00  0.00    -0.425 C  
HETATM    2  C   UNL     1     -12.884  10.753  71.086  1.00  0.00    -0.513 C  
ENDROOT
BRANCH   2   3
HETATM    3  C   UNL     1     -12.884   9.395  71.780  1.00  0.00    -0.484 C  
BRANCH   3   4
HETATM    4  C   UNL     1     -12.196   8.320  70.936  1.00  0.00    -0.101 C  
HETATM    5  C   UNL     1     -10.694   8.603  70.734  1.00  0.00    -0.260 C  
HETATM    6  C   UNL     1      -9.882   8.724  72.047  1.00  0.00    -0.376 C  
HETATM    7  C   UNL     1     -10.036   7.553  69.808  1.00  0.00    -0.194 C  
HETATM    8  C   UNL     1      -9.774   7.448  72.868  1.00  0.00    -0.231 C  
BRANCH   7   9
HETATM    9  N   UNL     1     -10.548   7.488  68.434  1.00  0.00    -0.172 NA 
HETATM   10  C   UNL     1     -10.651   8.792  67.783  1.00  0.00    -0.191 C  
HETATM   11  N   UNL     1      -9.331   9.403  67.614  1.00  0.00    -0.128 NA 
HETATM   12  C   UNL     1      -8.524   8.571  66.688  1.00  0.00    -0.113 C  
HETATM   13  H1  UNL     1      -7.842   5.289  66.225  1.00  0.00     0.000 HD 
HETATM   14  C   UNL     1      -8.383   7.081  67.108  1.00  0.00    -0.121 C  
HETATM   15  H2  UNL     1      -7.076   6.631  65.535  1.00  0.00     0.000 HD 
HETATM   16  C   UNL     1      -7.287   6.905  68.172  1.00  0.00    -0.097 C  
HETATM   17  N   UNL     1      -7.935   6.267  65.949  1.00  0.00    -0.111 NA 
HETATM   18  C   UNL     1      -9.775   6.569  67.579  1.00  0.00    -0.122 C  
BRANCH  11  19
HETATM   19  C   UNL     1      -9.435  10.760  67.033  1.00  0.00    -0.164 C  
HETATM   20  C   UNL     1      -7.266  11.704  68.097  1.00  0.00    -0.085 C  
HETATM   21  C   UNL     1      -8.759  11.937  67.787  1.00  0.00    -0.158 C  
HETATM   22  C   UNL     1      -8.982  13.262  67.011  1.00  0.00    -0.230 C  
HETATM   23  C   UNL     1      -6.319  11.699  66.905  1.00  0.00    -0.142 C  
BRANCH  22  24
HETATM   24  C   UNL     1     -10.453  13.656  66.786  1.00  0.00    -0.270 C  
BRANCH  24  25
HETATM   25  C   UNL     1     -10.821  13.851  65.314  1.00  0.00    -0.337 C  
HETATM   26  C   UNL     1     -12.019  13.000  64.919  1.00  0.00    -0.441 C  
ENDBRANCH  24  25
ENDBRANCH  22  24
ENDBRANCH  11  19
ENDBRANCH   7   9
ENDBRANCH   3   4
ENDBRANCH   2   3
TORSDOF 6
ENDMDL
MODEL       66
REMARK 921   NORMALIZED FREE ENERGY PREDICTED BY IDOCK:   -4.19 KCAL/MOL
REMARK 922        TOTAL FREE ENERGY PREDICTED BY IDOCK:   -6.45 KCAL/MOL
REMARK 923 INTER-LIGAND FREE ENERGY PREDICTED BY IDOCK:   -6.45 KCAL/MOL
REMARK 924 INTRA-LIGAND FREE ENERGY PREDICTED BY IDOCK:   -0.01 KCAL/MOL
REMARK 927      BINDING AFFINITY PREDICTED BY RF-SCORE:    0.00 PKD
ROOT
HETATM    1  C   UNL     1      -9.801   4.960  68.432  1.00  0.00    -0.200 C  
HETATM    2  C   UNL     1     -10.374   5.109  69.834  1.00  0.00    -0.347 C  
ENDROOT
BRANCH   2   3
HETATM    3  C   UNL     1     -11.362   6.269  69.888  1.00  0.00    -0.504 C  
BRANCH   3   4
HETATM    4  C   UNL     1     -10.715   7.593  69.475  1.00  0.00    -0.211 C  
HETATM    5  C   UNL     1     -11.178   8.772  70.353  1.00  0.00    -0.247 C  
HETATM    6  C   UNL     1     -10.899   8.594  71.865  1.00  0.00    -0.419 C  
HETATM    7  C   UNL     1     -10.582  10.113  69.866  1.00  0.00    -0.285 C  
HETATM    8  C   UNL     1      -9.429   8.569  72.259  1.00  0.00    -0.365 C  
BRANCH   7   9
HETATM    9  N   UNL     1     -10.961  10.540  68.513  1.00  0.00    -0.234 NA 
HETATM   10  C   UNL     1     -11.082  11.989  68.366  1.00  0.00    -0.245 C  
HETATM   11  N   UNL     1      -9.789  12.649  68.570  1.00  0.00    -0.191 NA 
HETATM   12  C   UNL     1      -8.854  12.228  67.498  1.00  0.00    -0.182 C  
HETATM   13  H1  UNL     1      -7.940   9.353  65.964  1.00  0.00     0.000 HD 
HETATM   14  C   UNL     1      -8.664  10.690  67.368  1.00  0.00    -0.125 C  
HETATM   15  H2  UNL     1      -7.195  10.870  65.887  1.00  0.00     0.000 HD 
HETATM   16  C   UNL     1      -7.662  10.164  68.408  1.00  0.00    -0.089 C  
HETATM   17  N   UNL     1      -8.065  10.362  66.049  1.00  0.00    -0.137 NA 
HETATM   18  C   UNL     1     -10.061  10.011  67.473  1.00  0.00    -0.198 C  
BRANCH  11  19
HETATM   19  C   UNL     1      -9.920  14.121  68.506  1.00  0.00    -0.235 C  
HETATM   20  C   UNL     1     -12.189  14.271  69.753  1.00  0.00    -0.390 C  
HETATM   21  C   UNL     1     -11.345  14.736  68.549  1.00  0.00    -0.309 C  
HETATM   22  C   UNL     1     -11.258  16.283  68.475  1.00  0.00    -0.359 C  
HETATM   23  C   UNL     1     -11.747  14.769  71.123  1.00  0.00    -0.360 C  
BRANCH  22  24
HETATM   24  C   UNL     1     -10.562  16.846  67.223  1.00  0.00    -0.270 C  
BRANCH  24  25
HETATM   25  C   UNL     1      -9.417  17.812  67.534  1.00  0.00    -0.257 C  
HETATM   26  C   UNL     1      -8.205  17.547  66.653  1.00  0.00    -0.288 C  
ENDBRANCH  24  25
ENDBRANCH  22  24
ENDBRANCH  11  19
ENDBRANCH   7   9
ENDBRANCH   3   4
ENDBRANCH   2   3
TORSDOF 6
ENDMDL
MODEL       67
REMARK 921   NORMALIZED FREE ENERGY PREDICTED BY IDOCK:   -4.19 KCAL/MOL
REMARK 922        TOTAL FREE ENERGY PREDICTED BY IDOCK:   -6.44 KCAL/MOL
REMARK 923 INTER-LIGAND FREE ENERGY PREDICTED BY IDOCK:   -6.10 KCAL/MOL
REMARK 924 INTRA-LIGAND FREE ENERGY PREDICTED BY IDOCK:   -0.35 KCAL/MOL
REMARK 927      BINDING AFFINITY PREDICTED BY RF-SCORE:    0.00 PKD
ROOT
HETATM    1  C   UNL     1      -5.832  20.118  71.053  1.00  0.00    -0.344 C  
HETATM    2  C   UNL     1      -5.125  20.843  69.917  1.00  0.00    -0.408 C  
ENDROOT
BRANCH   2   3
HETATM    3  C   UNL     1      -5.845  20.596  68.595  1.00  0.00    -0.376 C  
BRANCH   3   4
HETATM    4  C   UNL     1      -6.197  19.120  68.401  1.00  0.00    -0.247 C  
HETATM    5  C   UNL     1      -7.474  18.927  67.559  1.00  0.00    -0.244 C  
HETATM    6  C   UNL     1      -7.413  19.558  66.146  1.00  0.00    -0.303 C  
HETATM    7  C   UNL     1      -7.861  17.433  67.447  1.00  0.00    -0.196 C  
HETATM    8  C   UNL     1      -6.404  18.932  65.194  1.00  0.00    -0.303 C  
BRANCH   7   9
HETATM    9  N   UNL     1      -8.188  16.751  68.705  1.00  0.00    -0.242 NA 
HETATM   10  C   UNL     1      -9.079  15.604  68.537  1.00  0.00    -0.196 C  
HETATM   11  N   UNL     1      -8.437  14.550  67.748  1.00  0.00    -0.163 NA 
HETATM   12  C   UNL     1      -7.268  14.026  68.496  1.00  0.00    -0.109 C  
HETATM   13  H1  UNL     1      -4.658  15.274  70.251  1.00  0.00     0.000 HD 
HETATM   14  C   UNL     1      -6.227  15.102  68.912  1.00  0.00    -0.093 C  
HETATM   15  H2  UNL     1      -4.897  13.692  69.703  1.00  0.00     0.000 HD 
HETATM   16  C   UNL     1      -5.288  15.448  67.744  1.00  0.00    -0.103 C  
HETATM   17  N   UNL     1      -5.342  14.567  69.978  1.00  0.00    -0.095 NA 
HETATM   18  C   UNL     1      -6.992  16.341  69.461  1.00  0.00    -0.171 C  
BRANCH  11  19
HETATM   19  C   UNL     1      -9.363  13.422  67.502  1.00  0.00    -0.218 C  
HETATM   20  C   UNL     1     -11.082  14.752  66.088  1.00  0.00    -0.339 C  
HETATM   21  C   UNL     1     -10.857  13.742  67.232  1.00  0.00    -0.292 C  
HETATM   22  C   UNL     1     -11.647  12.427  66.997  1.00  0.00    -0.434 C  
HETATM   23  C   UNL     1     -10.754  14.267  64.682  1.00  0.00    -0.384 C  
BRANCH  22  24
HETATM   24  C   UNL     1     -11.606  11.416  68.156  1.00  0.00    -0.364 C  
BRANCH  24  25
HETATM   25  C   UNL     1     -10.970  10.076  67.784  1.00  0.00    -0.310 C  
HETATM   26  C   UNL     1      -9.703   9.815  68.584  1.00  0.00    -0.162 C  
ENDBRANCH  24  25
ENDBRANCH  22  24
ENDBRANCH  11  19
ENDBRANCH   7   9
ENDBRANCH   3   4
ENDBRANCH   2   3
TORSDOF 6
ENDMDL
MODEL       68
REMARK 921   NORMALIZED FREE ENERGY PREDICTED BY IDOCK:   -4.17 KCAL/MOL
REMARK 922        TOTAL FREE ENERGY PREDICTED BY IDOCK:   -6.42 KCAL/MOL
REMARK 923 INTER-LIGAND FREE ENERGY PREDICTED BY IDOCK:   -6.39 KCAL/MOL
REMARK 924 INTRA-LIGAND FREE ENERGY PREDICTED BY IDOCK:   -0.02 KCAL/MOL
REMARK 927      BINDING AFFINITY PREDICTED BY RF-SCORE:    0.00 PKD
ROOT
HETATM    1  C   UNL     1     -10.053  16.350  67.181  1.00  0.00    -0.271 C  
HETATM    2  C   UNL     1     -10.335  16.531  65.697  1.00  0.00    -0.342 C  
ENDROOT
BRANCH   2   3
HETATM    3  C   UNL     1     -10.997  15.283  65.123  1.00  0.00    -0.428 C  
BRANCH   3   4
HETATM    4  C   UNL     1     -10.474  14.003  65.779  1.00  0.00    -0.317 C  
HETATM    5  C   UNL     1     -11.460  12.826  65.639  1.00  0.00    -0.379 C  
HETATM    6  C   UNL     1     -11.819  12.460  64.178  1.00  0.00    -0.492 C  
HETATM    7  C   UNL     1     -10.954  11.568  66.383  1.00  0.00    -0.284 C  
HETATM    8  C   UNL     1     -10.672  11.910  63.342  1.00  0.00    -0.476 C  
BRANCH   7   9
HETATM    9  N   UNL     1     -10.794  11.693  67.837  1.00  0.00    -0.199 NA 
HETATM   10  C   UNL     1     -11.147  10.481  68.573  1.00  0.00    -0.275 C  
HETATM   11  N   UNL     1     -10.244   9.378  68.236  1.00  0.00    -0.188 NA 
HETATM   12  C   UNL     1      -8.872   9.718  68.686  1.00  0.00    -0.126 C  
HETATM   13  H1  UNL     1      -6.793  12.386  68.573  1.00  0.00     0.000 HD 
HETATM   14  C   UNL     1      -8.320  11.061  68.130  1.00  0.00    -0.130 C  
HETATM   15  H2  UNL     1      -6.432  10.787  68.993  1.00  0.00     0.000 HD 
HETATM   16  C   UNL     1      -7.777  10.890  66.701  1.00  0.00    -0.146 C  
HETATM   17  N   UNL     1      -7.155  11.505  68.938  1.00  0.00    -0.104 NA 
HETATM   18  C   UNL     1      -9.444  12.133  68.228  1.00  0.00    -0.204 C  
BRANCH  11  19
HETATM   19  C   UNL     1     -10.647   8.125  68.914  1.00  0.00    -0.140 C  
HETATM   20  C   UNL     1     -10.263   8.965  71.338  1.00  0.00    -0.375 C  
HETATM   21  C   UNL     1     -10.056   7.826  70.318  1.00  0.00    -0.195 C  
HETATM   22  C   UNL     1     -10.606   6.476  70.848  1.00  0.00    -0.275 C  
HETATM   23  C   UNL     1     -11.693   9.205  71.802  1.00  0.00    -0.456 C  
BRANCH  22  24
HETATM   24  C   UNL     1     -10.312   5.250  69.965  1.00  0.00    -0.365 C  
BRANCH  24  25
HETATM   25  C   UNL     1      -8.821   5.004  69.727  1.00  0.00    -0.125 C  
HETATM   26  C   UNL     1      -8.473   5.058  68.247  1.00  0.00    -0.098 C  
ENDBRANCH  24  25
ENDBRANCH  22  24
ENDBRANCH  11  19
ENDBRANCH   7   9
ENDBRANCH   3   4
ENDBRANCH   2   3
TORSDOF 6
ENDMDL
MODEL       69
REMARK 921   NORMALIZED FREE ENERGY PREDICTED BY IDOCK:   -4.16 KCAL/MOL
REMARK 922        TOTAL FREE ENERGY PREDICTED BY IDOCK:   -6.40 KCAL/MOL
REMARK 923 INTER-LIGAND FREE ENERGY PREDICTED BY IDOCK:   -6.27 KCAL/MOL
REMARK 924 INTRA-LIGAND FREE ENERGY PREDICTED BY IDOCK:   -0.13 KCAL/MOL
REMARK 927      BINDING AFFINITY PREDICTED BY RF-SCORE:    0.00 PKD
ROOT
HETATM    1  C   UNL     1      -6.931  18.938  65.977  1.00  0.00    -0.294 C  
HETATM    2  C   UNL     1      -7.930  19.015  67.122  1.00  0.00    -0.271 C  
ENDROOT
BRANCH   2   3
HETATM    3  C   UNL     1      -7.994  17.686  67.866  1.00  0.00    -0.231 C  
BRANCH   3   4
HETATM    4  C   UNL     1      -8.902  16.676  67.160  1.00  0.00    -0.209 C  
HETATM    5  C   UNL     1      -9.297  15.501  68.077  1.00  0.00    -0.193 C  
HETATM    6  C   UNL     1     -10.025  15.919  69.378  1.00  0.00    -0.274 C  
HETATM    7  C   UNL     1     -10.142  14.449  67.320  1.00  0.00    -0.251 C  
HETATM    8  C   UNL     1     -11.400  16.542  69.185  1.00  0.00    -0.156 C  
BRANCH   7   9
HETATM    9  N   UNL     1      -9.486  13.780  66.190  1.00  0.00    -0.212 NA 
HETATM   10  C   UNL     1      -9.179  12.372  66.437  1.00  0.00    -0.192 C  
HETATM   11  N   UNL     1     -10.404  11.590  66.618  1.00  0.00    -0.219 NA 
HETATM   12  C   UNL     1     -11.179  11.600  65.353  1.00  0.00    -0.199 C  
HETATM   13  H1  UNL     1     -12.128  13.861  63.020  1.00  0.00     0.000 HD 
HETATM   14  C   UNL     1     -11.515  13.017  64.807  1.00  0.00    -0.327 C  
HETATM   15  H2  UNL     1     -12.672  12.273  63.230  1.00  0.00     0.000 HD 
HETATM   16  C   UNL     1     -12.737  13.613  65.526  1.00  0.00    -0.514 C  
HETATM   17  N   UNL     1     -11.907  12.931  63.377  1.00  0.00    -0.539 NA 
HETATM   18  C   UNL     1     -10.244  13.906  64.933  1.00  0.00    -0.351 C  
BRANCH  11  19
HETATM   19  C   UNL     1     -10.100  10.181  66.953  1.00  0.00    -0.223 C  
HETATM   20  C   UNL     1      -8.529   9.732  64.938  1.00  0.00    -0.165 C  
HETATM   21  C   UNL     1      -9.703   9.221  65.799  1.00  0.00    -0.339 C  
HETATM   22  C   UNL     1      -9.422   7.803  66.363  1.00  0.00    -0.245 C  
HETATM   23  C   UNL     1      -7.163   9.769  65.608  1.00  0.00    -0.106 C  
BRANCH  22  24
HETATM   24  C   UNL     1     -10.596   7.146  67.111  1.00  0.00    -0.417 C  
BRANCH  24  25
HETATM   25  C   UNL     1     -10.295   6.832  68.577  1.00  0.00    -0.210 C  
HETATM   26  C   UNL     1      -8.894   7.277  68.969  1.00  0.00    -0.132 C  
ENDBRANCH  24  25
ENDBRANCH  22  24
ENDBRANCH  11  19
ENDBRANCH   7   9
ENDBRANCH   3   4
ENDBRANCH   2   3
TORSDOF 6
ENDMDL
MODEL       70
REMARK 921   NORMALIZED FREE ENERGY PREDICTED BY IDOCK:   -4.13 KCAL/MOL
REMARK 922        TOTAL FREE ENERGY PREDICTED BY IDOCK:   -6.37 KCAL/MOL
REMARK 923 INTER-LIGAND FREE ENERGY PREDICTED BY IDOCK:   -5.48 KCAL/MOL
REMARK 924 INTRA-LIGAND FREE ENERGY PREDICTED BY IDOCK:   -0.90 KCAL/MOL
REMARK 927      BINDING AFFINITY PREDICTED BY RF-SCORE:    0.00 PKD
ROOT
HETATM    1  C   UNL     1     -13.925   8.956  71.590  1.00  0.00    -0.417 C  
HETATM    2  C   UNL     1     -12.702   9.852  71.720  1.00  0.00    -0.523 C  
ENDROOT
BRANCH   2   3
HETATM    3  C   UNL     1     -11.429   9.014  71.773  1.00  0.00    -0.442 C  
BRANCH   3   4
HETATM    4  C   UNL     1     -10.927   8.645  70.375  1.00  0.00    -0.256 C  
HETATM    5  C   UNL     1      -9.730   9.510  69.933  1.00  0.00    -0.252 C  
HETATM    6  C   UNL     1      -8.505   9.442  70.877  1.00  0.00    -0.124 C  
HETATM    7  C   UNL     1      -9.293   9.181  68.486  1.00  0.00    -0.135 C  
HETATM    8  C   UNL     1      -7.808   8.091  70.945  1.00  0.00    -0.089 C  
BRANCH   7   9
HETATM    9  N   UNL     1     -10.287   9.430  67.435  1.00  0.00    -0.245 NA 
HETATM   10  C   UNL     1     -10.533  10.849  67.182  1.00  0.00    -0.237 C  
HETATM   11  N   UNL     1      -9.331  11.506  66.663  1.00  0.00    -0.184 NA 
HETATM   12  C   UNL     1      -8.996  10.930  65.338  1.00  0.00    -0.193 C  
HETATM   13  H1  UNL     1      -8.779   7.861  63.929  1.00  0.00     0.000 HD 
HETATM   14  C   UNL     1      -8.816   9.385  65.327  1.00  0.00    -0.190 C  
HETATM   15  H2  UNL     1      -8.233   9.340  63.317  1.00  0.00     0.000 HD 
HETATM   16  C   UNL     1      -7.417   8.985  65.823  1.00  0.00    -0.090 C  
HETATM   17  N   UNL     1      -8.897   8.874  63.935  1.00  0.00    -0.029 NA 
HETATM   18  C   UNL     1      -9.962   8.752  66.168  1.00  0.00    -0.174 C  
BRANCH  11  19
HETATM   19  C   UNL     1      -9.546  12.960  66.484  1.00  0.00    -0.259 C  
HETATM   20  C   UNL     1      -8.015  13.726  68.432  1.00  0.00    -0.144 C  
HETATM   21  C   UNL     1      -9.373  13.886  67.718  1.00  0.00    -0.204 C  
HETATM   22  C   UNL     1      -9.638  15.361  67.315  1.00  0.00    -0.213 C  
HETATM   23  C   UNL     1      -6.790  14.220  67.674  1.00  0.00    -0.201 C  
BRANCH  22  24
HETATM   24  C   UNL     1     -11.033  15.645  66.731  1.00  0.00    -0.230 C  
BRANCH  24  25
HETATM   25  C   UNL     1     -11.027  15.933  65.229  1.00  0.00    -0.334 C  
HETATM   26  C   UNL     1     -12.103  15.139  64.502  1.00  0.00    -0.310 C  
ENDBRANCH  24  25
ENDBRANCH  22  24
ENDBRANCH  11  19
ENDBRANCH   7   9
ENDBRANCH   3   4
ENDBRANCH   2   3
TORSDOF 6
ENDMDL
MODEL       71
REMARK 921   NORMALIZED FREE ENERGY PREDICTED BY IDOCK:   -4.12 KCAL/MOL
REMARK 922        TOTAL FREE ENERGY PREDICTED BY IDOCK:   -6.36 KCAL/MOL
REMARK 923 INTER-LIGAND FREE ENERGY PREDICTED BY IDOCK:   -5.24 KCAL/MOL
REMARK 924 INTRA-LIGAND FREE ENERGY PREDICTED BY IDOCK:   -1.12 KCAL/MOL
REMARK 927      BINDING AFFINITY PREDICTED BY RF-SCORE:    0.00 PKD
ROOT
HETATM    1  C   UNL     1     -12.650  11.957  63.459  1.00  0.00    -0.579 C  
HETATM    2  C   UNL     1     -11.855  13.229  63.715  1.00  0.00    -0.522 C  
ENDROOT
BRANCH   2   3
HETATM    3  C   UNL     1     -12.282  13.870  65.031  1.00  0.00    -0.444 C  
BRANCH   3   4
HETATM    4  C   UNL     1     -11.978  12.972  66.232  1.00  0.00    -0.477 C  
HETATM    5  C   UNL     1     -10.476  12.654  66.363  1.00  0.00    -0.267 C  
HETATM    6  C   UNL     1      -9.565  13.899  66.499  1.00  0.00    -0.299 C  
HETATM    7  C   UNL     1     -10.201  11.676  67.529  1.00  0.00    -0.195 C  
HETATM    8  C   UNL     1      -9.749  14.705  67.776  1.00  0.00    -0.215 C  
BRANCH   7   9
HETATM    9  N   UNL     1     -10.812  10.345  67.420  1.00  0.00    -0.289 NA 
HETATM   10  C   UNL     1     -10.251   9.528  66.346  1.00  0.00    -0.232 C  
HETATM   11  N   UNL     1      -8.841   9.223  66.598  1.00  0.00    -0.126 NA 
HETATM   12  C   UNL     1      -8.735   8.385  67.817  1.00  0.00    -0.137 C  
HETATM   13  H1  UNL     1     -10.028   8.346  70.944  1.00  0.00     0.000 HD 
HETATM   14  C   UNL     1      -9.392   8.998  69.086  1.00  0.00    -0.148 C  
HETATM   15  H2  UNL     1      -8.733   7.448  70.330  1.00  0.00     0.000 HD 
HETATM   16  C   UNL     1      -8.464  10.030  69.749  1.00  0.00    -0.189 C  
HETATM   17  N   UNL     1      -9.597   7.943  70.112  1.00  0.00    -0.175 NA 
HETATM   18  C   UNL     1     -10.773   9.593  68.686  1.00  0.00    -0.201 C  
BRANCH  11  19
HETATM   19  C   UNL     1      -8.244   8.467  65.474  1.00  0.00    -0.140 C  
HETATM   20  C   UNL     1      -6.422  10.214  64.878  1.00  0.00    -0.129 C  
HETATM   21  C   UNL     1      -7.518   9.262  64.356  1.00  0.00    -0.106 C  
HETATM   22  C   UNL     1      -6.965   8.286  63.284  1.00  0.00    -0.086 C  
HETATM   23  C   UNL     1      -5.176   9.558  65.457  1.00  0.00    -0.042 C  
BRANCH  22  24
HETATM   24  C   UNL     1      -8.016   7.397  62.595  1.00  0.00    -0.126 C  
BRANCH  24  25
HETATM   25  C   UNL     1      -7.681   5.905  62.628  1.00  0.00    -0.084 C  
HETATM   26  C   UNL     1      -6.633   5.590  63.685  1.00  0.00    -0.033 C  
ENDBRANCH  24  25
ENDBRANCH  22  24
ENDBRANCH  11  19
ENDBRANCH   7   9
ENDBRANCH   3   4
ENDBRANCH   2   3
TORSDOF 6
ENDMDL
MODEL       72
REMARK 921   NORMALIZED FREE ENERGY PREDICTED BY IDOCK:   -4.11 KCAL/MOL
REMARK 922        TOTAL FREE ENERGY PREDICTED BY IDOCK:   -6.34 KCAL/MOL
REMARK 923 INTER-LIGAND FREE ENERGY PREDICTED BY IDOCK:   -5.77 KCAL/MOL
REMARK 924 INTRA-LIGAND FREE ENERGY PREDICTED BY IDOCK:   -0.57 KCAL/MOL
REMARK 927      BINDING AFFINITY PREDICTED BY RF-SCORE:    0.00 PKD
ROOT
HETATM    1  C   UNL     1     -10.305  16.590  67.481  1.00  0.00    -0.294 C  
HETATM    2  C   UNL     1     -10.844  15.244  67.945  1.00  0.00    -0.288 C  
ENDROOT
BRANCH   2   3
HETATM    3  C   UNL     1     -11.239  14.386  66.748  1.00  0.00    -0.340 C  
BRANCH   3   4
HETATM    4  C   UNL     1     -10.073  13.533  66.244  1.00  0.00    -0.298 C  
HETATM    5  C   UNL     1     -10.500  12.087  65.923  1.00  0.00    -0.290 C  
HETATM    6  C   UNL     1     -11.626  11.969  64.867  1.00  0.00    -0.332 C  
HETATM    7  C   UNL     1      -9.292  11.218  65.499  1.00  0.00    -0.221 C  
HETATM    8  C   UNL     1     -11.253  12.423  63.463  1.00  0.00    -0.540 C  
BRANCH   7   9
HETATM    9  N   UNL     1      -8.238  11.036  66.504  1.00  0.00    -0.156 NA 
HETATM   10  C   UNL     1      -8.737  10.610  67.810  1.00  0.00    -0.129 C  
HETATM   11  N   UNL     1      -9.350   9.282  67.731  1.00  0.00    -0.129 NA 
HETATM   12  C   UNL     1      -8.310   8.287  67.371  1.00  0.00    -0.125 C  
HETATM   13  H1  UNL     1      -5.769   8.017  65.154  1.00  0.00     0.000 HD 
HETATM   14  C   UNL     1      -7.533   8.604  66.063  1.00  0.00    -0.085 C  
HETATM   15  H2  UNL     1      -6.454   6.811  66.121  1.00  0.00     0.000 HD 
HETATM   16  C   UNL     1      -8.333   8.172  64.822  1.00  0.00    -0.113 C  
HETATM   17  N   UNL     1      -6.278   7.809  66.012  1.00  0.00    -0.041 NA 
HETATM   18  C   UNL     1      -7.175  10.118  66.058  1.00  0.00    -0.118 C  
BRANCH  11  19
HETATM   19  C   UNL     1      -9.933   8.880  69.031  1.00  0.00    -0.190 C  
HETATM   20  C   UNL     1     -10.931  11.196  69.636  1.00  0.00    -0.254 C  
HETATM   21  C   UNL     1     -10.128   9.970  70.118  1.00  0.00    -0.266 C  
HETATM   22  C   UNL     1     -10.752   9.343  71.392  1.00  0.00    -0.407 C  
HETATM   23  C   UNL     1     -12.410  10.969  69.355  1.00  0.00    -0.222 C  
BRANCH  22  24
HETATM   24  C   UNL     1      -9.938   8.206  72.035  1.00  0.00    -0.299 C  
BRANCH  24  25
HETATM   25  C   UNL     1     -10.788   7.018  72.489  1.00  0.00    -0.285 C  
HETATM   26  C   UNL     1     -11.226   6.160  71.310  1.00  0.00    -0.348 C  
ENDBRANCH  24  25
ENDBRANCH  22  24
ENDBRANCH  11  19
ENDBRANCH   7   9
ENDBRANCH   3   4
ENDBRANCH   2   3
TORSDOF 6
ENDMDL
MODEL       73
REMARK 921   NORMALIZED FREE ENERGY PREDICTED BY IDOCK:   -4.09 KCAL/MOL
REMARK 922        TOTAL FREE ENERGY PREDICTED BY IDOCK:   -6.32 KCAL/MOL
REMARK 923 INTER-LIGAND FREE ENERGY PREDICTED BY IDOCK:   -5.73 KCAL/MOL
REMARK 924 INTRA-LIGAND FREE ENERGY PREDICTED BY IDOCK:   -0.59 KCAL/MOL
REMARK 927      BINDING AFFINITY PREDICTED BY RF-SCORE:    0.00 PKD
ROOT
HETATM    1  C   UNL     1     -12.489  11.881  63.559  1.00  0.00    -0.609 C  
HETATM    2  C   UNL     1     -11.035  12.280  63.354  1.00  0.00    -0.467 C  
ENDROOT
BRANCH   2   3
HETATM    3  C   UNL     1     -10.114  11.092  63.611  1.00  0.00    -0.428 C  
BRANCH   3   4
HETATM    4  C   UNL     1     -10.025  10.746  65.099  1.00  0.00    -0.351 C  
HETATM    5  C   UNL     1      -9.338   9.388  65.345  1.00  0.00    -0.311 C  
HETATM    6  C   UNL     1      -7.901   9.283  64.778  1.00  0.00    -0.118 C  
HETATM    7  C   UNL     1      -9.336   9.016  66.847  1.00  0.00    -0.158 C  
HETATM    8  C   UNL     1      -6.872  10.192  65.435  1.00  0.00    -0.128 C  
BRANCH   7   9
HETATM    9  N   UNL     1     -10.651   8.840  67.475  1.00  0.00    -0.262 NA 
HETATM   10  C   UNL     1     -10.641   7.921  68.611  1.00  0.00    -0.111 C  
HETATM   11  N   UNL     1      -9.821   8.445  69.706  1.00  0.00    -0.184 NA 
HETATM   12  C   UNL     1     -10.437   9.692  70.222  1.00  0.00    -0.283 C  
HETATM   13  H1  UNL     1     -11.801  12.517  68.955  1.00  0.00     0.000 HD 
HETATM   14  C   UNL     1     -10.677  10.791  69.149  1.00  0.00    -0.227 C  
HETATM   15  H2  UNL     1     -11.351  12.191  70.552  1.00  0.00     0.000 HD 
HETATM   16  C   UNL     1      -9.388  11.581  68.865  1.00  0.00    -0.006 C  
HETATM   17  N   UNL     1     -11.645  11.796  69.659  1.00  0.00    -0.314 NA 
HETATM   18  C   UNL     1     -11.268  10.116  67.877  1.00  0.00    -0.163 C  
BRANCH  11  19
HETATM   19  C   UNL     1      -9.738   7.482  70.826  1.00  0.00    -0.174 C  
HETATM   20  C   UNL     1      -7.591   6.271  70.016  1.00  0.00    -0.096 C  
HETATM   21  C   UNL     1      -9.020   6.127  70.580  1.00  0.00    -0.148 C  
HETATM   22  C   UNL     1      -9.040   5.273  71.875  1.00  0.00    -0.153 C  
HETATM   23  C   UNL     1      -6.546   6.849  70.961  1.00  0.00    -0.053 C  
BRANCH  22  24
HETATM   24  C   UNL     1     -10.439   4.947  72.429  1.00  0.00    -0.269 C  
BRANCH  24  25
HETATM   25  C   UNL     1     -10.569   5.157  73.938  1.00  0.00    -0.340 C  
HETATM   26  C   UNL     1     -10.024   6.512  74.365  1.00  0.00    -0.374 C  
ENDBRANCH  24  25
ENDBRANCH  22  24
ENDBRANCH  11  19
ENDBRANCH   7   9
ENDBRANCH   3   4
ENDBRANCH   2   3
TORSDOF 6
ENDMDL
MODEL       74
REMARK 921   NORMALIZED FREE ENERGY PREDICTED BY IDOCK:   -4.09 KCAL/MOL
REMARK 922        TOTAL FREE ENERGY PREDICTED BY IDOCK:   -6.31 KCAL/MOL
REMARK 923 INTER-LIGAND FREE ENERGY PREDICTED BY IDOCK:   -5.14 KCAL/MOL
REMARK 924 INTRA-LIGAND FREE ENERGY PREDICTED BY IDOCK:   -1.17 KCAL/MOL
REMARK 927      BINDING AFFINITY PREDICTED BY RF-SCORE:    0.00 PKD
ROOT
HETATM    1  C   UNL     1      -5.934  15.134  67.851  1.00  0.00    -0.165 C  
HETATM    2  C   UNL     1      -6.374  14.491  69.158  1.00  0.00    -0.100 C  
ENDROOT
BRANCH   2   3
HETATM    3  C   UNL     1      -7.629  15.172  69.692  1.00  0.00    -0.163 C  
BRANCH   3   4
HETATM    4  C   UNL     1      -8.546  15.653  68.565  1.00  0.00    -0.180 C  
HETATM    5  C   UNL     1      -9.836  14.816  68.459  1.00  0.00    -0.218 C  
HETATM    6  C   UNL     1     -10.693  14.793  69.748  1.00  0.00    -0.176 C  
HETATM    7  C   UNL     1     -10.707  15.262  67.261  1.00  0.00    -0.311 C  
HETATM    8  C   UNL     1     -11.308  16.127  70.148  1.00  0.00    -0.347 C  
BRANCH   7   9
HETATM    9  N   UNL     1     -10.106  15.112  65.930  1.00  0.00    -0.301 NA 
HETATM   10  C   UNL     1      -9.248  13.935  65.801  1.00  0.00     0.300 C  
HETATM   11  N   UNL     1     -10.021  12.701  65.955  1.00  0.00    -0.265 NA 
HETATM   12  C   UNL     1     -10.994  12.594  64.840  1.00  0.00    -0.293 C  
HETATM   13  H1  UNL     1     -13.196  14.606  63.242  1.00  0.00     0.000 HD 
HETATM   14  C   UNL     1     -11.945  13.815  64.688  1.00  0.00    -0.416 C  
HETATM   15  H2  UNL     1     -13.047  12.924  63.147  1.00  0.00     0.000 HD 
HETATM   16  C   UNL     1     -13.117  13.732  65.680  1.00  0.00    -0.181 C  
HETATM   17  N   UNL     1     -12.572  13.805  63.341  1.00  0.00    -0.789 NA 
HETATM   18  C   UNL     1     -11.105  15.115  64.847  1.00  0.00    -0.414 C  
BRANCH  11  19
HETATM   19  C   UNL     1      -9.146  11.508  65.910  1.00  0.00    -0.177 C  
HETATM   20  C   UNL     1      -8.385  11.607  68.388  1.00  0.00    -0.157 C  
HETATM   21  C   UNL     1      -7.966  11.424  66.915  1.00  0.00    -0.158 C  
HETATM   22  C   UNL     1      -7.183  10.101  66.704  1.00  0.00    -0.105 C  
HETATM   23  C   UNL     1      -9.212  10.484  69.001  1.00  0.00    -0.193 C  
BRANCH  22  24
HETATM   24  C   UNL     1      -6.592   9.901  65.296  1.00  0.00    -0.105 C  
BRANCH  24  25
HETATM   25  C   UNL     1      -7.325   8.848  64.463  1.00  0.00    -0.102 C  
HETATM   26  C   UNL     1      -7.794   7.682  65.320  1.00  0.00    -0.122 C  
ENDBRANCH  24  25
ENDBRANCH  22  24
ENDBRANCH  11  19
ENDBRANCH   7   9
ENDBRANCH   3   4
ENDBRANCH   2   3
TORSDOF 6
ENDMDL
MODEL       75
REMARK 921   NORMALIZED FREE ENERGY PREDICTED BY IDOCK:   -4.08 KCAL/MOL
REMARK 922        TOTAL FREE ENERGY PREDICTED BY IDOCK:   -6.31 KCAL/MOL
REMARK 923 INTER-LIGAND FREE ENERGY PREDICTED BY IDOCK:   -5.14 KCAL/MOL
REMARK 924 INTRA-LIGAND FREE ENERGY PREDICTED BY IDOCK:   -1.16 KCAL/MOL
REMARK 927      BINDING AFFINITY PREDICTED BY RF-SCORE:    0.00 PKD
ROOT
HETATM    1  C   UNL     1     -12.281  13.299  64.013  1.00  0.00    -0.475 C  
HETATM    2  C   UNL     1     -10.997  12.546  63.693  1.00  0.00    -0.507 C  
ENDROOT
BRANCH   2   3
HETATM    3  C   UNL     1     -10.326  12.066  64.975  1.00  0.00    -0.318 C  
BRANCH   3   4
HETATM    4  C   UNL     1     -11.337  11.831  66.100  1.00  0.00    -0.342 C  
HETATM    5  C   UNL     1     -10.784  12.235  67.481  1.00  0.00    -0.255 C  
HETATM    6  C   UNL     1     -10.338  13.714  67.586  1.00  0.00    -0.239 C  
HETATM    7  C   UNL     1     -11.787  11.910  68.613  1.00  0.00    -0.308 C  
HETATM    8  C   UNL     1     -11.454  14.742  67.468  1.00  0.00    -0.369 C  
BRANCH   7   9
HETATM    9  N   UNL     1     -12.125  10.492  68.794  1.00  0.00    -0.255 NA 
HETATM   10  C   UNL     1     -10.966   9.640  69.053  1.00  0.00    -0.132 C  
HETATM   11  N   UNL     1     -10.328   9.992  70.324  1.00  0.00    -0.274 NA 
HETATM   12  C   UNL     1     -11.270   9.713  71.435  1.00  0.00    -0.356 C  
HETATM   13  H1  UNL     1     -14.542  10.228  72.128  1.00  0.00     0.000 HD 
HETATM   14  C   UNL     1     -12.651  10.416  71.309  1.00  0.00    -0.419 C  
HETATM   15  H2  UNL     1     -13.309   9.737  73.177  1.00  0.00     0.000 HD 
HETATM   16  C   UNL     1     -12.576  11.878  71.779  1.00  0.00    -0.158 C  
HETATM   17  N   UNL     1     -13.637   9.766  72.211  1.00  0.00    -0.389 NA 
HETATM   18  C   UNL     1     -13.141  10.276  69.838  1.00  0.00     0.511 C  
BRANCH  11  19
HETATM   19  C   UNL     1      -9.105   9.190  70.553  1.00  0.00    -0.241 C  
HETATM   20  C   UNL     1      -7.636  10.379  68.777  1.00  0.00    -0.097 C  
HETATM   21  C   UNL     1      -8.096   9.037  69.383  1.00  0.00    -0.108 C  
HETATM   22  C   UNL     1      -6.891   8.170  69.832  1.00  0.00    -0.044 C  
HETATM   23  C   UNL     1      -6.748  11.250  69.655  1.00  0.00    -0.122 C  
BRANCH  22  24
HETATM   24  C   UNL     1      -7.243   6.750  70.313  1.00  0.00    -0.076 C  
BRANCH  24  25
HETATM   25  C   UNL     1      -6.823   6.465  71.755  1.00  0.00    -0.064 C  
HETATM   26  C   UNL     1      -8.013   6.077  72.619  1.00  0.00    -0.104 C  
ENDBRANCH  24  25
ENDBRANCH  22  24
ENDBRANCH  11  19
ENDBRANCH   7   9
ENDBRANCH   3   4
ENDBRANCH   2   3
TORSDOF 6
ENDMDL
MODEL       76
REMARK 921   NORMALIZED FREE ENERGY PREDICTED BY IDOCK:   -4.08 KCAL/MOL
REMARK 922        TOTAL FREE ENERGY PREDICTED BY IDOCK:   -6.30 KCAL/MOL
REMARK 923 INTER-LIGAND FREE ENERGY PREDICTED BY IDOCK:   -5.41 KCAL/MOL
REMARK 924 INTRA-LIGAND FREE ENERGY PREDICTED BY IDOCK:   -0.89 KCAL/MOL
REMARK 927      BINDING AFFINITY PREDICTED BY RF-SCORE:    0.00 PKD
ROOT
HETATM    1  C   UNL     1     -11.926  13.175  63.504  1.00  0.00    -0.580 C  
HETATM    2  C   UNL     1     -12.268  12.284  64.690  1.00  0.00    -0.454 C  
ENDROOT
BRANCH   2   3
HETATM    3  C   UNL     1     -12.159  13.067  65.994  1.00  0.00    -0.493 C  
BRANCH   3   4
HETATM    4  C   UNL     1     -11.641  12.199  67.143  1.00  0.00    -0.405 C  
HETATM    5  C   UNL     1     -10.334  11.467  66.782  1.00  0.00    -0.271 C  
HETATM    6  C   UNL     1      -9.168  12.399  66.370  1.00  0.00    -0.192 C  
HETATM    7  C   UNL     1      -9.874  10.528  67.923  1.00  0.00    -0.160 C  
HETATM    8  C   UNL     1      -8.637  13.305  67.471  1.00  0.00    -0.200 C  
BRANCH   7   9
HETATM    9  N   UNL     1     -10.784   9.429  68.267  1.00  0.00    -0.204 NA 
HETATM   10  C   UNL     1     -10.494   8.183  67.560  1.00  0.00    -0.256 C  
HETATM   11  N   UNL     1      -9.181   7.655  67.940  1.00  0.00    -0.137 NA 
HETATM   12  C   UNL     1      -9.202   7.289  69.377  1.00  0.00    -0.148 C  
HETATM   13  H1  UNL     1     -10.283   8.638  72.286  1.00  0.00     0.000 HD 
HETATM   14  C   UNL     1      -9.622   8.439  70.335  1.00  0.00    -0.169 C  
HETATM   15  H2  UNL     1      -9.271   7.302  72.058  1.00  0.00     0.000 HD 
HETATM   16  C   UNL     1      -8.442   9.382  70.622  1.00  0.00    -0.239 C  
HETATM   17  N   UNL     1     -10.007   7.884  71.658  1.00  0.00    -0.176 NA 
HETATM   18  C   UNL     1     -10.848   9.172  69.716  1.00  0.00    -0.211 C  
BRANCH  11  19
HETATM   19  C   UNL     1      -8.845   6.439  67.166  1.00  0.00    -0.113 C  
HETATM   20  C   UNL     1      -7.799   7.664  65.133  1.00  0.00    -0.124 C  
HETATM   21  C   UNL     1      -8.752   6.553  65.621  1.00  0.00    -0.102 C  
HETATM   22  C   UNL     1      -8.386   5.176  65.008  1.00  0.00    -0.144 C  
HETATM   23  C   UNL     1      -6.313   7.436  65.376  1.00  0.00    -0.038 C  
BRANCH  22  24
HETATM   24  C   UNL     1      -9.370   4.033  65.318  1.00  0.00    -0.163 C  
BRANCH  24  25
HETATM   25  C   UNL     1     -10.534   3.936  64.329  1.00  0.00    -0.247 C  
HETATM   26  C   UNL     1     -10.376   2.746  63.394  1.00  0.00    -0.187 C  
ENDBRANCH  24  25
ENDBRANCH  22  24
ENDBRANCH  11  19
ENDBRANCH   7   9
ENDBRANCH   3   4
ENDBRANCH   2   3
TORSDOF 6
ENDMDL
MODEL       77
REMARK 921   NORMALIZED FREE ENERGY PREDICTED BY IDOCK:   -4.07 KCAL/MOL
REMARK 922        TOTAL FREE ENERGY PREDICTED BY IDOCK:   -6.29 KCAL/MOL
REMARK 923 INTER-LIGAND FREE ENERGY PREDICTED BY IDOCK:   -5.60 KCAL/MOL
REMARK 924 INTRA-LIGAND FREE ENERGY PREDICTED BY IDOCK:   -0.69 KCAL/MOL
REMARK 927      BINDING AFFINITY PREDICTED BY RF-SCORE:    0.00 PKD
ROOT
HETATM    1  C   UNL     1     -14.389   8.442  71.959  1.00  0.00    -0.555 C  
HETATM    2  C   UNL     1     -13.092   9.234  72.042  1.00  0.00    -0.512 C  
ENDROOT
BRANCH   2   3
HETATM    3  C   UNL     1     -12.974  10.189  70.860  1.00  0.00    -0.432 C  
BRANCH   3   4
HETATM    4  C   UNL     1     -11.515  10.492  70.511  1.00  0.00    -0.433 C  
HETATM    5  C   UNL     1     -11.360  11.082  69.095  1.00  0.00    -0.348 C  
HETATM    6  C   UNL     1     -12.154  12.389  68.854  1.00  0.00    -0.171 C  
HETATM    7  C   UNL     1      -9.873  11.300  68.728  1.00  0.00    -0.184 C  
HETATM    8  C   UNL     1     -11.693  13.592  69.663  1.00  0.00    -0.383 C  
BRANCH   7   9
HETATM    9  N   UNL     1      -9.033  10.097  68.679  1.00  0.00    -0.130 NA 
HETATM   10  C   UNL     1      -8.764   9.624  67.322  1.00  0.00    -0.132 C  
HETATM   11  N   UNL     1      -7.979  10.605  66.568  1.00  0.00    -0.132 NA 
HETATM   12  C   UNL     1      -6.645  10.749  67.200  1.00  0.00    -0.079 C  
HETATM   13  H1  UNL     1      -5.378  11.087  70.320  1.00  0.00     0.000 HD 
HETATM   14  C   UNL     1      -6.677  11.123  68.709  1.00  0.00    -0.067 C  
HETATM   15  H2  UNL     1      -4.595  11.305  68.836  1.00  0.00     0.000 HD 
HETATM   16  C   UNL     1      -6.899  12.632  68.902  1.00  0.00    -0.097 C  
HETATM   17  N   UNL     1      -5.357  10.841  69.330  1.00  0.00    -0.038 NA 
HETATM   18  C   UNL     1      -7.763  10.255  69.408  1.00  0.00    -0.146 C  
BRANCH  11  19
HETATM   19  C   UNL     1      -7.775  10.170  65.168  1.00  0.00    -0.141 C  
HETATM   20  C   UNL     1     -10.216  10.557  64.380  1.00  0.00    -0.337 C  
HETATM   21  C   UNL     1      -8.994   9.614  64.385  1.00  0.00    -0.276 C  
HETATM   22  C   UNL     1      -8.567   9.223  62.946  1.00  0.00    -0.220 C  
HETATM   23  C   UNL     1     -10.073  11.845  63.581  1.00  0.00    -0.450 C  
BRANCH  22  24
HETATM   24  C   UNL     1      -7.452   8.167  62.852  1.00  0.00    -0.115 C  
BRANCH  24  25
HETATM   25  C   UNL     1      -7.966   6.745  62.624  1.00  0.00    -0.100 C  
HETATM   26  C   UNL     1      -8.010   5.950  63.921  1.00  0.00    -0.119 C  
ENDBRANCH  24  25
ENDBRANCH  22  24
ENDBRANCH  11  19
ENDBRANCH   7   9
ENDBRANCH   3   4
ENDBRANCH   2   3
TORSDOF 6
ENDMDL
MODEL       78
REMARK 921   NORMALIZED FREE ENERGY PREDICTED BY IDOCK:   -4.01 KCAL/MOL
REMARK 922        TOTAL FREE ENERGY PREDICTED BY IDOCK:   -6.20 KCAL/MOL
REMARK 923 INTER-LIGAND FREE ENERGY PREDICTED BY IDOCK:   -5.90 KCAL/MOL
REMARK 924 INTRA-LIGAND FREE ENERGY PREDICTED BY IDOCK:   -0.30 KCAL/MOL
REMARK 927      BINDING AFFINITY PREDICTED BY RF-SCORE:    0.00 PKD
ROOT
HETATM    1  C   UNL     1     -10.701  18.221  67.264  1.00  0.00    -0.366 C  
HETATM    2  C   UNL     1     -10.204  17.279  66.177  1.00  0.00    -0.338 C  
ENDROOT
BRANCH   2   3
HETATM    3  C   UNL     1     -11.239  16.196  65.894  1.00  0.00     0.176 C  
BRANCH   3   4
HETATM    4  C   UNL     1     -10.802  14.830  66.429  1.00  0.00    -0.322 C  
HETATM    5  C   UNL     1     -11.952  13.803  66.426  1.00  0.00    -0.473 C  
HETATM    6  C   UNL     1     -12.586  13.553  65.036  1.00  0.00    -0.441 C  
HETATM    7  C   UNL     1     -11.514  12.457  67.050  1.00  0.00    -0.358 C  
HETATM    8  C   UNL     1     -11.675  12.892  64.013  1.00  0.00    -0.499 C  
BRANCH   7   9
HETATM    9  N   UNL     1     -11.109  12.496  68.461  1.00  0.00    -0.246 NA 
HETATM   10  C   UNL     1     -11.129  11.189  69.115  1.00  0.00    -0.248 C  
HETATM   11  N   UNL     1     -10.146  10.285  68.514  1.00  0.00    -0.159 NA 
HETATM   12  C   UNL     1      -8.783  10.818  68.757  1.00  0.00    -0.163 C  
HETATM   13  H1  UNL     1      -7.195  13.800  68.574  1.00  0.00     0.000 HD 
HETATM   14  C   UNL     1      -8.556  12.273  68.260  1.00  0.00    -0.172 C  
HETATM   15  H2  UNL     1      -6.522  12.259  68.756  1.00  0.00     0.000 HD 
HETATM   16  C   UNL     1      -8.268  12.306  66.750  1.00  0.00    -0.058 C  
HETATM   17  N   UNL     1      -7.344  12.846  68.901  1.00  0.00    -0.062 NA 
HETATM   18  C   UNL     1      -9.793  13.128  68.661  1.00  0.00    -0.083 C  
BRANCH  11  19
HETATM   19  C   UNL     1     -10.219   8.934  69.114  1.00  0.00    -0.206 C  
HETATM   20  C   UNL     1     -10.497   7.636  66.885  1.00  0.00    -0.388 C  
HETATM   21  C   UNL     1     -10.980   7.825  68.339  1.00  0.00     0.128 C  
HETATM   22  C   UNL     1     -10.933   6.494  69.134  1.00  0.00    -0.380 C  
HETATM   23  C   UNL     1      -9.105   7.045  66.706  1.00  0.00    -0.162 C  
BRANCH  22  24
HETATM   24  C   UNL     1     -11.536   6.549  70.549  1.00  0.00    -0.455 C  
BRANCH  24  25
HETATM   25  C   UNL     1     -10.680   5.861  71.613  1.00  0.00    -0.308 C  
HETATM   26  C   UNL     1     -11.535   5.255  72.716  1.00  0.00    -0.317 C  
ENDBRANCH  24  25
ENDBRANCH  22  24
ENDBRANCH  11  19
ENDBRANCH   7   9
ENDBRANCH   3   4
ENDBRANCH   2   3
TORSDOF 6
ENDMDL
MODEL       79
REMARK 921   NORMALIZED FREE ENERGY PREDICTED BY IDOCK:   -3.99 KCAL/MOL
REMARK 922        TOTAL FREE ENERGY PREDICTED BY IDOCK:   -6.18 KCAL/MOL
REMARK 923 INTER-LIGAND FREE ENERGY PREDICTED BY IDOCK:   -5.08 KCAL/MOL
REMARK 924 INTRA-LIGAND FREE ENERGY PREDICTED BY IDOCK:   -1.11 KCAL/MOL
REMARK 927      BINDING AFFINITY PREDICTED BY RF-SCORE:    0.00 PKD
ROOT
HETATM    1  C   UNL     1      -6.969   9.201  70.170  1.00  0.00    -0.056 C  
HETATM    2  C   UNL     1      -7.911   8.337  70.998  1.00  0.00    -0.097 C  
ENDROOT
BRANCH   2   3
HETATM    3  C   UNL     1      -9.352   8.807  70.831  1.00  0.00    -0.266 C  
BRANCH   3   4
HETATM    4  C   UNL     1      -9.431  10.216  70.239  1.00  0.00     0.105 C  
HETATM    5  C   UNL     1     -10.641  10.391  69.301  1.00  0.00    -0.259 C  
HETATM    6  C   UNL     1     -12.013  10.111  69.962  1.00  0.00    -0.210 C  
HETATM    7  C   UNL     1     -10.655  11.793  68.645  1.00  0.00    -0.223 C  
HETATM    8  C   UNL     1     -12.420  11.084  71.059  1.00  0.00    -0.512 C  
BRANCH   7   9
HETATM    9  N   UNL     1      -9.516  12.116  67.778  1.00  0.00    -0.186 NA 
HETATM   10  C   UNL     1      -8.968  10.959  67.072  1.00  0.00    -0.143 C  
HETATM   11  N   UNL     1      -9.947  10.401  66.136  1.00  0.00    -0.221 NA 
HETATM   12  C   UNL     1     -10.232  11.401  65.078  1.00  0.00    -0.281 C  
HETATM   13  H1  UNL     1     -10.882  14.716  64.879  1.00  0.00     0.000 HD 
HETATM   14  C   UNL     1     -10.709  12.785  65.602  1.00  0.00    -0.273 C  
HETATM   15  H2  UNL     1     -11.050  13.537  63.678  1.00  0.00     0.000 HD 
HETATM   16  C   UNL     1     -12.209  12.762  65.943  1.00  0.00    -0.422 C  
HETATM   17  N   UNL     1     -10.568  13.808  64.535  1.00  0.00    -0.423 NA 
HETATM   18  C   UNL     1      -9.817  13.186  66.812  1.00  0.00    -0.251 C  
BRANCH  11  19
HETATM   19  C   UNL     1      -9.430   9.180  65.479  1.00  0.00    -0.206 C  
HETATM   20  C   UNL     1      -9.762   7.593  67.505  1.00  0.00    -0.197 C  
HETATM   21  C   UNL     1      -8.824   8.064  66.374  1.00  0.00    -0.183 C  
HETATM   22  C   UNL     1      -8.349   6.878  65.494  1.00  0.00    -0.138 C  
HETATM   23  C   UNL     1     -11.001   6.817  67.078  1.00  0.00    -0.439 C  
BRANCH  22  24
HETATM   24  C   UNL     1      -7.292   7.227  64.431  1.00  0.00    -0.085 C  
BRANCH  24  25
HETATM   25  C   UNL     1      -6.035   7.885  65.003  1.00  0.00    -0.041 C  
HETATM   26  C   UNL     1      -5.857   9.303  64.480  1.00  0.00    -0.070 C  
ENDBRANCH  24  25
ENDBRANCH  22  24
ENDBRANCH  11  19
ENDBRANCH   7   9
ENDBRANCH   3   4
ENDBRANCH   2   3
TORSDOF 6
ENDMDL
MODEL       80
REMARK 921   NORMALIZED FREE ENERGY PREDICTED BY IDOCK:   -3.99 KCAL/MOL
REMARK 922        TOTAL FREE ENERGY PREDICTED BY IDOCK:   -6.18 KCAL/MOL
REMARK 923 INTER-LIGAND FREE ENERGY PREDICTED BY IDOCK:   -6.04 KCAL/MOL
REMARK 924 INTRA-LIGAND FREE ENERGY PREDICTED BY IDOCK:   -0.14 KCAL/MOL
REMARK 927      BINDING AFFINITY PREDICTED BY RF-SCORE:    0.00 PKD
ROOT
HETATM    1  C   UNL     1      -6.744   8.151  73.721  1.00  0.00    -0.142 C  
HETATM    2  C   UNL     1      -6.172   7.036  72.857  1.00  0.00    -0.057 C  
ENDROOT
BRANCH   2   3
HETATM    3  C   UNL     1      -7.295   6.213  72.234  1.00  0.00    -0.093 C  
BRANCH   3   4
HETATM    4  C   UNL     1      -8.522   7.068  71.912  1.00  0.00    -0.109 C  
HETATM    5  C   UNL     1      -8.846   7.086  70.405  1.00  0.00    -0.155 C  
HETATM    6  C   UNL     1      -9.103   5.690  69.787  1.00  0.00    -0.157 C  
HETATM    7  C   UNL     1     -10.036   8.024  70.090  1.00  0.00    -0.191 C  
HETATM    8  C   UNL     1     -10.349   4.973  70.289  1.00  0.00    -0.299 C  
BRANCH   7   9
HETATM    9  N   UNL     1      -9.843   9.445  70.403  1.00  0.00    -0.241 NA 
HETATM   10  C   UNL     1      -9.875  10.315  69.229  1.00  0.00    -0.228 C  
HETATM   11  N   UNL     1     -11.195  10.293  68.593  1.00  0.00    -0.234 NA 
HETATM   12  C   UNL     1     -12.194  10.867  69.527  1.00  0.00    -0.261 C  
HETATM   13  H1  UNL     1     -12.992  10.605  72.805  1.00  0.00     0.000 HD 
HETATM   14  C   UNL     1     -12.252  10.179  70.920  1.00  0.00    -0.356 C  
HETATM   15  H2  UNL     1     -13.880  11.330  71.561  1.00  0.00     0.000 HD 
HETATM   16  C   UNL     1     -13.085   8.888  70.868  1.00  0.00     0.116 C  
HETATM   17  N   UNL     1     -12.954  11.057  71.892  1.00  0.00    -0.444 NA 
HETATM   18  C   UNL     1     -10.795   9.942  71.412  1.00  0.00     0.058 C  
BRANCH  11  19
HETATM   19  C   UNL     1     -11.211  11.105  67.356  1.00  0.00    -0.294 C  
HETATM   20  C   UNL     1     -10.760  13.390  68.498  1.00  0.00    -0.278 C  
HETATM   21  C   UNL     1     -11.596  12.605  67.466  1.00  0.00    -0.418 C  
HETATM   22  C   UNL     1     -11.546  13.270  66.065  1.00  0.00    -0.384 C  
HETATM   23  C   UNL     1      -9.294  13.616  68.151  1.00  0.00    -0.212 C  
BRANCH  22  24
HETATM   24  C   UNL     1     -12.470  12.644  65.005  1.00  0.00    -0.556 C  
BRANCH  24  25
HETATM   25  C   UNL     1     -11.860  12.603  63.602  1.00  0.00    -0.606 C  
HETATM   26  C   UNL     1     -10.700  11.623  63.525  1.00  0.00    -0.495 C  
ENDBRANCH  24  25
ENDBRANCH  22  24
ENDBRANCH  11  19
ENDBRANCH   7   9
ENDBRANCH   3   4
ENDBRANCH   2   3
TORSDOF 6
ENDMDL
MODEL       81
REMARK 921   NORMALIZED FREE ENERGY PREDICTED BY IDOCK:   -3.99 KCAL/MOL
REMARK 922        TOTAL FREE ENERGY PREDICTED BY IDOCK:   -6.18 KCAL/MOL
REMARK 923 INTER-LIGAND FREE ENERGY PREDICTED BY IDOCK:   -6.06 KCAL/MOL
REMARK 924 INTRA-LIGAND FREE ENERGY PREDICTED BY IDOCK:   -0.12 KCAL/MOL
REMARK 927      BINDING AFFINITY PREDICTED BY RF-SCORE:    0.00 PKD
ROOT
HETATM    1  C   UNL     1      -8.361   8.432  68.098  1.00  0.00    -0.128 C  
HETATM    2  C   UNL     1      -8.610   8.647  66.611  1.00  0.00    -0.124 C  
ENDROOT
BRANCH   2   3
HETATM    3  C   UNL     1     -10.065   9.029  66.364  1.00  0.00    -0.351 C  
BRANCH   3   4
HETATM    4  C   UNL     1     -10.314  10.522  66.591  1.00  0.00    -0.295 C  
HETATM    5  C   UNL     1      -9.538  11.404  65.593  1.00  0.00    -0.258 C  
HETATM    6  C   UNL     1      -9.857  11.123  64.104  1.00  0.00    -0.340 C  
HETATM    7  C   UNL     1      -9.733  12.909  65.894  1.00  0.00    -0.184 C  
HETATM    8  C   UNL     1     -11.275  11.459  63.666  1.00  0.00    -0.366 C  
BRANCH   7   9
HETATM    9  N   UNL     1      -9.248  13.380  67.197  1.00  0.00    -0.231 NA 
HETATM   10  C   UNL     1      -8.414  14.578  67.116  1.00  0.00    -0.212 C  
HETATM   11  N   UNL     1      -9.182  15.721  66.618  1.00  0.00    -0.233 NA 
HETATM   12  C   UNL     1     -10.247  16.056  67.595  1.00  0.00    -0.262 C  
HETATM   13  H1  UNL     1     -12.560  14.408  69.436  1.00  0.00     0.000 HD 
HETATM   14  C   UNL     1     -11.197  14.878  67.951  1.00  0.00    -0.315 C  
HETATM   15  H2  UNL     1     -12.433  16.070  69.148  1.00  0.00     0.000 HD 
HETATM   16  C   UNL     1     -12.282  14.696  66.876  1.00  0.00    -0.114 C  
HETATM   17  N   UNL     1     -11.936  15.181  69.203  1.00  0.00    -0.297 NA 
HETATM   18  C   UNL     1     -10.336  13.599  68.166  1.00  0.00    -0.245 C  
BRANCH  11  19
HETATM   19  C   UNL     1      -8.325  16.916  66.453  1.00  0.00    -0.298 C  
HETATM   20  C   UNL     1      -7.882  17.311  68.979  1.00  0.00    -0.144 C  
HETATM   21  C   UNL     1      -8.257  17.938  67.620  1.00  0.00    -0.232 C  
HETATM   22  C   UNL     1      -7.305  19.105  67.248  1.00  0.00    -0.240 C  
HETATM   23  C   UNL     1      -6.455  16.798  69.117  1.00  0.00    -0.208 C  
BRANCH  22  24
HETATM   24  C   UNL     1      -7.688  19.892  65.981  1.00  0.00    -0.337 C  
BRANCH  24  25
HETATM   25  C   UNL     1      -6.488  20.352  65.153  1.00  0.00    -0.323 C  
HETATM   26  C   UNL     1      -5.792  19.181  64.475  1.00  0.00    -0.319 C  
ENDBRANCH  24  25
ENDBRANCH  22  24
ENDBRANCH  11  19
ENDBRANCH   7   9
ENDBRANCH   3   4
ENDBRANCH   2   3
TORSDOF 6
ENDMDL
MODEL       82
REMARK 921   NORMALIZED FREE ENERGY PREDICTED BY IDOCK:   -3.97 KCAL/MOL
REMARK 922        TOTAL FREE ENERGY PREDICTED BY IDOCK:   -6.15 KCAL/MOL
REMARK 923 INTER-LIGAND FREE ENERGY PREDICTED BY IDOCK:   -5.50 KCAL/MOL
REMARK 924 INTRA-LIGAND FREE ENERGY PREDICTED BY IDOCK:   -0.66 KCAL/MOL
REMARK 927      BINDING AFFINITY PREDICTED BY RF-SCORE:    0.00 PKD
ROOT
HETATM    1  C   UNL     1      -7.729   6.790  63.182  1.00  0.00    -0.103 C  
HETATM    2  C   UNL     1      -7.301   7.404  64.507  1.00  0.00    -0.087 C  
ENDROOT
BRANCH   2   3
HETATM    3  C   UNL     1      -8.508   7.964  65.251  1.00  0.00    -0.119 C  
BRANCH   3   4
HETATM    4  C   UNL     1      -8.842   9.391  64.812  1.00  0.00    -0.243 C  
HETATM    5  C   UNL     1      -8.613  10.420  65.937  1.00  0.00    -0.165 C  
HETATM    6  C   UNL     1      -7.168  10.454  66.491  1.00  0.00    -0.118 C  
HETATM    7  C   UNL     1      -9.038  11.843  65.502  1.00  0.00     0.080 C  
HETATM    8  C   UNL     1      -6.104  10.930  65.513  1.00  0.00     0.004 C  
BRANCH   7   9
HETATM    9  N   UNL     1     -10.457  12.024  65.172  1.00  0.00    -0.278 NA 
HETATM   10  C   UNL     1     -11.356  11.803  66.304  1.00  0.00    -0.287 C  
HETATM   11  N   UNL     1     -11.132  12.796  67.356  1.00  0.00    -0.263 NA 
HETATM   12  C   UNL     1     -11.486  14.141  66.839  1.00  0.00    -0.357 C  
HETATM   13  H1  UNL     1     -10.955  15.960  64.035  1.00  0.00     0.000 HD 
HETATM   14  C   UNL     1     -10.742  14.553  65.537  1.00  0.00    -0.341 C  
HETATM   15  H2  UNL     1     -11.565  16.477  65.525  1.00  0.00     0.000 HD 
HETATM   16  C   UNL     1      -9.328  15.075  65.846  1.00  0.00    -0.249 C  
HETATM   17  N   UNL     1     -11.444  15.690  64.889  1.00  0.00    -0.292 NA 
HETATM   18  C   UNL     1     -10.740  13.337  64.566  1.00  0.00    -0.411 C  
BRANCH  11  19
HETATM   19  C   UNL     1     -11.980  12.528  68.540  1.00  0.00    -0.219 C  
HETATM   20  C   UNL     1     -10.982  14.391  70.045  1.00  0.00    -0.045 C  
HETATM   21  C   UNL     1     -11.433  12.919  69.939  1.00  0.00    -0.147 C  
HETATM   22  C   UNL     1     -12.472  12.559  71.034  1.00  0.00    -0.353 C  
HETATM   23  C   UNL     1     -12.083  15.441  69.992  1.00  0.00    -0.388 C  
BRANCH  22  24
HETATM   24  C   UNL     1     -12.870  11.074  71.104  1.00  0.00    -0.491 C  
BRANCH  24  25
HETATM   25  C   UNL     1     -11.701  10.135  71.407  1.00  0.00    -0.373 C  
HETATM   26  C   UNL     1     -11.283   9.345  70.176  1.00  0.00    -0.253 C  
ENDBRANCH  24  25
ENDBRANCH  22  24
ENDBRANCH  11  19
ENDBRANCH   7   9
ENDBRANCH   3   4
ENDBRANCH   2   3
TORSDOF 6
ENDMDL
MODEL       83
REMARK 921   NORMALIZED FREE ENERGY PREDICTED BY IDOCK:   -3.95 KCAL/MOL
REMARK 922        TOTAL FREE ENERGY PREDICTED BY IDOCK:   -6.12 KCAL/MOL
REMARK 923 INTER-LIGAND FREE ENERGY PREDICTED BY IDOCK:   -6.45 KCAL/MOL
REMARK 924 INTRA-LIGAND FREE ENERGY PREDICTED BY IDOCK:    0.33 KCAL/MOL
REMARK 927      BINDING AFFINITY PREDICTED BY RF-SCORE:    0.00 PKD
ROOT
HETATM    1  C   UNL     1      -6.276  20.131  70.839  1.00  0.00    -0.251 C  
HETATM    2  C   UNL     1      -5.223  20.917  70.071  1.00  0.00    -0.389 C  
ENDROOT
BRANCH   2   3
HETATM    3  C   UNL     1      -5.545  20.926  68.581  1.00  0.00    -0.389 C  
BRANCH   3   4
HETATM    4  C   UNL     1      -6.312  19.674  68.151  1.00  0.00    -0.267 C  
HETATM    5  C   UNL     1      -7.629  20.011  67.426  1.00  0.00    -0.316 C  
HETATM    6  C   UNL     1      -7.458  20.883  66.157  1.00  0.00     0.183 C  
HETATM    7  C   UNL     1      -8.430  18.735  67.078  1.00  0.00    -0.281 C  
HETATM    8  C   UNL     1      -6.715  20.221  65.006  1.00  0.00    -0.321 C  
BRANCH   7   9
HETATM    9  N   UNL     1      -8.879  17.919  68.213  1.00  0.00    -0.269 NA 
HETATM   10  C   UNL     1      -9.935  16.968  67.873  1.00  0.00    -0.281 C  
HETATM   11  N   UNL     1      -9.453  15.967  66.917  1.00  0.00    -0.220 NA 
HETATM   12  C   UNL     1      -8.392  15.153  67.559  1.00  0.00    -0.172 C  
HETATM   13  H1  UNL     1      -5.645  15.681  69.464  1.00  0.00     0.000 HD 
HETATM   14  C   UNL     1      -7.201  15.973  68.132  1.00  0.00    -0.131 C  
HETATM   15  H2  UNL     1      -6.120  14.264  68.672  1.00  0.00     0.000 HD 
HETATM   16  C   UNL     1      -6.203  16.350  67.024  1.00  0.00    -0.155 C  
HETATM   17  N   UNL     1      -6.426  15.143  69.089  1.00  0.00    -0.110 NA 
HETATM   18  C   UNL     1      -7.772  17.212  68.881  1.00  0.00    -0.230 C  
BRANCH  11  19
HETATM   19  C   UNL     1     -10.540  15.051  66.504  1.00  0.00    -0.305 C  
HETATM   20  C   UNL     1     -10.688  13.741  68.738  1.00  0.00    -0.267 C  
HETATM   21  C   UNL     1     -10.637  13.665  67.197  1.00  0.00    -0.272 C  
HETATM   22  C   UNL     1     -11.839  12.869  66.625  1.00  0.00    -0.461 C  
HETATM   23  C   UNL     1     -11.955  14.326  69.345  1.00  0.00    -0.381 C  
BRANCH  22  24
HETATM   24  C   UNL     1     -11.797  12.611  65.108  1.00  0.00    -0.437 C  
BRANCH  24  25
HETATM   25  C   UNL     1     -10.689  11.650  64.675  1.00  0.00    -0.371 C  
HETATM   26  C   UNL     1     -10.439  11.721  63.176  1.00  0.00    -0.359 C  
ENDBRANCH  24  25
ENDBRANCH  22  24
ENDBRANCH  11  19
ENDBRANCH   7   9
ENDBRANCH   3   4
ENDBRANCH   2   3
TORSDOF 6
ENDMDL
MODEL       84
REMARK 921   NORMALIZED FREE ENERGY PREDICTED BY IDOCK:   -3.94 KCAL/MOL
REMARK 922        TOTAL FREE ENERGY PREDICTED BY IDOCK:   -6.11 KCAL/MOL
REMARK 923 INTER-LIGAND FREE ENERGY PREDICTED BY IDOCK:   -5.96 KCAL/MOL
REMARK 924 INTRA-LIGAND FREE ENERGY PREDICTED BY IDOCK:   -0.15 KCAL/MOL
REMARK 927      BINDING AFFINITY PREDICTED BY RF-SCORE:    0.00 PKD
ROOT
HETATM    1  C   UNL     1     -12.801  11.249  71.683  1.00  0.00    -0.510 C  
HETATM    2  C   UNL     1     -13.541   9.954  71.989  1.00  0.00    -0.399 C  
ENDROOT
BRANCH   2   3
HETATM    3  C   UNL     1     -12.556   8.847  72.346  1.00  0.00    -0.423 C  
BRANCH   3   4
HETATM    4  C   UNL     1     -11.917   8.223  71.103  1.00  0.00    -0.290 C  
HETATM    5  C   UNL     1     -10.439   8.628  70.936  1.00  0.00    -0.265 C  
HETATM    6  C   UNL     1      -9.533   8.255  72.134  1.00  0.00    -0.328 C  
HETATM    7  C   UNL     1      -9.838   8.059  69.629  1.00  0.00    -0.184 C  
HETATM    8  C   UNL     1      -9.345   6.764  72.372  1.00  0.00    -0.146 C  
BRANCH   7   9
HETATM    9  N   UNL     1     -10.450   8.521  68.377  1.00  0.00    -0.200 NA 
HETATM   10  C   UNL     1     -10.483   9.976  68.241  1.00  0.00    -0.213 C  
HETATM   11  N   UNL     1      -9.128  10.529  68.170  1.00  0.00    -0.138 NA 
HETATM   12  C   UNL     1      -8.468  10.040  66.935  1.00  0.00    -0.125 C  
HETATM   13  H1  UNL     1      -8.115   7.109  65.281  1.00  0.00     0.000 HD 
HETATM   14  C   UNL     1      -8.430   8.493  66.787  1.00  0.00    -0.109 C  
HETATM   15  H2  UNL     1      -7.284   8.562  65.036  1.00  0.00     0.000 HD 
HETATM   16  C   UNL     1      -7.281   7.884  67.608  1.00  0.00    -0.088 C  
HETATM   17  N   UNL     1      -8.140   8.124  65.377  1.00  0.00    -0.122 NA 
HETATM   18  C   UNL     1      -9.825   7.927  67.182  1.00  0.00    -0.208 C  
BRANCH  11  19
HETATM   19  C   UNL     1      -9.152  12.008  68.117  1.00  0.00    -0.191 C  
HETATM   20  C   UNL     1     -10.536  12.202  65.931  1.00  0.00    -0.288 C  
HETATM   21  C   UNL     1      -9.311  12.692  66.732  1.00  0.00    -0.232 C  
HETATM   22  C   UNL     1      -9.316  14.234  66.899  1.00  0.00    -0.268 C  
HETATM   23  C   UNL     1     -11.902  12.598  66.475  1.00  0.00    -0.463 C  
BRANCH  22  24
HETATM   24  C   UNL     1      -8.058  14.831  67.555  1.00  0.00    -0.199 C  
BRANCH  24  25
HETATM   25  C   UNL     1      -7.554  16.106  66.876  1.00  0.00    -0.275 C  
HETATM   26  C   UNL     1      -8.668  16.815  66.119  1.00  0.00    -0.299 C  
ENDBRANCH  24  25
ENDBRANCH  22  24
ENDBRANCH  11  19
ENDBRANCH   7   9
ENDBRANCH   3   4
ENDBRANCH   2   3
TORSDOF 6
ENDMDL
MODEL       85
REMARK 921   NORMALIZED FREE ENERGY PREDICTED BY IDOCK:   -3.93 KCAL/MOL
REMARK 922        TOTAL FREE ENERGY PREDICTED BY IDOCK:   -6.10 KCAL/MOL
REMARK 923 INTER-LIGAND FREE ENERGY PREDICTED BY IDOCK:   -6.20 KCAL/MOL
REMARK 924 INTRA-LIGAND FREE ENERGY PREDICTED BY IDOCK:    0.10 KCAL/MOL
REMARK 927      BINDING AFFINITY PREDICTED BY RF-SCORE:    0.00 PKD
ROOT
HETATM    1  C   UNL     1     -12.175  13.196  64.750  1.00  0.00    -0.477 C  
HETATM    2  C   UNL     1     -11.695  12.691  63.396  1.00  0.00    -0.571 C  
ENDROOT
BRANCH   2   3
HETATM    3  C   UNL     1     -10.562  11.686  63.573  1.00  0.00    -0.496 C  
BRANCH   3   4
HETATM    4  C   UNL     1     -10.351  11.311  65.041  1.00  0.00    -0.359 C  
HETATM    5  C   UNL     1      -9.737   9.907  65.207  1.00  0.00    -0.383 C  
HETATM    6  C   UNL     1      -8.374   9.714  64.499  1.00  0.00    -0.172 C  
HETATM    7  C   UNL     1      -9.612   9.512  66.697  1.00  0.00    -0.188 C  
HETATM    8  C   UNL     1      -7.226  10.542  65.058  1.00  0.00     0.005 C  
BRANCH   7   9
HETATM    9  N   UNL     1     -10.868   9.415  67.451  1.00  0.00    -0.208 NA 
HETATM   10  C   UNL     1     -10.776   8.569  68.640  1.00  0.00    -0.041 C  
HETATM   11  N   UNL     1      -9.846   9.136  69.619  1.00  0.00    -0.174 NA 
HETATM   12  C   UNL     1     -10.383  10.430  70.107  1.00  0.00    -0.056 C  
HETATM   13  H1  UNL     1     -11.790  13.210  68.786  1.00  0.00     0.000 HD 
HETATM   14  C   UNL     1     -10.694  11.467  68.991  1.00  0.00    -0.205 C  
HETATM   15  H2  UNL     1     -11.203  12.971  70.355  1.00  0.00     0.000 HD 
HETATM   16  C   UNL     1      -9.418  12.199  68.541  1.00  0.00    -0.125 C  
HETATM   17  N   UNL     1     -11.587  12.530  69.519  1.00  0.00    -0.291 NA 
HETATM   18  C   UNL     1     -11.415  10.732  67.824  1.00  0.00    -0.202 C  
BRANCH  11  19
HETATM   19  C   UNL     1      -9.684   8.243  70.788  1.00  0.00    -0.172 C  
HETATM   20  C   UNL     1     -12.063   8.593  71.760  1.00  0.00    -0.403 C  
HETATM   21  C   UNL     1     -10.549   8.515  72.048  1.00  0.00    -0.408 C  
HETATM   22  C   UNL     1     -10.230   7.469  73.147  1.00  0.00    -0.382 C  
HETATM   23  C   UNL     1     -12.744   7.290  71.363  1.00  0.00    -0.427 C  
BRANCH  22  24
HETATM   24  C   UNL     1      -8.762   7.425  73.610  1.00  0.00    -0.228 C  
BRANCH  24  25
HETATM   25  C   UNL     1      -8.138   6.030  73.552  1.00  0.00    -0.110 C  
HETATM   26  C   UNL     1      -9.006   5.060  72.764  1.00  0.00    -0.124 C  
ENDBRANCH  24  25
ENDBRANCH  22  24
ENDBRANCH  11  19
ENDBRANCH   7   9
ENDBRANCH   3   4
ENDBRANCH   2   3
TORSDOF 6
ENDMDL
MODEL       86
REMARK 921   NORMALIZED FREE ENERGY PREDICTED BY IDOCK:   -3.93 KCAL/MOL
REMARK 922        TOTAL FREE ENERGY PREDICTED BY IDOCK:   -6.09 KCAL/MOL
REMARK 923 INTER-LIGAND FREE ENERGY PREDICTED BY IDOCK:   -5.41 KCAL/MOL
REMARK 924 INTRA-LIGAND FREE ENERGY PREDICTED BY IDOCK:   -0.68 KCAL/MOL
REMARK 927      BINDING AFFINITY PREDICTED BY RF-SCORE:    0.00 PKD
ROOT
HETATM    1  C   UNL     1     -13.448  15.229  71.235  1.00  0.00    -0.591 C  
HETATM    2  C   UNL     1     -12.324  14.234  70.984  1.00  0.00    -0.431 C  
ENDROOT
BRANCH   2   3
HETATM    3  C   UNL     1     -12.333  13.773  69.531  1.00  0.00    -0.258 C  
BRANCH   3   4
HETATM    4  C   UNL     1     -11.339  12.636  69.283  1.00  0.00    -0.306 C  
HETATM    5  C   UNL     1     -11.650  11.856  67.991  1.00  0.00    -0.401 C  
HETATM    6  C   UNL     1     -11.664  12.720  66.707  1.00  0.00    -0.459 C  
HETATM    7  C   UNL     1     -10.689  10.658  67.804  1.00  0.00    -0.257 C  
HETATM    8  C   UNL     1     -10.323  13.317  66.306  1.00  0.00    -0.290 C  
BRANCH   7   9
HETATM    9  N   UNL     1     -10.738   9.618  68.838  1.00  0.00    -0.219 NA 
HETATM   10  C   UNL     1     -10.465   8.273  68.333  1.00  0.00    -0.162 C  
HETATM   11  N   UNL     1      -9.095   8.169  67.825  1.00  0.00    -0.135 NA 
HETATM   12  C   UNL     1      -8.145   8.360  68.948  1.00  0.00    -0.114 C  
HETATM   13  H1  UNL     1      -7.762  10.466  71.570  1.00  0.00     0.000 HD 
HETATM   14  C   UNL     1      -8.331   9.686  69.739  1.00  0.00    -0.174 C  
HETATM   15  H2  UNL     1      -6.657   9.347  70.949  1.00  0.00     0.000 HD 
HETATM   16  C   UNL     1      -7.664  10.865  69.012  1.00  0.00    -0.135 C  
HETATM   17  N   UNL     1      -7.640   9.596  71.051  1.00  0.00    -0.307 NA 
HETATM   18  C   UNL     1      -9.853   9.905  69.981  1.00  0.00    -0.243 C  
BRANCH  11  19
HETATM   19  C   UNL     1      -8.839   6.837  67.235  1.00  0.00    -0.118 C  
HETATM   20  C   UNL     1      -7.289   7.654  65.323  1.00  0.00    -0.071 C  
HETATM   21  C   UNL     1      -8.477   6.757  65.728  1.00  0.00    -0.150 C  
HETATM   22  C   UNL     1      -8.245   5.280  65.315  1.00  0.00    -0.130 C  
HETATM   23  C   UNL     1      -5.920   7.242  65.849  1.00  0.00    -0.037 C  
BRANCH  22  24
HETATM   24  C   UNL     1      -9.439   4.335  65.542  1.00  0.00    -0.176 C  
BRANCH  24  25
HETATM   25  C   UNL     1      -9.137   3.176  66.494  1.00  0.00    -0.170 C  
HETATM   26  C   UNL     1      -7.706   3.231  67.007  1.00  0.00    -0.079 C  
ENDBRANCH  24  25
ENDBRANCH  22  24
ENDBRANCH  11  19
ENDBRANCH   7   9
ENDBRANCH   3   4
ENDBRANCH   2   3
TORSDOF 6
ENDMDL
MODEL       87
REMARK 921   NORMALIZED FREE ENERGY PREDICTED BY IDOCK:   -3.92 KCAL/MOL
REMARK 922        TOTAL FREE ENERGY PREDICTED BY IDOCK:   -6.09 KCAL/MOL
REMARK 923 INTER-LIGAND FREE ENERGY PREDICTED BY IDOCK:   -5.02 KCAL/MOL
REMARK 924 INTRA-LIGAND FREE ENERGY PREDICTED BY IDOCK:   -1.07 KCAL/MOL
REMARK 927      BINDING AFFINITY PREDICTED BY RF-SCORE:    0.00 PKD
ROOT
HETATM    1  C   UNL     1     -12.373  12.749  64.209  1.00  0.00    -0.493 C  
HETATM    2  C   UNL     1     -12.043  14.202  64.518  1.00  0.00    -0.489 C  
ENDROOT
BRANCH   2   3
HETATM    3  C   UNL     1     -11.937  14.417  66.024  1.00  0.00    -0.377 C  
BRANCH   3   4
HETATM    4  C   UNL     1     -12.025  13.101  66.800  1.00  0.00    -0.434 C  
HETATM    5  C   UNL     1     -10.828  12.898  67.749  1.00  0.00    -0.248 C  
HETATM    6  C   UNL     1     -10.644  14.021  68.800  1.00  0.00    -0.260 C  
HETATM    7  C   UNL     1     -10.890  11.525  68.458  1.00  0.00    -0.215 C  
HETATM    8  C   UNL     1     -11.753  14.132  69.836  1.00  0.00    -0.372 C  
BRANCH   7   9
HETATM    9  N   UNL     1     -10.827  10.342  67.590  1.00  0.00    -0.287 NA 
HETATM   10  C   UNL     1      -9.558  10.202  66.879  1.00  0.00    -0.177 C  
HETATM   11  N   UNL     1      -8.451   9.984  67.814  1.00  0.00    -0.114 NA 
HETATM   12  C   UNL     1      -8.651   8.688  68.509  1.00  0.00    -0.135 C  
HETATM   13  H1  UNL     1     -11.181   7.023  70.017  1.00  0.00     0.000 HD 
HETATM   14  C   UNL     1     -10.015   8.546  69.240  1.00  0.00    -0.195 C  
HETATM   15  H2  UNL     1      -9.525   6.683  70.060  1.00  0.00     0.000 HD 
HETATM   16  C   UNL     1      -9.987   9.244  70.611  1.00  0.00    -0.336 C  
HETATM   17  N   UNL     1     -10.286   7.116  69.537  1.00  0.00    -0.209 NA 
HETATM   18  C   UNL     1     -11.133   9.091  68.305  1.00  0.00     0.215 C  
BRANCH  11  19
HETATM   19  C   UNL     1      -7.152   9.925  67.108  1.00  0.00    -0.085 C  
HETATM   20  C   UNL     1      -6.504  12.409  67.476  1.00  0.00    -0.146 C  
HETATM   21  C   UNL     1      -6.595  11.232  66.483  1.00  0.00    -0.108 C  
HETATM   22  C   UNL     1      -5.231  10.954  65.799  1.00  0.00    -0.133 C  
HETATM   23  C   UNL     1      -5.458  12.287  68.577  1.00  0.00    -0.054 C  
BRANCH  22  24
HETATM   24  C   UNL     1      -5.256   9.896  64.682  1.00  0.00    -0.070 C  
BRANCH  24  25
HETATM   25  C   UNL     1      -5.363  10.486  63.275  1.00  0.00    -0.167 C  
HETATM   26  C   UNL     1      -6.686  10.125  62.615  1.00  0.00    -0.130 C  
ENDBRANCH  24  25
ENDBRANCH  22  24
ENDBRANCH  11  19
ENDBRANCH   7   9
ENDBRANCH   3   4
ENDBRANCH   2   3
TORSDOF 6
ENDMDL
MODEL       88
REMARK 921   NORMALIZED FREE ENERGY PREDICTED BY IDOCK:   -3.92 KCAL/MOL
REMARK 922        TOTAL FREE ENERGY PREDICTED BY IDOCK:   -6.08 KCAL/MOL
REMARK 923 INTER-LIGAND FREE ENERGY PREDICTED BY IDOCK:   -4.59 KCAL/MOL
REMARK 924 INTRA-LIGAND FREE ENERGY PREDICTED BY IDOCK:   -1.49 KCAL/MOL
REMARK 927      BINDING AFFINITY PREDICTED BY RF-SCORE:    0.00 PKD
ROOT
HETATM    1  C   UNL     1      -6.819   3.091  68.648  1.00  0.00    -0.044 C  
HETATM    2  C   UNL     1      -6.546   4.158  69.698  1.00  0.00    -0.033 C  
ENDROOT
BRANCH   2   3
HETATM    3  C   UNL     1      -6.721   3.584  71.100  1.00  0.00    -0.031 C  
BRANCH   3   4
HETATM    4  C   UNL     1      -7.711   4.401  71.934  1.00  0.00    -0.084 C  
HETATM    5  C   UNL     1      -9.102   4.488  71.276  1.00  0.00    -0.178 C  
HETATM    6  C   UNL     1      -9.772   3.119  71.008  1.00  0.00    -0.185 C  
HETATM    7  C   UNL     1     -10.061   5.388  72.090  1.00  0.00    -0.190 C  
HETATM    8  C   UNL     1     -10.147   2.321  72.248  1.00  0.00    -0.229 C  
BRANCH   7   9
HETATM    9  N   UNL     1      -9.671   6.797  72.227  1.00  0.00    -0.149 NA 
HETATM   10  C   UNL     1      -9.206   7.402  70.980  1.00  0.00    -0.153 C  
HETATM   11  N   UNL     1     -10.282   7.452  69.987  1.00  0.00    -0.205 NA 
HETATM   12  C   UNL     1     -11.355   8.352  70.477  1.00  0.00    -0.216 C  
HETATM   13  H1  UNL     1     -13.039   8.895  73.361  1.00  0.00     0.000 HD 
HETATM   14  C   UNL     1     -11.925   7.982  71.875  1.00  0.00    -0.314 C  
HETATM   15  H2  UNL     1     -13.391   9.475  71.812  1.00  0.00     0.000 HD 
HETATM   16  C   UNL     1     -12.961   6.851  71.771  1.00  0.00    -0.326 C  
HETATM   17  N   UNL     1     -12.665   9.138  72.444  1.00  0.00    -0.370 NA 
HETATM   18  C   UNL     1     -10.735   7.630  72.814  1.00  0.00    -0.345 C  
BRANCH  11  19
HETATM   19  C   UNL     1      -9.797   7.986  68.694  1.00  0.00    -0.174 C  
HETATM   20  C   UNL     1      -9.259   5.691  67.611  1.00  0.00    -0.106 C  
HETATM   21  C   UNL     1      -8.786   7.135  67.880  1.00  0.00    -0.126 C  
HETATM   22  C   UNL     1      -8.413   7.868  66.565  1.00  0.00    -0.134 C  
HETATM   23  C   UNL     1     -10.430   5.530  66.650  1.00  0.00    -0.355 C  
BRANCH  22  24
HETATM   24  C   UNL     1      -7.787   9.263  66.742  1.00  0.00    -0.104 C  
BRANCH  24  25
HETATM   25  C   UNL     1      -8.476  10.357  65.925  1.00  0.00    -0.160 C  
HETATM   26  C   UNL     1      -9.808   9.882  65.364  1.00  0.00    -0.384 C  
ENDBRANCH  24  25
ENDBRANCH  22  24
ENDBRANCH  11  19
ENDBRANCH   7   9
ENDBRANCH   3   4
ENDBRANCH   2   3
TORSDOF 6
ENDMDL
MODEL       89
REMARK 921   NORMALIZED FREE ENERGY PREDICTED BY IDOCK:   -3.92 KCAL/MOL
REMARK 922        TOTAL FREE ENERGY PREDICTED BY IDOCK:   -6.08 KCAL/MOL
REMARK 923 INTER-LIGAND FREE ENERGY PREDICTED BY IDOCK:   -5.11 KCAL/MOL
REMARK 924 INTRA-LIGAND FREE ENERGY PREDICTED BY IDOCK:   -0.97 KCAL/MOL
REMARK 927      BINDING AFFINITY PREDICTED BY RF-SCORE:    0.00 PKD
ROOT
HETATM    1  C   UNL     1      -5.618   7.670  65.946  1.00  0.00    -0.033 C  
HETATM    2  C   UNL     1      -6.299   8.044  67.254  1.00  0.00    -0.056 C  
ENDROOT
BRANCH   2   3
HETATM    3  C   UNL     1      -7.290   6.961  67.669  1.00  0.00    -0.096 C  
BRANCH   3   4
HETATM    4  C   UNL     1      -8.371   7.501  68.608  1.00  0.00    -0.129 C  
HETATM    5  C   UNL     1      -9.490   8.241  67.849  1.00  0.00    -0.163 C  
HETATM    6  C   UNL     1     -10.216   7.386  66.782  1.00  0.00    -0.313 C  
HETATM    7  C   UNL     1     -10.527   8.854  68.820  1.00  0.00    -0.200 C  
HETATM    8  C   UNL     1     -11.028   6.218  67.322  1.00  0.00    -0.455 C  
BRANCH   7   9
HETATM    9  N   UNL     1     -10.025   9.876  69.747  1.00  0.00    -0.231 NA 
HETATM   10  C   UNL     1      -9.790  11.174  69.118  1.00  0.00    -0.053 C  
HETATM   11  N   UNL     1     -11.042  11.758  68.632  1.00  0.00    -0.220 NA 
HETATM   12  C   UNL     1     -11.928  12.042  69.787  1.00  0.00    -0.300 C  
HETATM   13  H1  UNL     1     -12.938  10.470  72.609  1.00  0.00     0.000 HD 
HETATM   14  C   UNL     1     -12.219  10.817  70.700  1.00  0.00    -0.379 C  
HETATM   15  H2  UNL     1     -13.564  11.875  71.905  1.00  0.00     0.000 HD 
HETATM   16  C   UNL     1     -13.327   9.932  70.105  1.00  0.00     0.565 C  
HETATM   17  N   UNL     1     -12.747  11.274  72.011  1.00  0.00    -0.170 NA 
HETATM   18  C   UNL     1     -10.886  10.048  70.930  1.00  0.00    -0.206 C  
BRANCH  11  19
HETATM   19  C   UNL     1     -10.802  13.033  67.920  1.00  0.00    -0.242 C  
HETATM   20  C   UNL     1     -11.115  12.095  65.522  1.00  0.00    -0.361 C  
HETATM   21  C   UNL     1     -10.265  12.973  66.464  1.00  0.00    -0.270 C  
HETATM   22  C   UNL     1     -10.089  14.408  65.904  1.00  0.00    -0.344 C  
HETATM   23  C   UNL     1     -12.500  12.623  65.171  1.00  0.00    -0.531 C  
BRANCH  22  24
HETATM   24  C   UNL     1      -9.131  15.314  66.700  1.00  0.00    -0.312 C  
BRANCH  24  25
HETATM   25  C   UNL     1      -9.553  16.784  66.729  1.00  0.00    -0.261 C  
HETATM   26  C   UNL     1     -10.596  17.047  67.805  1.00  0.00    -0.350 C  
ENDBRANCH  24  25
ENDBRANCH  22  24
ENDBRANCH  11  19
ENDBRANCH   7   9
ENDBRANCH   3   4
ENDBRANCH   2   3
TORSDOF 6
ENDMDL
MODEL       90
REMARK 921   NORMALIZED FREE ENERGY PREDICTED BY IDOCK:   -3.90 KCAL/MOL
REMARK 922        TOTAL FREE ENERGY PREDICTED BY IDOCK:   -6.06 KCAL/MOL
REMARK 923 INTER-LIGAND FREE ENERGY PREDICTED BY IDOCK:   -5.39 KCAL/MOL
REMARK 924 INTRA-LIGAND FREE ENERGY PREDICTED BY IDOCK:   -0.67 KCAL/MOL
REMARK 927      BINDING AFFINITY PREDICTED BY RF-SCORE:    0.00 PKD
ROOT
HETATM    1  C   UNL     1     -12.738  11.859  63.386  1.00  0.00    -0.496 C  
HETATM    2  C   UNL     1     -12.060  13.220  63.437  1.00  0.00    -0.508 C  
ENDROOT
BRANCH   2   3
HETATM    3  C   UNL     1     -12.532  14.007  64.654  1.00  0.00    -0.366 C  
BRANCH   3   4
HETATM    4  C   UNL     1     -11.862  13.527  65.944  1.00  0.00    -0.405 C  
HETATM    5  C   UNL     1     -10.323  13.549  65.849  1.00  0.00    -0.301 C  
HETATM    6  C   UNL     1      -9.720  14.938  65.526  1.00  0.00    -0.275 C  
HETATM    7  C   UNL     1      -9.666  12.979  67.128  1.00  0.00    -0.230 C  
HETATM    8  C   UNL     1      -9.906  15.997  66.603  1.00  0.00    -0.273 C  
BRANCH   7   9
HETATM    9  N   UNL     1      -9.958  11.574  67.438  1.00  0.00    -0.189 NA 
HETATM   10  C   UNL     1      -9.539  10.643  66.392  1.00  0.00    -0.190 C  
HETATM   11  N   UNL     1      -8.083  10.650  66.234  1.00  0.00    -0.146 NA 
HETATM   12  C   UNL     1      -7.456  10.142  67.478  1.00  0.00    -0.090 C  
HETATM   13  H1  UNL     1      -7.799  10.591  70.815  1.00  0.00     0.000 HD 
HETATM   14  C   UNL     1      -7.864  10.904  68.770  1.00  0.00    -0.132 C  
HETATM   15  H2  UNL     1      -6.549   9.814  69.980  1.00  0.00     0.000 HD 
HETATM   16  C   UNL     1      -7.057  12.203  68.928  1.00  0.00    -0.098 C  
HETATM   17  N   UNL     1      -7.531  10.090  69.967  1.00  0.00    -0.164 NA 
HETATM   18  C   UNL     1      -9.401  11.146  68.733  1.00  0.00    -0.149 C  
BRANCH  11  19
HETATM   19  C   UNL     1      -7.658   9.773  65.120  1.00  0.00    -0.125 C  
HETATM   20  C   UNL     1      -9.615  10.356  63.521  1.00  0.00    -0.361 C  
HETATM   21  C   UNL     1      -8.743   9.246  64.143  1.00  0.00    -0.201 C  
HETATM   22  C   UNL     1      -8.090   8.354  63.055  1.00  0.00    -0.163 C  
HETATM   23  C   UNL     1      -8.925  11.281  62.527  1.00  0.00    -0.287 C  
BRANCH  22  24
HETATM   24  C   UNL     1      -7.322   7.127  63.579  1.00  0.00    -0.082 C  
BRANCH  24  25
HETATM   25  C   UNL     1      -8.198   6.130  64.339  1.00  0.00    -0.063 C  
HETATM   26  C   UNL     1      -7.966   4.704  63.862  1.00  0.00    -0.095 C  
ENDBRANCH  24  25
ENDBRANCH  22  24
ENDBRANCH  11  19
ENDBRANCH   7   9
ENDBRANCH   3   4
ENDBRANCH   2   3
TORSDOF 6
ENDMDL
MODEL       91
REMARK 921   NORMALIZED FREE ENERGY PREDICTED BY IDOCK:   -3.90 KCAL/MOL
REMARK 922        TOTAL FREE ENERGY PREDICTED BY IDOCK:   -6.06 KCAL/MOL
REMARK 923 INTER-LIGAND FREE ENERGY PREDICTED BY IDOCK:   -6.03 KCAL/MOL
REMARK 924 INTRA-LIGAND FREE ENERGY PREDICTED BY IDOCK:   -0.02 KCAL/MOL
REMARK 927      BINDING AFFINITY PREDICTED BY RF-SCORE:    0.00 PKD
ROOT
HETATM    1  C   UNL     1      -8.934   4.266  68.791  1.00  0.00    -0.158 C  
HETATM    2  C   UNL     1      -9.431   4.037  70.212  1.00  0.00    -0.255 C  
ENDROOT
BRANCH   2   3
HETATM    3  C   UNL     1     -10.415   5.129  70.616  1.00  0.00    -0.269 C  
BRANCH   3   4
HETATM    4  C   UNL     1      -9.955   6.515  70.158  1.00  0.00    -0.190 C  
HETATM    5  C   UNL     1     -10.796   7.648  70.777  1.00  0.00    -0.246 C  
HETATM    6  C   UNL     1     -10.800   7.672  72.325  1.00  0.00    -0.318 C  
HETATM    7  C   UNL     1     -10.372   9.034  70.235  1.00  0.00    -0.209 C  
HETATM    8  C   UNL     1      -9.461   7.987  72.977  1.00  0.00    -0.345 C  
BRANCH   7   9
HETATM    9  N   UNL     1     -10.543   9.247  68.793  1.00  0.00    -0.214 NA 
HETATM   10  C   UNL     1     -11.221  10.498  68.459  1.00  0.00    -0.274 C  
HETATM   11  N   UNL     1     -10.422  11.655  68.872  1.00  0.00    -0.203 NA 
HETATM   12  C   UNL     1      -9.161  11.678  68.091  1.00  0.00    -0.184 C  
HETATM   13  H1  UNL     1      -6.770   9.482  67.136  1.00  0.00     0.000 HD 
HETATM   14  C   UNL     1      -8.316  10.376  68.181  1.00  0.00    -0.117 C  
HETATM   15  H2  UNL     1      -6.739  11.171  67.057  1.00  0.00     0.000 HD 
HETATM   16  C   UNL     1      -7.482  10.344  69.473  1.00  0.00    -0.148 C  
HETATM   17  N   UNL     1      -7.325  10.336  67.076  1.00  0.00    -0.091 NA 
HETATM   18  C   UNL     1      -9.275   9.158  68.048  1.00  0.00    -0.134 C  
BRANCH  11  19
HETATM   19  C   UNL     1     -11.139  12.924  68.614  1.00  0.00    -0.269 C  
HETATM   20  C   UNL     1     -10.771  12.955  66.047  1.00  0.00    -0.296 C  
HETATM   21  C   UNL     1     -10.738  13.755  67.366  1.00  0.00    -0.279 C  
HETATM   22  C   UNL     1     -11.608  15.036  67.279  1.00  0.00    -0.285 C  
HETATM   23  C   UNL     1     -12.146  12.540  65.541  1.00  0.00    -0.481 C  
BRANCH  22  24
HETATM   24  C   UNL     1     -11.521  15.977  68.493  1.00  0.00    -0.357 C  
BRANCH  24  25
HETATM   25  C   UNL     1     -10.234  16.803  68.543  1.00  0.00    -0.298 C  
HETATM   26  C   UNL     1     -10.384  18.119  67.795  1.00  0.00    -0.413 C  
ENDBRANCH  24  25
ENDBRANCH  22  24
ENDBRANCH  11  19
ENDBRANCH   7   9
ENDBRANCH   3   4
ENDBRANCH   2   3
TORSDOF 6
ENDMDL
MODEL       92
REMARK 921   NORMALIZED FREE ENERGY PREDICTED BY IDOCK:   -3.90 KCAL/MOL
REMARK 922        TOTAL FREE ENERGY PREDICTED BY IDOCK:   -6.06 KCAL/MOL
REMARK 923 INTER-LIGAND FREE ENERGY PREDICTED BY IDOCK:   -5.00 KCAL/MOL
REMARK 924 INTRA-LIGAND FREE ENERGY PREDICTED BY IDOCK:   -1.06 KCAL/MOL
REMARK 927      BINDING AFFINITY PREDICTED BY RF-SCORE:    0.00 PKD
ROOT
HETATM    1  C   UNL     1      -6.602   9.140  64.700  1.00  0.00    -0.075 C  
HETATM    2  C   UNL     1      -6.430   9.472  66.176  1.00  0.00    -0.070 C  
ENDROOT
BRANCH   2   3
HETATM    3  C   UNL     1      -5.829   8.286  66.923  1.00  0.00    -0.049 C  
BRANCH   3   4
HETATM    4  C   UNL     1      -6.625   7.938  68.183  1.00  0.00    -0.059 C  
HETATM    5  C   UNL     1      -8.115   7.678  67.883  1.00  0.00    -0.123 C  
HETATM    6  C   UNL     1      -8.376   6.541  66.866  1.00  0.00    -0.113 C  
HETATM    7  C   UNL     1      -8.918   7.415  69.179  1.00  0.00    -0.135 C  
HETATM    8  C   UNL     1      -7.980   5.146  67.330  1.00  0.00    -0.100 C  
BRANCH   7   9
HETATM    9  N   UNL     1      -8.964   8.515  70.150  1.00  0.00    -0.143 NA 
HETATM   10  C   UNL     1      -9.478   9.766  69.597  1.00  0.00    -0.219 C  
HETATM   11  N   UNL     1     -10.879   9.626  69.191  1.00  0.00    -0.214 NA 
HETATM   12  C   UNL     1     -11.709   9.364  70.392  1.00  0.00    -0.144 C  
HETATM   13  H1  UNL     1     -11.577   7.397  73.142  1.00  0.00     0.000 HD 
HETATM   14  C   UNL     1     -11.264   8.136  71.235  1.00  0.00    -0.260 C  
HETATM   15  H2  UNL     1     -12.885   8.291  72.550  1.00  0.00     0.000 HD 
HETATM   16  C   UNL     1     -11.784   6.824  70.624  1.00  0.00    -0.440 C  
HETATM   17  N   UNL     1     -11.870   8.202  72.590  1.00  0.00    -0.381 NA 
HETATM   18  C   UNL     1      -9.714   8.169  71.371  1.00  0.00    -0.171 C  
BRANCH  11  19
HETATM   19  C   UNL     1     -11.381  10.863  68.553  1.00  0.00    -0.299 C  
HETATM   20  C   UNL     1      -9.533  11.032  66.740  1.00  0.00    -0.203 C  
HETATM   21  C   UNL     1     -10.366  11.771  67.808  1.00  0.00    -0.211 C  
HETATM   22  C   UNL     1     -11.094  13.004  67.212  1.00  0.00    -0.303 C  
HETATM   23  C   UNL     1     -10.285  10.564  65.501  1.00  0.00    -0.325 C  
BRANCH  22  24
HETATM   24  C   UNL     1     -11.830  13.893  68.232  1.00  0.00    -0.412 C  
BRANCH  24  25
HETATM   25  C   UNL     1     -10.993  15.065  68.747  1.00  0.00    -0.259 C  
HETATM   26  C   UNL     1     -10.445  15.907  67.604  1.00  0.00    -0.289 C  
ENDBRANCH  24  25
ENDBRANCH  22  24
ENDBRANCH  11  19
ENDBRANCH   7   9
ENDBRANCH   3   4
ENDBRANCH   2   3
TORSDOF 6
ENDMDL
MODEL       93
REMARK 921   NORMALIZED FREE ENERGY PREDICTED BY IDOCK:   -3.88 KCAL/MOL
REMARK 922        TOTAL FREE ENERGY PREDICTED BY IDOCK:   -6.02 KCAL/MOL
REMARK 923 INTER-LIGAND FREE ENERGY PREDICTED BY IDOCK:   -5.16 KCAL/MOL
REMARK 924 INTRA-LIGAND FREE ENERGY PREDICTED BY IDOCK:   -0.87 KCAL/MOL
REMARK 927      BINDING AFFINITY PREDICTED BY RF-SCORE:    0.00 PKD
ROOT
HETATM    1  C   UNL     1      -5.685   9.224  63.170  1.00  0.00    -0.084 C  
HETATM    2  C   UNL     1      -5.249   9.664  64.561  1.00  0.00    -0.060 C  
ENDROOT
BRANCH   2   3
HETATM    3  C   UNL     1      -6.368  10.437  65.251  1.00  0.00    -0.114 C  
BRANCH   3   4
HETATM    4  C   UNL     1      -6.782   9.790  66.574  1.00  0.00    -0.079 C  
HETATM    5  C   UNL     1      -8.280   9.427  66.608  1.00  0.00    -0.112 C  
HETATM    6  C   UNL     1      -8.732   8.465  65.482  1.00  0.00    -0.196 C  
HETATM    7  C   UNL     1      -8.696   8.855  67.983  1.00  0.00    -0.133 C  
HETATM    8  C   UNL     1      -8.147   7.062  65.549  1.00  0.00    -0.132 C  
BRANCH   7   9
HETATM    9  N   UNL     1      -8.548   9.755  69.133  1.00  0.00    -0.142 NA 
HETATM   10  C   UNL     1      -9.239  11.033  68.972  1.00  0.00    -0.064 C  
HETATM   11  N   UNL     1     -10.689  10.840  68.887  1.00  0.00    -0.207 NA 
HETATM   12  C   UNL     1     -11.183  10.294  70.175  1.00  0.00    -0.318 C  
HETATM   13  H1  UNL     1     -10.284   7.888  72.379  1.00  0.00     0.000 HD 
HETATM   14  C   UNL     1     -10.487   8.981  70.634  1.00  0.00    -0.230 C  
HETATM   15  H2  UNL     1     -11.737   8.751  72.297  1.00  0.00     0.000 HD 
HETATM   16  C   UNL     1     -11.084   7.757  69.919  1.00  0.00    -0.142 C  
HETATM   17  N   UNL     1     -10.740   8.750  72.079  1.00  0.00    -0.346 NA 
HETATM   18  C   UNL     1      -8.955   9.131  70.404  1.00  0.00    -0.229 C  
BRANCH  11  19
HETATM   19  C   UNL     1     -11.389  12.120  68.639  1.00  0.00    -0.280 C  
HETATM   20  C   UNL     1      -9.890  12.900  66.671  1.00  0.00    -0.250 C  
HETATM   21  C   UNL     1     -10.589  13.283  67.992  1.00  0.00    -0.249 C  
HETATM   22  C   UNL     1     -11.504  14.523  67.816  1.00  0.00    -0.362 C  
HETATM   23  C   UNL     1     -10.798  12.632  65.478  1.00  0.00    -0.310 C  
BRANCH  22  24
HETATM   24  C   UNL     1     -12.128  15.072  69.112  1.00  0.00    -0.261 C  
BRANCH  24  25
HETATM   25  C   UNL     1     -11.100  15.469  70.173  1.00  0.00    -0.337 C  
HETATM   26  C   UNL     1     -11.759  15.740  71.517  1.00  0.00    -0.523 C  
ENDBRANCH  24  25
ENDBRANCH  22  24
ENDBRANCH  11  19
ENDBRANCH   7   9
ENDBRANCH   3   4
ENDBRANCH   2   3
TORSDOF 6
ENDMDL
MODEL       94
REMARK 921   NORMALIZED FREE ENERGY PREDICTED BY IDOCK:   -3.86 KCAL/MOL
REMARK 922        TOTAL FREE ENERGY PREDICTED BY IDOCK:   -6.00 KCAL/MOL
REMARK 923 INTER-LIGAND FREE ENERGY PREDICTED BY IDOCK:   -6.91 KCAL/MOL
REMARK 924 INTRA-LIGAND FREE ENERGY PREDICTED BY IDOCK:    0.91 KCAL/MOL
REMARK 927      BINDING AFFINITY PREDICTED BY RF-SCORE:    0.00 PKD
ROOT
HETATM    1  C   UNL     1      -5.198  20.265  68.653  1.00  0.00    -0.247 C  
HETATM    2  C   UNL     1      -5.964  21.142  67.673  1.00  0.00    -0.412 C  
ENDROOT
BRANCH   2   3
HETATM    3  C   UNL     1      -7.467  20.951  67.847  1.00  0.00    -0.060 C  
BRANCH   3   4
HETATM    4  C   UNL     1      -7.895  19.503  67.595  1.00  0.00    -0.314 C  
HETATM    5  C   UNL     1      -9.357  19.243  68.006  1.00  0.00    -0.388 C  
HETATM    6  C   UNL     1     -10.395  20.143  67.291  1.00  0.00    -0.494 C  
HETATM    7  C   UNL     1      -9.744  17.756  67.824  1.00  0.00    -0.285 C  
HETATM    8  C   UNL     1     -10.527  19.923  65.791  1.00  0.00    -0.518 C  
BRANCH   7   9
HETATM    9  N   UNL     1      -8.995  16.787  68.634  1.00  0.00    -0.244 NA 
HETATM   10  C   UNL     1      -9.371  15.397  68.384  1.00  0.00    -0.193 C  
HETATM   11  N   UNL     1      -9.044  15.002  67.012  1.00  0.00    -0.217 NA 
HETATM   12  C   UNL     1      -7.572  15.043  66.832  1.00  0.00     0.111 C  
HETATM   13  H1  UNL     1      -5.018  17.130  67.589  1.00  0.00     0.000 HD 
HETATM   14  C   UNL     1      -6.913  16.409  67.175  1.00  0.00    -0.204 C  
HETATM   15  H2  UNL     1      -5.011  15.790  66.557  1.00  0.00     0.000 HD 
HETATM   16  C   UNL     1      -7.054  17.402  66.010  1.00  0.00    -0.259 C  
HETATM   17  N   UNL     1      -5.450  16.234  67.363  1.00  0.00    -0.217 NA 
HETATM   18  C   UNL     1      -7.536  16.936  68.500  1.00  0.00    -0.217 C  
BRANCH  11  19
HETATM   19  C   UNL     1      -9.498  13.623  66.725  1.00  0.00    -0.270 C  
HETATM   20  C   UNL     1     -11.985  14.216  66.288  1.00  0.00    -0.448 C  
HETATM   21  C   UNL     1     -10.987  13.270  66.986  1.00  0.00    -0.291 C  
HETATM   22  C   UNL     1     -11.252  11.786  66.618  1.00  0.00    -0.383 C  
HETATM   23  C   UNL     1     -12.052  14.127  64.769  1.00  0.00    -0.454 C  
BRANCH  22  24
HETATM   24  C   UNL     1     -10.404  10.754  67.382  1.00  0.00    -0.251 C  
BRANCH  24  25
HETATM   25  C   UNL     1      -9.842   9.640  66.497  1.00  0.00    -0.298 C  
HETATM   26  C   UNL     1      -9.563  10.133  65.085  1.00  0.00    -0.354 C  
ENDBRANCH  24  25
ENDBRANCH  22  24
ENDBRANCH  11  19
ENDBRANCH   7   9
ENDBRANCH   3   4
ENDBRANCH   2   3
TORSDOF 6
ENDMDL
MODEL       95
REMARK 921   NORMALIZED FREE ENERGY PREDICTED BY IDOCK:   -3.84 KCAL/MOL
REMARK 922        TOTAL FREE ENERGY PREDICTED BY IDOCK:   -5.97 KCAL/MOL
REMARK 923 INTER-LIGAND FREE ENERGY PREDICTED BY IDOCK:   -5.17 KCAL/MOL
REMARK 924 INTRA-LIGAND FREE ENERGY PREDICTED BY IDOCK:   -0.80 KCAL/MOL
REMARK 927      BINDING AFFINITY PREDICTED BY RF-SCORE:    0.00 PKD
ROOT
HETATM    1  C   UNL     1     -11.365   6.401  69.965  1.00  0.00    -0.496 C  
HETATM    2  C   UNL     1     -10.452   5.516  70.801  1.00  0.00    -0.330 C  
ENDROOT
BRANCH   2   3
HETATM    3  C   UNL     1      -8.989   5.850  70.529  1.00  0.00    -0.151 C  
BRANCH   3   4
HETATM    4  C   UNL     1      -8.703   6.000  69.033  1.00  0.00    -0.122 C  
HETATM    5  C   UNL     1      -8.067   7.361  68.691  1.00  0.00    -0.125 C  
HETATM    6  C   UNL     1      -6.737   7.653  69.428  1.00  0.00    -0.040 C  
HETATM    7  C   UNL     1      -7.866   7.528  67.166  1.00  0.00    -0.117 C  
HETATM    8  C   UNL     1      -5.573   6.747  69.055  1.00  0.00    -0.017 C  
BRANCH   7   9
HETATM    9  N   UNL     1      -9.084   7.515  66.345  1.00  0.00    -0.168 NA 
HETATM   10  C   UNL     1     -10.223   8.180  66.974  1.00  0.00    -0.308 C  
HETATM   11  N   UNL     1      -9.963   9.610  67.157  1.00  0.00    -0.182 NA 
HETATM   12  C   UNL     1      -9.826  10.253  65.827  1.00  0.00    -0.257 C  
HETATM   13  H1  UNL     1      -8.255   9.625  62.896  1.00  0.00     0.000 HD 
HETATM   14  C   UNL     1      -8.745   9.619  64.907  1.00  0.00    -0.181 C  
HETATM   15  H2  UNL     1      -8.998  11.057  63.406  1.00  0.00     0.000 HD 
HETATM   16  C   UNL     1      -7.339  10.129  65.266  1.00  0.00    -0.141 C  
HETATM   17  N   UNL     1      -8.964  10.041  63.499  1.00  0.00    -0.236 NA 
HETATM   18  C   UNL     1      -8.870   8.070  64.997  1.00  0.00     0.170 C  
BRANCH  11  19
HETATM   19  C   UNL     1     -11.078  10.274  67.869  1.00  0.00    -0.276 C  
HETATM   20  C   UNL     1      -9.758  12.394  68.571  1.00  0.00    -0.140 C  
HETATM   21  C   UNL     1     -10.733  11.278  69.002  1.00  0.00    -0.257 C  
HETATM   22  C   UNL     1     -12.036  11.860  69.610  1.00  0.00    -0.365 C  
HETATM   23  C   UNL     1     -10.301  13.424  67.589  1.00  0.00    -0.238 C  
BRANCH  22  24
HETATM   24  C   UNL     1     -13.006  10.824  70.206  1.00  0.00    -0.132 C  
BRANCH  24  25
HETATM   25  C   UNL     1     -12.934  10.716  71.730  1.00  0.00    -0.577 C  
HETATM   26  C   UNL     1     -12.887   9.266  72.188  1.00  0.00    -0.485 C  
ENDBRANCH  24  25
ENDBRANCH  22  24
ENDBRANCH  11  19
ENDBRANCH   7   9
ENDBRANCH   3   4
ENDBRANCH   2   3
TORSDOF 6
ENDMDL
MODEL       96
REMARK 921   NORMALIZED FREE ENERGY PREDICTED BY IDOCK:   -3.81 KCAL/MOL
REMARK 922        TOTAL FREE ENERGY PREDICTED BY IDOCK:   -5.93 KCAL/MOL
REMARK 923 INTER-LIGAND FREE ENERGY PREDICTED BY IDOCK:   -6.31 KCAL/MOL
REMARK 924 INTRA-LIGAND FREE ENERGY PREDICTED BY IDOCK:    0.38 KCAL/MOL
REMARK 927      BINDING AFFINITY PREDICTED BY RF-SCORE:    0.00 PKD
ROOT
HETATM    1  C   UNL     1     -10.217   5.857  71.525  1.00  0.00    -0.254 C  
HETATM    2  C   UNL     1      -9.437   7.145  71.745  1.00  0.00    -0.160 C  
ENDROOT
BRANCH   2   3
HETATM    3  C   UNL     1     -10.385   8.337  71.822  1.00  0.00    -0.321 C  
BRANCH   3   4
HETATM    4  C   UNL     1     -10.626   8.968  70.449  1.00  0.00    -0.258 C  
HETATM    5  C   UNL     1      -9.523   9.973  70.062  1.00  0.00    -0.184 C  
HETATM    6  C   UNL     1      -8.095   9.377  70.032  1.00  0.00    -0.159 C  
HETATM    7  C   UNL     1      -9.830  10.663  68.712  1.00  0.00    -0.191 C  
HETATM    8  C   UNL     1      -7.847   8.328  68.957  1.00  0.00    -0.103 C  
BRANCH   7   9
HETATM    9  N   UNL     1     -11.051  11.477  68.662  1.00  0.00    -0.218 NA 
HETATM   10  C   UNL     1     -10.835  12.882  69.000  1.00  0.00    -0.145 C  
HETATM   11  N   UNL     1      -9.964  13.532  68.017  1.00  0.00    -0.241 NA 
HETATM   12  C   UNL     1     -10.646  13.552  66.700  1.00  0.00    -0.280 C  
HETATM   13  H1  UNL     1     -12.407  11.406  64.765  1.00  0.00     0.000 HD 
HETATM   14  C   UNL     1     -11.102  12.158  66.183  1.00  0.00    -0.312 C  
HETATM   15  H2  UNL     1     -11.767  12.916  64.349  1.00  0.00     0.000 HD 
HETATM   16  C   UNL     1      -9.934  11.397  65.534  1.00  0.00    -0.282 C  
HETATM   17  N   UNL     1     -12.109  12.321  65.104  1.00  0.00    -0.438 NA 
HETATM   18  C   UNL     1     -11.748  11.382  67.367  1.00  0.00    -0.089 C  
BRANCH  11  19
HETATM   19  C   UNL     1      -9.672  14.932  68.398  1.00  0.00    -0.209 C  
HETATM   20  C   UNL     1     -12.129  15.634  68.846  1.00  0.00    -0.183 C  
HETATM   21  C   UNL     1     -10.781  15.998  68.188  1.00  0.00    -0.311 C  
HETATM   22  C   UNL     1     -10.276  17.389  68.653  1.00  0.00    -0.361 C  
HETATM   23  C   UNL     1     -12.164  15.648  70.369  1.00  0.00    -0.429 C  
BRANCH  22  24
HETATM   24  C   UNL     1      -9.014  17.905  67.938  1.00  0.00    -0.264 C  
BRANCH  24  25
HETATM   25  C   UNL     1      -9.270  19.105  67.024  1.00  0.00    -0.336 C  
HETATM   26  C   UNL     1     -10.696  19.619  67.161  1.00  0.00    -0.587 C  
ENDBRANCH  24  25
ENDBRANCH  22  24
ENDBRANCH  11  19
ENDBRANCH   7   9
ENDBRANCH   3   4
ENDBRANCH   2   3
TORSDOF 6
ENDMDL
MODEL       97
REMARK 921   NORMALIZED FREE ENERGY PREDICTED BY IDOCK:   -3.81 KCAL/MOL
REMARK 922        TOTAL FREE ENERGY PREDICTED BY IDOCK:   -5.93 KCAL/MOL
REMARK 923 INTER-LIGAND FREE ENERGY PREDICTED BY IDOCK:   -5.00 KCAL/MOL
REMARK 924 INTRA-LIGAND FREE ENERGY PREDICTED BY IDOCK:   -0.93 KCAL/MOL
REMARK 927      BINDING AFFINITY PREDICTED BY RF-SCORE:    0.00 PKD
ROOT
HETATM    1  C   UNL     1     -10.162   4.760  65.745  1.00  0.00    -0.251 C  
HETATM    2  C   UNL     1      -8.773   5.077  66.281  1.00  0.00    -0.117 C  
ENDROOT
BRANCH   2   3
HETATM    3  C   UNL     1      -8.800   6.354  67.112  1.00  0.00    -0.113 C  
BRANCH   3   4
HETATM    4  C   UNL     1      -9.451   7.516  66.359  1.00  0.00    -0.208 C  
HETATM    5  C   UNL     1      -8.683   8.840  66.543  1.00  0.00    -0.137 C  
HETATM    6  C   UNL     1      -7.203   8.791  66.090  1.00  0.00    -0.085 C  
HETATM    7  C   UNL     1      -9.404  10.018  65.846  1.00  0.00    -0.185 C  
HETATM    8  C   UNL     1      -6.984   8.595  64.597  1.00  0.00    -0.073 C  
BRANCH   7   9
HETATM    9  N   UNL     1     -10.746  10.343  66.344  1.00  0.00    -0.121 NA 
HETATM   10  C   UNL     1     -10.973   9.941  67.731  1.00  0.00    -0.217 C  
HETATM   11  N   UNL     1     -10.095  10.679  68.643  1.00  0.00    -0.175 NA 
HETATM   12  C   UNL     1     -10.445  12.119  68.596  1.00  0.00    -0.216 C  
HETATM   13  H1  UNL     1     -11.126  14.452  66.240  1.00  0.00     0.000 HD 
HETATM   14  C   UNL     1     -10.407  12.752  67.176  1.00  0.00    -0.233 C  
HETATM   15  H2  UNL     1     -10.810  14.679  67.886  1.00  0.00     0.000 HD 
HETATM   16  C   UNL     1      -8.969  13.118  66.770  1.00  0.00    -0.183 C  
HETATM   17  N   UNL     1     -11.152  14.037  67.172  1.00  0.00    -0.296 NA 
HETATM   18  C   UNL     1     -11.087  11.768  66.181  1.00  0.00    -0.307 C  
BRANCH  11  19
HETATM   19  C   UNL     1     -10.259  10.217  70.039  1.00  0.00    -0.220 C  
HETATM   20  C   UNL     1      -8.147   8.713  70.102  1.00  0.00    -0.113 C  
HETATM   21  C   UNL     1      -9.647   8.847  70.437  1.00  0.00    -0.227 C  
HETATM   22  C   UNL     1      -9.926   8.556  71.936  1.00  0.00    -0.365 C  
HETATM   23  C   UNL     1      -7.191   9.571  70.920  1.00  0.00    -0.063 C  
BRANCH  22  24
HETATM   24  C   UNL     1     -11.412   8.519  72.335  1.00  0.00    -0.419 C  
BRANCH  24  25
HETATM   25  C   UNL     1     -12.194   7.370  71.696  1.00  0.00    -0.361 C  
HETATM   26  C   UNL     1     -11.432   6.056  71.784  1.00  0.00    -0.314 C  
ENDBRANCH  24  25
ENDBRANCH  22  24
ENDBRANCH  11  19
ENDBRANCH   7   9
ENDBRANCH   3   4
ENDBRANCH   2   3
TORSDOF 6
ENDMDL
MODEL       98
REMARK 921   NORMALIZED FREE ENERGY PREDICTED BY IDOCK:   -3.80 KCAL/MOL
REMARK 922        TOTAL FREE ENERGY PREDICTED BY IDOCK:   -5.92 KCAL/MOL
REMARK 923 INTER-LIGAND FREE ENERGY PREDICTED BY IDOCK:   -4.90 KCAL/MOL
REMARK 924 INTRA-LIGAND FREE ENERGY PREDICTED BY IDOCK:   -1.02 KCAL/MOL
REMARK 927      BINDING AFFINITY PREDICTED BY RF-SCORE:    0.00 PKD
ROOT
HETATM    1  C   UNL     1      -6.055  13.581  67.640  1.00  0.00    -0.120 C  
HETATM    2  C   UNL     1      -7.129  14.643  67.832  1.00  0.00    -0.170 C  
ENDROOT
BRANCH   2   3
HETATM    3  C   UNL     1      -8.484  13.992  68.084  1.00  0.00    -0.172 C  
BRANCH   3   4
HETATM    4  C   UNL     1      -8.589  12.611  67.433  1.00  0.00    -0.189 C  
HETATM    5  C   UNL     1      -9.609  11.702  68.145  1.00  0.00    -0.190 C  
HETATM    6  C   UNL     1     -11.047  12.273  68.206  1.00  0.00    -0.282 C  
HETATM    7  C   UNL     1      -9.637  10.284  67.527  1.00  0.00    -0.156 C  
HETATM    8  C   UNL     1     -11.751  12.414  66.864  1.00  0.00    -0.432 C  
BRANCH   7   9
HETATM    9  N   UNL     1      -8.390   9.513  67.612  1.00  0.00    -0.124 NA 
HETATM   10  C   UNL     1      -8.038   9.114  68.974  1.00  0.00    -0.102 C  
HETATM   11  N   UNL     1      -9.034   8.193  69.527  1.00  0.00    -0.150 NA 
HETATM   12  C   UNL     1      -9.023   6.936  68.740  1.00  0.00    -0.130 C  
HETATM   13  H1  UNL     1      -8.959   6.025  65.481  1.00  0.00     0.000 HD 
HETATM   14  C   UNL     1      -9.245   7.122  67.212  1.00  0.00    -0.130 C  
HETATM   15  H2  UNL     1      -9.271   5.063  66.837  1.00  0.00     0.000 HD 
HETATM   16  C   UNL     1     -10.739   7.280  66.884  1.00  0.00    -0.346 C  
HETATM   17  N   UNL     1      -8.813   5.903  66.483  1.00  0.00    -0.124 NA 
HETATM   18  C   UNL     1      -8.388   8.330  66.735  1.00  0.00    -0.107 C  
BRANCH  11  19
HETATM   19  C   UNL     1      -8.730   7.851  70.934  1.00  0.00    -0.137 C  
HETATM   20  C   UNL     1     -10.918   8.804  71.949  1.00  0.00    -0.435 C  
HETATM   21  C   UNL     1      -9.382   8.703  72.055  1.00  0.00    -0.362 C  
HETATM   22  C   UNL     1      -8.938   8.179  73.446  1.00  0.00    -0.313 C  
HETATM   23  C   UNL     1     -11.701   7.528  72.227  1.00  0.00    -0.348 C  
BRANCH  22  24
HETATM   24  C   UNL     1      -7.420   8.185  73.701  1.00  0.00    -0.202 C  
BRANCH  24  25
HETATM   25  C   UNL     1      -6.835   6.800  73.981  1.00  0.00    -0.071 C  
HETATM   26  C   UNL     1      -7.913   5.726  73.978  1.00  0.00    -0.105 C  
ENDBRANCH  24  25
ENDBRANCH  22  24
ENDBRANCH  11  19
ENDBRANCH   7   9
ENDBRANCH   3   4
ENDBRANCH   2   3
TORSDOF 6
ENDMDL
MODEL       99
REMARK 921   NORMALIZED FREE ENERGY PREDICTED BY IDOCK:   -3.80 KCAL/MOL
REMARK 922        TOTAL FREE ENERGY PREDICTED BY IDOCK:   -5.92 KCAL/MOL
REMARK 923 INTER-LIGAND FREE ENERGY PREDICTED BY IDOCK:   -5.00 KCAL/MOL
REMARK 924 INTRA-LIGAND FREE ENERGY PREDICTED BY IDOCK:   -0.92 KCAL/MOL
REMARK 927      BINDING AFFINITY PREDICTED BY RF-SCORE:    0.00 PKD
ROOT
HETATM    1  C   UNL     1     -12.126   5.754  72.417  1.00  0.00    -0.088 C  
HETATM    2  C   UNL     1     -12.307   7.168  71.882  1.00  0.00    -0.352 C  
ENDROOT
BRANCH   2   3
HETATM    3  C   UNL     1     -11.346   7.429  70.727  1.00  0.00    -0.303 C  
BRANCH   3   4
HETATM    4  C   UNL     1     -11.326   6.273  69.724  1.00  0.00    -0.506 C  
HETATM    5  C   UNL     1      -9.898   5.920  69.264  1.00  0.00    -0.205 C  
HETATM    6  C   UNL     1      -8.933   5.529  70.410  1.00  0.00    -0.156 C  
HETATM    7  C   UNL     1      -9.906   4.810  68.187  1.00  0.00    -0.120 C  
HETATM    8  C   UNL     1      -9.274   4.237  71.139  1.00  0.00    -0.203 C  
BRANCH   7   9
HETATM    9  N   UNL     1     -10.589   5.131  66.927  1.00  0.00    -0.224 NA 
HETATM   10  C   UNL     1     -10.668   6.564  66.651  1.00  0.00    -0.173 C  
HETATM   11  N   UNL     1      -9.333   7.138  66.459  1.00  0.00    -0.169 NA 
HETATM   12  C   UNL     1      -8.719   6.544  65.247  1.00  0.00     0.044 C  
HETATM   13  H1  UNL     1      -8.365   3.472  63.872  1.00  0.00     0.000 HD 
HETATM   14  C   UNL     1      -8.646   4.991  65.249  1.00  0.00    -0.145 C  
HETATM   15  H2  UNL     1      -7.587   4.912  63.446  1.00  0.00     0.000 HD 
HETATM   16  C   UNL     1      -7.444   4.492  66.068  1.00  0.00    -0.085 C  
HETATM   17  N   UNL     1      -8.413   4.491  63.870  1.00  0.00    -0.116 NA 
HETATM   18  C   UNL     1     -10.005   4.436  65.767  1.00  0.00    -0.239 C  
BRANCH  11  19
HETATM   19  C   UNL     1      -9.400   8.603  66.263  1.00  0.00    -0.220 C  
HETATM   20  C   UNL     1      -8.456   9.256  68.589  1.00  0.00    -0.123 C  
HETATM   21  C   UNL     1      -9.537   9.508  67.517  1.00  0.00    -0.176 C  
HETATM   22  C   UNL     1      -9.584  10.999  67.093  1.00  0.00    -0.189 C  
HETATM   23  C   UNL     1      -7.036   9.674  68.230  1.00  0.00    -0.078 C  
BRANCH  22  24
HETATM   24  C   UNL     1     -10.730  11.378  66.137  1.00  0.00    -0.320 C  
BRANCH  24  25
HETATM   25  C   UNL     1     -11.630  12.496  66.666  1.00  0.00    -0.442 C  
HETATM   26  C   UNL     1     -11.761  12.442  68.181  1.00  0.00    -0.408 C  
ENDBRANCH  24  25
ENDBRANCH  22  24
ENDBRANCH  11  19
ENDBRANCH   7   9
ENDBRANCH   3   4
ENDBRANCH   2   3
TORSDOF 6
ENDMDL
MODEL      100
REMARK 921   NORMALIZED FREE ENERGY PREDICTED BY IDOCK:   -3.79 KCAL/MOL
REMARK 922        TOTAL FREE ENERGY PREDICTED BY IDOCK:   -5.91 KCAL/MOL
REMARK 923 INTER-LIGAND FREE ENERGY PREDICTED BY IDOCK:   -4.78 KCAL/MOL
REMARK 924 INTRA-LIGAND FREE ENERGY PREDICTED BY IDOCK:   -1.13 KCAL/MOL
REMARK 927      BINDING AFFINITY PREDICTED BY RF-SCORE:    0.00 PKD
ROOT
HETATM    1  C   UNL     1     -11.835  13.074  66.642  1.00  0.00    -0.455 C  
HETATM    2  C   UNL     1     -11.281  12.345  65.426  1.00  0.00    -0.358 C  
ENDROOT
BRANCH   2   3
HETATM    3  C   UNL     1     -10.621  11.036  65.844  1.00  0.00    -0.270 C  
BRANCH   3   4
HETATM    4  C   UNL     1     -10.745  10.784  67.348  1.00  0.00    -0.317 C  
HETATM    5  C   UNL     1      -9.502  10.084  67.931  1.00  0.00    -0.159 C  
HETATM    6  C   UNL     1      -8.174  10.851  67.719  1.00  0.00    -0.116 C  
HETATM    7  C   UNL     1      -9.683   9.760  69.433  1.00  0.00    -0.202 C  
HETATM    8  C   UNL     1      -8.064  12.180  68.452  1.00  0.00    -0.149 C  
BRANCH   7   9
HETATM    9  N   UNL     1     -10.772   8.835  69.771  1.00  0.00    -0.228 NA 
HETATM   10  C   UNL     1     -10.636   7.516  69.156  1.00  0.00    -0.197 C  
HETATM   11  N   UNL     1      -9.447   6.822  69.656  1.00  0.00    -0.147 NA 
HETATM   12  C   UNL     1      -9.612   6.558  71.106  1.00  0.00    -0.171 C  
HETATM   13  H1  UNL     1     -10.649   8.241  73.853  1.00  0.00     0.000 HD 
HETATM   14  C   UNL     1      -9.908   7.818  71.968  1.00  0.00    -0.174 C  
HETATM   15  H2  UNL     1      -9.843   6.755  73.771  1.00  0.00     0.000 HD 
HETATM   16  C   UNL     1      -8.616   8.589  72.286  1.00  0.00    -0.235 C  
HETATM   17  N   UNL     1     -10.455   7.414  73.288  1.00  0.00    -0.347 NA 
HETATM   18  C   UNL     1     -10.964   8.685  71.224  1.00  0.00    -0.267 C  
BRANCH  11  19
HETATM   19  C   UNL     1      -9.256   5.522  68.976  1.00  0.00    -0.119 C  
HETATM   20  C   UNL     1      -6.798   5.927  68.251  1.00  0.00    -0.067 C  
HETATM   21  C   UNL     1      -8.201   5.434  67.840  1.00  0.00    -0.099 C  
HETATM   22  C   UNL     1      -8.156   3.993  67.268  1.00  0.00    -0.095 C  
HETATM   23  C   UNL     1      -6.044   5.062  69.252  1.00  0.00    -0.021 C  
BRANCH  22  24
HETATM   24  C   UNL     1      -9.484   3.470  66.691  1.00  0.00    -0.179 C  
BRANCH  24  25
HETATM   25  C   UNL     1     -10.074   4.358  65.595  1.00  0.00    -0.256 C  
HETATM   26  C   UNL     1      -9.178   4.401  64.366  1.00  0.00    -0.149 C  
ENDBRANCH  24  25
ENDBRANCH  22  24
ENDBRANCH  11  19
ENDBRANCH   7   9
ENDBRANCH   3   4
ENDBRANCH   2   3
TORSDOF 6
ENDMDL
MODEL      101
REMARK 921   NORMALIZED FREE ENERGY PREDICTED BY IDOCK:   -3.76 KCAL/MOL
REMARK 922        TOTAL FREE ENERGY PREDICTED BY IDOCK:   -5.87 KCAL/MOL
REMARK 923 INTER-LIGAND FREE ENERGY PREDICTED BY IDOCK:   -5.07 KCAL/MOL
REMARK 924 INTRA-LIGAND FREE ENERGY PREDICTED BY IDOCK:   -0.80 KCAL/MOL
REMARK 927      BINDING AFFINITY PREDICTED BY RF-SCORE:    0.00 PKD
ROOT
HETATM    1  C   UNL     1     -14.410   7.986  71.464  1.00  0.00    -0.546 C  
HETATM    2  C   UNL     1     -13.515   8.968  72.206  1.00  0.00    -0.529 C  
ENDROOT
BRANCH   2   3
HETATM    3  C   UNL     1     -13.086  10.103  71.282  1.00  0.00    -0.490 C  
BRANCH   3   4
HETATM    4  C   UNL     1     -11.565  10.170  71.124  1.00  0.00    -0.430 C  
HETATM    5  C   UNL     1     -11.131  10.246  69.647  1.00  0.00    -0.323 C  
HETATM    6  C   UNL     1     -11.711  11.452  68.868  1.00  0.00    -0.409 C  
HETATM    7  C   UNL     1      -9.590  10.225  69.505  1.00  0.00    -0.202 C  
HETATM    8  C   UNL     1     -11.228  12.819  69.328  1.00  0.00    -0.252 C  
BRANCH   7   9
HETATM    9  N   UNL     1      -8.909   9.018  69.988  1.00  0.00    -0.159 NA 
HETATM   10  C   UNL     1      -8.629   8.041  68.937  1.00  0.00    -0.131 C  
HETATM   11  N   UNL     1      -7.686   8.581  67.955  1.00  0.00    -0.102 NA 
HETATM   12  C   UNL     1      -6.380   8.823  68.616  1.00  0.00    -0.053 C  
HETATM   13  H1  UNL     1      -5.253  10.195  71.497  1.00  0.00     0.000 HD 
HETATM   14  C   UNL     1      -6.446   9.744  69.868  1.00  0.00    -0.062 C  
HETATM   15  H2  UNL     1      -4.368   9.757  70.124  1.00  0.00     0.000 HD 
HETATM   16  C   UNL     1      -6.484  11.227  69.465  1.00  0.00    -0.119 C  
HETATM   17  N   UNL     1      -5.210   9.591  70.676  1.00  0.00    -0.031 NA 
HETATM   18  C   UNL     1      -7.671   9.317  70.728  1.00  0.00    -0.139 C  
BRANCH  11  19
HETATM   19  C   UNL     1      -7.462   7.630  66.843  1.00  0.00    -0.094 C  
HETATM   20  C   UNL     1      -8.715   8.996  65.029  1.00  0.00    -0.217 C  
HETATM   21  C   UNL     1      -8.482   7.614  65.673  1.00  0.00    -0.152 C  
HETATM   22  C   UNL     1      -8.062   6.556  64.619  1.00  0.00    -0.092 C  
HETATM   23  C   UNL     1      -7.553   9.578  64.235  1.00  0.00    -0.122 C  
BRANCH  22  24
HETATM   24  C   UNL     1      -7.952   5.112  65.140  1.00  0.00    -0.106 C  
BRANCH  24  25
HETATM   25  C   UNL     1      -9.303   4.449  65.413  1.00  0.00    -0.164 C  
HETATM   26  C   UNL     1      -9.528   3.244  64.511  1.00  0.00    -0.148 C  
ENDBRANCH  24  25
ENDBRANCH  22  24
ENDBRANCH  11  19
ENDBRANCH   7   9
ENDBRANCH   3   4
ENDBRANCH   2   3
TORSDOF 6
ENDMDL
MODEL      102
REMARK 921   NORMALIZED FREE ENERGY PREDICTED BY IDOCK:   -3.73 KCAL/MOL
REMARK 922        TOTAL FREE ENERGY PREDICTED BY IDOCK:   -5.83 KCAL/MOL
REMARK 923 INTER-LIGAND FREE ENERGY PREDICTED BY IDOCK:   -4.52 KCAL/MOL
REMARK 924 INTRA-LIGAND FREE ENERGY PREDICTED BY IDOCK:   -1.30 KCAL/MOL
REMARK 927      BINDING AFFINITY PREDICTED BY RF-SCORE:    0.00 PKD
ROOT
HETATM    1  C   UNL     1     -11.407   6.246  69.744  1.00  0.00    -0.506 C  
HETATM    2  C   UNL     1     -10.218   6.739  70.557  1.00  0.00    -0.212 C  
ENDROOT
BRANCH   2   3
HETATM    3  C   UNL     1     -10.608   7.956  71.389  1.00  0.00    -0.246 C  
BRANCH   3   4
HETATM    4  C   UNL     1      -9.746   9.177  71.058  1.00  0.00    -0.359 C  
HETATM    5  C   UNL     1     -10.023   9.725  69.644  1.00  0.00    -0.244 C  
HETATM    6  C   UNL     1     -11.493  10.140  69.393  1.00  0.00    -0.202 C  
HETATM    7  C   UNL     1      -9.082  10.903  69.296  1.00  0.00     0.023 C  
HETATM    8  C   UNL     1     -11.986  11.326  70.208  1.00  0.00    -0.466 C  
BRANCH   7   9
HETATM    9  N   UNL     1      -7.646  10.598  69.257  1.00  0.00    -0.130 NA 
HETATM   10  C   UNL     1      -7.292   9.560  68.291  1.00  0.00    -0.077 C  
HETATM   11  N   UNL     1      -7.574   9.997  66.922  1.00  0.00    -0.095 NA 
HETATM   12  C   UNL     1      -6.701  11.149  66.589  1.00  0.00    -0.137 C  
HETATM   13  H1  UNL     1      -5.699  14.031  68.051  1.00  0.00     0.000 HD 
HETATM   14  C   UNL     1      -6.803  12.348  67.573  1.00  0.00    -0.143 C  
HETATM   15  H2  UNL     1      -5.518  13.551  66.440  1.00  0.00     0.000 HD 
HETATM   16  C   UNL     1      -8.028  13.223  67.257  1.00  0.00    -0.134 C  
HETATM   17  N   UNL     1      -5.631  13.244  67.406  1.00  0.00    -0.353 NA 
HETATM   18  C   UNL     1      -6.814  11.792  69.026  1.00  0.00    -0.106 C  
BRANCH  11  19
HETATM   19  C   UNL     1      -7.297   8.920  65.945  1.00  0.00    -0.093 C  
HETATM   20  C   UNL     1      -9.013   9.693  64.160  1.00  0.00    -0.269 C  
HETATM   21  C   UNL     1      -8.427   8.512  64.960  1.00  0.00    -0.183 C  
HETATM   22  C   UNL     1      -7.931   7.378  64.025  1.00  0.00    -0.091 C  
HETATM   23  C   UNL     1      -8.100  10.326  63.119  1.00  0.00    -0.158 C  
BRANCH  22  24
HETATM   24  C   UNL     1      -7.466   6.093  64.735  1.00  0.00    -0.084 C  
BRANCH  24  25
HETATM   25  C   UNL     1      -8.595   5.326  65.425  1.00  0.00    -0.149 C  
HETATM   26  C   UNL     1      -8.436   5.335  66.938  1.00  0.00    -0.106 C  
ENDBRANCH  24  25
ENDBRANCH  22  24
ENDBRANCH  11  19
ENDBRANCH   7   9
ENDBRANCH   3   4
ENDBRANCH   2   3
TORSDOF 6
ENDMDL
MODEL      103
REMARK 921   NORMALIZED FREE ENERGY PREDICTED BY IDOCK:   -3.72 KCAL/MOL
REMARK 922        TOTAL FREE ENERGY PREDICTED BY IDOCK:   -5.81 KCAL/MOL
REMARK 923 INTER-LIGAND FREE ENERGY PREDICTED BY IDOCK:   -4.73 KCAL/MOL
REMARK 924 INTRA-LIGAND FREE ENERGY PREDICTED BY IDOCK:   -1.08 KCAL/MOL
REMARK 927      BINDING AFFINITY PREDICTED BY RF-SCORE:    0.00 PKD
ROOT
HETATM    1  C   UNL     1      -8.015   7.933  64.977  1.00  0.00    -0.137 C  
HETATM    2  C   UNL     1      -6.759   7.410  65.660  1.00  0.00    -0.048 C  
ENDROOT
BRANCH   2   3
HETATM    3  C   UNL     1      -6.973   5.982  66.148  1.00  0.00    -0.062 C  
BRANCH   3   4
HETATM    4  C   UNL     1      -7.074   5.906  67.674  1.00  0.00    -0.074 C  
HETATM    5  C   UNL     1      -8.510   6.150  68.179  1.00  0.00    -0.116 C  
HETATM    6  C   UNL     1      -9.565   5.167  67.615  1.00  0.00    -0.164 C  
HETATM    7  C   UNL     1      -8.576   6.156  69.725  1.00  0.00    -0.132 C  
HETATM    8  C   UNL     1      -9.404   3.717  68.048  1.00  0.00    -0.232 C  
BRANCH   7   9
HETATM    9  N   UNL     1      -7.804   7.203  70.404  1.00  0.00    -0.099 NA 
HETATM   10  C   UNL     1      -8.306   8.554  70.161  1.00  0.00    -0.123 C  
HETATM   11  N   UNL     1      -9.651   8.723  70.716  1.00  0.00    -0.191 NA 
HETATM   12  C   UNL     1      -9.588   8.594  72.193  1.00  0.00    -0.307 C  
HETATM   13  H1  UNL     1      -8.146   6.539  74.463  1.00  0.00     0.000 HD 
HETATM   14  C   UNL     1      -8.953   7.269  72.702  1.00  0.00    -0.131 C  
HETATM   15  H2  UNL     1      -9.344   7.707  74.712  1.00  0.00     0.000 HD 
HETATM   16  C   UNL     1      -9.972   6.117  72.674  1.00  0.00    -0.189 C  
HETATM   17  N   UNL     1      -8.562   7.408  74.129  1.00  0.00    -0.198 NA 
HETATM   18  C   UNL     1      -7.682   6.975  71.854  1.00  0.00    -0.093 C  
BRANCH  11  19
HETATM   19  C   UNL     1     -10.200  10.061  70.401  1.00  0.00    -0.155 C  
HETATM   20  C   UNL     1     -12.697   9.439  70.727  1.00  0.00    -0.070 C  
HETATM   21  C   UNL     1     -11.648  10.150  69.848  1.00  0.00    -0.290 C  
HETATM   22  C   UNL     1     -12.027  11.632  69.590  1.00  0.00    -0.390 C  
HETATM   23  C   UNL     1     -12.992  10.077  72.079  1.00  0.00    -0.514 C  
BRANCH  22  24
HETATM   24  C   UNL     1     -11.119  12.383  68.600  1.00  0.00    -0.297 C  
BRANCH  24  25
HETATM   25  C   UNL     1     -11.455  12.118  67.131  1.00  0.00    -0.413 C  
HETATM   26  C   UNL     1     -10.608  10.991  66.558  1.00  0.00    -0.310 C  
ENDBRANCH  24  25
ENDBRANCH  22  24
ENDBRANCH  11  19
ENDBRANCH   7   9
ENDBRANCH   3   4
ENDBRANCH   2   3
TORSDOF 6
ENDMDL
MODEL      104
REMARK 921   NORMALIZED FREE ENERGY PREDICTED BY IDOCK:   -3.68 KCAL/MOL
REMARK 922        TOTAL FREE ENERGY PREDICTED BY IDOCK:   -5.77 KCAL/MOL
REMARK 923 INTER-LIGAND FREE ENERGY PREDICTED BY IDOCK:   -5.34 KCAL/MOL
REMARK 924 INTRA-LIGAND FREE ENERGY PREDICTED BY IDOCK:   -0.43 KCAL/MOL
REMARK 927      BINDING AFFINITY PREDICTED BY RF-SCORE:    0.00 PKD
ROOT
HETATM    1  C   UNL     1      -9.131   9.782  62.353  1.00  0.00    -0.300 C  
HETATM    2  C   UNL     1      -9.506  10.961  63.241  1.00  0.00    -0.347 C  
ENDROOT
BRANCH   2   3
HETATM    3  C   UNL     1     -10.081  10.470  64.565  1.00  0.00    -0.402 C  
BRANCH   3   4
HETATM    4  C   UNL     1      -9.042  10.503  65.689  1.00  0.00    -0.209 C  
HETATM    5  C   UNL     1      -8.976   9.174  66.467  1.00  0.00    -0.178 C  
HETATM    6  C   UNL     1      -8.648   7.936  65.596  1.00  0.00    -0.159 C  
HETATM    7  C   UNL     1      -7.984   9.257  67.651  1.00  0.00    -0.103 C  
HETATM    8  C   UNL     1      -7.256   7.921  64.981  1.00  0.00    -0.062 C  
BRANCH   7   9
HETATM    9  N   UNL     1      -8.302  10.236  68.697  1.00  0.00    -0.115 NA 
HETATM   10  C   UNL     1      -9.553   9.960  69.400  1.00  0.00    -0.215 C  
HETATM   11  N   UNL     1      -9.474   8.699  70.142  1.00  0.00    -0.161 NA 
HETATM   12  C   UNL     1      -8.451   8.827  71.209  1.00  0.00    -0.186 C  
HETATM   13  H1  UNL     1      -5.302  10.024  71.524  1.00  0.00     0.000 HD 
HETATM   14  C   UNL     1      -7.041   9.253  70.710  1.00  0.00    -0.117 C  
HETATM   15  H2  UNL     1      -6.175   9.062  72.607  1.00  0.00     0.000 HD 
HETATM   16  C   UNL     1      -6.264   8.051  70.149  1.00  0.00    -0.032 C  
HETATM   17  N   UNL     1      -6.227   9.745  71.851  1.00  0.00    -0.290 NA 
HETATM   18  C   UNL     1      -7.212  10.402  69.675  1.00  0.00    -0.148 C  
BRANCH  11  19
HETATM   19  C   UNL     1     -10.765   8.371  70.787  1.00  0.00    -0.212 C  
HETATM   20  C   UNL     1      -9.958   6.214  71.980  1.00  0.00    -0.194 C  
HETATM   21  C   UNL     1     -11.058   6.886  71.132  1.00  0.00    -0.297 C  
HETATM   22  C   UNL     1     -12.451   6.762  71.802  1.00  0.00    -0.394 C  
HETATM   23  C   UNL     1      -9.819   6.700  73.417  1.00  0.00    -0.215 C  
BRANCH  22  24
HETATM   24  C   UNL     1     -13.636   7.271  70.960  1.00  0.00    -0.107 C  
BRANCH  24  25
HETATM   25  C   UNL     1     -14.364   8.466  71.577  1.00  0.00    -0.499 C  
HETATM   26  C   UNL     1     -13.488   9.196  72.585  1.00  0.00    -0.395 C  
ENDBRANCH  24  25
ENDBRANCH  22  24
ENDBRANCH  11  19
ENDBRANCH   7   9
ENDBRANCH   3   4
ENDBRANCH   2   3
TORSDOF 6
ENDMDL
MODEL      105
REMARK 921   NORMALIZED FREE ENERGY PREDICTED BY IDOCK:   -3.68 KCAL/MOL
REMARK 922        TOTAL FREE ENERGY PREDICTED BY IDOCK:   -5.76 KCAL/MOL
REMARK 923 INTER-LIGAND FREE ENERGY PREDICTED BY IDOCK:   -4.66 KCAL/MOL
REMARK 924 INTRA-LIGAND FREE ENERGY PREDICTED BY IDOCK:   -1.10 KCAL/MOL
REMARK 927      BINDING AFFINITY PREDICTED BY RF-SCORE:    0.00 PKD
ROOT
HETATM    1  C   UNL     1     -10.878  16.558  68.214  1.00  0.00    -0.352 C  
HETATM    2  C   UNL     1     -11.898  15.831  69.078  1.00  0.00    -0.367 C  
ENDROOT
BRANCH   2   3
HETATM    3  C   UNL     1     -11.396  14.437  69.439  1.00  0.00    -0.319 C  
BRANCH   3   4
HETATM    4  C   UNL     1     -10.296  13.959  68.488  1.00  0.00    -0.244 C  
HETATM    5  C   UNL     1     -10.496  12.496  68.047  1.00  0.00    -0.227 C  
HETATM    6  C   UNL     1     -11.846  12.217  67.340  1.00  0.00    -0.327 C  
HETATM    7  C   UNL     1      -9.330  12.005  67.157  1.00  0.00    -0.187 C  
HETATM    8  C   UNL     1     -12.029  12.899  65.992  1.00  0.00    -0.505 C  
BRANCH   7   9
HETATM    9  N   UNL     1      -8.001  11.983  67.782  1.00  0.00    -0.137 NA 
HETATM   10  C   UNL     1      -7.909  11.090  68.935  1.00  0.00    -0.138 C  
HETATM   11  N   UNL     1      -8.110   9.694  68.538  1.00  0.00    -0.103 NA 
HETATM   12  C   UNL     1      -7.004   9.281  67.639  1.00  0.00    -0.078 C  
HETATM   13  H1  UNL     1      -5.350  10.539  64.968  1.00  0.00     0.000 HD 
HETATM   14  C   UNL     1      -6.815  10.181  66.384  1.00  0.00    -0.100 C  
HETATM   15  H2  UNL     1      -5.313   8.964  65.582  1.00  0.00     0.000 HD 
HETATM   16  C   UNL     1      -7.816   9.808  65.278  1.00  0.00    -0.120 C  
HETATM   17  N   UNL     1      -5.474   9.949  65.791  1.00  0.00    -0.045 NA 
HETATM   18  C   UNL     1      -6.925  11.669  66.826  1.00  0.00    -0.080 C  
BRANCH  11  19
HETATM   19  C   UNL     1      -8.101   8.793  69.711  1.00  0.00    -0.111 C  
HETATM   20  C   UNL     1     -10.467   9.412  70.575  1.00  0.00    -0.335 C  
HETATM   21  C   UNL     1      -8.986   9.166  70.931  1.00  0.00    -0.298 C  
HETATM   22  C   UNL     1      -8.836   8.095  72.043  1.00  0.00    -0.233 C  
HETATM   23  C   UNL     1     -11.272   8.192  70.146  1.00  0.00    -0.134 C  
BRANCH  22  24
HETATM   24  C   UNL     1      -7.405   7.888  72.571  1.00  0.00    -0.108 C  
BRANCH  24  25
HETATM   25  C   UNL     1      -6.971   6.422  72.621  1.00  0.00    -0.074 C  
HETATM   26  C   UNL     1      -5.960   6.100  71.531  1.00  0.00    -0.035 C  
ENDBRANCH  24  25
ENDBRANCH  22  24
ENDBRANCH  11  19
ENDBRANCH   7   9
ENDBRANCH   3   4
ENDBRANCH   2   3
TORSDOF 6
ENDMDL
MODEL      106
REMARK 921   NORMALIZED FREE ENERGY PREDICTED BY IDOCK:   -3.66 KCAL/MOL
REMARK 922        TOTAL FREE ENERGY PREDICTED BY IDOCK:   -5.73 KCAL/MOL
REMARK 923 INTER-LIGAND FREE ENERGY PREDICTED BY IDOCK:   -4.83 KCAL/MOL
REMARK 924 INTRA-LIGAND FREE ENERGY PREDICTED BY IDOCK:   -0.90 KCAL/MOL
REMARK 927      BINDING AFFINITY PREDICTED BY RF-SCORE:    0.00 PKD
ROOT
HETATM    1  C   UNL     1     -11.598   6.446  70.905  1.00  0.00    -0.393 C  
HETATM    2  C   UNL     1     -10.414   6.566  71.854  1.00  0.00    -0.233 C  
ENDROOT
BRANCH   2   3
HETATM    3  C   UNL     1      -9.528   7.741  71.456  1.00  0.00    -0.174 C  
BRANCH   3   4
HETATM    4  C   UNL     1      -9.201   7.734  69.961  1.00  0.00    -0.153 C  
HETATM    5  C   UNL     1      -8.489   9.024  69.509  1.00  0.00    -0.125 C  
HETATM    6  C   UNL     1      -7.162   9.318  70.251  1.00  0.00    -0.087 C  
HETATM    7  C   UNL     1      -8.246   9.035  67.981  1.00  0.00    -0.110 C  
HETATM    8  C   UNL     1      -6.038   8.324  69.996  1.00  0.00    -0.028 C  
BRANCH   7   9
HETATM    9  N   UNL     1      -9.444   9.005  67.133  1.00  0.00    -0.146 NA 
HETATM   10  C   UNL     1     -10.367  10.111  67.379  1.00  0.00    -0.238 C  
HETATM   11  N   UNL     1      -9.752  11.396  67.037  1.00  0.00    -0.189 NA 
HETATM   12  C   UNL     1      -9.484  11.433  65.578  1.00  0.00    -0.227 C  
HETATM   13  H1  UNL     1      -8.182   9.383  63.221  1.00  0.00     0.000 HD 
HETATM   14  C   UNL     1      -8.617  10.258  65.046  1.00  0.00    -0.180 C  
HETATM   15  H2  UNL     1      -8.532  11.034  63.103  1.00  0.00     0.000 HD 
HETATM   16  C   UNL     1      -7.121  10.512  65.297  1.00  0.00    -0.047 C  
HETATM   17  N   UNL     1      -8.752  10.154  63.570  1.00  0.00    -0.196 NA 
HETATM   18  C   UNL     1      -9.125   8.938  65.696  1.00  0.00    -0.212 C  
BRANCH  11  19
HETATM   19  C   UNL     1     -10.649  12.527  67.363  1.00  0.00    -0.223 C  
HETATM   20  C   UNL     1      -8.785  14.305  67.663  1.00  0.00    -0.192 C  
HETATM   21  C   UNL     1     -10.084  13.689  68.223  1.00  0.00    -0.240 C  
HETATM   22  C   UNL     1     -11.179  14.766  68.443  1.00  0.00    -0.298 C  
HETATM   23  C   UNL     1      -8.914  15.097  66.369  1.00  0.00    -0.314 C  
BRANCH  22  24
HETATM   24  C   UNL     1     -12.460  14.273  69.139  1.00  0.00    -0.011 C  
BRANCH  24  25
HETATM   25  C   UNL     1     -12.636  14.808  70.561  1.00  0.00    -0.416 C  
HETATM   26  C   UNL     1     -12.667  13.682  71.583  1.00  0.00    -0.396 C  
ENDBRANCH  24  25
ENDBRANCH  22  24
ENDBRANCH  11  19
ENDBRANCH   7   9
ENDBRANCH   3   4
ENDBRANCH   2   3
TORSDOF 6
ENDMDL
MODEL      107
REMARK 921   NORMALIZED FREE ENERGY PREDICTED BY IDOCK:   -3.63 KCAL/MOL
REMARK 922        TOTAL FREE ENERGY PREDICTED BY IDOCK:   -5.69 KCAL/MOL
REMARK 923 INTER-LIGAND FREE ENERGY PREDICTED BY IDOCK:   -5.60 KCAL/MOL
REMARK 924 INTRA-LIGAND FREE ENERGY PREDICTED BY IDOCK:   -0.09 KCAL/MOL
REMARK 927      BINDING AFFINITY PREDICTED BY RF-SCORE:    0.00 PKD
ROOT
HETATM    1  C   UNL     1     -10.330  15.192  67.608  1.00  0.00    -0.248 C  
HETATM    2  C   UNL     1     -11.736  14.666  67.862  1.00  0.00    -0.379 C  
ENDROOT
BRANCH   2   3
HETATM    3  C   UNL     1     -11.713  13.154  68.062  1.00  0.00    -0.394 C  
BRANCH   3   4
HETATM    4  C   UNL     1     -10.342  12.554  67.743  1.00  0.00    -0.224 C  
HETATM    5  C   UNL     1     -10.449  11.208  66.999  1.00  0.00    -0.277 C  
HETATM    6  C   UNL     1     -11.226  11.275  65.661  1.00  0.00    -0.074 C  
HETATM    7  C   UNL     1      -9.057  10.576  66.762  1.00  0.00    -0.151 C  
HETATM    8  C   UNL     1     -10.570  12.101  64.565  1.00  0.00    -0.350 C  
BRANCH   7   9
HETATM    9  N   UNL     1      -8.289  10.229  67.964  1.00  0.00    -0.113 NA 
HETATM   10  C   UNL     1      -9.113   9.740  69.068  1.00  0.00    -0.157 C  
HETATM   11  N   UNL     1      -9.767   8.477  68.717  1.00  0.00    -0.161 NA 
HETATM   12  C   UNL     1      -8.732   7.433  68.516  1.00  0.00    -0.127 C  
HETATM   13  H1  UNL     1      -5.750   7.139  66.943  1.00  0.00     0.000 HD 
HETATM   14  C   UNL     1      -7.644   7.791  67.465  1.00  0.00    -0.109 C  
HETATM   15  H2  UNL     1      -6.719   5.918  67.599  1.00  0.00     0.000 HD 
HETATM   16  C   UNL     1      -8.145   7.528  66.035  1.00  0.00    -0.123 C  
HETATM   17  N   UNL     1      -6.464   6.904  67.633  1.00  0.00    -0.048 NA 
HETATM   18  C   UNL     1      -7.206   9.267  67.693  1.00  0.00    -0.083 C  
BRANCH  11  19
HETATM   19  C   UNL     1     -10.669   8.019  69.797  1.00  0.00    -0.231 C  
HETATM   20  C   UNL     1     -11.310  10.378  70.666  1.00  0.00    -0.411 C  
HETATM   21  C   UNL     1     -10.871   8.943  71.028  1.00  0.00    -0.326 C  
HETATM   22  C   UNL     1     -11.851   8.283  72.033  1.00  0.00    -0.408 C  
HETATM   23  C   UNL     1     -12.716  10.533  70.102  1.00  0.00    -0.191 C  
BRANCH  22  24
HETATM   24  C   UNL     1     -11.418   6.907  72.569  1.00  0.00    -0.268 C  
BRANCH  24  25
HETATM   25  C   UNL     1     -10.495   6.982  73.787  1.00  0.00    -0.392 C  
HETATM   26  C   UNL     1      -9.204   7.721  73.467  1.00  0.00    -0.350 C  
ENDBRANCH  24  25
ENDBRANCH  22  24
ENDBRANCH  11  19
ENDBRANCH   7   9
ENDBRANCH   3   4
ENDBRANCH   2   3
TORSDOF 6
ENDMDL
MODEL      108
REMARK 921   NORMALIZED FREE ENERGY PREDICTED BY IDOCK:   -3.61 KCAL/MOL
REMARK 922        TOTAL FREE ENERGY PREDICTED BY IDOCK:   -5.66 KCAL/MOL
REMARK 923 INTER-LIGAND FREE ENERGY PREDICTED BY IDOCK:   -5.22 KCAL/MOL
REMARK 924 INTRA-LIGAND FREE ENERGY PREDICTED BY IDOCK:   -0.44 KCAL/MOL
REMARK 927      BINDING AFFINITY PREDICTED BY RF-SCORE:    0.00 PKD
ROOT
HETATM    1  C   UNL     1     -13.868  13.964  72.031  1.00  0.00    -0.588 C  
HETATM    2  C   UNL     1     -12.638  13.366  71.363  1.00  0.00    -0.374 C  
ENDROOT
BRANCH   2   3
HETATM    3  C   UNL     1     -12.437  13.968  69.977  1.00  0.00    -0.339 C  
BRANCH   3   4
HETATM    4  C   UNL     1     -11.211  13.385  69.270  1.00  0.00    -0.275 C  
HETATM    5  C   UNL     1     -11.529  12.914  67.837  1.00  0.00    -0.362 C  
HETATM    6  C   UNL     1     -12.093  14.017  66.909  1.00  0.00    -0.465 C  
HETATM    7  C   UNL     1     -10.301  12.249  67.171  1.00  0.00    -0.218 C  
HETATM    8  C   UNL     1     -11.130  15.148  66.578  1.00  0.00    -0.305 C  
BRANCH   7   9
HETATM    9  N   UNL     1      -9.793  11.031  67.814  1.00  0.00    -0.171 NA 
HETATM   10  C   UNL     1      -9.228  10.063  66.876  1.00  0.00    -0.147 C  
HETATM   11  N   UNL     1      -8.040  10.605  66.211  1.00  0.00    -0.146 NA 
HETATM   12  C   UNL     1      -6.978  10.830  67.222  1.00  0.00    -0.086 C  
HETATM   13  H1  UNL     1      -6.716  12.164  70.321  1.00  0.00     0.000 HD 
HETATM   14  C   UNL     1      -7.394  11.738  68.413  1.00  0.00    -0.094 C  
HETATM   15  H2  UNL     1      -5.477  11.731  69.253  1.00  0.00     0.000 HD 
HETATM   16  C   UNL     1      -7.308  13.226  68.033  1.00  0.00    -0.127 C  
HETATM   17  N   UNL     1      -6.442  11.567  69.540  1.00  0.00    -0.112 NA 
HETATM   18  C   UNL     1      -8.816  11.313  68.881  1.00  0.00    -0.047 C  
BRANCH  11  19
HETATM   19  C   UNL     1      -7.512   9.663  65.199  1.00  0.00    -0.115 C  
HETATM   20  C   UNL     1      -9.385  10.038  63.443  1.00  0.00    -0.300 C  
HETATM   21  C   UNL     1      -8.513   9.017  64.204  1.00  0.00    -0.183 C  
HETATM   22  C   UNL     1      -7.759   8.073  63.231  1.00  0.00    -0.143 C  
HETATM   23  C   UNL     1      -8.669  10.911  62.422  1.00  0.00    -0.355 C  
BRANCH  22  24
HETATM   24  C   UNL     1      -6.980   6.924  63.897  1.00  0.00    -0.056 C  
BRANCH  24  25
HETATM   25  C   UNL     1      -7.569   5.539  63.623  1.00  0.00    -0.072 C  
HETATM   26  C   UNL     1      -8.630   5.169  64.649  1.00  0.00    -0.142 C  
ENDBRANCH  24  25
ENDBRANCH  22  24
ENDBRANCH  11  19
ENDBRANCH   7   9
ENDBRANCH   3   4
ENDBRANCH   2   3
TORSDOF 6
ENDMDL
MODEL      109
REMARK 921   NORMALIZED FREE ENERGY PREDICTED BY IDOCK:   -3.60 KCAL/MOL
REMARK 922        TOTAL FREE ENERGY PREDICTED BY IDOCK:   -5.65 KCAL/MOL
REMARK 923 INTER-LIGAND FREE ENERGY PREDICTED BY IDOCK:   -4.76 KCAL/MOL
REMARK 924 INTRA-LIGAND FREE ENERGY PREDICTED BY IDOCK:   -0.89 KCAL/MOL
REMARK 927      BINDING AFFINITY PREDICTED BY RF-SCORE:    0.00 PKD
ROOT
HETATM    1  C   UNL     1     -10.130  10.508  64.032  1.00  0.00    -0.321 C  
HETATM    2  C   UNL     1      -9.059  10.184  63.000  1.00  0.00    -0.296 C  
ENDROOT
BRANCH   2   3
HETATM    3  C   UNL     1      -8.466   8.803  63.261  1.00  0.00    -0.123 C  
BRANCH   3   4
HETATM    4  C   UNL     1      -7.422   8.829  64.380  1.00  0.00    -0.107 C  
HETATM    5  C   UNL     1      -8.017   8.446  65.749  1.00  0.00    -0.108 C  
HETATM    6  C   UNL     1      -8.678   7.046  65.791  1.00  0.00    -0.116 C  
HETATM    7  C   UNL     1      -6.968   8.562  66.879  1.00  0.00    -0.074 C  
HETATM    8  C   UNL     1      -7.730   5.870  65.608  1.00  0.00    -0.097 C  
BRANCH   7   9
HETATM    9  N   UNL     1      -6.420   9.903  67.121  1.00  0.00    -0.068 NA 
HETATM   10  C   UNL     1      -7.386  10.979  66.912  1.00  0.00    -0.133 C  
HETATM   11  N   UNL     1      -8.486  10.893  67.876  1.00  0.00    -0.127 NA 
HETATM   12  C   UNL     1      -7.953  11.112  69.243  1.00  0.00     0.025 C  
HETATM   13  H1  UNL     1      -5.318  10.074  71.095  1.00  0.00     0.000 HD 
HETATM   14  C   UNL     1      -6.799  10.154  69.651  1.00  0.00    -0.087 C  
HETATM   15  H2  UNL     1      -6.704  10.898  71.606  1.00  0.00     0.000 HD 
HETATM   16  C   UNL     1      -7.343   8.792  70.113  1.00  0.00    -0.055 C  
HETATM   17  N   UNL     1      -6.075  10.703  70.827  1.00  0.00    -0.303 NA 
HETATM   18  C   UNL     1      -5.810  10.038  68.455  1.00  0.00    -0.041 C  
BRANCH  11  19
HETATM   19  C   UNL     1      -9.511  11.929  67.617  1.00  0.00    -0.182 C  
HETATM   20  C   UNL     1     -11.519  10.606  68.591  1.00  0.00    -0.332 C  
HETATM   21  C   UNL     1     -10.985  11.476  67.434  1.00  0.00    -0.317 C  
HETATM   22  C   UNL     1     -11.891  12.708  67.179  1.00  0.00    -0.399 C  
HETATM   23  C   UNL     1     -11.722  11.308  69.927  1.00  0.00    -0.430 C  
BRANCH  22  24
HETATM   24  C   UNL     1     -11.524  13.555  65.947  1.00  0.00    -0.338 C  
BRANCH  24  25
HETATM   25  C   UNL     1     -11.372  15.047  66.247  1.00  0.00    -0.273 C  
HETATM   26  C   UNL     1     -10.791  15.801  65.059  1.00  0.00    -0.461 C  
ENDBRANCH  24  25
ENDBRANCH  22  24
ENDBRANCH  11  19
ENDBRANCH   7   9
ENDBRANCH   3   4
ENDBRANCH   2   3
TORSDOF 6
ENDMDL
MODEL      110
REMARK 921   NORMALIZED FREE ENERGY PREDICTED BY IDOCK:   -3.59 KCAL/MOL
REMARK 922        TOTAL FREE ENERGY PREDICTED BY IDOCK:   -5.63 KCAL/MOL
REMARK 923 INTER-LIGAND FREE ENERGY PREDICTED BY IDOCK:   -4.39 KCAL/MOL
REMARK 924 INTRA-LIGAND FREE ENERGY PREDICTED BY IDOCK:   -1.24 KCAL/MOL
REMARK 927      BINDING AFFINITY PREDICTED BY RF-SCORE:    0.00 PKD
ROOT
HETATM    1  C   UNL     1     -10.334   4.731  72.046  1.00  0.00    -0.247 C  
HETATM    2  C   UNL     1      -9.705   5.629  73.102  1.00  0.00    -0.164 C  
ENDROOT
BRANCH   2   3
HETATM    3  C   UNL     1     -10.529   6.899  73.283  1.00  0.00    -0.340 C  
BRANCH   3   4
HETATM    4  C   UNL     1      -9.860   8.114  72.637  1.00  0.00    -0.364 C  
HETATM    5  C   UNL     1     -10.363   8.367  71.202  1.00  0.00    -0.264 C  
HETATM    6  C   UNL     1     -11.891   8.589  71.087  1.00  0.00    -0.322 C  
HETATM    7  C   UNL     1      -9.614   9.545  70.536  1.00  0.00    -0.251 C  
HETATM    8  C   UNL     1     -12.420   9.853  71.750  1.00  0.00    -0.487 C  
BRANCH   7   9
HETATM    9  N   UNL     1      -8.167   9.375  70.353  1.00  0.00    -0.175 NA 
HETATM   10  C   UNL     1      -7.810   8.210  69.544  1.00  0.00    -0.104 C  
HETATM   11  N   UNL     1      -8.301   8.352  68.172  1.00  0.00    -0.127 NA 
HETATM   12  C   UNL     1      -7.614   9.498  67.526  1.00  0.00    -0.095 C  
HETATM   13  H1  UNL     1      -6.793  12.686  68.309  1.00  0.00     0.000 HD 
HETATM   14  C   UNL     1      -7.740  10.846  68.289  1.00  0.00    -0.111 C  
HETATM   15  H2  UNL     1      -6.749  11.929  66.796  1.00  0.00     0.000 HD 
HETATM   16  C   UNL     1      -9.088  11.527  67.996  1.00  0.00    -0.174 C  
HETATM   17  N   UNL     1      -6.709  11.801  67.808  1.00  0.00    -0.075 NA 
HETATM   18  C   UNL     1      -7.514  10.576  69.805  1.00  0.00    -0.119 C  
BRANCH  11  19
HETATM   19  C   UNL     1      -8.017   7.141  67.370  1.00  0.00    -0.112 C  
HETATM   20  C   UNL     1     -10.077   5.776  68.157  1.00  0.00    -0.204 C  
HETATM   21  C   UNL     1      -8.560   5.779  67.878  1.00  0.00    -0.101 C  
HETATM   22  C   UNL     1      -8.157   4.648  66.896  1.00  0.00    -0.103 C  
HETATM   23  C   UNL     1     -10.989   5.881  66.942  1.00  0.00    -0.304 C  
BRANCH  22  24
HETATM   24  C   UNL     1      -6.644   4.475  66.672  1.00  0.00    -0.050 C  
BRANCH  24  25
HETATM   25  C   UNL     1      -6.171   4.910  65.284  1.00  0.00    -0.034 C  
HETATM   26  C   UNL     1      -7.289   4.816  64.257  1.00  0.00    -0.062 C  
ENDBRANCH  24  25
ENDBRANCH  22  24
ENDBRANCH  11  19
ENDBRANCH   7   9
ENDBRANCH   3   4
ENDBRANCH   2   3
TORSDOF 6
ENDMDL
MODEL      111
REMARK 921   NORMALIZED FREE ENERGY PREDICTED BY IDOCK:   -3.58 KCAL/MOL
REMARK 922        TOTAL FREE ENERGY PREDICTED BY IDOCK:   -5.63 KCAL/MOL
REMARK 923 INTER-LIGAND FREE ENERGY PREDICTED BY IDOCK:   -5.59 KCAL/MOL
REMARK 924 INTRA-LIGAND FREE ENERGY PREDICTED BY IDOCK:   -0.03 KCAL/MOL
REMARK 927      BINDING AFFINITY PREDICTED BY RF-SCORE:    0.00 PKD
ROOT
HETATM    1  C   UNL     1     -10.887  16.714  67.837  1.00  0.00    -0.321 C  
HETATM    2  C   UNL     1     -11.570  15.446  68.328  1.00  0.00    -0.361 C  
ENDROOT
BRANCH   2   3
HETATM    3  C   UNL     1     -11.931  14.544  67.153  1.00  0.00    -0.373 C  
BRANCH   3   4
HETATM    4  C   UNL     1     -10.968  13.363  67.018  1.00  0.00    -0.298 C  
HETATM    5  C   UNL     1     -11.591  12.182  66.247  1.00  0.00    -0.424 C  
HETATM    6  C   UNL     1     -12.068  12.531  64.816  1.00  0.00    -0.497 C  
HETATM    7  C   UNL     1     -10.634  10.968  66.197  1.00  0.00    -0.228 C  
HETATM    8  C   UNL     1     -10.968  12.902  63.833  1.00  0.00    -0.422 C  
BRANCH   7   9
HETATM    9  N   UNL     1     -10.278  10.368  67.489  1.00  0.00    -0.198 NA 
HETATM   10  C   UNL     1     -10.527   8.929  67.557  1.00  0.00    -0.269 C  
HETATM   11  N   UNL     1      -9.678   8.202  66.611  1.00  0.00    -0.230 NA 
HETATM   12  C   UNL     1      -8.258   8.368  67.005  1.00  0.00    -0.107 C  
HETATM   13  H1  UNL     1      -6.214  10.877  67.996  1.00  0.00     0.000 HD 
HETATM   14  C   UNL     1      -7.787   9.844  67.134  1.00  0.00    -0.099 C  
HETATM   15  H2  UNL     1      -5.799   9.309  67.516  1.00  0.00     0.000 HD 
HETATM   16  C   UNL     1      -7.444  10.439  65.758  1.00  0.00    -0.147 C  
HETATM   17  N   UNL     1      -6.523   9.908  67.912  1.00  0.00    -0.059 NA 
HETATM   18  C   UNL     1      -8.887  10.647  67.885  1.00  0.00    -0.131 C  
BRANCH  11  19
HETATM   19  C   UNL     1      -9.984   6.754  66.614  1.00  0.00    -0.142 C  
HETATM   20  C   UNL     1      -9.755   6.410  69.175  1.00  0.00    -0.148 C  
HETATM   21  C   UNL     1      -9.412   5.884  67.765  1.00  0.00    -0.114 C  
HETATM   22  C   UNL     1      -9.851   4.408  67.584  1.00  0.00    -0.168 C  
HETATM   23  C   UNL     1     -11.215   6.313  69.597  1.00  0.00    -0.506 C  
BRANCH  22  24
HETATM   24  C   UNL     1      -9.418   3.748  66.262  1.00  0.00    -0.190 C  
BRANCH  24  25
HETATM   25  C   UNL     1      -7.901   3.642  66.093  1.00  0.00    -0.089 C  
HETATM   26  C   UNL     1      -7.425   4.367  64.843  1.00  0.00    -0.073 C  
ENDBRANCH  24  25
ENDBRANCH  22  24
ENDBRANCH  11  19
ENDBRANCH   7   9
ENDBRANCH   3   4
ENDBRANCH   2   3
TORSDOF 6
ENDMDL
MODEL      112
REMARK 921   NORMALIZED FREE ENERGY PREDICTED BY IDOCK:   -3.56 KCAL/MOL
REMARK 922        TOTAL FREE ENERGY PREDICTED BY IDOCK:   -5.60 KCAL/MOL
REMARK 923 INTER-LIGAND FREE ENERGY PREDICTED BY IDOCK:   -5.27 KCAL/MOL
REMARK 924 INTRA-LIGAND FREE ENERGY PREDICTED BY IDOCK:   -0.33 KCAL/MOL
REMARK 927      BINDING AFFINITY PREDICTED BY RF-SCORE:    0.00 PKD
ROOT
HETATM    1  C   UNL     1     -11.450  15.543  64.627  1.00  0.00    -0.326 C  
HETATM    2  C   UNL     1     -12.006  14.126  64.634  1.00  0.00    -0.459 C  
ENDROOT
BRANCH   2   3
HETATM    3  C   UNL     1     -11.059  13.184  65.370  1.00  0.00    -0.299 C  
BRANCH   3   4
HETATM    4  C   UNL     1     -11.666  12.665  66.675  1.00  0.00    -0.464 C  
HETATM    5  C   UNL     1     -10.636  12.609  67.821  1.00  0.00    -0.233 C  
HETATM    6  C   UNL     1      -9.968  13.967  68.151  1.00  0.00    -0.240 C  
HETATM    7  C   UNL     1     -11.246  12.001  69.106  1.00  0.00    -0.246 C  
HETATM    8  C   UNL     1     -10.897  15.030  68.719  1.00  0.00    -0.249 C  
BRANCH   7   9
HETATM    9  N   UNL     1     -11.709  10.611  69.010  1.00  0.00    -0.264 NA 
HETATM   10  C   UNL     1     -10.723   9.631  69.460  1.00  0.00    -0.232 C  
HETATM   11  N   UNL     1     -10.440   9.786  70.889  1.00  0.00    -0.286 NA 
HETATM   12  C   UNL     1     -11.668   9.484  71.664  1.00  0.00    -0.390 C  
HETATM   13  H1  UNL     1     -14.965  10.232  71.518  1.00  0.00     0.000 HD 
HETATM   14  C   UNL     1     -12.914  10.324  71.263  1.00  0.00    -0.420 C  
HETATM   15  H2  UNL     1     -14.103   9.520  72.787  1.00  0.00     0.000 HD 
HETATM   16  C   UNL     1     -12.879  11.715  71.917  1.00  0.00    -0.354 C  
HETATM   17  N   UNL     1     -14.149   9.681  71.780  1.00  0.00    -0.069 NA 
HETATM   18  C   UNL     1     -12.986  10.385  69.710  1.00  0.00     0.479 C  
BRANCH  11  19
HETATM   19  C   UNL     1      -9.381   8.853  71.333  1.00  0.00    -0.268 C  
HETATM   20  C   UNL     1     -10.584   6.673  70.603  1.00  0.00    -0.268 C  
HETATM   21  C   UNL     1      -9.789   7.402  71.707  1.00  0.00    -0.187 C  
HETATM   22  C   UNL     1      -8.538   6.593  72.138  1.00  0.00    -0.118 C  
HETATM   23  C   UNL     1      -9.814   6.314  69.339  1.00  0.00    -0.180 C  
BRANCH  22  24
HETATM   24  C   UNL     1      -7.763   7.166  73.338  1.00  0.00    -0.099 C  
BRANCH  24  25
HETATM   25  C   UNL     1      -6.321   7.557  73.013  1.00  0.00    -0.060 C  
HETATM   26  C   UNL     1      -5.978   7.272  71.558  1.00  0.00    -0.036 C  
ENDBRANCH  24  25
ENDBRANCH  22  24
ENDBRANCH  11  19
ENDBRANCH   7   9
ENDBRANCH   3   4
ENDBRANCH   2   3
TORSDOF 6
ENDMDL
MODEL      113
REMARK 921   NORMALIZED FREE ENERGY PREDICTED BY IDOCK:   -3.56 KCAL/MOL
REMARK 922        TOTAL FREE ENERGY PREDICTED BY IDOCK:   -5.60 KCAL/MOL
REMARK 923 INTER-LIGAND FREE ENERGY PREDICTED BY IDOCK:   -4.57 KCAL/MOL
REMARK 924 INTRA-LIGAND FREE ENERGY PREDICTED BY IDOCK:   -1.03 KCAL/MOL
REMARK 927      BINDING AFFINITY PREDICTED BY RF-SCORE:    0.00 PKD
ROOT
HETATM    1  C   UNL     1      -7.154   9.695  62.882  1.00  0.00    -0.109 C  
HETATM    2  C   UNL     1      -5.765   9.625  63.500  1.00  0.00    -0.094 C  
ENDROOT
BRANCH   2   3
HETATM    3  C   UNL     1      -5.840   9.824  65.010  1.00  0.00    -0.079 C  
BRANCH   3   4
HETATM    4  C   UNL     1      -6.867   8.894  65.660  1.00  0.00    -0.076 C  
HETATM    5  C   UNL     1      -7.439   9.475  66.969  1.00  0.00    -0.091 C  
HETATM    6  C   UNL     1      -8.125  10.854  66.813  1.00  0.00    -0.142 C  
HETATM    7  C   UNL     1      -8.409   8.484  67.655  1.00  0.00    -0.129 C  
HETATM    8  C   UNL     1      -9.396  10.861  65.975  1.00  0.00    -0.215 C  
BRANCH   7   9
HETATM    9  N   UNL     1      -7.832   7.205  68.086  1.00  0.00    -0.116 NA 
HETATM   10  C   UNL     1      -8.050   6.909  69.501  1.00  0.00    -0.130 C  
HETATM   11  N   UNL     1      -9.476   6.743  69.791  1.00  0.00    -0.145 NA 
HETATM   12  C   UNL     1      -9.985   5.553  69.065  1.00  0.00    -0.181 C  
HETATM   13  H1  UNL     1      -9.741   4.226  65.961  1.00  0.00     0.000 HD 
HETATM   14  C   UNL     1      -9.742   5.577  67.529  1.00  0.00    -0.128 C  
HETATM   15  H2  UNL     1     -10.803   3.801  67.207  1.00  0.00     0.000 HD 
HETATM   16  C   UNL     1     -10.801   6.431  66.812  1.00  0.00    -0.361 C  
HETATM   17  N   UNL     1      -9.900   4.210  66.969  1.00  0.00    -0.198 NA 
HETATM   18  C   UNL     1      -8.289   6.068  67.268  1.00  0.00    -0.105 C  
BRANCH  11  19
HETATM   19  C   UNL     1      -9.711   6.526  71.236  1.00  0.00    -0.173 C  
HETATM   20  C   UNL     1     -11.798   8.055  71.428  1.00  0.00    -0.326 C  
HETATM   21  C   UNL     1     -10.443   7.637  72.036  1.00  0.00    -0.258 C  
HETATM   22  C   UNL     1     -10.590   7.212  73.521  1.00  0.00    -0.416 C  
HETATM   23  C   UNL     1     -12.918   7.026  71.500  1.00  0.00    -0.411 C  
BRANCH  22  24
HETATM   24  C   UNL     1      -9.270   6.921  74.258  1.00  0.00    -0.255 C  
BRANCH  24  25
HETATM   25  C   UNL     1      -9.041   5.438  74.552  1.00  0.00    -0.121 C  
HETATM   26  C   UNL     1     -10.304   4.620  74.323  1.00  0.00    -0.311 C  
ENDBRANCH  24  25
ENDBRANCH  22  24
ENDBRANCH  11  19
ENDBRANCH   7   9
ENDBRANCH   3   4
ENDBRANCH   2   3
TORSDOF 6
ENDMDL
MODEL      114
REMARK 921   NORMALIZED FREE ENERGY PREDICTED BY IDOCK:   -3.54 KCAL/MOL
REMARK 922        TOTAL FREE ENERGY PREDICTED BY IDOCK:   -5.57 KCAL/MOL
REMARK 923 INTER-LIGAND FREE ENERGY PREDICTED BY IDOCK:   -5.00 KCAL/MOL
REMARK 924 INTRA-LIGAND FREE ENERGY PREDICTED BY IDOCK:   -0.57 KCAL/MOL
REMARK 927      BINDING AFFINITY PREDICTED BY RF-SCORE:    0.00 PKD
ROOT
HETATM    1  C   UNL     1     -10.630  16.897  68.345  1.00  0.00    -0.365 C  
HETATM    2  C   UNL     1     -10.948  15.411  68.437  1.00  0.00    -0.284 C  
ENDROOT
BRANCH   2   3
HETATM    3  C   UNL     1     -10.751  14.738  67.083  1.00  0.00    -0.299 C  
BRANCH   3   4
HETATM    4  C   UNL     1      -9.945  13.442  67.198  1.00  0.00    -0.242 C  
HETATM    5  C   UNL     1     -10.840  12.188  67.149  1.00  0.00    -0.286 C  
HETATM    6  C   UNL     1     -11.701  12.063  65.868  1.00  0.00    -0.312 C  
HETATM    7  C   UNL     1     -10.017  10.894  67.354  1.00  0.00    -0.186 C  
HETATM    8  C   UNL     1     -10.923  11.849  64.578  1.00  0.00    -0.376 C  
BRANCH   7   9
HETATM    9  N   UNL     1      -9.329  10.759  68.644  1.00  0.00    -0.177 NA 
HETATM   10  C   UNL     1      -9.428   9.421  69.226  1.00  0.00    -0.164 C  
HETATM   11  N   UNL     1      -8.750   8.431  68.385  1.00  0.00    -0.136 NA 
HETATM   12  C   UNL     1      -7.298   8.733  68.352  1.00  0.00    -0.086 C  
HETATM   13  H1  UNL     1      -5.317  11.449  67.968  1.00  0.00     0.000 HD 
HETATM   14  C   UNL     1      -6.944  10.173  67.886  1.00  0.00    -0.083 C  
HETATM   15  H2  UNL     1      -4.882   9.815  67.928  1.00  0.00     0.000 HD 
HETATM   16  C   UNL     1      -6.972  10.283  66.352  1.00  0.00    -0.111 C  
HETATM   17  N   UNL     1      -5.549  10.504  68.274  1.00  0.00    -0.037 NA 
HETATM   18  C   UNL     1      -7.915  11.169  68.583  1.00  0.00    -0.145 C  
BRANCH  11  19
HETATM   19  C   UNL     1      -8.918   7.063  68.924  1.00  0.00    -0.129 C  
HETATM   20  C   UNL     1     -10.687   6.280  67.196  1.00  0.00    -0.432 C  
HETATM   21  C   UNL     1     -10.268   6.336  68.680  1.00  0.00    -0.211 C  
HETATM   22  C   UNL     1     -10.233   4.923  69.318  1.00  0.00    -0.205 C  
HETATM   23  C   UNL     1      -9.848   5.390  66.289  1.00  0.00    -0.186 C  
BRANCH  22  24
HETATM   24  C   UNL     1      -9.971   4.889  70.834  1.00  0.00    -0.287 C  
BRANCH  24  25
HETATM   25  C   UNL     1      -9.963   3.480  71.428  1.00  0.00    -0.151 C  
HETATM   26  C   UNL     1      -8.832   3.301  72.430  1.00  0.00    -0.109 C  
ENDBRANCH  24  25
ENDBRANCH  22  24
ENDBRANCH  11  19
ENDBRANCH   7   9
ENDBRANCH   3   4
ENDBRANCH   2   3
TORSDOF 6
ENDMDL
MODEL      115
REMARK 921   NORMALIZED FREE ENERGY PREDICTED BY IDOCK:   -3.52 KCAL/MOL
REMARK 922        TOTAL FREE ENERGY PREDICTED BY IDOCK:   -5.54 KCAL/MOL
REMARK 923 INTER-LIGAND FREE ENERGY PREDICTED BY IDOCK:   -4.60 KCAL/MOL
REMARK 924 INTRA-LIGAND FREE ENERGY PREDICTED BY IDOCK:   -0.94 KCAL/MOL
REMARK 927      BINDING AFFINITY PREDICTED BY RF-SCORE:    0.00 PKD
ROOT
HETATM    1  C   UNL     1     -12.235  14.308  66.648  1.00  0.00    -0.411 C  
HETATM    2  C   UNL     1     -10.775  14.460  67.049  1.00  0.00    -0.285 C  
ENDROOT
BRANCH   2   3
HETATM    3  C   UNL     1     -10.368  13.351  68.013  1.00  0.00    -0.242 C  
BRANCH   3   4
HETATM    4  C   UNL     1      -9.195  12.527  67.477  1.00  0.00    -0.188 C  
HETATM    5  C   UNL     1      -9.638  11.144  66.961  1.00  0.00    -0.201 C  
HETATM    6  C   UNL     1     -10.699  11.189  65.834  1.00  0.00    -0.261 C  
HETATM    7  C   UNL     1      -8.429  10.293  66.504  1.00  0.00    -0.125 C  
HETATM    8  C   UNL     1     -10.231  11.795  64.519  1.00  0.00    -0.327 C  
BRANCH   7   9
HETATM    9  N   UNL     1      -7.442   9.959  67.539  1.00  0.00    -0.090 NA 
HETATM   10  C   UNL     1      -8.001   9.212  68.664  1.00  0.00    -0.101 C  
HETATM   11  N   UNL     1      -8.487   7.898  68.235  1.00  0.00    -0.124 NA 
HETATM   12  C   UNL     1      -7.339   7.086  67.763  1.00  0.00    -0.097 C  
HETATM   13  H1  UNL     1      -4.621   7.506  65.792  1.00  0.00     0.000 HD 
HETATM   14  C   UNL     1      -6.494   7.746  66.637  1.00  0.00    -0.050 C  
HETATM   15  H2  UNL     1      -5.269   6.065  66.397  1.00  0.00     0.000 HD 
HETATM   16  C   UNL     1      -7.156   7.557  65.262  1.00  0.00    -0.063 C  
HETATM   17  N   UNL     1      -5.175   7.072  66.530  1.00  0.00    -0.021 NA 
HETATM   18  C   UNL     1      -6.272   9.242  67.003  1.00  0.00    -0.061 C  
BRANCH  11  19
HETATM   19  C   UNL     1      -9.130   7.170  69.352  1.00  0.00    -0.145 C  
HETATM   20  C   UNL     1     -10.596   5.614  67.883  1.00  0.00    -0.266 C  
HETATM   21  C   UNL     1     -10.530   6.545  69.112  1.00  0.00    -0.260 C  
HETATM   22  C   UNL     1     -11.019   5.829  70.398  1.00  0.00    -0.333 C  
HETATM   23  C   UNL     1      -9.838   4.298  67.990  1.00  0.00    -0.111 C  
BRANCH  22  24
HETATM   24  C   UNL     1     -11.132   6.721  71.648  1.00  0.00    -0.282 C  
BRANCH  24  25
HETATM   25  C   UNL     1     -10.949   5.965  72.965  1.00  0.00    -0.303 C  
HETATM   26  C   UNL     1     -10.674   4.487  72.729  1.00  0.00    -0.258 C  
ENDBRANCH  24  25
ENDBRANCH  22  24
ENDBRANCH  11  19
ENDBRANCH   7   9
ENDBRANCH   3   4
ENDBRANCH   2   3
TORSDOF 6
ENDMDL
MODEL      116
REMARK 921   NORMALIZED FREE ENERGY PREDICTED BY IDOCK:   -3.52 KCAL/MOL
REMARK 922        TOTAL FREE ENERGY PREDICTED BY IDOCK:   -5.54 KCAL/MOL
REMARK 923 INTER-LIGAND FREE ENERGY PREDICTED BY IDOCK:   -6.11 KCAL/MOL
REMARK 924 INTRA-LIGAND FREE ENERGY PREDICTED BY IDOCK:    0.57 KCAL/MOL
REMARK 927      BINDING AFFINITY PREDICTED BY RF-SCORE:    0.00 PKD
ROOT
HETATM    1  C   UNL     1      -9.901  18.967  66.416  1.00  0.00    -0.412 C  
HETATM    2  C   UNL     1     -10.529  17.639  66.816  1.00  0.00    -0.289 C  
ENDROOT
BRANCH   2   3
HETATM    3  C   UNL     1     -10.485  16.656  65.652  1.00  0.00    -0.313 C  
BRANCH   3   4
HETATM    4  C   UNL     1     -10.284  15.214  66.124  1.00  0.00    -0.310 C  
HETATM    5  C   UNL     1     -11.619  14.485  66.372  1.00  0.00    -0.370 C  
HETATM    6  C   UNL     1     -12.553  14.421  65.139  1.00  0.00    -0.323 C  
HETATM    7  C   UNL     1     -11.394  13.061  66.932  1.00  0.00    -0.311 C  
HETATM    8  C   UNL     1     -12.040  13.587  63.974  1.00  0.00    -0.494 C  
BRANCH   7   9
HETATM    9  N   UNL     1     -10.723  12.973  68.235  1.00  0.00    -0.237 NA 
HETATM   10  C   UNL     1     -11.485  12.234  69.239  1.00  0.00    -0.292 C  
HETATM   11  N   UNL     1     -11.642  10.829  68.854  1.00  0.00    -0.294 NA 
HETATM   12  C   UNL     1     -10.308  10.181  68.826  1.00  0.00    -0.194 C  
HETATM   13  H1  UNL     1      -7.209  10.886  67.663  1.00  0.00     0.000 HD 
HETATM   14  C   UNL     1      -9.263  10.882  67.912  1.00  0.00    -0.152 C  
HETATM   15  H2  UNL     1      -7.809   9.410  68.232  1.00  0.00     0.000 HD 
HETATM   16  C   UNL     1      -9.456  10.481  66.440  1.00  0.00    -0.208 C  
HETATM   17  N   UNL     1      -7.894  10.426  68.263  1.00  0.00    -0.103 NA 
HETATM   18  C   UNL     1      -9.361  12.418  68.140  1.00  0.00    -0.209 C  
BRANCH  11  19
HETATM   19  C   UNL     1     -12.483  10.095  69.824  1.00  0.00     0.210 C  
HETATM   20  C   UNL     1     -12.192  11.762  71.789  1.00  0.00     0.506 C  
HETATM   21  C   UNL     1     -12.199  10.287  71.338  1.00  0.00    -0.481 C  
HETATM   22  C   UNL     1     -13.190   9.437  72.176  1.00  0.00    -0.541 C  
HETATM   23  C   UNL     1     -13.535  12.481  71.775  1.00  0.00    -0.280 C  
BRANCH  22  24
HETATM   24  C   UNL     1     -13.158   7.923  71.901  1.00  0.00    -0.316 C  
BRANCH  24  25
HETATM   25  C   UNL     1     -11.752   7.366  71.676  1.00  0.00    -0.311 C  
HETATM   26  C   UNL     1     -10.977   7.257  72.981  1.00  0.00    -0.388 C  
ENDBRANCH  24  25
ENDBRANCH  22  24
ENDBRANCH  11  19
ENDBRANCH   7   9
ENDBRANCH   3   4
ENDBRANCH   2   3
TORSDOF 6
ENDMDL
MODEL      117
REMARK 921   NORMALIZED FREE ENERGY PREDICTED BY IDOCK:   -3.51 KCAL/MOL
REMARK 922        TOTAL FREE ENERGY PREDICTED BY IDOCK:   -5.53 KCAL/MOL
REMARK 923 INTER-LIGAND FREE ENERGY PREDICTED BY IDOCK:   -4.73 KCAL/MOL
REMARK 924 INTRA-LIGAND FREE ENERGY PREDICTED BY IDOCK:   -0.80 KCAL/MOL
REMARK 927      BINDING AFFINITY PREDICTED BY RF-SCORE:    0.00 PKD
ROOT
HETATM    1  C   UNL     1      -5.534  11.818  69.074  1.00  0.00    -0.050 C  
HETATM    2  C   UNL     1      -6.713  12.444  68.343  1.00  0.00    -0.069 C  
ENDROOT
BRANCH   2   3
HETATM    3  C   UNL     1      -7.965  11.591  68.519  1.00  0.00    -0.143 C  
BRANCH   3   4
HETATM    4  C   UNL     1      -7.826  10.223  67.848  1.00  0.00    -0.101 C  
HETATM    5  C   UNL     1      -9.191   9.557  67.585  1.00  0.00    -0.138 C  
HETATM    6  C   UNL     1     -10.151  10.389  66.700  1.00  0.00    -0.279 C  
HETATM    7  C   UNL     1      -9.027   8.140  66.987  1.00  0.00    -0.141 C  
HETATM    8  C   UNL     1      -9.703  10.590  65.260  1.00  0.00    -0.328 C  
BRANCH   7   9
HETATM    9  N   UNL     1      -8.336   7.155  67.829  1.00  0.00    -0.117 NA 
HETATM   10  C   UNL     1      -8.828   7.110  69.204  1.00  0.00    -0.135 C  
HETATM   11  N   UNL     1     -10.222   6.664  69.251  1.00  0.00    -0.175 NA 
HETATM   12  C   UNL     1     -10.301   5.264  68.767  1.00  0.00    -0.136 C  
HETATM   13  H1  UNL     1      -9.065   3.431  66.205  1.00  0.00     0.000 HD 
HETATM   14  C   UNL     1      -9.705   5.032  67.350  1.00  0.00    -0.158 C  
HETATM   15  H2  UNL     1     -10.294   3.024  67.293  1.00  0.00     0.000 HD 
HETATM   16  C   UNL     1     -10.703   5.437  66.253  1.00  0.00    -0.234 C  
HETATM   17  N   UNL     1      -9.456   3.583  67.135  1.00  0.00    -0.204 NA 
HETATM   18  C   UNL     1      -8.354   5.799  67.254  1.00  0.00    -0.104 C  
BRANCH  11  19
HETATM   19  C   UNL     1     -10.753   6.697  70.632  1.00  0.00    -0.241 C  
HETATM   20  C   UNL     1     -10.034   9.132  71.166  1.00  0.00    -0.377 C  
HETATM   21  C   UNL     1     -10.095   7.668  71.650  1.00  0.00    -0.212 C  
HETATM   22  C   UNL     1     -10.799   7.550  73.027  1.00  0.00    -0.445 C  
HETATM   23  C   UNL     1     -11.364   9.866  71.064  1.00  0.00    -0.460 C  
BRANCH  22  24
HETATM   24  C   UNL     1     -10.775   6.148  73.662  1.00  0.00    -0.234 C  
BRANCH  24  25
HETATM   25  C   UNL     1      -9.367   5.613  73.926  1.00  0.00    -0.134 C  
HETATM   26  C   UNL     1      -9.150   4.258  73.268  1.00  0.00    -0.113 C  
ENDBRANCH  24  25
ENDBRANCH  22  24
ENDBRANCH  11  19
ENDBRANCH   7   9
ENDBRANCH   3   4
ENDBRANCH   2   3
TORSDOF 6
ENDMDL
MODEL      118
REMARK 921   NORMALIZED FREE ENERGY PREDICTED BY IDOCK:   -3.50 KCAL/MOL
REMARK 922        TOTAL FREE ENERGY PREDICTED BY IDOCK:   -5.52 KCAL/MOL
REMARK 923 INTER-LIGAND FREE ENERGY PREDICTED BY IDOCK:   -4.56 KCAL/MOL
REMARK 924 INTRA-LIGAND FREE ENERGY PREDICTED BY IDOCK:   -0.96 KCAL/MOL
REMARK 927      BINDING AFFINITY PREDICTED BY RF-SCORE:    0.00 PKD
ROOT
HETATM    1  C   UNL     1     -12.084  12.667  65.756  1.00  0.00    -0.484 C  
HETATM    2  C   UNL     1     -11.990  12.431  64.255  1.00  0.00    -0.489 C  
ENDROOT
BRANCH   2   3
HETATM    3  C   UNL     1     -10.832  11.494  63.933  1.00  0.00    -0.469 C  
BRANCH   3   4
HETATM    4  C   UNL     1      -9.863  11.354  65.109  1.00  0.00    -0.302 C  
HETATM    5  C   UNL     1      -9.526   9.882  65.420  1.00  0.00    -0.319 C  
HETATM    6  C   UNL     1      -8.902   9.103  64.237  1.00  0.00    -0.139 C  
HETATM    7  C   UNL     1      -8.616   9.757  66.665  1.00  0.00    -0.128 C  
HETATM    8  C   UNL     1      -7.523   9.575  63.798  1.00  0.00    -0.116 C  
BRANCH   7   9
HETATM    9  N   UNL     1      -9.177  10.242  67.932  1.00  0.00    -0.137 NA 
HETATM   10  C   UNL     1      -9.507   9.175  68.875  1.00  0.00    -0.151 C  
HETATM   11  N   UNL     1      -8.303   8.458  69.301  1.00  0.00    -0.120 NA 
HETATM   12  C   UNL     1      -7.427   9.386  70.057  1.00  0.00    -0.107 C  
HETATM   13  H1  UNL     1      -6.282  12.555  69.748  1.00  0.00     0.000 HD 
HETATM   14  C   UNL     1      -7.043  10.685  69.295  1.00  0.00    -0.107 C  
HETATM   15  H2  UNL     1      -5.761  11.347  70.811  1.00  0.00     0.000 HD 
HETATM   16  C   UNL     1      -5.883  10.433  68.317  1.00  0.00    -0.040 C  
HETATM   17  N   UNL     1      -6.534  11.703  70.249  1.00  0.00    -0.172 NA 
HETATM   18  C   UNL     1      -8.318  11.239  68.594  1.00  0.00    -0.146 C  
BRANCH  11  19
HETATM   19  C   UNL     1      -8.638   7.323  70.190  1.00  0.00    -0.140 C  
HETATM   20  C   UNL     1      -6.664   5.799  69.478  1.00  0.00    -0.059 C  
HETATM   21  C   UNL     1      -8.175   5.901  69.773  1.00  0.00    -0.113 C  
HETATM   22  C   UNL     1      -8.621   4.865  70.838  1.00  0.00    -0.128 C  
HETATM   23  C   UNL     1      -5.730   5.940  70.672  1.00  0.00    -0.013 C  
BRANCH  22  24
HETATM   24  C   UNL     1     -10.137   4.788  71.090  1.00  0.00    -0.261 C  
BRANCH  24  25
HETATM   25  C   UNL     1     -10.565   5.332  72.454  1.00  0.00    -0.280 C  
HETATM   26  C   UNL     1      -9.375   5.497  73.389  1.00  0.00    -0.138 C  
ENDBRANCH  24  25
ENDBRANCH  22  24
ENDBRANCH  11  19
ENDBRANCH   7   9
ENDBRANCH   3   4
ENDBRANCH   2   3
TORSDOF 6
ENDMDL
MODEL      119
REMARK 921   NORMALIZED FREE ENERGY PREDICTED BY IDOCK:   -3.49 KCAL/MOL
REMARK 922        TOTAL FREE ENERGY PREDICTED BY IDOCK:   -5.50 KCAL/MOL
REMARK 923 INTER-LIGAND FREE ENERGY PREDICTED BY IDOCK:   -4.07 KCAL/MOL
REMARK 924 INTRA-LIGAND FREE ENERGY PREDICTED BY IDOCK:   -1.43 KCAL/MOL
REMARK 927      BINDING AFFINITY PREDICTED BY RF-SCORE:    0.00 PKD
ROOT
HETATM    1  C   UNL     1      -8.466   7.857  65.488  1.00  0.00    -0.153 C  
HETATM    2  C   UNL     1      -8.446   9.234  66.138  1.00  0.00    -0.135 C  
ENDROOT
BRANCH   2   3
HETATM    3  C   UNL     1      -9.858   9.805  66.221  1.00  0.00    -0.315 C  
BRANCH   3   4
HETATM    4  C   UNL     1     -10.699   9.102  67.289  1.00  0.00    -0.224 C  
HETATM    5  C   UNL     1     -10.164   9.346  68.713  1.00  0.00    -0.221 C  
HETATM    6  C   UNL     1     -10.085  10.837  69.122  1.00  0.00    -0.224 C  
HETATM    7  C   UNL     1     -10.976   8.558  69.769  1.00  0.00    -0.127 C  
HETATM    8  C   UNL     1     -11.422  11.553  69.245  1.00  0.00    -0.370 C  
BRANCH   7   9
HETATM    9  N   UNL     1     -10.946   7.095  69.651  1.00  0.00    -0.235 NA 
HETATM   10  C   UNL     1      -9.602   6.546  69.482  1.00  0.00    -0.145 C  
HETATM   11  N   UNL     1      -8.777   6.798  70.666  1.00  0.00    -0.142 NA 
HETATM   12  C   UNL     1      -9.350   6.068  71.822  1.00  0.00    -0.148 C  
HETATM   13  H1  UNL     1     -12.402   5.553  73.191  1.00  0.00     0.000 HD 
HETATM   14  C   UNL     1     -10.841   6.391  72.121  1.00  0.00    -0.237 C  
HETATM   15  H2  UNL     1     -10.882   5.211  73.850  1.00  0.00     0.000 HD 
HETATM   16  C   UNL     1     -10.978   7.700  72.917  1.00  0.00    -0.456 C  
HETATM   17  N   UNL     1     -11.424   5.341  72.995  1.00  0.00    -0.309 NA 
HETATM   18  C   UNL     1     -11.618   6.417  70.773  1.00  0.00    -0.338 C  
BRANCH  11  19
HETATM   19  C   UNL     1      -7.390   6.320  70.468  1.00  0.00    -0.085 C  
HETATM   20  C   UNL     1      -6.573   8.351  69.076  1.00  0.00    -0.048 C  
HETATM   21  C   UNL     1      -6.613   6.815  69.219  1.00  0.00    -0.048 C  
HETATM   22  C   UNL     1      -5.187   6.203  69.205  1.00  0.00    -0.005 C  
HETATM   23  C   UNL     1      -5.742   9.105  70.105  1.00  0.00    -0.031 C  
BRANCH  22  24
HETATM   24  C   UNL     1      -5.129   4.665  69.192  1.00  0.00     0.000 C  
BRANCH  24  25
HETATM   25  C   UNL     1      -5.706   4.036  67.922  1.00  0.00    -0.022 C  
HETATM   26  C   UNL     1      -6.947   3.208  68.221  1.00  0.00    -0.049 C  
ENDBRANCH  24  25
ENDBRANCH  22  24
ENDBRANCH  11  19
ENDBRANCH   7   9
ENDBRANCH   3   4
ENDBRANCH   2   3
TORSDOF 6
ENDMDL
MODEL      120
REMARK 921   NORMALIZED FREE ENERGY PREDICTED BY IDOCK:   -3.47 KCAL/MOL
REMARK 922        TOTAL FREE ENERGY PREDICTED BY IDOCK:   -5.48 KCAL/MOL
REMARK 923 INTER-LIGAND FREE ENERGY PREDICTED BY IDOCK:   -5.45 KCAL/MOL
REMARK 924 INTRA-LIGAND FREE ENERGY PREDICTED BY IDOCK:   -0.03 KCAL/MOL
REMARK 927      BINDING AFFINITY PREDICTED BY RF-SCORE:    0.00 PKD
ROOT
HETATM    1  C   UNL     1     -10.331   4.624  66.212  1.00  0.00    -0.293 C  
HETATM    2  C   UNL     1      -9.364   3.467  66.420  1.00  0.00    -0.184 C  
ENDROOT
BRANCH   2   3
HETATM    3  C   UNL     1      -9.399   2.996  67.869  1.00  0.00    -0.255 C  
BRANCH   3   4
HETATM    4  C   UNL     1      -8.518   3.858  68.775  1.00  0.00    -0.098 C  
HETATM    5  C   UNL     1      -9.251   4.305  70.055  1.00  0.00    -0.207 C  
HETATM    6  C   UNL     1      -9.782   3.142  70.930  1.00  0.00    -0.170 C  
HETATM    7  C   UNL     1      -8.374   5.245  70.915  1.00  0.00    -0.116 C  
HETATM    8  C   UNL     1      -8.715   2.261  71.562  1.00  0.00    -0.105 C  
BRANCH   7   9
HETATM    9  N   UNL     1      -7.987   6.519  70.295  1.00  0.00    -0.113 NA 
HETATM   10  C   UNL     1      -9.116   7.405  70.018  1.00  0.00    -0.148 C  
HETATM   11  N   UNL     1      -9.770   7.827  71.259  1.00  0.00    -0.157 NA 
HETATM   12  C   UNL     1      -8.822   8.646  72.054  1.00  0.00    -0.194 C  
HETATM   13  H1  UNL     1      -5.572   8.506  72.988  1.00  0.00     0.000 HD 
HETATM   14  C   UNL     1      -7.466   7.951  72.365  1.00  0.00    -0.092 C  
HETATM   15  H2  UNL     1      -6.791   9.527  73.567  1.00  0.00     0.000 HD 
HETATM   16  C   UNL     1      -7.594   6.991  73.560  1.00  0.00    -0.091 C  
HETATM   17  N   UNL     1      -6.461   8.962  72.784  1.00  0.00    -0.295 NA 
HETATM   18  C   UNL     1      -6.967   7.246  71.071  1.00  0.00    -0.060 C  
BRANCH  11  19
HETATM   19  C   UNL     1     -10.964   8.657  70.983  1.00  0.00    -0.260 C  
HETATM   20  C   UNL     1      -9.870  10.156  69.171  1.00  0.00    -0.225 C  
HETATM   21  C   UNL     1     -10.751  10.094  70.436  1.00  0.00    -0.329 C  
HETATM   22  C   UNL     1     -12.122  10.785  70.213  1.00  0.00    -0.433 C  
HETATM   23  C   UNL     1     -10.472   9.576  67.898  1.00  0.00    -0.293 C  
BRANCH  22  24
HETATM   24  C   UNL     1     -13.012  10.906  71.463  1.00  0.00    -0.556 C  
BRANCH  24  25
HETATM   25  C   UNL     1     -13.295  12.349  71.882  1.00  0.00    -0.450 C  
HETATM   26  C   UNL     1     -12.400  13.333  71.143  1.00  0.00    -0.323 C  
ENDBRANCH  24  25
ENDBRANCH  22  24
ENDBRANCH  11  19
ENDBRANCH   7   9
ENDBRANCH   3   4
ENDBRANCH   2   3
TORSDOF 6
ENDMDL
MODEL      121
REMARK 921   NORMALIZED FREE ENERGY PREDICTED BY IDOCK:   -3.43 KCAL/MOL
REMARK 922        TOTAL FREE ENERGY PREDICTED BY IDOCK:   -5.42 KCAL/MOL
REMARK 923 INTER-LIGAND FREE ENERGY PREDICTED BY IDOCK:   -5.51 KCAL/MOL
REMARK 924 INTRA-LIGAND FREE ENERGY PREDICTED BY IDOCK:    0.09 KCAL/MOL
REMARK 927      BINDING AFFINITY PREDICTED BY RF-SCORE:    0.00 PKD
ROOT
HETATM    1  C   UNL     1      -7.840   8.377  63.071  1.00  0.00    -0.150 C  
HETATM    2  C   UNL     1      -7.664   6.908  63.428  1.00  0.00    -0.106 C  
ENDROOT
BRANCH   2   3
HETATM    3  C   UNL     1      -8.181   6.635  64.836  1.00  0.00    -0.085 C  
BRANCH   3   4
HETATM    4  C   UNL     1      -8.329   7.920  65.653  1.00  0.00    -0.146 C  
HETATM    5  C   UNL     1      -9.746   8.087  66.235  1.00  0.00    -0.197 C  
HETATM    6  C   UNL     1     -10.205   6.925  67.150  1.00  0.00    -0.308 C  
HETATM    7  C   UNL     1      -9.900   9.432  66.984  1.00  0.00    -0.201 C  
HETATM    8  C   UNL     1      -9.430   6.774  68.451  1.00  0.00    -0.126 C  
BRANCH   7   9
HETATM    9  N   UNL     1      -9.729  10.647  66.177  1.00  0.00    -0.197 NA 
HETATM   10  C   UNL     1     -10.599  11.749  66.584  1.00  0.00    -0.240 C  
HETATM   11  N   UNL     1     -10.275  12.204  67.938  1.00  0.00    -0.193 NA 
HETATM   12  C   UNL     1      -8.904  12.770  67.945  1.00  0.00    -0.186 C  
HETATM   13  H1  UNL     1      -5.853  11.950  66.733  1.00  0.00     0.000 HD 
HETATM   14  C   UNL     1      -7.801  11.811  67.417  1.00  0.00    -0.155 C  
HETATM   15  H2  UNL     1      -6.250  13.143  67.865  1.00  0.00     0.000 HD 
HETATM   16  C   UNL     1      -7.364  10.814  68.504  1.00  0.00    -0.096 C  
HETATM   17  N   UNL     1      -6.576  12.581  67.080  1.00  0.00    -0.113 NA 
HETATM   18  C   UNL     1      -8.332  11.112  66.132  1.00  0.00    -0.144 C  
BRANCH  11  19
HETATM   19  C   UNL     1     -11.206  13.262  68.388  1.00  0.00    -0.280 C  
HETATM   20  C   UNL     1     -10.211  15.168  66.936  1.00  0.00    -0.259 C  
HETATM   21  C   UNL     1     -10.728  14.738  68.325  1.00  0.00    -0.242 C  
HETATM   22  C   UNL     1     -11.849  15.681  68.835  1.00  0.00    -0.368 C  
HETATM   23  C   UNL     1     -11.253  15.278  65.831  1.00  0.00    -0.237 C  
BRANCH  22  24
HETATM   24  C   UNL     1     -12.325  15.423  70.276  1.00  0.00    -0.425 C  
BRANCH  24  25
HETATM   25  C   UNL     1     -11.474  16.119  71.340  1.00  0.00    -0.429 C  
HETATM   26  C   UNL     1     -12.203  16.201  72.673  1.00  0.00    -0.625 C  
ENDBRANCH  24  25
ENDBRANCH  22  24
ENDBRANCH  11  19
ENDBRANCH   7   9
ENDBRANCH   3   4
ENDBRANCH   2   3
TORSDOF 6
ENDMDL
MODEL      122
REMARK 921   NORMALIZED FREE ENERGY PREDICTED BY IDOCK:   -3.42 KCAL/MOL
REMARK 922        TOTAL FREE ENERGY PREDICTED BY IDOCK:   -5.41 KCAL/MOL
REMARK 923 INTER-LIGAND FREE ENERGY PREDICTED BY IDOCK:   -4.53 KCAL/MOL
REMARK 924 INTRA-LIGAND FREE ENERGY PREDICTED BY IDOCK:   -0.87 KCAL/MOL
REMARK 927      BINDING AFFINITY PREDICTED BY RF-SCORE:    0.00 PKD
ROOT
HETATM    1  C   UNL     1      -8.844  12.371  67.983  1.00  0.00    -0.187 C  
HETATM    2  C   UNL     1     -10.241  11.947  68.415  1.00  0.00    -0.205 C  
ENDROOT
BRANCH   2   3
HETATM    3  C   UNL     1     -10.170  10.725  69.324  1.00  0.00    -0.217 C  
BRANCH   3   4
HETATM    4  C   UNL     1      -8.989   9.817  68.976  1.00  0.00    -0.154 C  
HETATM    5  C   UNL     1      -9.439   8.479  68.356  1.00  0.00    -0.141 C  
HETATM    6  C   UNL     1     -10.285   8.621  67.067  1.00  0.00    -0.360 C  
HETATM    7  C   UNL     1      -8.237   7.542  68.092  1.00  0.00    -0.125 C  
HETATM    8  C   UNL     1      -9.553   9.204  65.867  1.00  0.00    -0.343 C  
BRANCH   7   9
HETATM    9  N   UNL     1      -7.471   7.119  69.271  1.00  0.00    -0.091 NA 
HETATM   10  C   UNL     1      -8.301   6.590  70.352  1.00  0.00    -0.127 C  
HETATM   11  N   UNL     1      -8.979   5.358  69.940  1.00  0.00    -0.123 NA 
HETATM   12  C   UNL     1      -7.965   4.307  69.681  1.00  0.00    -0.056 C  
HETATM   13  H1  UNL     1      -4.995   4.039  68.081  1.00  0.00     0.000 HD 
HETATM   14  C   UNL     1      -6.874   4.698  68.644  1.00  0.00    -0.051 C  
HETATM   15  H2  UNL     1      -5.984   2.803  68.678  1.00  0.00     0.000 HD 
HETATM   16  C   UNL     1      -7.385   4.518  67.205  1.00  0.00    -0.074 C  
HETATM   17  N   UNL     1      -5.710   3.782  68.761  1.00  0.00    -0.021 NA 
HETATM   18  C   UNL     1      -6.408   6.152  68.945  1.00  0.00    -0.041 C  
BRANCH  11  19
HETATM   19  C   UNL     1      -9.886   4.863  71.000  1.00  0.00    -0.195 C  
HETATM   20  C   UNL     1     -11.068   7.125  71.458  1.00  0.00    -0.267 C  
HETATM   21  C   UNL     1     -10.398   5.873  72.061  1.00  0.00    -0.250 C  
HETATM   22  C   UNL     1     -11.332   5.155  73.070  1.00  0.00    -0.381 C  
HETATM   23  C   UNL     1     -12.408   6.910  70.767  1.00  0.00    -0.314 C  
BRANCH  22  24
HETATM   24  C   UNL     1     -10.698   3.980  73.836  1.00  0.00    -0.312 C  
BRANCH  24  25
HETATM   25  C   UNL     1     -11.340   2.626  73.531  1.00  0.00    -0.285 C  
HETATM   26  C   UNL     1     -10.386   1.711  72.777  1.00  0.00    -0.215 C  
ENDBRANCH  24  25
ENDBRANCH  22  24
ENDBRANCH  11  19
ENDBRANCH   7   9
ENDBRANCH   3   4
ENDBRANCH   2   3
TORSDOF 6
ENDMDL
MODEL      123
REMARK 921   NORMALIZED FREE ENERGY PREDICTED BY IDOCK:   -3.42 KCAL/MOL
REMARK 922        TOTAL FREE ENERGY PREDICTED BY IDOCK:   -5.41 KCAL/MOL
REMARK 923 INTER-LIGAND FREE ENERGY PREDICTED BY IDOCK:   -5.22 KCAL/MOL
REMARK 924 INTRA-LIGAND FREE ENERGY PREDICTED BY IDOCK:   -0.19 KCAL/MOL
REMARK 927      BINDING AFFINITY PREDICTED BY RF-SCORE:    0.00 PKD
ROOT
HETATM    1  C   UNL     1      -6.622   7.934  66.948  1.00  0.00    -0.059 C  
HETATM    2  C   UNL     1      -6.891   8.089  65.458  1.00  0.00    -0.059 C  
ENDROOT
BRANCH   2   3
HETATM    3  C   UNL     1      -8.384   7.967  65.170  1.00  0.00    -0.139 C  
BRANCH   3   4
HETATM    4  C   UNL     1      -9.151   9.228  65.573  1.00  0.00    -0.275 C  
HETATM    5  C   UNL     1      -8.608  10.493  64.879  1.00  0.00    -0.179 C  
HETATM    6  C   UNL     1      -8.630  10.436  63.332  1.00  0.00    -0.189 C  
HETATM    7  C   UNL     1      -9.338  11.767  65.365  1.00  0.00    -0.082 C  
HETATM    8  C   UNL     1     -10.014  10.395  62.700  1.00  0.00     0.094 C  
BRANCH   7   9
HETATM    9  N   UNL     1      -9.204  12.089  66.791  1.00  0.00    -0.196 NA 
HETATM   10  C   UNL     1      -8.464  13.324  67.048  1.00  0.00    -0.128 C  
HETATM   11  N   UNL     1      -9.178  14.486  66.513  1.00  0.00    -0.269 NA 
HETATM   12  C   UNL     1     -10.461  14.645  67.241  1.00  0.00    -0.266 C  
HETATM   13  H1  UNL     1     -13.009  12.674  68.278  1.00  0.00     0.000 HD 
HETATM   14  C   UNL     1     -11.378  13.390  67.224  1.00  0.00    -0.319 C  
HETATM   15  H2  UNL     1     -12.942  14.364  68.219  1.00  0.00     0.000 HD 
HETATM   16  C   UNL     1     -12.169  13.298  65.908  1.00  0.00    -0.497 C  
HETATM   17  N   UNL     1     -12.407  13.498  68.290  1.00  0.00    -0.084 NA 
HETATM   18  C   UNL     1     -10.499  12.135  67.492  1.00  0.00    -0.209 C  
BRANCH  11  19
HETATM   19  C   UNL     1      -8.396  15.729  66.694  1.00  0.00    -0.284 C  
HETATM   20  C   UNL     1      -8.535  15.790  69.284  1.00  0.00    -0.258 C  
HETATM   21  C   UNL     1      -8.655  16.582  67.965  1.00  0.00    -0.184 C  
HETATM   22  C   UNL     1      -7.734  17.831  67.963  1.00  0.00    -0.238 C  
HETATM   23  C   UNL     1      -7.136  15.327  69.671  1.00  0.00    -0.187 C  
BRANCH  22  24
HETATM   24  C   UNL     1      -7.895  18.767  66.752  1.00  0.00    -0.255 C  
BRANCH  24  25
HETATM   25  C   UNL     1      -9.347  19.143  66.451  1.00  0.00    -0.379 C  
HETATM   26  C   UNL     1      -9.889  20.140  67.465  1.00  0.00    -0.574 C  
ENDBRANCH  24  25
ENDBRANCH  22  24
ENDBRANCH  11  19
ENDBRANCH   7   9
ENDBRANCH   3   4
ENDBRANCH   2   3
TORSDOF 6
ENDMDL
MODEL      124
REMARK 921   NORMALIZED FREE ENERGY PREDICTED BY IDOCK:   -3.41 KCAL/MOL
REMARK 922        TOTAL FREE ENERGY PREDICTED BY IDOCK:   -5.39 KCAL/MOL
REMARK 923 INTER-LIGAND FREE ENERGY PREDICTED BY IDOCK:   -4.23 KCAL/MOL
REMARK 924 INTRA-LIGAND FREE ENERGY PREDICTED BY IDOCK:   -1.16 KCAL/MOL
REMARK 927      BINDING AFFINITY PREDICTED BY RF-SCORE:    0.00 PKD
ROOT
HETATM    1  C   UNL     1      -5.802   9.093  62.715  1.00  0.00    -0.089 C  
HETATM    2  C   UNL     1      -5.295   9.240  64.142  1.00  0.00    -0.060 C  
ENDROOT
BRANCH   2   3
HETATM    3  C   UNL     1      -6.262  10.081  64.968  1.00  0.00    -0.115 C  
BRANCH   3   4
HETATM    4  C   UNL     1      -6.562   9.444  66.327  1.00  0.00    -0.070 C  
HETATM    5  C   UNL     1      -8.050   9.075  66.486  1.00  0.00    -0.111 C  
HETATM    6  C   UNL     1      -8.589   8.100  65.410  1.00  0.00    -0.154 C  
HETATM    7  C   UNL     1      -8.349   8.513  67.896  1.00  0.00    -0.126 C  
HETATM    8  C   UNL     1      -7.993   6.701  65.440  1.00  0.00    -0.121 C  
BRANCH   7   9
HETATM    9  N   UNL     1      -8.112   9.424  69.023  1.00  0.00    -0.103 NA 
HETATM   10  C   UNL     1      -8.464  10.814  68.738  1.00  0.00    -0.148 C  
HETATM   11  N   UNL     1      -9.902  10.954  68.497  1.00  0.00    -0.177 NA 
HETATM   12  C   UNL     1     -10.639  10.615  69.740  1.00  0.00    -0.184 C  
HETATM   13  H1  UNL     1     -10.559   8.207  72.116  1.00  0.00     0.000 HD 
HETATM   14  C   UNL     1     -10.321   9.208  70.321  1.00  0.00    -0.214 C  
HETATM   15  H2  UNL     1     -11.752   9.374  71.839  1.00  0.00     0.000 HD 
HETATM   16  C   UNL     1     -11.112   8.113  69.587  1.00  0.00    -0.015 C  
HETATM   17  N   UNL     1     -10.767   9.130  71.735  1.00  0.00    -0.366 NA 
HETATM   18  C   UNL     1      -8.781   8.988  70.261  1.00  0.00    -0.184 C  
BRANCH  11  19
HETATM   19  C   UNL     1     -10.253  12.343  68.126  1.00  0.00    -0.225 C  
HETATM   20  C   UNL     1      -9.952  12.049  65.566  1.00  0.00    -0.267 C  
HETATM   21  C   UNL     1      -9.671  12.921  66.808  1.00  0.00    -0.246 C  
HETATM   22  C   UNL     1     -10.163  14.379  66.606  1.00  0.00    -0.277 C  
HETATM   23  C   UNL     1     -11.400  11.982  65.100  1.00  0.00    -0.359 C  
BRANCH  22  24
HETATM   24  C   UNL     1      -9.793  15.362  67.730  1.00  0.00    -0.220 C  
BRANCH  24  25
HETATM   25  C   UNL     1      -8.343  15.846  67.675  1.00  0.00    -0.165 C  
HETATM   26  C   UNL     1      -7.954  16.593  68.943  1.00  0.00    -0.236 C  
ENDBRANCH  24  25
ENDBRANCH  22  24
ENDBRANCH  11  19
ENDBRANCH   7   9
ENDBRANCH   3   4
ENDBRANCH   2   3
TORSDOF 6
ENDMDL
MODEL      125
REMARK 921   NORMALIZED FREE ENERGY PREDICTED BY IDOCK:   -3.38 KCAL/MOL
REMARK 922        TOTAL FREE ENERGY PREDICTED BY IDOCK:   -5.36 KCAL/MOL
REMARK 923 INTER-LIGAND FREE ENERGY PREDICTED BY IDOCK:   -4.46 KCAL/MOL
REMARK 924 INTRA-LIGAND FREE ENERGY PREDICTED BY IDOCK:   -0.89 KCAL/MOL
REMARK 927      BINDING AFFINITY PREDICTED BY RF-SCORE:    0.00 PKD
ROOT
HETATM    1  C   UNL     1      -6.464   8.484  65.154  1.00  0.00    -0.063 C  
HETATM    2  C   UNL     1      -5.840   7.436  66.065  1.00  0.00    -0.037 C  
ENDROOT
BRANCH   2   3
HETATM    3  C   UNL     1      -6.664   6.154  66.047  1.00  0.00    -0.052 C  
BRANCH   3   4
HETATM    4  C   UNL     1      -7.343   5.889  67.393  1.00  0.00    -0.077 C  
HETATM    5  C   UNL     1      -8.731   6.552  67.491  1.00  0.00    -0.114 C  
HETATM    6  C   UNL     1      -9.732   6.110  66.395  1.00  0.00    -0.152 C  
HETATM    7  C   UNL     1      -9.362   6.346  68.888  1.00  0.00    -0.130 C  
HETATM    8  C   UNL     1     -10.161   4.651  66.453  1.00  0.00    -0.289 C  
BRANCH   7   9
HETATM    9  N   UNL     1      -8.636   6.931  70.022  1.00  0.00    -0.140 NA 
HETATM   10  C   UNL     1      -8.274   8.334  69.827  1.00  0.00    -0.121 C  
HETATM   11  N   UNL     1      -9.469   9.177  69.730  1.00  0.00    -0.172 NA 
HETATM   12  C   UNL     1     -10.196   9.140  71.023  1.00  0.00    -0.302 C  
HETATM   13  H1  UNL     1     -11.161   6.815  73.284  1.00  0.00     0.000 HD 
HETATM   14  C   UNL     1     -10.576   7.715  71.515  1.00  0.00    -0.212 C  
HETATM   15  H2  UNL     1     -11.640   8.434  73.169  1.00  0.00     0.000 HD 
HETATM   16  C   UNL     1     -11.849   7.208  70.818  1.00  0.00    -0.367 C  
HETATM   17  N   UNL     1     -10.912   7.750  72.962  1.00  0.00    -0.404 NA 
HETATM   18  C   UNL     1      -9.352   6.778  71.300  1.00  0.00    -0.165 C  
BRANCH  11  19
HETATM   19  C   UNL     1      -9.113  10.585  69.449  1.00  0.00    -0.104 C  
HETATM   20  C   UNL     1     -11.415  11.283  68.479  1.00  0.00    -0.372 C  
HETATM   21  C   UNL     1      -9.881  11.327  68.322  1.00  0.00    -0.201 C  
HETATM   22  C   UNL     1      -9.361  12.783  68.194  1.00  0.00    -0.214 C  
HETATM   23  C   UNL     1     -12.000  12.080  69.638  1.00  0.00    -0.360 C  
BRANCH  22  24
HETATM   24  C   UNL     1      -7.860  12.923  67.883  1.00  0.00    -0.151 C  
BRANCH  24  25
HETATM   25  C   UNL     1      -7.167  14.034  68.673  1.00  0.00    -0.114 C  
HETATM   26  C   UNL     1      -5.970  14.594  67.919  1.00  0.00    -0.151 C  
ENDBRANCH  24  25
ENDBRANCH  22  24
ENDBRANCH  11  19
ENDBRANCH   7   9
ENDBRANCH   3   4
ENDBRANCH   2   3
TORSDOF 6
ENDMDL
MODEL      126
REMARK 921   NORMALIZED FREE ENERGY PREDICTED BY IDOCK:   -3.34 KCAL/MOL
REMARK 922        TOTAL FREE ENERGY PREDICTED BY IDOCK:   -5.30 KCAL/MOL
REMARK 923 INTER-LIGAND FREE ENERGY PREDICTED BY IDOCK:   -4.76 KCAL/MOL
REMARK 924 INTRA-LIGAND FREE ENERGY PREDICTED BY IDOCK:   -0.53 KCAL/MOL
REMARK 927      BINDING AFFINITY PREDICTED BY RF-SCORE:    0.00 PKD
ROOT
HETATM    1  C   UNL     1     -10.515  11.232  65.268  1.00  0.00    -0.341 C  
HETATM    2  C   UNL     1      -9.817  10.522  64.116  1.00  0.00    -0.401 C  
ENDROOT
BRANCH   2   3
HETATM    3  C   UNL     1      -8.998   9.344  64.633  1.00  0.00    -0.233 C  
BRANCH   3   4
HETATM    4  C   UNL     1      -9.265   9.065  66.114  1.00  0.00    -0.272 C  
HETATM    5  C   UNL     1      -8.994   7.595  66.492  1.00  0.00    -0.187 C  
HETATM    6  C   UNL     1      -7.551   7.114  66.203  1.00  0.00    -0.092 C  
HETATM    7  C   UNL     1      -9.352   7.313  67.971  1.00  0.00    -0.130 C  
HETATM    8  C   UNL     1      -6.462   7.778  67.034  1.00  0.00    -0.055 C  
BRANCH   7   9
HETATM    9  N   UNL     1     -10.759   7.496  68.345  1.00  0.00    -0.123 NA 
HETATM   10  C   UNL     1     -11.140   6.789  69.566  1.00  0.00    -0.273 C  
HETATM   11  N   UNL     1     -10.419   7.316  70.727  1.00  0.00    -0.211 NA 
HETATM   12  C   UNL     1     -10.827   8.725  70.953  1.00  0.00    -0.238 C  
HETATM   13  H1  UNL     1     -11.312  11.516  69.101  1.00  0.00     0.000 HD 
HETATM   14  C   UNL     1     -10.639   9.661  69.726  1.00  0.00    -0.242 C  
HETATM   15  H2  UNL     1     -11.217  11.372  70.784  1.00  0.00     0.000 HD 
HETATM   16  C   UNL     1      -9.180  10.133  69.605  1.00  0.00    -0.206 C  
HETATM   17  N   UNL     1     -11.436  10.902  69.906  1.00  0.00    -0.296 NA 
HETATM   18  C   UNL     1     -11.142   8.915  68.456  1.00  0.00     0.251 C  
BRANCH  11  19
HETATM   19  C   UNL     1     -10.736   6.550  71.952  1.00  0.00    -0.219 C  
HETATM   20  C   UNL     1      -8.362   6.660  72.991  1.00  0.00    -0.122 C  
HETATM   21  C   UNL     1      -9.586   5.782  72.657  1.00  0.00    -0.165 C  
HETATM   22  C   UNL     1     -10.127   5.053  73.915  1.00  0.00    -0.227 C  
HETATM   23  C   UNL     1      -8.558   7.709  74.077  1.00  0.00    -0.297 C  
BRANCH  22  24
HETATM   24  C   UNL     1     -11.255   4.037  73.656  1.00  0.00    -0.305 C  
BRANCH  24  25
HETATM   25  C   UNL     1     -10.762   2.601  73.475  1.00  0.00    -0.277 C  
HETATM   26  C   UNL     1      -9.486   2.343  74.264  1.00  0.00    -0.105 C  
ENDBRANCH  24  25
ENDBRANCH  22  24
ENDBRANCH  11  19
ENDBRANCH   7   9
ENDBRANCH   3   4
ENDBRANCH   2   3
TORSDOF 6
ENDMDL
MODEL      127
REMARK 921   NORMALIZED FREE ENERGY PREDICTED BY IDOCK:   -3.32 KCAL/MOL
REMARK 922        TOTAL FREE ENERGY PREDICTED BY IDOCK:   -5.27 KCAL/MOL
REMARK 923 INTER-LIGAND FREE ENERGY PREDICTED BY IDOCK:   -4.20 KCAL/MOL
REMARK 924 INTRA-LIGAND FREE ENERGY PREDICTED BY IDOCK:   -1.07 KCAL/MOL
REMARK 927      BINDING AFFINITY PREDICTED BY RF-SCORE:    0.00 PKD
ROOT
HETATM    1  C   UNL     1      -7.560   4.866  73.585  1.00  0.00    -0.091 C  
HETATM    2  C   UNL     1      -9.019   5.202  73.310  1.00  0.00    -0.120 C  
ENDROOT
BRANCH   2   3
HETATM    3  C   UNL     1      -9.253   5.380  71.814  1.00  0.00    -0.160 C  
BRANCH   3   4
HETATM    4  C   UNL     1      -9.351   6.855  71.420  1.00  0.00    -0.156 C  
HETATM    5  C   UNL     1     -10.270   7.078  70.203  1.00  0.00    -0.206 C  
HETATM    6  C   UNL     1     -11.722   6.573  70.394  1.00  0.00    -0.439 C  
HETATM    7  C   UNL     1     -10.287   8.563  69.767  1.00  0.00    -0.212 C  
HETATM    8  C   UNL     1     -12.537   7.312  71.445  1.00  0.00    -0.423 C  
BRANCH   7   9
HETATM    9  N   UNL     1      -9.006   9.123  69.320  1.00  0.00    -0.141 NA 
HETATM   10  C   UNL     1      -8.384   8.371  68.232  1.00  0.00    -0.131 C  
HETATM   11  N   UNL     1      -9.206   8.420  67.020  1.00  0.00    -0.145 NA 
HETATM   12  C   UNL     1      -9.273   9.821  66.534  1.00  0.00    -0.156 C  
HETATM   13  H1  UNL     1      -9.772  12.901  67.845  1.00  0.00     0.000 HD 
HETATM   14  C   UNL     1      -9.788  10.848  67.581  1.00  0.00    -0.171 C  
HETATM   15  H2  UNL     1      -9.770  12.436  66.218  1.00  0.00     0.000 HD 
HETATM   16  C   UNL     1     -11.323  10.834  67.665  1.00  0.00    -0.328 C  
HETATM   17  N   UNL     1      -9.433  12.227  67.157  1.00  0.00    -0.191 NA 
HETATM   18  C   UNL     1      -9.103  10.545  68.946  1.00  0.00    -0.177 C  
BRANCH  11  19
HETATM   19  C   UNL     1      -8.624   7.593  65.940  1.00  0.00    -0.148 C  
HETATM   20  C   UNL     1      -9.376   5.299  66.890  1.00  0.00    -0.127 C  
HETATM   21  C   UNL     1      -8.232   6.127  66.268  1.00  0.00    -0.116 C  
HETATM   22  C   UNL     1      -7.650   5.439  65.005  1.00  0.00    -0.080 C  
HETATM   23  C   UNL     1     -10.544   4.962  65.973  1.00  0.00    -0.312 C  
BRANCH  22  24
HETATM   24  C   UNL     1      -6.405   6.113  64.400  1.00  0.00    -0.030 C  
BRANCH  24  25
HETATM   25  C   UNL     1      -6.476   6.293  62.883  1.00  0.00    -0.033 C  
HETATM   26  C   UNL     1      -7.914   6.295  62.386  1.00  0.00    -0.104 C  
ENDBRANCH  24  25
ENDBRANCH  22  24
ENDBRANCH  11  19
ENDBRANCH   7   9
ENDBRANCH   3   4
ENDBRANCH   2   3
TORSDOF 6
ENDMDL
MODEL      128
REMARK 921   NORMALIZED FREE ENERGY PREDICTED BY IDOCK:   -3.31 KCAL/MOL
REMARK 922        TOTAL FREE ENERGY PREDICTED BY IDOCK:   -5.26 KCAL/MOL
REMARK 923 INTER-LIGAND FREE ENERGY PREDICTED BY IDOCK:   -4.17 KCAL/MOL
REMARK 924 INTRA-LIGAND FREE ENERGY PREDICTED BY IDOCK:   -1.09 KCAL/MOL
REMARK 927      BINDING AFFINITY PREDICTED BY RF-SCORE:    0.00 PKD
ROOT
HETATM    1  C   UNL     1      -8.194   5.669  65.795  1.00  0.00    -0.122 C  
HETATM    2  C   UNL     1      -9.108   5.339  66.967  1.00  0.00    -0.112 C  
ENDROOT
BRANCH   2   3
HETATM    3  C   UNL     1      -8.653   4.057  67.654  1.00  0.00    -0.110 C  
BRANCH   3   4
HETATM    4  C   UNL     1      -7.849   4.341  68.925  1.00  0.00    -0.069 C  
HETATM    5  C   UNL     1      -8.745   4.763  70.105  1.00  0.00    -0.121 C  
HETATM    6  C   UNL     1      -9.831   3.728  70.490  1.00  0.00    -0.147 C  
HETATM    7  C   UNL     1      -7.908   5.130  71.354  1.00  0.00    -0.107 C  
HETATM    8  C   UNL     1      -9.309   2.412  71.047  1.00  0.00    -0.212 C  
BRANCH   7   9
HETATM    9  N   UNL     1      -6.993   6.269  71.211  1.00  0.00    -0.070 NA 
HETATM   10  C   UNL     1      -7.620   7.459  70.639  1.00  0.00    -0.086 C  
HETATM   11  N   UNL     1      -8.661   7.982  71.527  1.00  0.00    -0.127 NA 
HETATM   12  C   UNL     1      -8.037   8.443  72.791  1.00  0.00    -0.105 C  
HETATM   13  H1  UNL     1      -5.737   7.312  75.001  1.00  0.00     0.000 HD 
HETATM   14  C   UNL     1      -7.187   7.368  73.526  1.00  0.00    -0.084 C  
HETATM   15  H2  UNL     1      -6.810   8.609  75.170  1.00  0.00     0.000 HD 
HETATM   16  C   UNL     1      -8.079   6.421  74.346  1.00  0.00    -0.127 C  
HETATM   17  N   UNL     1      -6.293   8.018  74.518  1.00  0.00    -0.103 NA 
HETATM   18  C   UNL     1      -6.319   6.622  72.472  1.00  0.00    -0.054 C  
BRANCH  11  19
HETATM   19  C   UNL     1      -9.358   9.137  70.917  1.00  0.00    -0.269 C  
HETATM   20  C   UNL     1     -11.748   8.136  71.039  1.00  0.00    -0.295 C  
HETATM   21  C   UNL     1     -10.702   8.881  70.184  1.00  0.00    -0.245 C  
HETATM   22  C   UNL     1     -11.265  10.215  69.626  1.00  0.00    -0.310 C  
HETATM   23  C   UNL     1     -12.338   8.909  72.211  1.00  0.00    -0.430 C  
BRANCH  22  24
HETATM   24  C   UNL     1     -10.346  10.957  68.638  1.00  0.00    -0.206 C  
BRANCH  24  25
HETATM   25  C   UNL     1     -10.675  10.688  67.169  1.00  0.00    -0.327 C  
HETATM   26  C   UNL     1     -10.140   9.339  66.713  1.00  0.00    -0.331 C  
ENDBRANCH  24  25
ENDBRANCH  22  24
ENDBRANCH  11  19
ENDBRANCH   7   9
ENDBRANCH   3   4
ENDBRANCH   2   3
TORSDOF 6
ENDMDL
MODEL      129
REMARK 921   NORMALIZED FREE ENERGY PREDICTED BY IDOCK:   -3.30 KCAL/MOL
REMARK 922        TOTAL FREE ENERGY PREDICTED BY IDOCK:   -5.25 KCAL/MOL
REMARK 923 INTER-LIGAND FREE ENERGY PREDICTED BY IDOCK:   -4.91 KCAL/MOL
REMARK 924 INTRA-LIGAND FREE ENERGY PREDICTED BY IDOCK:   -0.34 KCAL/MOL
REMARK 927      BINDING AFFINITY PREDICTED BY RF-SCORE:    0.00 PKD
ROOT
HETATM    1  C   UNL     1      -9.443  17.712  66.862  1.00  0.00    -0.278 C  
HETATM    2  C   UNL     1      -8.544  16.536  66.508  1.00  0.00    -0.321 C  
ENDROOT
BRANCH   2   3
HETATM    3  C   UNL     1      -8.418  15.585  67.693  1.00  0.00    -0.177 C  
BRANCH   3   4
HETATM    4  C   UNL     1      -8.767  14.144  67.312  1.00  0.00    -0.229 C  
HETATM    5  C   UNL     1      -9.592  13.432  68.401  1.00  0.00    -0.188 C  
HETATM    6  C   UNL     1     -10.927  14.132  68.756  1.00  0.00    -0.275 C  
HETATM    7  C   UNL     1      -9.859  11.952  68.037  1.00  0.00    -0.190 C  
HETATM    8  C   UNL     1     -11.968  14.153  67.646  1.00  0.00    -0.405 C  
BRANCH   7   9
HETATM    9  N   UNL     1      -8.677  11.092  67.903  1.00  0.00    -0.132 NA 
HETATM   10  C   UNL     1      -8.772   9.842  68.654  1.00  0.00    -0.122 C  
HETATM   11  N   UNL     1      -9.853   8.999  68.139  1.00  0.00    -0.160 NA 
HETATM   12  C   UNL     1      -9.531   8.592  66.749  1.00  0.00    -0.194 C  
HETATM   13  H1  UNL     1      -8.369  10.046  63.923  1.00  0.00     0.000 HD 
HETATM   14  C   UNL     1      -9.251   9.770  65.775  1.00  0.00    -0.191 C  
HETATM   15  H2  UNL     1      -9.065   8.515  64.109  1.00  0.00     0.000 HD 
HETATM   16  C   UNL     1     -10.561  10.389  65.259  1.00  0.00    -0.064 C  
HETATM   17  N   UNL     1      -8.552   9.272  64.562  1.00  0.00    -0.189 NA 
HETATM   18  C   UNL     1      -8.338  10.801  66.500  1.00  0.00    -0.146 C  
BRANCH  11  19
HETATM   19  C   UNL     1     -10.010   7.769  68.947  1.00  0.00    -0.182 C  
HETATM   20  C   UNL     1      -9.839   8.917  71.267  1.00  0.00    -0.361 C  
HETATM   21  C   UNL     1      -9.393   7.742  70.372  1.00  0.00    -0.160 C  
HETATM   22  C   UNL     1      -9.673   6.373  71.045  1.00  0.00    -0.192 C  
HETATM   23  C   UNL     1     -11.295   8.916  71.711  1.00  0.00    -0.431 C  
BRANCH  22  24
HETATM   24  C   UNL     1      -9.128   5.144  70.295  1.00  0.00    -0.164 C  
BRANCH  24  25
HETATM   25  C   UNL     1      -7.700   4.764  70.690  1.00  0.00    -0.065 C  
HETATM   26  C   UNL     1      -7.410   5.108  72.143  1.00  0.00    -0.091 C  
ENDBRANCH  24  25
ENDBRANCH  22  24
ENDBRANCH  11  19
ENDBRANCH   7   9
ENDBRANCH   3   4
ENDBRANCH   2   3
TORSDOF 6
ENDMDL
MODEL      130
REMARK 921   NORMALIZED FREE ENERGY PREDICTED BY IDOCK:   -3.29 KCAL/MOL
REMARK 922        TOTAL FREE ENERGY PREDICTED BY IDOCK:   -5.24 KCAL/MOL
REMARK 923 INTER-LIGAND FREE ENERGY PREDICTED BY IDOCK:   -5.02 KCAL/MOL
REMARK 924 INTRA-LIGAND FREE ENERGY PREDICTED BY IDOCK:   -0.22 KCAL/MOL
REMARK 927      BINDING AFFINITY PREDICTED BY RF-SCORE:    0.00 PKD
ROOT
HETATM    1  C   UNL     1      -6.554   8.350  64.827  1.00  0.00    -0.068 C  
HETATM    2  C   UNL     1      -5.942   6.964  64.684  1.00  0.00    -0.036 C  
ENDROOT
BRANCH   2   3
HETATM    3  C   UNL     1      -6.927   5.895  65.146  1.00  0.00    -0.059 C  
BRANCH   3   4
HETATM    4  C   UNL     1      -7.355   6.099  66.601  1.00  0.00    -0.082 C  
HETATM    5  C   UNL     1      -8.875   6.312  66.741  1.00  0.00    -0.126 C  
HETATM    6  C   UNL     1      -9.740   5.155  66.182  1.00  0.00    -0.192 C  
HETATM    7  C   UNL     1      -9.277   6.602  68.206  1.00  0.00    -0.121 C  
HETATM    8  C   UNL     1      -9.616   3.831  66.922  1.00  0.00    -0.207 C  
BRANCH   7   9
HETATM    9  N   UNL     1      -8.716   7.820  68.804  1.00  0.00    -0.129 NA 
HETATM   10  C   UNL     1      -8.983   9.031  68.031  1.00  0.00    -0.132 C  
HETATM   11  N   UNL     1     -10.419   9.318  67.981  1.00  0.00    -0.222 NA 
HETATM   12  C   UNL     1     -10.902   9.620  69.351  1.00  0.00    -0.217 C  
HETATM   13  H1  UNL     1     -10.550   8.342  72.465  1.00  0.00     0.000 HD 
HETATM   14  C   UNL     1     -10.606   8.514  70.403  1.00  0.00    -0.223 C  
HETATM   15  H2  UNL     1     -11.655   9.501  71.922  1.00  0.00     0.000 HD 
HETATM   16  C   UNL     1     -11.639   7.378  70.321  1.00  0.00    -0.155 C  
HETATM   17  N   UNL     1     -10.744   9.068  71.775  1.00  0.00    -0.361 NA 
HETATM   18  C   UNL     1      -9.144   8.021  70.200  1.00  0.00    -0.151 C  
BRANCH  11  19
HETATM   19  C   UNL     1     -10.704  10.495  67.130  1.00  0.00    -0.265 C  
HETATM   20  C   UNL     1      -8.951  12.073  68.210  1.00  0.00    -0.186 C  
HETATM   21  C   UNL     1     -10.398  11.906  67.699  1.00  0.00    -0.217 C  
HETATM   22  C   UNL     1     -10.763  12.991  66.652  1.00  0.00    -0.285 C  
HETATM   23  C   UNL     1      -7.856  12.073  67.152  1.00  0.00    -0.168 C  
BRANCH  22  24
HETATM   24  C   UNL     1     -12.232  13.000  66.195  1.00  0.00    -0.428 C  
BRANCH  24  25
HETATM   25  C   UNL     1     -12.417  12.710  64.705  1.00  0.00    -0.538 C  
HETATM   26  C   UNL     1     -11.117  12.890  63.934  1.00  0.00    -0.454 C  
ENDBRANCH  24  25
ENDBRANCH  22  24
ENDBRANCH  11  19
ENDBRANCH   7   9
ENDBRANCH   3   4
ENDBRANCH   2   3
TORSDOF 6
ENDMDL
MODEL      131
REMARK 921   NORMALIZED FREE ENERGY PREDICTED BY IDOCK:   -3.28 KCAL/MOL
REMARK 922        TOTAL FREE ENERGY PREDICTED BY IDOCK:   -5.22 KCAL/MOL
REMARK 923 INTER-LIGAND FREE ENERGY PREDICTED BY IDOCK:   -4.92 KCAL/MOL
REMARK 924 INTRA-LIGAND FREE ENERGY PREDICTED BY IDOCK:   -0.30 KCAL/MOL
REMARK 927      BINDING AFFINITY PREDICTED BY RF-SCORE:    0.00 PKD
ROOT
HETATM    1  C   UNL     1      -9.480   3.253  69.976  1.00  0.00    -0.231 C  
HETATM    2  C   UNL     1      -9.276   3.705  68.537  1.00  0.00    -0.220 C  
ENDROOT
BRANCH   2   3
HETATM    3  C   UNL     1      -9.822   5.115  68.338  1.00  0.00    -0.211 C  
BRANCH   3   4
HETATM    4  C   UNL     1      -8.730   6.099  67.913  1.00  0.00    -0.113 C  
HETATM    5  C   UNL     1      -8.522   7.227  68.943  1.00  0.00    -0.126 C  
HETATM    6  C   UNL     1      -8.149   6.737  70.364  1.00  0.00    -0.116 C  
HETATM    7  C   UNL     1      -7.477   8.258  68.455  1.00  0.00    -0.096 C  
HETATM    8  C   UNL     1      -6.795   6.053  70.484  1.00  0.00    -0.054 C  
BRANCH   7   9
HETATM    9  N   UNL     1      -7.811   8.990  67.227  1.00  0.00    -0.099 NA 
HETATM   10  C   UNL     1      -9.058   9.748  67.316  1.00  0.00    -0.134 C  
HETATM   11  N   UNL     1      -8.957  10.812  68.317  1.00  0.00    -0.137 NA 
HETATM   12  C   UNL     1      -7.936  11.796  67.880  1.00  0.00    -0.141 C  
HETATM   13  H1  UNL     1      -4.808  11.748  66.592  1.00  0.00     0.000 HD 
HETATM   14  C   UNL     1      -6.534  11.192  67.588  1.00  0.00    -0.065 C  
HETATM   15  H2  UNL     1      -5.664  13.061  67.226  1.00  0.00     0.000 HD 
HETATM   16  C   UNL     1      -5.736  10.985  68.886  1.00  0.00    -0.039 C  
HETATM   17  N   UNL     1      -5.728  12.145  66.783  1.00  0.00    -0.291 NA 
HETATM   18  C   UNL     1      -6.724   9.877  66.777  1.00  0.00    -0.079 C  
BRANCH  11  19
HETATM   19  C   UNL     1     -10.242  11.529  68.472  1.00  0.00    -0.213 C  
HETATM   20  C   UNL     1     -10.162  12.774  66.198  1.00  0.00    -0.286 C  
HETATM   21  C   UNL     1     -10.432  12.870  67.714  1.00  0.00    -0.225 C  
HETATM   22  C   UNL     1     -11.840  13.452  68.007  1.00  0.00    -0.392 C  
HETATM   23  C   UNL     1     -11.166  11.972  65.381  1.00  0.00    -0.374 C  
BRANCH  22  24
HETATM   24  C   UNL     1     -12.144  13.727  69.491  1.00  0.00    -0.386 C  
BRANCH  24  25
HETATM   25  C   UNL     1     -11.882  15.172  69.918  1.00  0.00    -0.363 C  
HETATM   26  C   UNL     1     -12.705  15.554  71.139  1.00  0.00    -0.525 C  
ENDBRANCH  24  25
ENDBRANCH  22  24
ENDBRANCH  11  19
ENDBRANCH   7   9
ENDBRANCH   3   4
ENDBRANCH   2   3
TORSDOF 6
ENDMDL
MODEL      132
REMARK 921   NORMALIZED FREE ENERGY PREDICTED BY IDOCK:   -3.25 KCAL/MOL
REMARK 922        TOTAL FREE ENERGY PREDICTED BY IDOCK:   -5.18 KCAL/MOL
REMARK 923 INTER-LIGAND FREE ENERGY PREDICTED BY IDOCK:   -4.06 KCAL/MOL
REMARK 924 INTRA-LIGAND FREE ENERGY PREDICTED BY IDOCK:   -1.12 KCAL/MOL
REMARK 927      BINDING AFFINITY PREDICTED BY RF-SCORE:    0.00 PKD
ROOT
HETATM    1  C   UNL     1      -5.367   4.043  74.559  1.00  0.00    -0.004 C  
HETATM    2  C   UNL     1      -6.395   2.954  74.288  1.00  0.00    -0.020 C  
ENDROOT
BRANCH   2   3
HETATM    3  C   UNL     1      -7.249   3.315  73.078  1.00  0.00    -0.046 C  
BRANCH   3   4
HETATM    4  C   UNL     1      -8.284   4.394  73.406  1.00  0.00    -0.095 C  
HETATM    5  C   UNL     1      -9.467   4.393  72.418  1.00  0.00    -0.182 C  
HETATM    6  C   UNL     1     -10.236   3.051  72.338  1.00  0.00    -0.200 C  
HETATM    7  C   UNL     1     -10.457   5.545  72.715  1.00  0.00    -0.212 C  
HETATM    8  C   UNL     1     -10.982   2.650  73.602  1.00  0.00    -0.312 C  
BRANCH   7   9
HETATM    9  N   UNL     1      -9.924   6.907  72.591  1.00  0.00    -0.168 NA 
HETATM   10  C   UNL     1      -9.170   7.134  71.360  1.00  0.00    -0.150 C  
HETATM   11  N   UNL     1     -10.033   7.009  70.183  1.00  0.00    -0.182 NA 
HETATM   12  C   UNL     1     -11.055   8.084  70.214  1.00  0.00    -0.224 C  
HETATM   13  H1  UNL     1     -13.151   9.477  72.477  1.00  0.00     0.000 HD 
HETATM   14  C   UNL     1     -11.910   8.131  71.512  1.00  0.00    -0.294 C  
HETATM   15  H2  UNL     1     -13.142   9.665  70.796  1.00  0.00     0.000 HD 
HETATM   16  C   UNL     1     -13.045   7.093  71.468  1.00  0.00    -0.427 C  
HETATM   17  N   UNL     1     -12.590   9.447  71.625  1.00  0.00    -0.349 NA 
HETATM   18  C   UNL     1     -10.963   7.942  72.732  1.00  0.00    -0.393 C  
BRANCH  11  19
HETATM   19  C   UNL     1      -9.260   7.154  68.929  1.00  0.00    -0.137 C  
HETATM   20  C   UNL     1      -8.793   4.627  68.578  1.00  0.00    -0.123 C  
HETATM   21  C   UNL     1      -8.218   6.059  68.578  1.00  0.00    -0.110 C  
HETATM   22  C   UNL     1      -7.527   6.397  67.231  1.00  0.00    -0.088 C  
HETATM   23  C   UNL     1      -9.775   4.292  67.464  1.00  0.00    -0.198 C  
BRANCH  22  24
HETATM   24  C   UNL     1      -6.792   7.749  67.187  1.00  0.00    -0.069 C  
BRANCH  24  25
HETATM   25  C   UNL     1      -5.787   7.942  68.324  1.00  0.00    -0.036 C  
HETATM   26  C   UNL     1      -6.111   9.176  69.153  1.00  0.00    -0.042 C  
ENDBRANCH  24  25
ENDBRANCH  22  24
ENDBRANCH  11  19
ENDBRANCH   7   9
ENDBRANCH   3   4
ENDBRANCH   2   3
TORSDOF 6
ENDMDL
MODEL      133
REMARK 921   NORMALIZED FREE ENERGY PREDICTED BY IDOCK:   -3.25 KCAL/MOL
REMARK 922        TOTAL FREE ENERGY PREDICTED BY IDOCK:   -5.18 KCAL/MOL
REMARK 923 INTER-LIGAND FREE ENERGY PREDICTED BY IDOCK:   -5.45 KCAL/MOL
REMARK 924 INTRA-LIGAND FREE ENERGY PREDICTED BY IDOCK:    0.27 KCAL/MOL
REMARK 927      BINDING AFFINITY PREDICTED BY RF-SCORE:    0.00 PKD
ROOT
HETATM    1  C   UNL     1     -13.411   7.008  71.278  1.00  0.00    -0.282 C  
HETATM    2  C   UNL     1     -12.111   7.059  72.069  1.00  0.00    -0.329 C  
ENDROOT
BRANCH   2   3
HETATM    3  C   UNL     1     -11.186   5.922  71.649  1.00  0.00    -0.300 C  
BRANCH   3   4
HETATM    4  C   UNL     1     -10.249   6.333  70.511  1.00  0.00    -0.240 C  
HETATM    5  C   UNL     1      -9.469   7.624  70.830  1.00  0.00    -0.166 C  
HETATM    6  C   UNL     1      -8.604   7.550  72.112  1.00  0.00    -0.137 C  
HETATM    7  C   UNL     1      -8.595   8.071  69.635  1.00  0.00    -0.135 C  
HETATM    8  C   UNL     1      -7.437   6.575  72.056  1.00  0.00    -0.092 C  
BRANCH   7   9
HETATM    9  N   UNL     1      -9.310   8.414  68.400  1.00  0.00    -0.135 NA 
HETATM   10  C   UNL     1     -10.360   9.414  68.587  1.00  0.00    -0.203 C  
HETATM   11  N   UNL     1      -9.796  10.698  69.009  1.00  0.00    -0.201 NA 
HETATM   12  C   UNL     1      -8.941  11.234  67.922  1.00  0.00    -0.146 C  
HETATM   13  H1  UNL     1      -6.558  10.081  65.815  1.00  0.00     0.000 HD 
HETATM   14  C   UNL     1      -7.813  10.275  67.449  1.00  0.00    -0.102 C  
HETATM   15  H2  UNL     1      -6.994  11.683  66.134  1.00  0.00     0.000 HD 
HETATM   16  C   UNL     1      -6.600  10.336  68.393  1.00  0.00    -0.056 C  
HETATM   17  N   UNL     1      -7.298  10.710  66.125  1.00  0.00    -0.135 NA 
HETATM   18  C   UNL     1      -8.408   8.843  67.317  1.00  0.00    -0.104 C  
BRANCH  11  19
HETATM   19  C   UNL     1     -10.859  11.690  69.282  1.00  0.00    -0.152 C  
HETATM   20  C   UNL     1     -10.643  12.979  67.042  1.00  0.00    -0.262 C  
HETATM   21  C   UNL     1     -10.776  13.070  68.576  1.00  0.00    -0.275 C  
HETATM   22  C   UNL     1     -11.982  13.953  68.993  1.00  0.00    -0.402 C  
HETATM   23  C   UNL     1     -11.864  12.472  66.285  1.00  0.00    -0.453 C  
BRANCH  22  24
HETATM   24  C   UNL     1     -12.109  14.227  70.503  1.00  0.00    -0.413 C  
BRANCH  24  25
HETATM   25  C   UNL     1     -11.363  15.479  70.968  1.00  0.00    -0.421 C  
HETATM   26  C   UNL     1     -11.096  16.433  69.813  1.00  0.00    -0.305 C  
ENDBRANCH  24  25
ENDBRANCH  22  24
ENDBRANCH  11  19
ENDBRANCH   7   9
ENDBRANCH   3   4
ENDBRANCH   2   3
TORSDOF 6
ENDMDL
MODEL      134
REMARK 921   NORMALIZED FREE ENERGY PREDICTED BY IDOCK:   -3.23 KCAL/MOL
REMARK 922        TOTAL FREE ENERGY PREDICTED BY IDOCK:   -5.16 KCAL/MOL
REMARK 923 INTER-LIGAND FREE ENERGY PREDICTED BY IDOCK:   -4.20 KCAL/MOL
REMARK 924 INTRA-LIGAND FREE ENERGY PREDICTED BY IDOCK:   -0.95 KCAL/MOL
REMARK 927      BINDING AFFINITY PREDICTED BY RF-SCORE:    0.00 PKD
ROOT
HETATM    1  C   UNL     1     -12.732  11.431  71.212  1.00  0.00    -0.498 C  
HETATM    2  C   UNL     1     -12.185  10.937  69.880  1.00  0.00    -0.408 C  
ENDROOT
BRANCH   2   3
HETATM    3  C   UNL     1     -10.801  10.324  70.066  1.00  0.00    -0.364 C  
BRANCH   3   4
HETATM    4  C   UNL     1     -10.861   8.800  70.193  1.00  0.00    -0.241 C  
HETATM    5  C   UNL     1      -9.463   8.169  70.342  1.00  0.00    -0.163 C  
HETATM    6  C   UNL     1      -8.652   8.684  71.557  1.00  0.00    -0.256 C  
HETATM    7  C   UNL     1      -9.537   6.624  70.382  1.00  0.00    -0.165 C  
HETATM    8  C   UNL     1      -9.221   8.325  72.922  1.00  0.00    -0.329 C  
BRANCH   7   9
HETATM    9  N   UNL     1     -10.069   5.968  69.181  1.00  0.00    -0.167 NA 
HETATM   10  C   UNL     1      -9.782   6.689  67.942  1.00  0.00    -0.122 C  
HETATM   11  N   UNL     1      -8.341   6.734  67.682  1.00  0.00    -0.122 NA 
HETATM   12  C   UNL     1      -7.844   5.356  67.452  1.00  0.00    -0.101 C  
HETATM   13  H1  UNL     1      -8.205   2.301  68.862  1.00  0.00     0.000 HD 
HETATM   14  C   UNL     1      -8.157   4.352  68.598  1.00  0.00    -0.077 C  
HETATM   15  H2  UNL     1      -7.079   2.798  67.701  1.00  0.00     0.000 HD 
HETATM   16  C   UNL     1      -7.148   4.493  69.750  1.00  0.00    -0.050 C  
HETATM   17  N   UNL     1      -8.000   2.958  68.110  1.00  0.00    -0.061 NA 
HETATM   18  C   UNL     1      -9.630   4.568  69.052  1.00  0.00    -0.175 C  
BRANCH  11  19
HETATM   19  C   UNL     1      -8.037   7.534  66.474  1.00  0.00    -0.120 C  
HETATM   20  C   UNL     1      -7.981   9.843  67.655  1.00  0.00    -0.109 C  
HETATM   21  C   UNL     1      -8.478   9.022  66.447  1.00  0.00    -0.126 C  
HETATM   22  C   UNL     1      -8.061   9.675  65.103  1.00  0.00    -0.124 C  
HETATM   23  C   UNL     1      -6.483  10.110  67.722  1.00  0.00    -0.062 C  
BRANCH  22  24
HETATM   24  C   UNL     1      -8.639   9.011  63.840  1.00  0.00    -0.151 C  
BRANCH  24  25
HETATM   25  C   UNL     1      -7.592   8.296  62.984  1.00  0.00    -0.123 C  
HETATM   26  C   UNL     1      -6.183   8.764  63.316  1.00  0.00    -0.089 C  
ENDBRANCH  24  25
ENDBRANCH  22  24
ENDBRANCH  11  19
ENDBRANCH   7   9
ENDBRANCH   3   4
ENDBRANCH   2   3
TORSDOF 6
ENDMDL
MODEL      135
REMARK 921   NORMALIZED FREE ENERGY PREDICTED BY IDOCK:   -3.23 KCAL/MOL
REMARK 922        TOTAL FREE ENERGY PREDICTED BY IDOCK:   -5.16 KCAL/MOL
REMARK 923 INTER-LIGAND FREE ENERGY PREDICTED BY IDOCK:   -5.09 KCAL/MOL
REMARK 924 INTRA-LIGAND FREE ENERGY PREDICTED BY IDOCK:   -0.07 KCAL/MOL
REMARK 927      BINDING AFFINITY PREDICTED BY RF-SCORE:    0.00 PKD
ROOT
HETATM    1  C   UNL     1     -11.867  10.275  70.008  1.00  0.00    -0.305 C  
HETATM    2  C   UNL     1     -11.914  11.216  68.812  1.00  0.00    -0.337 C  
ENDROOT
BRANCH   2   3
HETATM    3  C   UNL     1     -10.562  11.255  68.109  1.00  0.00    -0.225 C  
BRANCH   3   4
HETATM    4  C   UNL     1      -9.975  12.668  68.071  1.00  0.00    -0.220 C  
HETATM    5  C   UNL     1     -10.017  13.283  66.658  1.00  0.00    -0.272 C  
HETATM    6  C   UNL     1     -11.433  13.374  66.040  1.00  0.00    -0.351 C  
HETATM    7  C   UNL     1      -9.341  14.674  66.623  1.00  0.00    -0.271 C  
HETATM    8  C   UNL     1     -12.392  14.325  66.741  1.00  0.00    -0.280 C  
BRANCH   7   9
HETATM    9  N   UNL     1      -7.912  14.711  66.957  1.00  0.00    -0.148 NA 
HETATM   10  C   UNL     1      -7.272  15.991  66.660  1.00  0.00     0.011 C  
HETATM   11  N   UNL     1      -7.831  17.063  67.488  1.00  0.00    -0.168 NA 
HETATM   12  C   UNL     1      -7.516  16.793  68.912  1.00  0.00    -0.240 C  
HETATM   13  H1  UNL     1      -7.593  14.158  71.034  1.00  0.00     0.000 HD 
HETATM   14  C   UNL     1      -7.988  15.405  69.430  1.00  0.00    -0.234 C  
HETATM   15  H2  UNL     1      -7.392  15.798  71.399  1.00  0.00     0.000 HD 
HETATM   16  C   UNL     1      -9.482  15.427  69.795  1.00  0.00    -0.156 C  
HETATM   17  N   UNL     1      -7.283  15.068  70.694  1.00  0.00     0.517 NA 
HETATM   18  C   UNL     1      -7.641  14.335  68.355  1.00  0.00    -0.124 C  
BRANCH  11  19
HETATM   19  C   UNL     1      -7.248  18.376  67.134  1.00  0.00    -0.204 C  
HETATM   20  C   UNL     1      -9.416  19.407  66.151  1.00  0.00    -0.361 C  
HETATM   21  C   UNL     1      -7.899  19.183  65.979  1.00  0.00    -0.254 C  
HETATM   22  C   UNL     1      -7.143  20.523  65.776  1.00  0.00    -0.175 C  
HETATM   23  C   UNL     1      -9.838  20.345  67.274  1.00  0.00    -0.597 C  
BRANCH  22  24
HETATM   24  C   UNL     1      -5.645  20.392  65.446  1.00  0.00    -0.220 C  
BRANCH  24  25
HETATM   25  C   UNL     1      -5.224  21.140  64.180  1.00  0.00    -0.235 C  
HETATM   26  C   UNL     1      -5.959  20.621  62.952  1.00  0.00    -0.240 C  
ENDBRANCH  24  25
ENDBRANCH  22  24
ENDBRANCH  11  19
ENDBRANCH   7   9
ENDBRANCH   3   4
ENDBRANCH   2   3
TORSDOF 6
ENDMDL
MODEL      136
REMARK 921   NORMALIZED FREE ENERGY PREDICTED BY IDOCK:   -3.22 KCAL/MOL
REMARK 922        TOTAL FREE ENERGY PREDICTED BY IDOCK:   -5.14 KCAL/MOL
REMARK 923 INTER-LIGAND FREE ENERGY PREDICTED BY IDOCK:   -5.21 KCAL/MOL
REMARK 924 INTRA-LIGAND FREE ENERGY PREDICTED BY IDOCK:    0.08 KCAL/MOL
REMARK 927      BINDING AFFINITY PREDICTED BY RF-SCORE:    0.00 PKD
ROOT
HETATM    1  C   UNL     1     -10.093   4.401  74.564  1.00  0.00    -0.258 C  
HETATM    2  C   UNL     1      -8.812   3.719  74.104  1.00  0.00    -0.088 C  
ENDROOT
BRANCH   2   3
HETATM    3  C   UNL     1      -7.846   4.741  73.514  1.00  0.00    -0.095 C  
BRANCH   3   4
HETATM    4  C   UNL     1      -8.534   5.672  72.514  1.00  0.00    -0.117 C  
HETATM    5  C   UNL     1      -7.952   5.540  71.092  1.00  0.00    -0.111 C  
HETATM    6  C   UNL     1      -8.031   4.113  70.496  1.00  0.00    -0.055 C  
HETATM    7  C   UNL     1      -8.601   6.550  70.116  1.00  0.00    -0.140 C  
HETATM    8  C   UNL     1      -9.436   3.595  70.227  1.00  0.00    -0.257 C  
BRANCH   7   9
HETATM    9  N   UNL     1      -8.401   7.971  70.424  1.00  0.00    -0.118 NA 
HETATM   10  C   UNL     1      -8.349   8.827  69.241  1.00  0.00    -0.120 C  
HETATM   11  N   UNL     1      -9.629   8.821  68.529  1.00  0.00    -0.148 NA 
HETATM   12  C   UNL     1     -10.671   9.424  69.396  1.00  0.00    -0.217 C  
HETATM   13  H1  UNL     1     -11.663   9.216  72.625  1.00  0.00     0.000 HD 
HETATM   14  C   UNL     1     -10.822   8.754  70.791  1.00  0.00    -0.234 C  
HETATM   15  H2  UNL     1     -12.463   9.940  71.323  1.00  0.00     0.000 HD 
HETATM   16  C   UNL     1     -11.674   7.477  70.705  1.00  0.00    -0.281 C  
HETATM   17  N   UNL     1     -11.564   9.656  71.710  1.00  0.00    -0.336 NA 
HETATM   18  C   UNL     1      -9.401   8.497  71.370  1.00  0.00    -0.211 C  
BRANCH  11  19
HETATM   19  C   UNL     1      -9.558   9.618  67.284  1.00  0.00    -0.164 C  
HETATM   20  C   UNL     1      -9.685  11.948  68.419  1.00  0.00    -0.201 C  
HETATM   21  C   UNL     1     -10.191  11.036  67.282  1.00  0.00    -0.234 C  
HETATM   22  C   UNL     1     -10.004  11.698  65.891  1.00  0.00    -0.264 C  
HETATM   23  C   UNL     1      -8.237  12.408  68.323  1.00  0.00    -0.170 C  
BRANCH  22  24
HETATM   24  C   UNL     1     -10.615  10.929  64.706  1.00  0.00    -0.316 C  
BRANCH  24  25
HETATM   25  C   UNL     1     -11.001  11.821  63.525  1.00  0.00    -0.499 C  
HETATM   26  C   UNL     1     -12.511  11.966  63.402  1.00  0.00    -0.582 C  
ENDBRANCH  24  25
ENDBRANCH  22  24
ENDBRANCH  11  19
ENDBRANCH   7   9
ENDBRANCH   3   4
ENDBRANCH   2   3
TORSDOF 6
ENDMDL
MODEL      137
REMARK 921   NORMALIZED FREE ENERGY PREDICTED BY IDOCK:   -3.21 KCAL/MOL
REMARK 922        TOTAL FREE ENERGY PREDICTED BY IDOCK:   -5.13 KCAL/MOL
REMARK 923 INTER-LIGAND FREE ENERGY PREDICTED BY IDOCK:   -5.30 KCAL/MOL
REMARK 924 INTRA-LIGAND FREE ENERGY PREDICTED BY IDOCK:    0.17 KCAL/MOL
REMARK 927      BINDING AFFINITY PREDICTED BY RF-SCORE:    0.00 PKD
ROOT
HETATM    1  C   UNL     1     -13.187  15.345  71.168  1.00  0.00    -0.583 C  
HETATM    2  C   UNL     1     -12.018  14.486  70.705  1.00  0.00    -0.387 C  
ENDROOT
BRANCH   2   3
HETATM    3  C   UNL     1     -12.159  14.147  69.225  1.00  0.00    -0.364 C  
BRANCH   3   4
HETATM    4  C   UNL     1     -11.203  13.030  68.799  1.00  0.00    -0.325 C  
HETATM    5  C   UNL     1     -11.393  12.626  67.323  1.00  0.00    -0.372 C  
HETATM    6  C   UNL     1     -11.203  13.782  66.312  1.00  0.00    -0.310 C  
HETATM    7  C   UNL     1     -10.480  11.438  66.937  1.00  0.00    -0.240 C  
HETATM    8  C   UNL     1      -9.792  14.347  66.223  1.00  0.00    -0.321 C  
BRANCH   7   9
HETATM    9  N   UNL     1     -10.712  10.180  67.657  1.00  0.00    -0.267 NA 
HETATM   10  C   UNL     1     -10.368   8.988  66.883  1.00  0.00    -0.254 C  
HETATM   11  N   UNL     1      -8.933   8.944  66.594  1.00  0.00    -0.131 NA 
HETATM   12  C   UNL     1      -8.185   8.807  67.868  1.00  0.00    -0.111 C  
HETATM   13  H1  UNL     1      -8.236  10.185  70.958  1.00  0.00     0.000 HD 
HETATM   14  C   UNL     1      -8.492   9.906  68.924  1.00  0.00    -0.127 C  
HETATM   15  H2  UNL     1      -7.049   9.198  70.265  1.00  0.00     0.000 HD 
HETATM   16  C   UNL     1      -7.702  11.193  68.632  1.00  0.00    -0.135 C  
HETATM   17  N   UNL     1      -8.034   9.463  70.266  1.00  0.00    -0.144 NA 
HETATM   18  C   UNL     1     -10.031  10.134  68.962  1.00  0.00    -0.208 C  
BRANCH  11  19
HETATM   19  C   UNL     1      -8.590   7.785  65.740  1.00  0.00    -0.143 C  
HETATM   20  C   UNL     1      -9.334   5.952  67.417  1.00  0.00    -0.111 C  
HETATM   21  C   UNL     1      -8.252   6.437  66.430  1.00  0.00    -0.115 C  
HETATM   22  C   UNL     1      -7.929   5.359  65.362  1.00  0.00    -0.107 C  
HETATM   23  C   UNL     1     -10.655   5.504  66.806  1.00  0.00    -0.360 C  
BRANCH  22  24
HETATM   24  C   UNL     1      -6.755   5.692  64.423  1.00  0.00    -0.046 C  
BRANCH  24  25
HETATM   25  C   UNL     1      -6.994   5.289  62.967  1.00  0.00    -0.037 C  
HETATM   26  C   UNL     1      -8.231   5.965  62.395  1.00  0.00    -0.101 C  
ENDBRANCH  24  25
ENDBRANCH  22  24
ENDBRANCH  11  19
ENDBRANCH   7   9
ENDBRANCH   3   4
ENDBRANCH   2   3
TORSDOF 6
ENDMDL
MODEL      138
REMARK 921   NORMALIZED FREE ENERGY PREDICTED BY IDOCK:   -3.21 KCAL/MOL
REMARK 922        TOTAL FREE ENERGY PREDICTED BY IDOCK:   -5.12 KCAL/MOL
REMARK 923 INTER-LIGAND FREE ENERGY PREDICTED BY IDOCK:   -4.17 KCAL/MOL
REMARK 924 INTRA-LIGAND FREE ENERGY PREDICTED BY IDOCK:   -0.95 KCAL/MOL
REMARK 927      BINDING AFFINITY PREDICTED BY RF-SCORE:    0.00 PKD
ROOT
HETATM    1  C   UNL     1      -7.486   8.932  65.914  1.00  0.00    -0.093 C  
HETATM    2  C   UNL     1      -8.590   8.034  65.376  1.00  0.00    -0.138 C  
ENDROOT
BRANCH   2   3
HETATM    3  C   UNL     1      -8.002   6.747  64.806  1.00  0.00    -0.120 C  
BRANCH   3   4
HETATM    4  C   UNL     1      -7.418   5.850  65.900  1.00  0.00    -0.085 C  
HETATM    5  C   UNL     1      -8.507   5.245  66.808  1.00  0.00    -0.107 C  
HETATM    6  C   UNL     1      -9.568   4.401  66.061  1.00  0.00    -0.190 C  
HETATM    7  C   UNL     1      -7.891   4.413  67.957  1.00  0.00    -0.080 C  
HETATM    8  C   UNL     1      -9.052   3.119  65.424  1.00  0.00    -0.150 C  
BRANCH   7   9
HETATM    9  N   UNL     1      -7.040   5.144  68.904  1.00  0.00    -0.056 NA 
HETATM   10  C   UNL     1      -7.594   6.431  69.321  1.00  0.00    -0.099 C  
HETATM   11  N   UNL     1      -8.840   6.250  70.069  1.00  0.00    -0.141 NA 
HETATM   12  C   UNL     1      -8.549   5.528  71.331  1.00  0.00    -0.131 C  
HETATM   13  H1  UNL     1      -6.746   2.838  72.315  1.00  0.00     0.000 HD 
HETATM   14  C   UNL     1      -7.824   4.165  71.148  1.00  0.00    -0.071 C  
HETATM   15  H2  UNL     1      -7.909   3.702  73.188  1.00  0.00     0.000 HD 
HETATM   16  C   UNL     1      -8.819   3.052  70.775  1.00  0.00    -0.146 C  
HETATM   17  N   UNL     1      -7.222   3.733  72.435  1.00  0.00    -0.047 NA 
HETATM   18  C   UNL     1      -6.694   4.347  70.094  1.00  0.00    -0.033 C  
BRANCH  11  19
HETATM   19  C   UNL     1      -9.450   7.552  70.421  1.00  0.00    -0.161 C  
HETATM   20  C   UNL     1     -11.899   6.704  70.549  1.00  0.00    -0.430 C  
HETATM   21  C   UNL     1     -10.935   7.795  70.037  1.00  0.00    -0.218 C  
HETATM   22  C   UNL     1     -11.377   9.209  70.498  1.00  0.00    -0.300 C  
HETATM   23  C   UNL     1     -12.118   6.647  72.055  1.00  0.00    -0.353 C  
BRANCH  22  24
HETATM   24  C   UNL     1     -10.563  10.378  69.913  1.00  0.00    -0.299 C  
BRANCH  24  25
HETATM   25  C   UNL     1     -11.416  11.427  69.198  1.00  0.00    -0.365 C  
HETATM   26  C   UNL     1     -11.361  11.259  67.687  1.00  0.00    -0.352 C  
ENDBRANCH  24  25
ENDBRANCH  22  24
ENDBRANCH  11  19
ENDBRANCH   7   9
ENDBRANCH   3   4
ENDBRANCH   2   3
TORSDOF 6
ENDMDL
MODEL      139
REMARK 921   NORMALIZED FREE ENERGY PREDICTED BY IDOCK:   -3.18 KCAL/MOL
REMARK 922        TOTAL FREE ENERGY PREDICTED BY IDOCK:   -5.09 KCAL/MOL
REMARK 923 INTER-LIGAND FREE ENERGY PREDICTED BY IDOCK:   -5.33 KCAL/MOL
REMARK 924 INTRA-LIGAND FREE ENERGY PREDICTED BY IDOCK:    0.24 KCAL/MOL
REMARK 927      BINDING AFFINITY PREDICTED BY RF-SCORE:    0.00 PKD
ROOT
HETATM    1  C   UNL     1     -13.261  10.713  71.795  1.00  0.00    -0.526 C  
HETATM    2  C   UNL     1     -11.997   9.972  71.383  1.00  0.00    -0.470 C  
ENDROOT
BRANCH   2   3
HETATM    3  C   UNL     1     -12.019   8.542  71.914  1.00  0.00    -0.409 C  
BRANCH   3   4
HETATM    4  C   UNL     1     -10.976   7.658  71.226  1.00  0.00    -0.260 C  
HETATM    5  C   UNL     1      -9.552   8.236  71.335  1.00  0.00    -0.231 C  
HETATM    6  C   UNL     1      -9.058   8.456  72.786  1.00  0.00    -0.299 C  
HETATM    7  C   UNL     1      -8.527   7.374  70.560  1.00  0.00    -0.137 C  
HETATM    8  C   UNL     1      -8.865   7.190  73.609  1.00  0.00    -0.203 C  
BRANCH   7   9
HETATM    9  N   UNL     1      -8.731   7.271  69.110  1.00  0.00    -0.136 NA 
HETATM   10  C   UNL     1      -9.400   8.431  68.526  1.00  0.00    -0.139 C  
HETATM   11  N   UNL     1      -8.577   9.636  68.658  1.00  0.00    -0.118 NA 
HETATM   12  C   UNL     1      -7.336   9.465  67.864  1.00  0.00    -0.083 C  
HETATM   13  H1  UNL     1      -4.998   7.071  67.362  1.00  0.00     0.000 HD 
HETATM   14  C   UNL     1      -6.505   8.200  68.219  1.00  0.00    -0.055 C  
HETATM   15  H2  UNL     1      -4.947   8.702  66.914  1.00  0.00     0.000 HD 
HETATM   16  C   UNL     1      -5.640   8.435  69.468  1.00  0.00    -0.030 C  
HETATM   17  N   UNL     1      -5.542   7.902  67.128  1.00  0.00    -0.035 NA 
HETATM   18  C   UNL     1      -7.483   6.999  68.375  1.00  0.00    -0.102 C  
BRANCH  11  19
HETATM   19  C   UNL     1      -9.284  10.830  68.144  1.00  0.00    -0.151 C  
HETATM   20  C   UNL     1      -8.545  10.570  65.672  1.00  0.00    -0.182 C  
HETATM   21  C   UNL     1      -8.728  11.523  66.871  1.00  0.00    -0.181 C  
HETATM   22  C   UNL     1      -9.612  12.743  66.502  1.00  0.00    -0.257 C  
HETATM   23  C   UNL     1      -9.819  10.035  65.032  1.00  0.00    -0.374 C  
BRANCH  22  24
HETATM   24  C   UNL     1      -9.729  13.826  67.590  1.00  0.00    -0.227 C  
BRANCH  24  25
HETATM   25  C   UNL     1     -11.169  14.250  67.887  1.00  0.00    -0.305 C  
HETATM   26  C   UNL     1     -12.156  13.585  66.939  1.00  0.00    -0.417 C  
ENDBRANCH  24  25
ENDBRANCH  22  24
ENDBRANCH  11  19
ENDBRANCH   7   9
ENDBRANCH   3   4
ENDBRANCH   2   3
TORSDOF 6
ENDMDL
MODEL      140
REMARK 921   NORMALIZED FREE ENERGY PREDICTED BY IDOCK:   -3.17 KCAL/MOL
REMARK 922        TOTAL FREE ENERGY PREDICTED BY IDOCK:   -5.08 KCAL/MOL
REMARK 923 INTER-LIGAND FREE ENERGY PREDICTED BY IDOCK:   -4.41 KCAL/MOL
REMARK 924 INTRA-LIGAND FREE ENERGY PREDICTED BY IDOCK:   -0.66 KCAL/MOL
REMARK 927      BINDING AFFINITY PREDICTED BY RF-SCORE:    0.00 PKD
ROOT
HETATM    1  C   UNL     1      -6.863  10.147  65.368  1.00  0.00    -0.128 C  
HETATM    2  C   UNL     1      -6.053   8.896  65.679  1.00  0.00    -0.052 C  
ENDROOT
BRANCH   2   3
HETATM    3  C   UNL     1      -6.935   7.655  65.596  1.00  0.00    -0.060 C  
BRANCH   3   4
HETATM    4  C   UNL     1      -6.697   6.702  66.770  1.00  0.00    -0.056 C  
HETATM    5  C   UNL     1      -7.940   5.852  67.097  1.00  0.00    -0.102 C  
HETATM    6  C   UNL     1      -8.453   4.986  65.920  1.00  0.00    -0.121 C  
HETATM    7  C   UNL     1      -7.709   4.959  68.339  1.00  0.00    -0.082 C  
HETATM    8  C   UNL     1      -7.517   3.874  65.471  1.00  0.00    -0.081 C  
BRANCH   7   9
HETATM    9  N   UNL     1      -7.446   5.660  69.603  1.00  0.00    -0.073 NA 
HETATM   10  C   UNL     1      -8.332   6.799  69.838  1.00  0.00    -0.135 C  
HETATM   11  N   UNL     1      -9.722   6.362  69.985  1.00  0.00    -0.164 NA 
HETATM   12  C   UNL     1      -9.842   5.522  71.202  1.00  0.00    -0.181 C  
HETATM   13  H1  UNL     1      -8.152   2.977  72.658  1.00  0.00     0.000 HD 
HETATM   14  C   UNL     1      -8.883   4.299  71.243  1.00  0.00    -0.111 C  
HETATM   15  H2  UNL     1      -9.696   3.562  73.026  1.00  0.00     0.000 HD 
HETATM   16  C   UNL     1      -9.438   3.128  70.415  1.00  0.00    -0.227 C  
HETATM   17  N   UNL     1      -8.781   3.780  72.631  1.00  0.00    -0.094 NA 
HETATM   18  C   UNL     1      -7.474   4.762  70.771  1.00  0.00    -0.064 C  
BRANCH  11  19
HETATM   19  C   UNL     1     -10.636   7.517  70.140  1.00  0.00    -0.235 C  
HETATM   20  C   UNL     1      -9.505   9.028  68.361  1.00  0.00    -0.154 C  
HETATM   21  C   UNL     1     -10.103   8.930  69.780  1.00  0.00    -0.205 C  
HETATM   22  C   UNL     1     -11.212   9.989  70.007  1.00  0.00    -0.345 C  
HETATM   23  C   UNL     1     -10.487   8.915  67.203  1.00  0.00    -0.344 C  
BRANCH  22  24
HETATM   24  C   UNL     1     -11.765  10.069  71.441  1.00  0.00    -0.414 C  
BRANCH  24  25
HETATM   25  C   UNL     1     -13.279  10.278  71.509  1.00  0.00    -0.484 C  
HETATM   26  C   UNL     1     -13.983   9.080  72.127  1.00  0.00    -0.499 C  
ENDBRANCH  24  25
ENDBRANCH  22  24
ENDBRANCH  11  19
ENDBRANCH   7   9
ENDBRANCH   3   4
ENDBRANCH   2   3
TORSDOF 6
ENDMDL
MODEL      141
REMARK 921   NORMALIZED FREE ENERGY PREDICTED BY IDOCK:   -3.17 KCAL/MOL
REMARK 922        TOTAL FREE ENERGY PREDICTED BY IDOCK:   -5.07 KCAL/MOL
REMARK 923 INTER-LIGAND FREE ENERGY PREDICTED BY IDOCK:   -5.05 KCAL/MOL
REMARK 924 INTRA-LIGAND FREE ENERGY PREDICTED BY IDOCK:   -0.02 KCAL/MOL
REMARK 927      BINDING AFFINITY PREDICTED BY RF-SCORE:    0.00 PKD
ROOT
HETATM    1  C   UNL     1     -10.847  12.272  64.450  1.00  0.00    -0.370 C  
HETATM    2  C   UNL     1     -10.036  11.776  63.262  1.00  0.00    -0.435 C  
ENDROOT
BRANCH   2   3
HETATM    3  C   UNL     1      -9.467  10.390  63.545  1.00  0.00    -0.356 C  
BRANCH   3   4
HETATM    4  C   UNL     1      -8.827  10.305  64.933  1.00  0.00    -0.213 C  
HETATM    5  C   UNL     1      -9.031   8.925  65.589  1.00  0.00    -0.249 C  
HETATM    6  C   UNL     1      -8.473   7.736  64.770  1.00  0.00     0.015 C  
HETATM    7  C   UNL     1      -8.453   8.887  67.024  1.00  0.00    -0.112 C  
HETATM    8  C   UNL     1      -6.959   7.703  64.614  1.00  0.00    -0.052 C  
BRANCH   7   9
HETATM    9  N   UNL     1      -9.061   9.807  67.993  1.00  0.00    -0.125 NA 
HETATM   10  C   UNL     1      -9.937   9.147  68.960  1.00  0.00    -0.184 C  
HETATM   11  N   UNL     1      -9.181   8.224  69.811  1.00  0.00    -0.154 NA 
HETATM   12  C   UNL     1      -8.214   8.997  70.628  1.00  0.00    -0.181 C  
HETATM   13  H1  UNL     1      -5.987  11.502  70.164  1.00  0.00     0.000 HD 
HETATM   14  C   UNL     1      -7.245   9.898  69.811  1.00  0.00    -0.118 C  
HETATM   15  H2  UNL     1      -6.162  10.485  71.504  1.00  0.00     0.000 HD 
HETATM   16  C   UNL     1      -6.071   9.081  69.246  1.00  0.00    -0.041 C  
HETATM   17  N   UNL     1      -6.623  10.912  70.700  1.00  0.00    -0.261 NA 
HETATM   18  C   UNL     1      -8.065  10.626  68.707  1.00  0.00    -0.139 C  
BRANCH  11  19
HETATM   19  C   UNL     1     -10.073   7.491  70.736  1.00  0.00    -0.192 C  
HETATM   20  C   UNL     1     -11.292   9.574  71.684  1.00  0.00    -0.411 C  
HETATM   21  C   UNL     1     -10.598   8.232  71.995  1.00  0.00    -0.365 C  
HETATM   22  C   UNL     1     -11.514   7.292  72.821  1.00  0.00    -0.273 C  
HETATM   23  C   UNL     1     -12.632   9.493  70.964  1.00  0.00    -0.331 C  
BRANCH  22  24
HETATM   24  C   UNL     1     -10.855   5.989  73.308  1.00  0.00    -0.277 C  
BRANCH  24  25
HETATM   25  C   UNL     1     -11.314   4.744  72.547  1.00  0.00    -0.004 C  
HETATM   26  C   UNL     1     -10.135   3.878  72.127  1.00  0.00    -0.225 C  
ENDBRANCH  24  25
ENDBRANCH  22  24
ENDBRANCH  11  19
ENDBRANCH   7   9
ENDBRANCH   3   4
ENDBRANCH   2   3
TORSDOF 6
ENDMDL
MODEL      142
REMARK 921   NORMALIZED FREE ENERGY PREDICTED BY IDOCK:   -3.17 KCAL/MOL
REMARK 922        TOTAL FREE ENERGY PREDICTED BY IDOCK:   -5.06 KCAL/MOL
REMARK 923 INTER-LIGAND FREE ENERGY PREDICTED BY IDOCK:   -4.77 KCAL/MOL
REMARK 924 INTRA-LIGAND FREE ENERGY PREDICTED BY IDOCK:   -0.30 KCAL/MOL
REMARK 927      BINDING AFFINITY PREDICTED BY RF-SCORE:    0.00 PKD
ROOT
HETATM    1  C   UNL     1     -13.233  12.075  71.844  1.00  0.00    -0.469 C  
HETATM    2  C   UNL     1     -12.754  10.871  71.045  1.00  0.00    -0.505 C  
ENDROOT
BRANCH   2   3
HETATM    3  C   UNL     1     -12.955   9.587  71.843  1.00  0.00    -0.514 C  
BRANCH   3   4
HETATM    4  C   UNL     1     -12.231   8.397  71.208  1.00  0.00    -0.305 C  
HETATM    5  C   UNL     1     -10.701   8.490  71.364  1.00  0.00    -0.317 C  
HETATM    6  C   UNL     1     -10.209   8.577  72.830  1.00  0.00    -0.147 C  
HETATM    7  C   UNL     1      -9.984   7.325  70.641  1.00  0.00    -0.186 C  
HETATM    8  C   UNL     1     -10.459   7.338  73.677  1.00  0.00    -0.391 C  
BRANCH   7   9
HETATM    9  N   UNL     1     -10.164   7.254  69.186  1.00  0.00    -0.191 NA 
HETATM   10  C   UNL     1      -9.691   8.441  68.477  1.00  0.00    -0.160 C  
HETATM   11  N   UNL     1      -8.241   8.599  68.623  1.00  0.00    -0.120 NA 
HETATM   12  C   UNL     1      -7.560   7.458  67.965  1.00  0.00    -0.114 C  
HETATM   13  H1  UNL     1      -7.888   4.092  67.824  1.00  0.00     0.000 HD 
HETATM   14  C   UNL     1      -8.006   6.056  68.467  1.00  0.00    -0.107 C  
HETATM   15  H2  UNL     1      -6.595   5.047  67.296  1.00  0.00     0.000 HD 
HETATM   16  C   UNL     1      -7.297   5.684  69.780  1.00  0.00    -0.070 C  
HETATM   17  N   UNL     1      -7.595   5.012  67.494  1.00  0.00    -0.086 NA 
HETATM   18  C   UNL     1      -9.557   6.049  68.593  1.00  0.00    -0.125 C  
BRANCH  11  19
HETATM   19  C   UNL     1      -7.767   9.844  67.979  1.00  0.00    -0.086 C  
HETATM   20  C   UNL     1      -8.315   9.142  65.542  1.00  0.00    -0.138 C  
HETATM   21  C   UNL     1      -7.286   9.772  66.504  1.00  0.00    -0.095 C  
HETATM   22  C   UNL     1      -6.839  11.177  66.023  1.00  0.00     0.053 C  
HETATM   23  C   UNL     1      -9.574   9.955  65.272  1.00  0.00    -0.361 C  
BRANCH  22  24
HETATM   24  C   UNL     1      -5.702  11.822  66.836  1.00  0.00    -0.142 C  
BRANCH  24  25
HETATM   25  C   UNL     1      -6.079  13.164  67.467  1.00  0.00    -0.112 C  
HETATM   26  C   UNL     1      -5.909  13.140  68.979  1.00  0.00    -0.079 C  
ENDBRANCH  24  25
ENDBRANCH  22  24
ENDBRANCH  11  19
ENDBRANCH   7   9
ENDBRANCH   3   4
ENDBRANCH   2   3
TORSDOF 6
ENDMDL
MODEL      143
REMARK 921   NORMALIZED FREE ENERGY PREDICTED BY IDOCK:   -3.13 KCAL/MOL
REMARK 922        TOTAL FREE ENERGY PREDICTED BY IDOCK:   -5.02 KCAL/MOL
REMARK 923 INTER-LIGAND FREE ENERGY PREDICTED BY IDOCK:   -4.77 KCAL/MOL
REMARK 924 INTRA-LIGAND FREE ENERGY PREDICTED BY IDOCK:   -0.25 KCAL/MOL
REMARK 927      BINDING AFFINITY PREDICTED BY RF-SCORE:    0.00 PKD
ROOT
HETATM    1  C   UNL     1     -11.917  13.048  63.401  1.00  0.00    -0.592 C  
HETATM    2  C   UNL     1     -12.510  12.387  64.637  1.00  0.00    -0.500 C  
ENDROOT
BRANCH   2   3
HETATM    3  C   UNL     1     -11.933  13.010  65.904  1.00  0.00    -0.491 C  
BRANCH   3   4
HETATM    4  C   UNL     1     -11.461  11.949  66.901  1.00  0.00    -0.390 C  
HETATM    5  C   UNL     1     -10.073  11.384  66.544  1.00  0.00    -0.250 C  
HETATM    6  C   UNL     1      -8.949  12.446  66.461  1.00  0.00    -0.145 C  
HETATM    7  C   UNL     1      -9.652  10.253  67.512  1.00  0.00    -0.156 C  
HETATM    8  C   UNL     1      -8.596  13.127  67.775  1.00  0.00    -0.188 C  
BRANCH   7   9
HETATM    9  N   UNL     1     -10.503   9.057  67.523  1.00  0.00    -0.266 NA 
HETATM   10  C   UNL     1     -10.029   7.990  66.643  1.00  0.00    -0.256 C  
HETATM   11  N   UNL     1      -8.732   7.477  67.089  1.00  0.00    -0.120 NA 
HETATM   12  C   UNL     1      -8.893   6.838  68.418  1.00  0.00    -0.122 C  
HETATM   13  H1  UNL     1     -10.420   7.532  71.357  1.00  0.00     0.000 HD 
HETATM   14  C   UNL     1      -9.518   7.754  69.508  1.00  0.00    -0.160 C  
HETATM   15  H2  UNL     1      -9.281   6.327  71.021  1.00  0.00     0.000 HD 
HETATM   16  C   UNL     1      -8.462   8.690  70.119  1.00  0.00    -0.135 C  
HETATM   17  N   UNL     1     -10.011   6.930  70.642  1.00  0.00    -0.187 NA 
HETATM   18  C   UNL     1     -10.717   8.520  68.878  1.00  0.00    -0.073 C  
BRANCH  11  19
HETATM   19  C   UNL     1      -8.207   6.456  66.155  1.00  0.00    -0.122 C  
HETATM   20  C   UNL     1      -9.889   4.585  66.786  1.00  0.00    -0.242 C  
HETATM   21  C   UNL     1      -8.419   4.959  66.507  1.00  0.00    -0.110 C  
HETATM   22  C   UNL     1      -7.801   4.061  65.403  1.00  0.00    -0.089 C  
HETATM   23  C   UNL     1     -10.833   4.615  65.591  1.00  0.00    -0.105 C  
BRANCH  22  24
HETATM   24  C   UNL     1      -6.293   4.257  65.160  1.00  0.00    -0.035 C  
BRANCH  24  25
HETATM   25  C   UNL     1      -5.939   4.576  63.707  1.00  0.00    -0.018 C  
HETATM   26  C   UNL     1      -5.471   6.015  63.547  1.00  0.00    -0.018 C  
ENDBRANCH  24  25
ENDBRANCH  22  24
ENDBRANCH  11  19
ENDBRANCH   7   9
ENDBRANCH   3   4
ENDBRANCH   2   3
TORSDOF 6
ENDMDL
MODEL      144
REMARK 921   NORMALIZED FREE ENERGY PREDICTED BY IDOCK:   -3.12 KCAL/MOL
REMARK 922        TOTAL FREE ENERGY PREDICTED BY IDOCK:   -5.01 KCAL/MOL
REMARK 923 INTER-LIGAND FREE ENERGY PREDICTED BY IDOCK:   -3.89 KCAL/MOL
REMARK 924 INTRA-LIGAND FREE ENERGY PREDICTED BY IDOCK:   -1.12 KCAL/MOL
REMARK 927      BINDING AFFINITY PREDICTED BY RF-SCORE:    0.00 PKD
ROOT
HETATM    1  C   UNL     1     -10.689   5.397  66.475  1.00  0.00    -0.309 C  
HETATM    2  C   UNL     1      -9.191   5.129  66.482  1.00  0.00    -0.136 C  
ENDROOT
BRANCH   2   3
HETATM    3  C   UNL     1      -8.863   3.955  67.399  1.00  0.00    -0.137 C  
BRANCH   3   4
HETATM    4  C   UNL     1      -7.964   4.372  68.565  1.00  0.00    -0.078 C  
HETATM    5  C   UNL     1      -8.687   5.299  69.562  1.00  0.00    -0.114 C  
HETATM    6  C   UNL     1      -9.970   4.697  70.184  1.00  0.00    -0.304 C  
HETATM    7  C   UNL     1      -7.737   5.778  70.685  1.00  0.00    -0.093 C  
HETATM    8  C   UNL     1      -9.754   3.496  71.093  1.00  0.00    -0.237 C  
BRANCH   7   9
HETATM    9  N   UNL     1      -6.584   6.582  70.262  1.00  0.00    -0.047 NA 
HETATM   10  C   UNL     1      -6.856   7.440  69.110  1.00  0.00    -0.060 C  
HETATM   11  N   UNL     1      -7.864   8.453  69.434  1.00  0.00    -0.101 NA 
HETATM   12  C   UNL     1      -7.322   9.362  70.473  1.00  0.00    -0.133 C  
HETATM   13  H1  UNL     1      -5.632   9.097  73.393  1.00  0.00     0.000 HD 
HETATM   14  C   UNL     1      -6.832   8.652  71.767  1.00  0.00    -0.080 C  
HETATM   15  H2  UNL     1      -6.408  10.453  72.746  1.00  0.00     0.000 HD 
HETATM   16  C   UNL     1      -8.008   8.329  72.703  1.00  0.00    -0.193 C  
HETATM   17  N   UNL     1      -5.953   9.563  72.544  1.00  0.00    -0.293 NA 
HETATM   18  C   UNL     1      -6.018   7.390  71.356  1.00  0.00    -0.036 C  
BRANCH  11  19
HETATM   19  C   UNL     1      -8.206   9.270  68.249  1.00  0.00    -0.115 C  
HETATM   20  C   UNL     1     -10.765   8.856  68.334  1.00  0.00    -0.126 C  
HETATM   21  C   UNL     1      -9.496   8.918  67.460  1.00  0.00    -0.172 C  
HETATM   22  C   UNL     1      -9.671   9.893  66.266  1.00  0.00    -0.281 C  
HETATM   23  C   UNL     1     -11.265  10.181  68.896  1.00  0.00    -0.220 C  
BRANCH  22  24
HETATM   24  C   UNL     1      -8.513   9.909  65.252  1.00  0.00    -0.158 C  
BRANCH  24  25
HETATM   25  C   UNL     1      -8.917  10.398  63.860  1.00  0.00    -0.247 C  
HETATM   26  C   UNL     1      -8.622   9.356  62.792  1.00  0.00    -0.221 C  
ENDBRANCH  24  25
ENDBRANCH  22  24
ENDBRANCH  11  19
ENDBRANCH   7   9
ENDBRANCH   3   4
ENDBRANCH   2   3
TORSDOF 6
ENDMDL
MODEL      145
REMARK 921   NORMALIZED FREE ENERGY PREDICTED BY IDOCK:   -3.12 KCAL/MOL
REMARK 922        TOTAL FREE ENERGY PREDICTED BY IDOCK:   -5.00 KCAL/MOL
REMARK 923 INTER-LIGAND FREE ENERGY PREDICTED BY IDOCK:   -4.75 KCAL/MOL
REMARK 924 INTRA-LIGAND FREE ENERGY PREDICTED BY IDOCK:   -0.25 KCAL/MOL
REMARK 927      BINDING AFFINITY PREDICTED BY RF-SCORE:    0.00 PKD
ROOT
HETATM    1  C   UNL     1     -10.927  11.486  63.597  1.00  0.00    -0.482 C  
HETATM    2  C   UNL     1     -11.959  12.274  64.391  1.00  0.00    -0.473 C  
ENDROOT
BRANCH   2   3
HETATM    3  C   UNL     1     -11.296  13.002  65.555  1.00  0.00    -0.330 C  
BRANCH   3   4
HETATM    4  C   UNL     1     -11.206  12.124  66.805  1.00  0.00    -0.375 C  
HETATM    5  C   UNL     1      -9.793  11.546  67.016  1.00  0.00    -0.212 C  
HETATM    6  C   UNL     1      -8.676  12.610  67.141  1.00  0.00    -0.201 C  
HETATM    7  C   UNL     1      -9.744  10.593  68.234  1.00  0.00    -0.161 C  
HETATM    8  C   UNL     1      -8.755  13.499  68.374  1.00  0.00    -0.140 C  
BRANCH   7   9
HETATM    9  N   UNL     1     -10.584   9.391  68.153  1.00  0.00    -0.225 NA 
HETATM   10  C   UNL     1      -9.969   8.293  67.410  1.00  0.00    -0.209 C  
HETATM   11  N   UNL     1      -8.764   7.808  68.088  1.00  0.00    -0.126 NA 
HETATM   12  C   UNL     1      -9.145   7.224  69.397  1.00  0.00    -0.142 C  
HETATM   13  H1  UNL     1     -11.144   8.026  72.007  1.00  0.00     0.000 HD 
HETATM   14  C   UNL     1      -9.944   8.179  70.328  1.00  0.00    -0.189 C  
HETATM   15  H2  UNL     1      -9.964   6.818  71.918  1.00  0.00     0.000 HD 
HETATM   16  C   UNL     1      -9.007   9.148  71.066  1.00  0.00    -0.281 C  
HETATM   17  N   UNL     1     -10.620   7.399  71.397  1.00  0.00    -0.215 NA 
HETATM   18  C   UNL     1     -11.022   8.909  69.474  1.00  0.00    -0.084 C  
BRANCH  11  19
HETATM   19  C   UNL     1      -8.089   6.754  67.299  1.00  0.00    -0.118 C  
HETATM   20  C   UNL     1      -9.978   4.986  67.492  1.00  0.00    -0.209 C  
HETATM   21  C   UNL     1      -8.464   5.273  67.578  1.00  0.00    -0.105 C  
HETATM   22  C   UNL     1      -7.651   4.336  66.647  1.00  0.00    -0.085 C  
HETATM   23  C   UNL     1     -10.604   5.063  66.106  1.00  0.00    -0.321 C  
BRANCH  22  24
HETATM   24  C   UNL     1      -6.121   4.444  66.773  1.00  0.00    -0.031 C  
BRANCH  24  25
HETATM   25  C   UNL     1      -5.595   4.141  68.177  1.00  0.00    -0.017 C  
HETATM   26  C   UNL     1      -5.846   2.692  68.568  1.00  0.00    -0.023 C  
ENDBRANCH  24  25
ENDBRANCH  22  24
ENDBRANCH  11  19
ENDBRANCH   7   9
ENDBRANCH   3   4
ENDBRANCH   2   3
TORSDOF 6
ENDMDL
MODEL      146
REMARK 921   NORMALIZED FREE ENERGY PREDICTED BY IDOCK:   -3.10 KCAL/MOL
REMARK 922        TOTAL FREE ENERGY PREDICTED BY IDOCK:   -4.97 KCAL/MOL
REMARK 923 INTER-LIGAND FREE ENERGY PREDICTED BY IDOCK:   -3.47 KCAL/MOL
REMARK 924 INTRA-LIGAND FREE ENERGY PREDICTED BY IDOCK:   -1.50 KCAL/MOL
REMARK 927      BINDING AFFINITY PREDICTED BY RF-SCORE:    0.00 PKD
ROOT
HETATM    1  C   UNL     1      -9.889  10.083  65.448  1.00  0.00    -0.384 C  
HETATM    2  C   UNL     1      -9.612  11.146  66.501  1.00  0.00    -0.222 C  
ENDROOT
BRANCH   2   3
HETATM    3  C   UNL     1     -10.505  10.937  67.719  1.00  0.00    -0.238 C  
BRANCH   3   4
HETATM    4  C   UNL     1     -11.040   9.506  67.800  1.00  0.00    -0.034 C  
HETATM    5  C   UNL     1     -10.254   8.641  68.805  1.00  0.00    -0.224 C  
HETATM    6  C   UNL     1     -10.240   9.192  70.252  1.00  0.00    -0.253 C  
HETATM    7  C   UNL     1     -10.752   7.177  68.809  1.00  0.00    -0.169 C  
HETATM    8  C   UNL     1     -11.589   9.209  70.957  1.00  0.00    -0.370 C  
BRANCH   7   9
HETATM    9  N   UNL     1     -10.603   6.437  67.549  1.00  0.00    -0.242 NA 
HETATM   10  C   UNL     1      -9.415   6.811  66.785  1.00  0.00    -0.162 C  
HETATM   11  N   UNL     1      -8.191   6.472  67.514  1.00  0.00    -0.120 NA 
HETATM   12  C   UNL     1      -8.107   4.998  67.662  1.00  0.00    -0.098 C  
HETATM   13  H1  UNL     1     -10.162   2.450  68.519  1.00  0.00     0.000 HD 
HETATM   14  C   UNL     1      -9.342   4.341  68.341  1.00  0.00    -0.153 C  
HETATM   15  H2  UNL     1      -8.478   2.434  68.355  1.00  0.00     0.000 HD 
HETATM   16  C   UNL     1      -9.270   4.471  69.871  1.00  0.00    -0.193 C  
HETATM   17  N   UNL     1      -9.352   2.880  68.073  1.00  0.00    -0.209 NA 
HETATM   18  C   UNL     1     -10.629   4.976  67.738  1.00  0.00     0.106 C  
BRANCH  11  19
HETATM   19  C   UNL     1      -6.986   6.924  66.784  1.00  0.00    -0.066 C  
HETATM   20  C   UNL     1      -6.634   9.117  68.125  1.00  0.00    -0.060 C  
HETATM   21  C   UNL     1      -6.683   8.446  66.736  1.00  0.00    -0.061 C  
HETATM   22  C   UNL     1      -5.382   8.703  65.931  1.00  0.00    -0.034 C  
HETATM   23  C   UNL     1      -5.462   8.737  69.019  1.00  0.00    -0.036 C  
BRANCH  22  24
HETATM   24  C   UNL     1      -5.396   8.201  64.476  1.00  0.00    -0.036 C  
BRANCH  24  25
HETATM   25  C   UNL     1      -6.457   8.871  63.602  1.00  0.00    -0.088 C  
HETATM   26  C   UNL     1      -7.523   7.881  63.158  1.00  0.00    -0.119 C  
ENDBRANCH  24  25
ENDBRANCH  22  24
ENDBRANCH  11  19
ENDBRANCH   7   9
ENDBRANCH   3   4
ENDBRANCH   2   3
TORSDOF 6
ENDMDL
MODEL      147
REMARK 921   NORMALIZED FREE ENERGY PREDICTED BY IDOCK:   -3.08 KCAL/MOL
REMARK 922        TOTAL FREE ENERGY PREDICTED BY IDOCK:   -4.95 KCAL/MOL
REMARK 923 INTER-LIGAND FREE ENERGY PREDICTED BY IDOCK:   -3.99 KCAL/MOL
REMARK 924 INTRA-LIGAND FREE ENERGY PREDICTED BY IDOCK:   -0.96 KCAL/MOL
REMARK 927      BINDING AFFINITY PREDICTED BY RF-SCORE:    0.00 PKD
ROOT
HETATM    1  C   UNL     1     -12.265  13.871  69.792  1.00  0.00    -0.388 C  
HETATM    2  C   UNL     1     -11.829  12.481  70.232  1.00  0.00    -0.305 C  
ENDROOT
BRANCH   2   3
HETATM    3  C   UNL     1     -12.276  11.434  69.217  1.00  0.00    -0.271 C  
BRANCH   3   4
HETATM    4  C   UNL     1     -11.247  10.312  69.058  1.00  0.00    -0.260 C  
HETATM    5  C   UNL     1     -10.602  10.301  67.658  1.00  0.00    -0.312 C  
HETATM    6  C   UNL     1      -9.885  11.617  67.271  1.00  0.00    -0.203 C  
HETATM    7  C   UNL     1      -9.631   9.108  67.489  1.00  0.00    -0.150 C  
HETATM    8  C   UNL     1      -8.653  11.957  68.098  1.00  0.00    -0.165 C  
BRANCH   7   9
HETATM    9  N   UNL     1     -10.223   7.769  67.591  1.00  0.00    -0.201 NA 
HETATM   10  C   UNL     1      -9.816   6.863  66.519  1.00  0.00    -0.103 C  
HETATM   11  N   UNL     1      -8.377   6.593  66.576  1.00  0.00    -0.113 NA 
HETATM   12  C   UNL     1      -8.068   5.868  67.833  1.00  0.00    -0.105 C  
HETATM   13  H1  UNL     1      -8.870   6.096  71.113  1.00  0.00     0.000 HD 
HETATM   14  C   UNL     1      -8.538   6.586  69.130  1.00  0.00    -0.129 C  
HETATM   15  H2  UNL     1      -7.664   5.158  70.387  1.00  0.00     0.000 HD 
HETATM   16  C   UNL     1      -7.542   7.680  69.551  1.00  0.00    -0.098 C  
HETATM   17  N   UNL     1      -8.562   5.625  70.262  1.00  0.00    -0.129 NA 
HETATM   18  C   UNL     1      -9.976   7.132  68.896  1.00  0.00    -0.163 C  
BRANCH  11  19
HETATM   19  C   UNL     1      -7.942   5.744  65.444  1.00  0.00    -0.117 C  
HETATM   20  C   UNL     1      -7.451   7.684  63.793  1.00  0.00    -0.105 C  
HETATM   21  C   UNL     1      -8.102   6.301  64.004  1.00  0.00    -0.058 C  
HETATM   22  C   UNL     1      -7.586   5.263  62.973  1.00  0.00    -0.066 C  
HETATM   23  C   UNL     1      -5.929   7.727  63.825  1.00  0.00    -0.057 C  
BRANCH  22  24
HETATM   24  C   UNL     1      -8.288   3.893  63.007  1.00  0.00    -0.086 C  
BRANCH  24  25
HETATM   25  C   UNL     1      -9.764   3.946  62.612  1.00  0.00    -0.137 C  
HETATM   26  C   UNL     1     -10.673   3.676  63.802  1.00  0.00    -0.271 C  
ENDBRANCH  24  25
ENDBRANCH  22  24
ENDBRANCH  11  19
ENDBRANCH   7   9
ENDBRANCH   3   4
ENDBRANCH   2   3
TORSDOF 6
ENDMDL
MODEL      148
REMARK 921   NORMALIZED FREE ENERGY PREDICTED BY IDOCK:   -3.07 KCAL/MOL
REMARK 922        TOTAL FREE ENERGY PREDICTED BY IDOCK:   -4.93 KCAL/MOL
REMARK 923 INTER-LIGAND FREE ENERGY PREDICTED BY IDOCK:   -4.73 KCAL/MOL
REMARK 924 INTRA-LIGAND FREE ENERGY PREDICTED BY IDOCK:   -0.20 KCAL/MOL
REMARK 927      BINDING AFFINITY PREDICTED BY RF-SCORE:    0.00 PKD
ROOT
HETATM    1  C   UNL     1      -7.867   7.082  64.287  1.00  0.00    -0.111 C  
HETATM    2  C   UNL     1      -7.176   7.529  65.567  1.00  0.00    -0.069 C  
ENDROOT
BRANCH   2   3
HETATM    3  C   UNL     1      -6.693   6.322  66.364  1.00  0.00    -0.056 C  
BRANCH   3   4
HETATM    4  C   UNL     1      -7.287   6.291  67.774  1.00  0.00    -0.084 C  
HETATM    5  C   UNL     1      -8.827   6.368  67.764  1.00  0.00    -0.112 C  
HETATM    6  C   UNL     1      -9.521   5.238  66.965  1.00  0.00    -0.137 C  
HETATM    7  C   UNL     1      -9.403   6.422  69.199  1.00  0.00    -0.132 C  
HETATM    8  C   UNL     1      -9.358   3.838  67.537  1.00  0.00    -0.238 C  
BRANCH   7   9
HETATM    9  N   UNL     1      -9.019   7.584  70.010  1.00  0.00    -0.144 NA 
HETATM   10  C   UNL     1      -9.434   8.864  69.437  1.00  0.00    -0.161 C  
HETATM   11  N   UNL     1     -10.894   8.967  69.383  1.00  0.00    -0.186 NA 
HETATM   12  C   UNL     1     -11.433   8.969  70.765  1.00  0.00    -0.282 C  
HETATM   13  H1  UNL     1     -10.960   7.242  73.636  1.00  0.00     0.000 HD 
HETATM   14  C   UNL     1     -11.008   7.750  71.630  1.00  0.00    -0.235 C  
HETATM   15  H2  UNL     1     -12.202   8.324  73.251  1.00  0.00     0.000 HD 
HETATM   16  C   UNL     1     -11.878   6.520  71.324  1.00  0.00    -0.385 C  
HETATM   17  N   UNL     1     -11.239   8.042  73.068  1.00  0.00    -0.331 NA 
HETATM   18  C   UNL     1      -9.490   7.491  71.403  1.00  0.00    -0.148 C  
BRANCH  11  19
HETATM   19  C   UNL     1     -11.321  10.223  68.727  1.00  0.00    -0.167 C  
HETATM   20  C   UNL     1      -9.309  10.406  67.101  1.00  0.00    -0.177 C  
HETATM   21  C   UNL     1     -10.231  11.134  68.101  1.00  0.00    -0.198 C  
HETATM   22  C   UNL     1     -10.887  12.388  67.466  1.00  0.00    -0.271 C  
HETATM   23  C   UNL     1      -9.944   9.973  65.787  1.00  0.00    -0.346 C  
BRANCH  22  24
HETATM   24  C   UNL     1     -11.707  13.264  68.430  1.00  0.00    -0.389 C  
BRANCH  24  25
HETATM   25  C   UNL     1     -11.371  13.039  69.905  1.00  0.00    -0.037 C  
HETATM   26  C   UNL     1     -12.597  13.206  70.791  1.00  0.00    -0.338 C  
ENDBRANCH  24  25
ENDBRANCH  22  24
ENDBRANCH  11  19
ENDBRANCH   7   9
ENDBRANCH   3   4
ENDBRANCH   2   3
TORSDOF 6
ENDMDL
MODEL      149
REMARK 921   NORMALIZED FREE ENERGY PREDICTED BY IDOCK:   -3.05 KCAL/MOL
REMARK 922        TOTAL FREE ENERGY PREDICTED BY IDOCK:   -4.91 KCAL/MOL
REMARK 923 INTER-LIGAND FREE ENERGY PREDICTED BY IDOCK:   -3.95 KCAL/MOL
REMARK 924 INTRA-LIGAND FREE ENERGY PREDICTED BY IDOCK:   -0.97 KCAL/MOL
REMARK 927      BINDING AFFINITY PREDICTED BY RF-SCORE:    0.00 PKD
ROOT
HETATM    1  C   UNL     1      -8.616  10.642  62.330  1.00  0.00    -0.294 C  
HETATM    2  C   UNL     1      -9.174  11.465  63.483  1.00  0.00    -0.106 C  
ENDROOT
BRANCH   2   3
HETATM    3  C   UNL     1      -9.943  10.574  64.451  1.00  0.00    -0.410 C  
BRANCH   3   4
HETATM    4  C   UNL     1      -9.149  10.293  65.729  1.00  0.00    -0.202 C  
HETATM    5  C   UNL     1      -9.160   8.801  66.112  1.00  0.00    -0.251 C  
HETATM    6  C   UNL     1      -8.597   7.854  65.023  1.00  0.00    -0.010 C  
HETATM    7  C   UNL     1      -8.426   8.551  67.450  1.00  0.00    -0.127 C  
HETATM    8  C   UNL     1      -7.113   8.011  64.725  1.00  0.00    -0.075 C  
BRANCH   7   9
HETATM    9  N   UNL     1      -8.998   9.200  68.636  1.00  0.00    -0.136 NA 
HETATM   10  C   UNL     1      -9.416   8.262  69.676  1.00  0.00    -0.163 C  
HETATM   11  N   UNL     1      -8.268   7.533  70.221  1.00  0.00    -0.126 NA 
HETATM   12  C   UNL     1      -7.364   8.491  70.904  1.00  0.00    -0.068 C  
HETATM   13  H1  UNL     1      -6.034  11.543  70.298  1.00  0.00     0.000 HD 
HETATM   14  C   UNL     1      -6.885   9.677  70.021  1.00  0.00    -0.085 C  
HETATM   15  H2  UNL     1      -5.615  10.433  71.503  1.00  0.00     0.000 HD 
HETATM   16  C   UNL     1      -5.711   9.259  69.119  1.00  0.00    -0.036 C  
HETATM   17  N   UNL     1      -6.349  10.765  70.878  1.00  0.00    -0.336 NA 
HETATM   18  C   UNL     1      -8.104  10.217  69.218  1.00  0.00    -0.149 C  
BRANCH  11  19
HETATM   19  C   UNL     1      -8.693   6.522  71.214  1.00  0.00    -0.130 C  
HETATM   20  C   UNL     1      -7.996   4.441  69.832  1.00  0.00    -0.056 C  
HETATM   21  C   UNL     1      -9.080   5.108  70.704  1.00  0.00    -0.178 C  
HETATM   22  C   UNL     1      -9.488   4.206  71.898  1.00  0.00    -0.201 C  
HETATM   23  C   UNL     1      -6.718   4.021  70.545  1.00  0.00    -0.033 C  
BRANCH  22  24
HETATM   24  C   UNL     1     -10.670   4.720  72.740  1.00  0.00    -0.282 C  
BRANCH  24  25
HETATM   25  C   UNL     1     -11.065   3.786  73.884  1.00  0.00    -0.231 C  
HETATM   26  C   UNL     1     -10.699   2.341  73.580  1.00  0.00    -0.261 C  
ENDBRANCH  24  25
ENDBRANCH  22  24
ENDBRANCH  11  19
ENDBRANCH   7   9
ENDBRANCH   3   4
ENDBRANCH   2   3
TORSDOF 6
ENDMDL
MODEL      150
REMARK 921   NORMALIZED FREE ENERGY PREDICTED BY IDOCK:   -3.05 KCAL/MOL
REMARK 922        TOTAL FREE ENERGY PREDICTED BY IDOCK:   -4.91 KCAL/MOL
REMARK 923 INTER-LIGAND FREE ENERGY PREDICTED BY IDOCK:   -4.59 KCAL/MOL
REMARK 924 INTRA-LIGAND FREE ENERGY PREDICTED BY IDOCK:   -0.32 KCAL/MOL
REMARK 927      BINDING AFFINITY PREDICTED BY RF-SCORE:    0.00 PKD
ROOT
HETATM    1  C   UNL     1      -9.312   2.680  69.929  1.00  0.00    -0.191 C  
HETATM    2  C   UNL     1      -9.146   2.912  68.434  1.00  0.00    -0.217 C  
ENDROOT
BRANCH   2   3
HETATM    3  C   UNL     1      -9.970   4.114  67.985  1.00  0.00    -0.006 C  
BRANCH   3   4
HETATM    4  C   UNL     1      -9.098   5.214  67.378  1.00  0.00    -0.116 C  
HETATM    5  C   UNL     1      -9.165   6.528  68.181  1.00  0.00    -0.112 C  
HETATM    6  C   UNL     1      -8.743   6.395  69.665  1.00  0.00    -0.138 C  
HETATM    7  C   UNL     1      -8.347   7.652  67.504  1.00  0.00    -0.120 C  
HETATM    8  C   UNL     1      -7.280   6.049  69.899  1.00  0.00    -0.074 C  
BRANCH   7   9
HETATM    9  N   UNL     1      -8.788   8.061  66.165  1.00  0.00    -0.159 NA 
HETATM   10  C   UNL     1      -9.796   9.119  66.176  1.00  0.00    -0.293 C  
HETATM   11  N   UNL     1      -9.253  10.358  66.736  1.00  0.00    -0.153 NA 
HETATM   12  C   UNL     1      -8.174  10.861  65.850  1.00  0.00    -0.133 C  
HETATM   13  H1  UNL     1      -5.497   9.601  64.208  1.00  0.00     0.000 HD 
HETATM   14  C   UNL     1      -7.032   9.843  65.575  1.00  0.00    -0.110 C  
HETATM   15  H2  UNL     1      -5.895  11.221  64.484  1.00  0.00     0.000 HD 
HETATM   16  C   UNL     1      -6.023   9.812  66.736  1.00  0.00    -0.055 C  
HETATM   17  N   UNL     1      -6.247  10.269  64.388  1.00  0.00    -0.130 NA 
HETATM   18  C   UNL     1      -7.670   8.453  65.289  1.00  0.00    -0.098 C  
BRANCH  11  19
HETATM   19  C   UNL     1     -10.291  11.409  66.829  1.00  0.00    -0.234 C  
HETATM   20  C   UNL     1     -10.208  12.125  64.337  1.00  0.00    -0.333 C  
HETATM   21  C   UNL     1     -10.244  12.580  65.811  1.00  0.00    -0.289 C  
HETATM   22  C   UNL     1     -11.415  13.562  66.078  1.00  0.00    -0.345 C  
HETATM   23  C   UNL     1     -11.477  11.480  63.797  1.00  0.00    -0.380 C  
BRANCH  22  24
HETATM   24  C   UNL     1     -11.445  14.188  67.484  1.00  0.00    -0.365 C  
BRANCH  24  25
HETATM   25  C   UNL     1     -10.311  15.181  67.741  1.00  0.00    -0.243 C  
HETATM   26  C   UNL     1     -10.332  16.327  66.740  1.00  0.00    -0.296 C  
ENDBRANCH  24  25
ENDBRANCH  22  24
ENDBRANCH  11  19
ENDBRANCH   7   9
ENDBRANCH   3   4
ENDBRANCH   2   3
TORSDOF 6
ENDMDL
MODEL      151
REMARK 921   NORMALIZED FREE ENERGY PREDICTED BY IDOCK:   -3.02 KCAL/MOL
REMARK 922        TOTAL FREE ENERGY PREDICTED BY IDOCK:   -4.87 KCAL/MOL
REMARK 923 INTER-LIGAND FREE ENERGY PREDICTED BY IDOCK:   -3.96 KCAL/MOL
REMARK 924 INTRA-LIGAND FREE ENERGY PREDICTED BY IDOCK:   -0.91 KCAL/MOL
REMARK 927      BINDING AFFINITY PREDICTED BY RF-SCORE:    0.00 PKD
ROOT
HETATM    1  C   UNL     1      -6.245   9.253  63.778  1.00  0.00    -0.090 C  
HETATM    2  C   UNL     1      -5.612   9.344  65.160  1.00  0.00    -0.054 C  
ENDROOT
BRANCH   2   3
HETATM    3  C   UNL     1      -6.632   9.830  66.184  1.00  0.00    -0.080 C  
BRANCH   3   4
HETATM    4  C   UNL     1      -6.332   9.301  67.588  1.00  0.00    -0.059 C  
HETATM    5  C   UNL     1      -7.370   8.264  68.060  1.00  0.00    -0.096 C  
HETATM    6  C   UNL     1      -7.505   7.027  67.139  1.00  0.00    -0.095 C  
HETATM    7  C   UNL     1      -7.099   7.807  69.512  1.00  0.00    -0.063 C  
HETATM    8  C   UNL     1      -6.281   6.124  67.075  1.00  0.00    -0.029 C  
BRANCH   7   9
HETATM    9  N   UNL     1      -7.178   8.847  70.546  1.00  0.00    -0.061 NA 
HETATM   10  C   UNL     1      -8.244   9.822  70.319  1.00  0.00    -0.148 C  
HETATM   11  N   UNL     1      -9.562   9.186  70.389  1.00  0.00    -0.206 NA 
HETATM   12  C   UNL     1      -9.785   8.682  71.766  1.00  0.00    -0.291 C  
HETATM   13  H1  UNL     1      -8.054   6.964  74.112  1.00  0.00     0.000 HD 
HETATM   14  C   UNL     1      -8.688   7.713  72.290  1.00  0.00    -0.124 C  
HETATM   15  H2  UNL     1      -9.706   7.324  74.077  1.00  0.00     0.000 HD 
HETATM   16  C   UNL     1      -8.908   6.286  71.762  1.00  0.00    -0.137 C  
HETATM   17  N   UNL     1      -8.774   7.599  73.769  1.00  0.00    -0.215 NA 
HETATM   18  C   UNL     1      -7.296   8.294  71.906  1.00  0.00    -0.096 C  
BRANCH  11  19
HETATM   19  C   UNL     1     -10.641  10.149  70.078  1.00  0.00    -0.287 C  
HETATM   20  C   UNL     1      -9.929  10.608  67.626  1.00  0.00    -0.197 C  
HETATM   21  C   UNL     1     -10.385  11.209  68.972  1.00  0.00    -0.214 C  
HETATM   22  C   UNL     1     -11.637  12.110  68.801  1.00  0.00    -0.380 C  
HETATM   23  C   UNL     1     -10.968   9.805  66.856  1.00  0.00    -0.010 C  
BRANCH  22  24
HETATM   24  C   UNL     1     -12.078  12.873  70.063  1.00  0.00    -0.357 C  
BRANCH  24  25
HETATM   25  C   UNL     1     -12.199  14.384  69.859  1.00  0.00    -0.394 C  
HETATM   26  C   UNL     1     -10.843  15.024  69.600  1.00  0.00    -0.283 C  
ENDBRANCH  24  25
ENDBRANCH  22  24
ENDBRANCH  11  19
ENDBRANCH   7   9
ENDBRANCH   3   4
ENDBRANCH   2   3
TORSDOF 6
ENDMDL
MODEL      152
REMARK 921   NORMALIZED FREE ENERGY PREDICTED BY IDOCK:   -2.98 KCAL/MOL
REMARK 922        TOTAL FREE ENERGY PREDICTED BY IDOCK:   -4.82 KCAL/MOL
REMARK 923 INTER-LIGAND FREE ENERGY PREDICTED BY IDOCK:   -4.59 KCAL/MOL
REMARK 924 INTRA-LIGAND FREE ENERGY PREDICTED BY IDOCK:   -0.22 KCAL/MOL
REMARK 927      BINDING AFFINITY PREDICTED BY RF-SCORE:    0.00 PKD
ROOT
HETATM    1  C   UNL     1      -6.574   8.895  62.585  1.00  0.00    -0.094 C  
HETATM    2  C   UNL     1      -7.268   9.853  63.543  1.00  0.00    -0.126 C  
ENDROOT
BRANCH   2   3
HETATM    3  C   UNL     1      -8.551   9.232  64.084  1.00  0.00    -0.207 C  
BRANCH   3   4
HETATM    4  C   UNL     1      -8.424   8.849  65.561  1.00  0.00    -0.174 C  
HETATM    5  C   UNL     1      -8.879   7.402  65.833  1.00  0.00    -0.149 C  
HETATM    6  C   UNL     1      -8.110   6.325  65.028  1.00  0.00    -0.136 C  
HETATM    7  C   UNL     1      -8.826   7.063  67.341  1.00  0.00    -0.119 C  
HETATM    8  C   UNL     1      -6.636   6.180  65.375  1.00  0.00    -0.043 C  
BRANCH   7   9
HETATM    9  N   UNL     1      -9.701   7.853  68.216  1.00  0.00    -0.156 NA 
HETATM   10  C   UNL     1     -10.425   7.053  69.201  1.00  0.00    -0.207 C  
HETATM   11  N   UNL     1      -9.502   6.418  70.145  1.00  0.00    -0.160 NA 
HETATM   12  C   UNL     1      -8.812   7.468  70.932  1.00  0.00    -0.144 C  
HETATM   13  H1  UNL     1      -7.287  10.433  70.350  1.00  0.00     0.000 HD 
HETATM   14  C   UNL     1      -8.067   8.535  70.081  1.00  0.00    -0.111 C  
HETATM   15  H2  UNL     1      -7.262   9.495  71.758  1.00  0.00     0.000 HD 
HETATM   16  C   UNL     1      -6.694   8.019  69.620  1.00  0.00    -0.038 C  
HETATM   17  N   UNL     1      -7.775   9.733  70.909  1.00  0.00    -0.266 NA 
HETATM   18  C   UNL     1      -8.989   8.949  68.897  1.00  0.00    -0.137 C  
BRANCH  11  19
HETATM   19  C   UNL     1     -10.222   5.539  71.094  1.00  0.00    -0.222 C  
HETATM   20  C   UNL     1     -11.645   7.403  72.201  1.00  0.00    -0.331 C  
HETATM   21  C   UNL     1     -10.755   6.161  72.412  1.00  0.00    -0.267 C  
HETATM   22  C   UNL     1     -11.477   5.077  73.256  1.00  0.00    -0.339 C  
HETATM   23  C   UNL     1     -13.007   7.160  71.564  1.00  0.00    -0.431 C  
BRANCH  22  24
HETATM   24  C   UNL     1     -10.616   3.863  73.647  1.00  0.00    -0.289 C  
BRANCH  24  25
HETATM   25  C   UNL     1     -11.244   2.517  73.280  1.00  0.00    -0.221 C  
HETATM   26  C   UNL     1     -10.391   1.756  72.276  1.00  0.00    -0.224 C  
ENDBRANCH  24  25
ENDBRANCH  22  24
ENDBRANCH  11  19
ENDBRANCH   7   9
ENDBRANCH   3   4
ENDBRANCH   2   3
TORSDOF 6
ENDMDL
MODEL      153
REMARK 921   NORMALIZED FREE ENERGY PREDICTED BY IDOCK:   -2.98 KCAL/MOL
REMARK 922        TOTAL FREE ENERGY PREDICTED BY IDOCK:   -4.82 KCAL/MOL
REMARK 923 INTER-LIGAND FREE ENERGY PREDICTED BY IDOCK:   -4.65 KCAL/MOL
REMARK 924 INTRA-LIGAND FREE ENERGY PREDICTED BY IDOCK:   -0.16 KCAL/MOL
REMARK 927      BINDING AFFINITY PREDICTED BY RF-SCORE:    0.00 PKD
ROOT
HETATM    1  C   UNL     1      -7.322   9.729  70.266  1.00  0.00    -0.165 C  
HETATM    2  C   UNL     1      -8.220   8.568  69.863  1.00  0.00    -0.121 C  
ENDROOT
BRANCH   2   3
HETATM    3  C   UNL     1      -9.578   9.081  69.394  1.00  0.00    -0.160 C  
BRANCH   3   4
HETATM    4  C   UNL     1      -9.768  10.568  69.702  1.00  0.00    -0.092 C  
HETATM    5  C   UNL     1     -10.957  11.179  68.936  1.00  0.00    -0.276 C  
HETATM    6  C   UNL     1     -12.318  10.492  69.209  1.00  0.00     0.111 C  
HETATM    7  C   UNL     1     -11.079  12.700  69.193  1.00  0.00    -0.195 C  
HETATM    8  C   UNL     1     -12.849  10.638  70.628  1.00  0.00    -0.404 C  
BRANCH   7   9
HETATM    9  N   UNL     1      -9.946  13.525  68.757  1.00  0.00    -0.135 NA 
HETATM   10  C   UNL     1      -8.950  12.792  67.979  1.00  0.00    -0.196 C  
HETATM   11  N   UNL     1      -9.516  12.314  66.715  1.00  0.00    -0.216 NA 
HETATM   12  C   UNL     1      -9.882  13.481  65.874  1.00  0.00    -0.241 C  
HETATM   13  H1  UNL     1     -11.453  16.452  66.268  1.00  0.00     0.000 HD 
HETATM   14  C   UNL     1     -10.846  14.494  66.552  1.00  0.00    -0.314 C  
HETATM   15  H2  UNL     1     -11.024  15.671  64.830  1.00  0.00     0.000 HD 
HETATM   16  C   UNL     1     -12.305  14.014  66.469  1.00  0.00    -0.442 C  
HETATM   17  N   UNL     1     -10.820  15.788  65.823  1.00  0.00    -0.308 NA 
HETATM   18  C   UNL     1     -10.367  14.726  68.015  1.00  0.00    -0.237 C  
BRANCH  11  19
HETATM   19  C   UNL     1      -8.539  11.499  65.960  1.00  0.00    -0.046 C  
HETATM   20  C   UNL     1     -10.223  10.540  64.236  1.00  0.00    -0.314 C  
HETATM   21  C   UNL     1      -9.055  10.247  65.201  1.00  0.00    -0.234 C  
HETATM   22  C   UNL     1      -7.878   9.542  64.477  1.00  0.00    -0.126 C  
HETATM   23  C   UNL     1      -9.889  11.363  63.000  1.00  0.00    -0.373 C  
BRANCH  22  24
HETATM   24  C   UNL     1      -6.728   9.075  65.387  1.00  0.00    -0.072 C  
BRANCH  24  25
HETATM   25  C   UNL     1      -6.907   7.656  65.929  1.00  0.00    -0.057 C  
HETATM   26  C   UNL     1      -5.970   7.379  67.095  1.00  0.00    -0.042 C  
ENDBRANCH  24  25
ENDBRANCH  22  24
ENDBRANCH  11  19
ENDBRANCH   7   9
ENDBRANCH   3   4
ENDBRANCH   2   3
TORSDOF 6
ENDMDL
MODEL      154
REMARK 921   NORMALIZED FREE ENERGY PREDICTED BY IDOCK:   -2.97 KCAL/MOL
REMARK 922        TOTAL FREE ENERGY PREDICTED BY IDOCK:   -4.81 KCAL/MOL
REMARK 923 INTER-LIGAND FREE ENERGY PREDICTED BY IDOCK:   -4.83 KCAL/MOL
REMARK 924 INTRA-LIGAND FREE ENERGY PREDICTED BY IDOCK:    0.02 KCAL/MOL
REMARK 927      BINDING AFFINITY PREDICTED BY RF-SCORE:    0.00 PKD
ROOT
HETATM    1  C   UNL     1      -9.743  11.026  63.083  1.00  0.00    -0.398 C  
HETATM    2  C   UNL     1      -8.545  10.449  62.342  1.00  0.00    -0.242 C  
ENDROOT
BRANCH   2   3
HETATM    3  C   UNL     1      -8.186   9.075  62.895  1.00  0.00    -0.186 C  
BRANCH   3   4
HETATM    4  C   UNL     1      -7.206   9.165  64.067  1.00  0.00    -0.096 C  
HETATM    5  C   UNL     1      -7.871   8.830  65.416  1.00  0.00    -0.100 C  
HETATM    6  C   UNL     1      -8.514   7.423  65.484  1.00  0.00    -0.126 C  
HETATM    7  C   UNL     1      -6.887   9.012  66.596  1.00  0.00    -0.080 C  
HETATM    8  C   UNL     1      -7.540   6.256  65.403  1.00  0.00    -0.088 C  
BRANCH   7   9
HETATM    9  N   UNL     1      -6.372  10.370  66.810  1.00  0.00    -0.070 NA 
HETATM   10  C   UNL     1      -7.320  11.422  66.447  1.00  0.00    -0.006 C  
HETATM   11  N   UNL     1      -8.507  11.380  67.305  1.00  0.00    -0.143 NA 
HETATM   12  C   UNL     1      -8.108  11.684  68.701  1.00  0.00    -0.121 C  
HETATM   13  H1  UNL     1      -5.655  10.785  70.853  1.00  0.00     0.000 HD 
HETATM   14  C   UNL     1      -6.992  10.764  69.273  1.00  0.00    -0.102 C  
HETATM   15  H2  UNL     1      -7.088  11.622  71.181  1.00  0.00     0.000 HD 
HETATM   16  C   UNL     1      -7.571   9.425  69.761  1.00  0.00    -0.095 C  
HETATM   17  N   UNL     1      -6.387  11.388  70.478  1.00  0.00    -0.280 NA 
HETATM   18  C   UNL     1      -5.893  10.590  68.185  1.00  0.00    -0.043 C  
BRANCH  11  19
HETATM   19  C   UNL     1      -9.508  12.388  66.890  1.00  0.00    -0.219 C  
HETATM   20  C   UNL     1      -8.508  14.368  68.234  1.00  0.00    -0.165 C  
HETATM   21  C   UNL     1      -9.779  13.589  67.835  1.00  0.00    -0.225 C  
HETATM   22  C   UNL     1     -10.851  14.522  67.214  1.00  0.00    -0.297 C  
HETATM   23  C   UNL     1      -7.832  15.169  67.129  1.00  0.00    -0.240 C  
BRANCH  22  24
HETATM   24  C   UNL     1     -12.211  13.863  66.923  1.00  0.00    -0.415 C  
BRANCH  24  25
HETATM   25  C   UNL     1     -12.647  13.967  65.460  1.00  0.00    -0.560 C  
HETATM   26  C   UNL     1     -12.586  12.618  64.760  1.00  0.00    -0.530 C  
ENDBRANCH  24  25
ENDBRANCH  22  24
ENDBRANCH  11  19
ENDBRANCH   7   9
ENDBRANCH   3   4
ENDBRANCH   2   3
TORSDOF 6
ENDMDL
MODEL      155
REMARK 921   NORMALIZED FREE ENERGY PREDICTED BY IDOCK:   -2.97 KCAL/MOL
REMARK 922        TOTAL FREE ENERGY PREDICTED BY IDOCK:   -4.80 KCAL/MOL
REMARK 923 INTER-LIGAND FREE ENERGY PREDICTED BY IDOCK:   -3.61 KCAL/MOL
REMARK 924 INTRA-LIGAND FREE ENERGY PREDICTED BY IDOCK:   -1.19 KCAL/MOL
REMARK 927      BINDING AFFINITY PREDICTED BY RF-SCORE:    0.00 PKD
ROOT
HETATM    1  C   UNL     1      -9.616   2.283  68.357  1.00  0.00    -0.122 C  
HETATM    2  C   UNL     1      -8.820   3.367  69.070  1.00  0.00    -0.161 C  
ENDROOT
BRANCH   2   3
HETATM    3  C   UNL     1      -9.581   3.873  70.291  1.00  0.00    -0.271 C  
BRANCH   3   4
HETATM    4  C   UNL     1      -9.177   5.300  70.669  1.00  0.00    -0.187 C  
HETATM    5  C   UNL     1      -9.753   6.350  69.699  1.00  0.00    -0.170 C  
HETATM    6  C   UNL     1     -11.297   6.341  69.587  1.00  0.00    -0.492 C  
HETATM    7  C   UNL     1      -9.263   7.775  70.047  1.00  0.00    -0.153 C  
HETATM    8  C   UNL     1     -12.046   6.748  70.848  1.00  0.00    -0.421 C  
BRANCH   7   9
HETATM    9  N   UNL     1      -7.815   8.004  69.959  1.00  0.00    -0.102 NA 
HETATM   10  C   UNL     1      -7.237   7.626  68.671  1.00  0.00    -0.082 C  
HETATM   11  N   UNL     1      -7.769   8.461  67.591  1.00  0.00    -0.098 NA 
HETATM   12  C   UNL     1      -7.345   9.865  67.808  1.00  0.00    -0.089 C  
HETATM   13  H1  UNL     1      -7.190  12.061  70.378  1.00  0.00     0.000 HD 
HETATM   14  C   UNL     1      -7.736  10.456  69.192  1.00  0.00    -0.126 C  
HETATM   15  H2  UNL     1      -7.014  12.364  68.723  1.00  0.00     0.000 HD 
HETATM   16  C   UNL     1      -9.200  10.927  69.202  1.00  0.00    -0.077 C  
HETATM   17  N   UNL     1      -6.933  11.674  69.470  1.00  0.00    -0.057 NA 
HETATM   18  C   UNL     1      -7.434   9.389  70.285  1.00  0.00    -0.128 C  
BRANCH  11  19
HETATM   19  C   UNL     1      -7.253   8.029  66.273  1.00  0.00    -0.071 C  
HETATM   20  C   UNL     1      -9.138   9.103  64.851  1.00  0.00    -0.190 C  
HETATM   21  C   UNL     1      -8.264   7.858  65.107  1.00  0.00    -0.143 C  
HETATM   22  C   UNL     1      -7.520   7.408  63.822  1.00  0.00    -0.104 C  
HETATM   23  C   UNL     1      -8.427  10.325  64.283  1.00  0.00    -0.181 C  
BRANCH  22  24
HETATM   24  C   UNL     1      -6.740   6.086  63.939  1.00  0.00    -0.037 C  
BRANCH  24  25
HETATM   25  C   UNL     1      -7.627   4.866  64.193  1.00  0.00    -0.069 C  
HETATM   26  C   UNL     1      -7.427   4.310  65.595  1.00  0.00    -0.081 C  
ENDBRANCH  24  25
ENDBRANCH  22  24
ENDBRANCH  11  19
ENDBRANCH   7   9
ENDBRANCH   3   4
ENDBRANCH   2   3
TORSDOF 6
ENDMDL
MODEL      156
REMARK 921   NORMALIZED FREE ENERGY PREDICTED BY IDOCK:   -2.96 KCAL/MOL
REMARK 922        TOTAL FREE ENERGY PREDICTED BY IDOCK:   -4.79 KCAL/MOL
REMARK 923 INTER-LIGAND FREE ENERGY PREDICTED BY IDOCK:   -3.70 KCAL/MOL
REMARK 924 INTRA-LIGAND FREE ENERGY PREDICTED BY IDOCK:   -1.09 KCAL/MOL
REMARK 927      BINDING AFFINITY PREDICTED BY RF-SCORE:    0.00 PKD
ROOT
HETATM    1  C   UNL     1      -8.605   4.398  64.888  1.00  0.00    -0.130 C  
HETATM    2  C   UNL     1      -7.336   4.043  65.649  1.00  0.00    -0.076 C  
ENDROOT
BRANCH   2   3
HETATM    3  C   UNL     1      -6.948   5.174  66.597  1.00  0.00    -0.064 C  
BRANCH   3   4
HETATM    4  C   UNL     1      -7.933   6.343  66.530  1.00  0.00    -0.109 C  
HETATM    5  C   UNL     1      -7.469   7.551  67.367  1.00  0.00    -0.104 C  
HETATM    6  C   UNL     1      -6.084   8.115  66.966  1.00  0.00    -0.054 C  
HETATM    7  C   UNL     1      -8.518   8.687  67.356  1.00  0.00    -0.123 C  
HETATM    8  C   UNL     1      -6.010   8.743  65.582  1.00  0.00    -0.051 C  
BRANCH   7   9
HETATM    9  N   UNL     1      -9.828   8.367  67.937  1.00  0.00    -0.162 NA 
HETATM   10  C   UNL     1      -9.772   8.013  69.354  1.00  0.00    -0.170 C  
HETATM   11  N   UNL     1      -9.322   9.149  70.163  1.00  0.00    -0.192 NA 
HETATM   12  C   UNL     1     -10.326  10.237  70.075  1.00  0.00    -0.202 C  
HETATM   13  H1  UNL     1     -12.149  11.770  67.671  1.00  0.00     0.000 HD 
HETATM   14  C   UNL     1     -10.658  10.700  68.628  1.00  0.00    -0.203 C  
HETATM   15  H2  UNL     1     -11.911  12.247  69.276  1.00  0.00     0.000 HD 
HETATM   16  C   UNL     1      -9.595  11.677  68.099  1.00  0.00    -0.190 C  
HETATM   17  N   UNL     1     -11.931  11.466  68.620  1.00  0.00    -0.517 NA 
HETATM   18  C   UNL     1     -10.821   9.437  67.733  1.00  0.00    -0.159 C  
BRANCH  11  19
HETATM   19  C   UNL     1      -9.182   8.774  71.587  1.00  0.00    -0.263 C  
HETATM   20  C   UNL     1      -6.741   7.911  71.427  1.00  0.00    -0.046 C  
HETATM   21  C   UNL     1      -8.167   7.659  71.958  1.00  0.00    -0.122 C  
HETATM   22  C   UNL     1      -8.173   7.425  73.492  1.00  0.00    -0.163 C  
HETATM   23  C   UNL     1      -5.974   9.060  72.068  1.00  0.00    -0.068 C  
BRANCH  22  24
HETATM   24  C   UNL     1      -9.531   7.016  74.092  1.00  0.00    -0.285 C  
BRANCH  24  25
HETATM   25  C   UNL     1     -10.007   5.630  73.655  1.00  0.00    -0.190 C  
HETATM   26  C   UNL     1     -11.468   5.647  73.231  1.00  0.00    -0.059 C  
ENDBRANCH  24  25
ENDBRANCH  22  24
ENDBRANCH  11  19
ENDBRANCH   7   9
ENDBRANCH   3   4
ENDBRANCH   2   3
TORSDOF 6
ENDMDL
MODEL      157
REMARK 921   NORMALIZED FREE ENERGY PREDICTED BY IDOCK:   -2.96 KCAL/MOL
REMARK 922        TOTAL FREE ENERGY PREDICTED BY IDOCK:   -4.79 KCAL/MOL
REMARK 923 INTER-LIGAND FREE ENERGY PREDICTED BY IDOCK:   -3.82 KCAL/MOL
REMARK 924 INTRA-LIGAND FREE ENERGY PREDICTED BY IDOCK:   -0.96 KCAL/MOL
REMARK 927      BINDING AFFINITY PREDICTED BY RF-SCORE:    0.00 PKD
ROOT
HETATM    1  C   UNL     1      -7.784   4.245  65.668  1.00  0.00    -0.090 C  
HETATM    2  C   UNL     1      -7.001   4.927  66.781  1.00  0.00    -0.067 C  
ENDROOT
BRANCH   2   3
HETATM    3  C   UNL     1      -7.399   6.394  66.893  1.00  0.00    -0.079 C  
BRANCH   3   4
HETATM    4  C   UNL     1      -8.802   6.566  67.480  1.00  0.00    -0.112 C  
HETATM    5  C   UNL     1      -9.008   7.957  68.111  1.00  0.00    -0.131 C  
HETATM    6  C   UNL     1      -8.786   9.142  67.140  1.00  0.00    -0.130 C  
HETATM    7  C   UNL     1     -10.401   8.080  68.774  1.00  0.00    -0.206 C  
HETATM    8  C   UNL     1      -9.788   9.248  65.999  1.00  0.00    -0.363 C  
BRANCH   7   9
HETATM    9  N   UNL     1     -10.671   7.166  69.892  1.00  0.00    -0.233 NA 
HETATM   10  C   UNL     1      -9.545   7.015  70.812  1.00  0.00    -0.164 C  
HETATM   11  N   UNL     1      -9.243   8.280  71.486  1.00  0.00    -0.160 NA 
HETATM   12  C   UNL     1     -10.393   8.663  72.341  1.00  0.00    -0.247 C  
HETATM   13  H1  UNL     1     -13.764   8.796  72.083  1.00  0.00     0.000 HD 
HETATM   14  C   UNL     1     -11.754   8.758  71.595  1.00  0.00    -0.332 C  
HETATM   15  H2  UNL     1     -12.774   9.459  73.284  1.00  0.00     0.000 HD 
HETATM   16  C   UNL     1     -11.891  10.101  70.858  1.00  0.00    -0.468 C  
HETATM   17  N   UNL     1     -12.872   8.734  72.573  1.00  0.00    -0.375 NA 
HETATM   18  C   UNL     1     -11.882   7.530  70.647  1.00  0.00    -0.179 C  
BRANCH  11  19
HETATM   19  C   UNL     1      -8.052   8.156  72.356  1.00  0.00    -0.146 C  
HETATM   20  C   UNL     1      -6.285   8.527  70.493  1.00  0.00    -0.035 C  
HETATM   21  C   UNL     1      -6.718   7.689  71.714  1.00  0.00    -0.049 C  
HETATM   22  C   UNL     1      -5.603   7.630  72.791  1.00  0.00    -0.040 C  
HETATM   23  C   UNL     1      -5.848   9.958  70.775  1.00  0.00    -0.086 C  
BRANCH  22  24
HETATM   24  C   UNL     1      -5.882   6.694  73.981  1.00  0.00    -0.062 C  
BRANCH  24  25
HETATM   25  C   UNL     1      -6.337   5.293  73.570  1.00  0.00    -0.061 C  
HETATM   26  C   UNL     1      -5.325   4.233  73.979  1.00  0.00    -0.008 C  
ENDBRANCH  24  25
ENDBRANCH  22  24
ENDBRANCH  11  19
ENDBRANCH   7   9
ENDBRANCH   3   4
ENDBRANCH   2   3
TORSDOF 6
ENDMDL
MODEL      158
REMARK 921   NORMALIZED FREE ENERGY PREDICTED BY IDOCK:   -2.94 KCAL/MOL
REMARK 922        TOTAL FREE ENERGY PREDICTED BY IDOCK:   -4.76 KCAL/MOL
REMARK 923 INTER-LIGAND FREE ENERGY PREDICTED BY IDOCK:   -4.74 KCAL/MOL
REMARK 924 INTRA-LIGAND FREE ENERGY PREDICTED BY IDOCK:   -0.02 KCAL/MOL
REMARK 927      BINDING AFFINITY PREDICTED BY RF-SCORE:    0.00 PKD
ROOT
HETATM    1  C   UNL     1     -12.210  13.112  63.377  1.00  0.00    -0.521 C  
HETATM    2  C   UNL     1     -12.232  13.941  64.654  1.00  0.00    -0.449 C  
ENDROOT
BRANCH   2   3
HETATM    3  C   UNL     1     -10.852  13.956  65.304  1.00  0.00    -0.337 C  
BRANCH   3   4
HETATM    4  C   UNL     1     -10.811  13.116  66.583  1.00  0.00    -0.292 C  
HETATM    5  C   UNL     1      -9.374  12.742  66.994  1.00  0.00    -0.229 C  
HETATM    6  C   UNL     1      -8.437  13.953  67.228  1.00  0.00    -0.212 C  
HETATM    7  C   UNL     1      -9.358  11.823  68.238  1.00  0.00    -0.193 C  
HETATM    8  C   UNL     1      -8.799  14.839  68.411  1.00  0.00    -0.181 C  
BRANCH   7   9
HETATM    9  N   UNL     1     -10.009  10.515  68.087  1.00  0.00    -0.150 NA 
HETATM   10  C   UNL     1      -9.443   9.475  68.943  1.00  0.00    -0.155 C  
HETATM   11  N   UNL     1      -9.652   9.786  70.359  1.00  0.00    -0.226 NA 
HETATM   12  C   UNL     1     -11.107   9.776  70.649  1.00  0.00    -0.332 C  
HETATM   13  H1  UNL     1     -13.945  10.968  69.243  1.00  0.00     0.000 HD 
HETATM   14  C   UNL     1     -11.955  10.724  69.755  1.00  0.00    -0.325 C  
HETATM   15  H2  UNL     1     -13.728  10.323  70.792  1.00  0.00     0.000 HD 
HETATM   16  C   UNL     1     -11.892  12.173  70.265  1.00  0.00    -0.339 C  
HETATM   17  N   UNL     1     -13.389  10.346  69.830  1.00  0.00     0.236 NA 
HETATM   18  C   UNL     1     -11.468  10.577  68.284  1.00  0.00    -0.199 C  
BRANCH  11  19
HETATM   19  C   UNL     1      -9.008   8.780  71.233  1.00  0.00    -0.231 C  
HETATM   20  C   UNL     1      -6.664   8.887  70.128  1.00  0.00    -0.041 C  
HETATM   21  C   UNL     1      -7.794   7.990  70.674  1.00  0.00    -0.091 C  
HETATM   22  C   UNL     1      -7.269   6.997  71.745  1.00  0.00    -0.078 C  
HETATM   23  C   UNL     1      -5.884   9.694  71.156  1.00  0.00    -0.077 C  
BRANCH  22  24
HETATM   24  C   UNL     1      -8.292   5.959  72.241  1.00  0.00    -0.118 C  
BRANCH  24  25
HETATM   25  C   UNL     1      -8.144   5.604  73.721  1.00  0.00    -0.107 C  
HETATM   26  C   UNL     1      -8.769   4.254  74.039  1.00  0.00    -0.096 C  
ENDBRANCH  24  25
ENDBRANCH  22  24
ENDBRANCH  11  19
ENDBRANCH   7   9
ENDBRANCH   3   4
ENDBRANCH   2   3
TORSDOF 6
ENDMDL
MODEL      159
REMARK 921   NORMALIZED FREE ENERGY PREDICTED BY IDOCK:   -2.94 KCAL/MOL
REMARK 922        TOTAL FREE ENERGY PREDICTED BY IDOCK:   -4.76 KCAL/MOL
REMARK 923 INTER-LIGAND FREE ENERGY PREDICTED BY IDOCK:   -4.10 KCAL/MOL
REMARK 924 INTRA-LIGAND FREE ENERGY PREDICTED BY IDOCK:   -0.66 KCAL/MOL
REMARK 927      BINDING AFFINITY PREDICTED BY RF-SCORE:    0.00 PKD
ROOT
HETATM    1  C   UNL     1      -7.144   7.049  72.262  1.00  0.00    -0.072 C  
HETATM    2  C   UNL     1      -8.398   6.677  71.483  1.00  0.00    -0.120 C  
ENDROOT
BRANCH   2   3
HETATM    3  C   UNL     1      -8.724   7.752  70.451  1.00  0.00    -0.139 C  
BRANCH   3   4
HETATM    4  C   UNL     1      -8.465   7.271  69.021  1.00  0.00    -0.129 C  
HETATM    5  C   UNL     1      -7.555   8.235  68.234  1.00  0.00    -0.101 C  
HETATM    6  C   UNL     1      -6.168   8.478  68.879  1.00  0.00    -0.044 C  
HETATM    7  C   UNL     1      -7.376   7.778  66.767  1.00  0.00    -0.089 C  
HETATM    8  C   UNL     1      -5.248   7.267  68.925  1.00  0.00    -0.014 C  
BRANCH   7   9
HETATM    9  N   UNL     1      -8.593   7.731  65.948  1.00  0.00    -0.148 NA 
HETATM   10  C   UNL     1      -9.498   8.856  66.176  1.00  0.00    -0.251 C  
HETATM   11  N   UNL     1      -8.878  10.120  65.772  1.00  0.00    -0.152 NA 
HETATM   12  C   UNL     1      -8.644  10.101  64.307  1.00  0.00    -0.193 C  
HETATM   13  H1  UNL     1      -7.420   7.951  61.998  1.00  0.00     0.000 HD 
HETATM   14  C   UNL     1      -7.802   8.897  63.798  1.00  0.00    -0.138 C  
HETATM   15  H2  UNL     1      -7.754   9.601  61.827  1.00  0.00     0.000 HD 
HETATM   16  C   UNL     1      -6.299   9.144  64.006  1.00  0.00    -0.088 C  
HETATM   17  N   UNL     1      -7.973   8.741  62.331  1.00  0.00    -0.136 NA 
HETATM   18  C   UNL     1      -8.309   7.608  64.508  1.00  0.00     0.029 C  
BRANCH  11  19
HETATM   19  C   UNL     1      -9.755  11.272  66.077  1.00  0.00    -0.220 C  
HETATM   20  C   UNL     1     -10.652  10.370  68.337  1.00  0.00    -0.238 C  
HETATM   21  C   UNL     1     -10.990  11.036  66.987  1.00  0.00    -0.333 C  
HETATM   22  C   UNL     1     -11.767  12.364  67.183  1.00  0.00    -0.415 C  
HETATM   23  C   UNL     1      -9.867  11.216  69.331  1.00  0.00     0.099 C  
BRANCH  22  24
HETATM   24  C   UNL     1     -12.280  13.025  65.892  1.00  0.00    -0.493 C  
BRANCH  24  25
HETATM   25  C   UNL     1     -11.799  14.465  65.702  1.00  0.00    -0.355 C  
HETATM   26  C   UNL     1     -11.993  14.936  64.268  1.00  0.00    -0.355 C  
ENDBRANCH  24  25
ENDBRANCH  22  24
ENDBRANCH  11  19
ENDBRANCH   7   9
ENDBRANCH   3   4
ENDBRANCH   2   3
TORSDOF 6
ENDMDL
MODEL      160
REMARK 921   NORMALIZED FREE ENERGY PREDICTED BY IDOCK:   -2.93 KCAL/MOL
REMARK 922        TOTAL FREE ENERGY PREDICTED BY IDOCK:   -4.74 KCAL/MOL
REMARK 923 INTER-LIGAND FREE ENERGY PREDICTED BY IDOCK:   -4.47 KCAL/MOL
REMARK 924 INTRA-LIGAND FREE ENERGY PREDICTED BY IDOCK:   -0.27 KCAL/MOL
REMARK 927      BINDING AFFINITY PREDICTED BY RF-SCORE:    0.00 PKD
ROOT
HETATM    1  C   UNL     1      -9.059   9.230  64.724  1.00  0.00    -0.201 C  
HETATM    2  C   UNL     1      -9.001  10.714  65.057  1.00  0.00    -0.218 C  
ENDROOT
BRANCH   2   3
HETATM    3  C   UNL     1     -10.364  11.210  65.527  1.00  0.00    -0.326 C  
BRANCH   3   4
HETATM    4  C   UNL     1     -10.756  10.615  66.882  1.00  0.00    -0.297 C  
HETATM    5  C   UNL     1      -9.847  11.109  68.025  1.00  0.00    -0.185 C  
HETATM    6  C   UNL     1      -9.821  12.647  68.206  1.00  0.00    -0.227 C  
HETATM    7  C   UNL     1     -10.203  10.431  69.369  1.00  0.00    -0.234 C  
HETATM    8  C   UNL     1     -11.133  13.272  68.658  1.00  0.00    -0.301 C  
BRANCH   7   9
HETATM    9  N   UNL     1     -10.040   8.973  69.424  1.00  0.00    -0.192 NA 
HETATM   10  C   UNL     1      -8.916   8.538  70.252  1.00  0.00    -0.149 C  
HETATM   11  N   UNL     1      -9.126   8.900  71.656  1.00  0.00    -0.318 NA 
HETATM   12  C   UNL     1     -10.301   8.160  72.179  1.00  0.00    -0.274 C  
HETATM   13  H1  UNL     1     -13.446   7.427  71.168  1.00  0.00     0.000 HD 
HETATM   14  C   UNL     1     -11.610   8.362  71.365  1.00  0.00    -0.284 C  
HETATM   15  H2  UNL     1     -12.763   7.240  72.704  1.00  0.00     0.000 HD 
HETATM   16  C   UNL     1     -12.305   9.679  71.749  1.00  0.00    -0.474 C  
HETATM   17  N   UNL     1     -12.587   7.294  71.701  1.00  0.00    -0.353 NA 
HETATM   18  C   UNL     1     -11.266   8.276  69.850  1.00  0.00    -0.028 C  
BRANCH  11  19
HETATM   19  C   UNL     1      -7.955   8.538  72.486  1.00  0.00    -0.042 C  
HETATM   20  C   UNL     1      -6.158   8.971  70.666  1.00  0.00    -0.040 C  
HETATM   21  C   UNL     1      -6.676   8.026  71.770  1.00  0.00    -0.058 C  
HETATM   22  C   UNL     1      -5.574   7.710  72.815  1.00  0.00    -0.040 C  
HETATM   23  C   UNL     1      -5.574  10.299  71.131  1.00  0.00    -0.062 C  
BRANCH  22  24
HETATM   24  C   UNL     1      -5.951   6.656  73.873  1.00  0.00    -0.063 C  
BRANCH  24  25
HETATM   25  C   UNL     1      -6.011   5.229  73.328  1.00  0.00    -0.027 C  
HETATM   26  C   UNL     1      -7.440   4.710  73.274  1.00  0.00    -0.083 C  
ENDBRANCH  24  25
ENDBRANCH  22  24
ENDBRANCH  11  19
ENDBRANCH   7   9
ENDBRANCH   3   4
ENDBRANCH   2   3
TORSDOF 6
ENDMDL
MODEL      161
REMARK 921   NORMALIZED FREE ENERGY PREDICTED BY IDOCK:   -2.93 KCAL/MOL
REMARK 922        TOTAL FREE ENERGY PREDICTED BY IDOCK:   -4.74 KCAL/MOL
REMARK 923 INTER-LIGAND FREE ENERGY PREDICTED BY IDOCK:   -3.39 KCAL/MOL
REMARK 924 INTRA-LIGAND FREE ENERGY PREDICTED BY IDOCK:   -1.35 KCAL/MOL
REMARK 927      BINDING AFFINITY PREDICTED BY RF-SCORE:    0.00 PKD
ROOT
HETATM    1  C   UNL     1     -10.236  10.057  65.320  1.00  0.00    -0.196 C  
HETATM    2  C   UNL     1      -9.849  11.511  65.551  1.00  0.00    -0.269 C  
ENDROOT
BRANCH   2   3
HETATM    3  C   UNL     1     -10.785  12.157  66.567  1.00  0.00    -0.290 C  
BRANCH   3   4
HETATM    4  C   UNL     1     -11.409  11.126  67.510  1.00  0.00    -0.351 C  
HETATM    5  C   UNL     1     -10.699  11.076  68.877  1.00  0.00    -0.249 C  
HETATM    6  C   UNL     1     -10.682  12.423  69.641  1.00  0.00     0.384 C  
HETATM    7  C   UNL     1     -11.287   9.969  69.784  1.00  0.00    -0.228 C  
HETATM    8  C   UNL     1     -12.042  12.931  70.098  1.00  0.00    -0.373 C  
BRANCH   7   9
HETATM    9  N   UNL     1     -11.157   8.591  69.294  1.00  0.00     0.047 NA 
HETATM   10  C   UNL     1      -9.851   8.297  68.708  1.00  0.00    -0.173 C  
HETATM   11  N   UNL     1      -8.790   8.391  69.713  1.00  0.00    -0.133 NA 
HETATM   12  C   UNL     1      -8.998   7.341  70.740  1.00  0.00    -0.152 C  
HETATM   13  H1  UNL     1     -11.568   6.091  72.552  1.00  0.00     0.000 HD 
HETATM   14  C   UNL     1     -10.395   7.368  71.422  1.00  0.00    -0.194 C  
HETATM   15  H2  UNL     1      -9.910   5.833  72.761  1.00  0.00     0.000 HD 
HETATM   16  C   UNL     1     -10.449   8.427  72.536  1.00  0.00    -0.372 C  
HETATM   17  N   UNL     1     -10.652   6.073  72.104  1.00  0.00    -0.206 NA 
HETATM   18  C   UNL     1     -11.475   7.586  70.324  1.00  0.00    -0.152 C  
BRANCH  11  19
HETATM   19  C   UNL     1      -7.456   8.177  69.109  1.00  0.00    -0.087 C  
HETATM   20  C   UNL     1      -6.927  10.677  68.666  1.00  0.00    -0.072 C  
HETATM   21  C   UNL     1      -6.921   9.238  68.110  1.00  0.00    -0.076 C  
HETATM   22  C   UNL     1      -5.515   8.827  67.601  1.00  0.00    -0.035 C  
HETATM   23  C   UNL     1      -5.933  10.976  69.781  1.00  0.00    -0.086 C  
BRANCH  22  24
HETATM   24  C   UNL     1      -5.442   7.464  66.891  1.00  0.00    -0.023 C  
BRANCH  24  25
HETATM   25  C   UNL     1      -6.392   7.336  65.700  1.00  0.00    -0.041 C  
HETATM   26  C   UNL     1      -6.105   8.388  64.639  1.00  0.00    -0.064 C  
ENDBRANCH  24  25
ENDBRANCH  22  24
ENDBRANCH  11  19
ENDBRANCH   7   9
ENDBRANCH   3   4
ENDBRANCH   2   3
TORSDOF 6
ENDMDL
MODEL      162
REMARK 921   NORMALIZED FREE ENERGY PREDICTED BY IDOCK:   -2.92 KCAL/MOL
REMARK 922        TOTAL FREE ENERGY PREDICTED BY IDOCK:   -4.73 KCAL/MOL
REMARK 923 INTER-LIGAND FREE ENERGY PREDICTED BY IDOCK:   -4.97 KCAL/MOL
REMARK 924 INTRA-LIGAND FREE ENERGY PREDICTED BY IDOCK:    0.24 KCAL/MOL
REMARK 927      BINDING AFFINITY PREDICTED BY RF-SCORE:    0.00 PKD
ROOT
HETATM    1  C   UNL     1     -10.876   5.673  71.222  1.00  0.00    -0.289 C  
HETATM    2  C   UNL     1     -10.630   6.258  72.606  1.00  0.00    -0.243 C  
ENDROOT
BRANCH   2   3
HETATM    3  C   UNL     1     -11.364   7.585  72.763  1.00  0.00    -0.388 C  
BRANCH   3   4
HETATM    4  C   UNL     1     -10.625   8.735  72.074  1.00  0.00    -0.414 C  
HETATM    5  C   UNL     1     -11.269   9.124  70.729  1.00  0.00    -0.336 C  
HETATM    6  C   UNL     1     -12.755   9.548  70.827  1.00  0.00    -0.135 C  
HETATM    7  C   UNL     1     -10.458  10.227  70.009  1.00  0.00    -0.241 C  
HETATM    8  C   UNL     1     -13.018  10.834  71.597  1.00  0.00    -0.581 C  
BRANCH   7   9
HETATM    9  N   UNL     1      -9.083   9.880  69.629  1.00  0.00    -0.216 NA 
HETATM   10  C   UNL     1      -8.963   8.570  68.992  1.00  0.00    -0.146 C  
HETATM   11  N   UNL     1      -9.676   8.539  67.713  1.00  0.00    -0.156 NA 
HETATM   12  C   UNL     1      -9.030   9.487  66.772  1.00  0.00    -0.138 C  
HETATM   13  H1  UNL     1      -7.847  12.656  66.837  1.00  0.00     0.000 HD 
HETATM   14  C   UNL     1      -8.918  10.947  67.295  1.00  0.00    -0.137 C  
HETATM   15  H2  UNL     1      -8.127  11.665  65.495  1.00  0.00     0.000 HD 
HETATM   16  C   UNL     1     -10.242  11.707  67.108  1.00  0.00    -0.240 C  
HETATM   17  N   UNL     1      -7.920  11.699  66.493  1.00  0.00    -0.106 NA 
HETATM   18  C   UNL     1      -8.449  10.903  68.779  1.00  0.00    -0.150 C  
BRANCH  11  19
HETATM   19  C   UNL     1      -9.630   7.191  67.103  1.00  0.00    -0.151 C  
HETATM   20  C   UNL     1      -7.355   6.481  68.128  1.00  0.00    -0.090 C  
HETATM   21  C   UNL     1      -8.241   6.539  66.866  1.00  0.00    -0.113 C  
HETATM   22  C   UNL     1      -8.416   5.136  66.227  1.00  0.00    -0.114 C  
HETATM   23  C   UNL     1      -7.806   5.530  69.229  1.00  0.00    -0.091 C  
BRANCH  22  24
HETATM   24  C   UNL     1      -9.159   5.113  64.879  1.00  0.00    -0.042 C  
BRANCH  24  25
HETATM   25  C   UNL     1     -10.371   4.180  64.858  1.00  0.00    -0.210 C  
HETATM   26  C   UNL     1     -10.427   3.364  63.575  1.00  0.00    -0.248 C  
ENDBRANCH  24  25
ENDBRANCH  22  24
ENDBRANCH  11  19
ENDBRANCH   7   9
ENDBRANCH   3   4
ENDBRANCH   2   3
TORSDOF 6
ENDMDL
MODEL      163
REMARK 921   NORMALIZED FREE ENERGY PREDICTED BY IDOCK:   -2.91 KCAL/MOL
REMARK 922        TOTAL FREE ENERGY PREDICTED BY IDOCK:   -4.72 KCAL/MOL
REMARK 923 INTER-LIGAND FREE ENERGY PREDICTED BY IDOCK:   -3.61 KCAL/MOL
REMARK 924 INTRA-LIGAND FREE ENERGY PREDICTED BY IDOCK:   -1.11 KCAL/MOL
REMARK 927      BINDING AFFINITY PREDICTED BY RF-SCORE:    0.00 PKD
ROOT
HETATM    1  C   UNL     1      -8.628   4.555  64.958  1.00  0.00    -0.133 C  
HETATM    2  C   UNL     1      -7.618   4.265  66.059  1.00  0.00    -0.089 C  
ENDROOT
BRANCH   2   3
HETATM    3  C   UNL     1      -7.557   5.425  67.047  1.00  0.00    -0.092 C  
BRANCH   3   4
HETATM    4  C   UNL     1      -8.951   5.905  67.455  1.00  0.00    -0.107 C  
HETATM    5  C   UNL     1      -8.899   7.038  68.499  1.00  0.00    -0.124 C  
HETATM    6  C   UNL     1      -8.112   8.292  68.047  1.00  0.00    -0.127 C  
HETATM    7  C   UNL     1     -10.316   7.449  68.963  1.00  0.00    -0.210 C  
HETATM    8  C   UNL     1      -8.726   9.065  66.889  1.00  0.00    -0.132 C  
BRANCH   7   9
HETATM    9  N   UNL     1     -11.105   6.412  69.640  1.00  0.00    -0.366 NA 
HETATM   10  C   UNL     1     -10.393   5.751  70.732  1.00  0.00    -0.237 C  
HETATM   11  N   UNL     1     -10.093   6.694  71.812  1.00  0.00    -0.183 NA 
HETATM   12  C   UNL     1     -11.365   7.169  72.410  1.00  0.00    -0.274 C  
HETATM   13  H1  UNL     1     -14.377   8.273  71.333  1.00  0.00     0.000 HD 
HETATM   14  C   UNL     1     -12.363   7.801  71.400  1.00  0.00    -0.323 C  
HETATM   15  H2  UNL     1     -13.726   8.344  72.893  1.00  0.00     0.000 HD 
HETATM   16  C   UNL     1     -11.994   9.263  71.096  1.00  0.00    -0.394 C  
HETATM   17  N   UNL     1     -13.722   7.858  71.996  1.00  0.00    -0.271 NA 
HETATM   18  C   UNL     1     -12.405   6.908  70.126  1.00  0.00     0.194 C  
BRANCH  11  19
HETATM   19  C   UNL     1      -9.299   6.052  72.883  1.00  0.00    -0.147 C  
HETATM   20  C   UNL     1      -7.008   6.188  71.674  1.00  0.00    -0.076 C  
HETATM   21  C   UNL     1      -7.989   5.319  72.488  1.00  0.00    -0.103 C  
HETATM   22  C   UNL     1      -7.313   4.724  73.751  1.00  0.00    -0.082 C  
HETATM   23  C   UNL     1      -6.343   7.337  72.419  1.00  0.00    -0.051 C  
BRANCH  22  24
HETATM   24  C   UNL     1      -8.167   3.722  74.548  1.00  0.00    -0.085 C  
BRANCH  24  25
HETATM   25  C   UNL     1      -8.520   2.454  73.768  1.00  0.00    -0.063 C  
HETATM   26  C   UNL     1      -9.977   2.063  73.965  1.00  0.00    -0.137 C  
ENDBRANCH  24  25
ENDBRANCH  22  24
ENDBRANCH  11  19
ENDBRANCH   7   9
ENDBRANCH   3   4
ENDBRANCH   2   3
TORSDOF 6
ENDMDL
MODEL      164
REMARK 921   NORMALIZED FREE ENERGY PREDICTED BY IDOCK:   -2.90 KCAL/MOL
REMARK 922        TOTAL FREE ENERGY PREDICTED BY IDOCK:   -4.71 KCAL/MOL
REMARK 923 INTER-LIGAND FREE ENERGY PREDICTED BY IDOCK:   -5.21 KCAL/MOL
REMARK 924 INTRA-LIGAND FREE ENERGY PREDICTED BY IDOCK:    0.50 KCAL/MOL
REMARK 927      BINDING AFFINITY PREDICTED BY RF-SCORE:    0.00 PKD
ROOT
HETATM    1  C   UNL     1     -11.724  15.718  68.879  1.00  0.00    -0.404 C  
HETATM    2  C   UNL     1     -11.978  14.472  69.716  1.00  0.00    -0.383 C  
ENDROOT
BRANCH   2   3
HETATM    3  C   UNL     1     -12.111  13.245  68.820  1.00  0.00    -0.254 C  
BRANCH   3   4
HETATM    4  C   UNL     1     -11.192  12.105  69.267  1.00  0.00    -0.288 C  
HETATM    5  C   UNL     1     -11.130  10.962  68.235  1.00  0.00    -0.324 C  
HETATM    6  C   UNL     1     -10.649  11.393  66.828  1.00  0.00    -0.298 C  
HETATM    7  C   UNL     1     -10.267   9.783  68.744  1.00  0.00    -0.194 C  
HETATM    8  C   UNL     1      -9.205  11.864  66.748  1.00  0.00    -0.194 C  
BRANCH   7   9
HETATM    9  N   UNL     1     -10.741   9.107  69.958  1.00  0.00    -0.226 NA 
HETATM   10  C   UNL     1     -10.909   7.664  69.799  1.00  0.00    -0.217 C  
HETATM   11  N   UNL     1      -9.625   7.010  69.537  1.00  0.00    -0.153 NA 
HETATM   12  C   UNL     1      -8.747   7.169  70.723  1.00  0.00    -0.147 C  
HETATM   13  H1  UNL     1      -7.854   9.637  72.859  1.00  0.00     0.000 HD 
HETATM   14  C   UNL     1      -8.525   8.640  71.174  1.00  0.00    -0.171 C  
HETATM   15  H2  UNL     1      -7.156   8.108  72.666  1.00  0.00     0.000 HD 
HETATM   16  C   UNL     1      -7.446   9.326  70.320  1.00  0.00    -0.113 C  
HETATM   17  N   UNL     1      -8.000   8.672  72.564  1.00  0.00    -0.370 NA 
HETATM   18  C   UNL     1      -9.894   9.380  71.132  1.00  0.00    -0.216 C  
BRANCH  11  19
HETATM   19  C   UNL     1      -9.798   5.561  69.292  1.00  0.00    -0.172 C  
HETATM   20  C   UNL     1      -9.006   4.769  71.632  1.00  0.00    -0.160 C  
HETATM   21  C   UNL     1      -8.923   4.568  70.104  1.00  0.00    -0.141 C  
HETATM   22  C   UNL     1      -9.263   3.109  69.701  1.00  0.00    -0.221 C  
HETATM   23  C   UNL     1     -10.330   4.409  72.292  1.00  0.00    -0.230 C  
BRANCH  22  24
HETATM   24  C   UNL     1      -9.063   2.772  68.212  1.00  0.00    -0.227 C  
BRANCH  24  25
HETATM   25  C   UNL     1      -8.293   1.472  67.972  1.00  0.00    -0.074 C  
HETATM   26  C   UNL     1      -6.791   1.711  67.923  1.00  0.00    -0.032 C  
ENDBRANCH  24  25
ENDBRANCH  22  24
ENDBRANCH  11  19
ENDBRANCH   7   9
ENDBRANCH   3   4
ENDBRANCH   2   3
TORSDOF 6
ENDMDL
MODEL      165
REMARK 921   NORMALIZED FREE ENERGY PREDICTED BY IDOCK:   -2.88 KCAL/MOL
REMARK 922        TOTAL FREE ENERGY PREDICTED BY IDOCK:   -4.68 KCAL/MOL
REMARK 923 INTER-LIGAND FREE ENERGY PREDICTED BY IDOCK:   -3.89 KCAL/MOL
REMARK 924 INTRA-LIGAND FREE ENERGY PREDICTED BY IDOCK:   -0.79 KCAL/MOL
REMARK 927      BINDING AFFINITY PREDICTED BY RF-SCORE:    0.00 PKD
ROOT
HETATM    1  C   UNL     1      -6.947   9.868  69.828  1.00  0.00    -0.095 C  
HETATM    2  C   UNL     1      -7.239   9.597  68.359  1.00  0.00    -0.074 C  
ENDROOT
BRANCH   2   3
HETATM    3  C   UNL     1      -8.738   9.435  68.133  1.00  0.00    -0.124 C  
BRANCH   3   4
HETATM    4  C   UNL     1      -9.490  10.758  68.300  1.00  0.00    -0.164 C  
HETATM    5  C   UNL     1      -8.807  11.920  67.552  1.00  0.00    -0.169 C  
HETATM    6  C   UNL     1      -8.640  11.693  66.030  1.00  0.00     0.006 C  
HETATM    7  C   UNL     1      -9.532  13.263  67.804  1.00  0.00    -0.208 C  
HETATM    8  C   UNL     1      -9.936  11.628  65.234  1.00  0.00    -0.292 C  
BRANCH   7   9
HETATM    9  N   UNL     1      -9.560  13.736  69.194  1.00  0.00     0.199 NA 
HETATM   10  C   UNL     1      -8.681  14.877  69.444  1.00  0.00    -0.047 C  
HETATM   11  N   UNL     1      -9.116  16.053  68.687  1.00  0.00    -0.203 NA 
HETATM   12  C   UNL     1     -10.451  16.478  69.175  1.00  0.00    -0.317 C  
HETATM   13  H1  UNL     1     -13.402  15.026  69.971  1.00  0.00     0.000 HD 
HETATM   14  C   UNL     1     -11.542  15.371  69.132  1.00  0.00    -0.339 C  
HETATM   15  H2  UNL     1     -13.062  16.669  69.756  1.00  0.00     0.000 HD 
HETATM   16  C   UNL     1     -12.135  15.229  67.721  1.00  0.00     0.184 C  
HETATM   17  N   UNL     1     -12.686  15.752  69.999  1.00  0.00    -0.197 NA 
HETATM   18  C   UNL     1     -10.920  14.047  69.665  1.00  0.00    -0.040 C  
BRANCH  11  19
HETATM   19  C   UNL     1      -8.183  17.187  68.870  1.00  0.00    -0.192 C  
HETATM   20  C   UNL     1      -6.617  16.603  66.886  1.00  0.00    -0.242 C  
HETATM   21  C   UNL     1      -6.724  17.027  68.366  1.00  0.00    -0.170 C  
HETATM   22  C   UNL     1      -5.920  18.323  68.648  1.00  0.00    -0.197 C  
HETATM   23  C   UNL     1      -7.043  17.638  65.853  1.00  0.00    -0.250 C  
BRANCH  22  24
HETATM   24  C   UNL     1      -5.842  18.743  70.127  1.00  0.00    -0.229 C  
BRANCH  24  25
HETATM   25  C   UNL     1      -5.708  20.253  70.334  1.00  0.00    -0.371 C  
HETATM   26  C   UNL     1      -5.649  20.997  69.008  1.00  0.00    -0.356 C  
ENDBRANCH  24  25
ENDBRANCH  22  24
ENDBRANCH  11  19
ENDBRANCH   7   9
ENDBRANCH   3   4
ENDBRANCH   2   3
TORSDOF 6
ENDMDL
MODEL      166
REMARK 921   NORMALIZED FREE ENERGY PREDICTED BY IDOCK:   -2.87 KCAL/MOL
REMARK 922        TOTAL FREE ENERGY PREDICTED BY IDOCK:   -4.66 KCAL/MOL
REMARK 923 INTER-LIGAND FREE ENERGY PREDICTED BY IDOCK:   -3.70 KCAL/MOL
REMARK 924 INTRA-LIGAND FREE ENERGY PREDICTED BY IDOCK:   -0.96 KCAL/MOL
REMARK 927      BINDING AFFINITY PREDICTED BY RF-SCORE:    0.00 PKD
ROOT
HETATM    1  C   UNL     1      -6.453  14.527  68.778  1.00  0.00    -0.089 C  
HETATM    2  C   UNL     1      -6.832  15.597  69.792  1.00  0.00    -0.134 C  
ENDROOT
BRANCH   2   3
HETATM    3  C   UNL     1      -8.314  15.939  69.679  1.00  0.00     0.064 C  
BRANCH   3   4
HETATM    4  C   UNL     1      -8.893  15.540  68.320  1.00  0.00    -0.179 C  
HETATM    5  C   UNL     1      -9.790  14.289  68.408  1.00  0.00    -0.233 C  
HETATM    6  C   UNL     1     -10.988  14.426  69.378  1.00  0.00    -0.261 C  
HETATM    7  C   UNL     1     -10.294  13.851  67.013  1.00  0.00    -0.267 C  
HETATM    8  C   UNL     1     -12.043  15.445  68.973  1.00  0.00    -0.254 C  
BRANCH   7   9
HETATM    9  N   UNL     1      -9.265  13.452  66.045  1.00  0.00     0.013 NA 
HETATM   10  C   UNL     1      -8.443  12.329  66.491  1.00  0.00     0.015 C  
HETATM   11  N   UNL     1      -9.247  11.114  66.638  1.00  0.00    -0.171 NA 
HETATM   12  C   UNL     1      -9.764  10.709  65.308  1.00  0.00    -0.259 C  
HETATM   13  H1  UNL     1     -11.215  12.191  62.634  1.00  0.00     0.000 HD 
HETATM   14  C   UNL     1     -10.573  11.809  64.563  1.00  0.00    -0.313 C  
HETATM   15  H2  UNL     1     -11.078  10.540  62.976  1.00  0.00     0.000 HD 
HETATM   16  C   UNL     1     -12.022  11.874  65.075  1.00  0.00    -0.150 C  
HETATM   17  N   UNL     1     -10.684  11.470  63.122  1.00  0.00    -0.279 NA 
HETATM   18  C   UNL     1      -9.817  13.161  64.711  1.00  0.00    -0.003 C  
BRANCH  11  19
HETATM   19  C   UNL     1      -8.438   9.994  67.170  1.00  0.00    -0.125 C  
HETATM   20  C   UNL     1     -10.414   8.669  68.204  1.00  0.00    -0.241 C  
HETATM   21  C   UNL     1      -8.982   9.212  68.396  1.00  0.00    -0.133 C  
HETATM   22  C   UNL     1      -7.992   8.084  68.788  1.00  0.00    -0.119 C  
HETATM   23  C   UNL     1     -10.582   7.542  67.194  1.00  0.00    -0.415 C  
BRANCH  22  24
HETATM   24  C   UNL     1      -6.569   8.550  69.146  1.00  0.00    -0.047 C  
BRANCH  24  25
HETATM   25  C   UNL     1      -6.527   9.615  70.244  1.00  0.00    -0.083 C  
HETATM   26  C   UNL     1      -5.246  10.434  70.180  1.00  0.00    -0.041 C  
ENDBRANCH  24  25
ENDBRANCH  22  24
ENDBRANCH  11  19
ENDBRANCH   7   9
ENDBRANCH   3   4
ENDBRANCH   2   3
TORSDOF 6
ENDMDL
MODEL      167
REMARK 921   NORMALIZED FREE ENERGY PREDICTED BY IDOCK:   -2.85 KCAL/MOL
REMARK 922        TOTAL FREE ENERGY PREDICTED BY IDOCK:   -4.64 KCAL/MOL
REMARK 923 INTER-LIGAND FREE ENERGY PREDICTED BY IDOCK:   -4.73 KCAL/MOL
REMARK 924 INTRA-LIGAND FREE ENERGY PREDICTED BY IDOCK:    0.10 KCAL/MOL
REMARK 927      BINDING AFFINITY PREDICTED BY RF-SCORE:    0.00 PKD
ROOT
HETATM    1  C   UNL     1      -7.672   4.414  63.317  1.00  0.00    -0.066 C  
HETATM    2  C   UNL     1      -7.458   5.021  64.696  1.00  0.00    -0.075 C  
ENDROOT
BRANCH   2   3
HETATM    3  C   UNL     1      -6.927   3.970  65.666  1.00  0.00    -0.062 C  
BRANCH   3   4
HETATM    4  C   UNL     1      -7.205   4.342  67.124  1.00  0.00    -0.068 C  
HETATM    5  C   UNL     1      -8.694   4.643  67.380  1.00  0.00    -0.105 C  
HETATM    6  C   UNL     1      -9.654   3.480  67.029  1.00  0.00    -0.155 C  
HETATM    7  C   UNL     1      -8.940   5.101  68.837  1.00  0.00    -0.100 C  
HETATM    8  C   UNL     1      -9.513   2.234  67.891  1.00  0.00    -0.172 C  
BRANCH   7   9
HETATM    9  N   UNL     1      -8.276   6.344  69.248  1.00  0.00    -0.114 NA 
HETATM   10  C   UNL     1      -8.178   7.338  68.182  1.00  0.00    -0.124 C  
HETATM   11  N   UNL     1      -9.506   7.796  67.765  1.00  0.00    -0.142 NA 
HETATM   12  C   UNL     1     -10.153   8.504  68.896  1.00  0.00    -0.203 C  
HETATM   13  H1  UNL     1     -10.585   8.039  72.220  1.00  0.00     0.000 HD 
HETATM   14  C   UNL     1     -10.252   7.678  70.209  1.00  0.00    -0.205 C  
HETATM   15  H2  UNL     1     -11.347   9.158  71.206  1.00  0.00     0.000 HD 
HETATM   16  C   UNL     1     -11.447   6.711  70.169  1.00  0.00    -0.444 C  
HETATM   17  N   UNL     1     -10.520   8.581  71.358  1.00  0.00    -0.219 NA 
HETATM   18  C   UNL     1      -8.893   6.955  70.438  1.00  0.00    -0.152 C  
BRANCH  11  19
HETATM   19  C   UNL     1      -9.418   8.740  66.628  1.00  0.00    -0.203 C  
HETATM   20  C   UNL     1      -8.199  10.635  67.912  1.00  0.00    -0.112 C  
HETATM   21  C   UNL     1      -9.335  10.259  66.939  1.00  0.00    -0.183 C  
HETATM   22  C   UNL     1      -9.246  11.066  65.617  1.00  0.00    -0.231 C  
HETATM   23  C   UNL     1      -6.778  10.490  67.383  1.00  0.00    -0.071 C  
BRANCH  22  24
HETATM   24  C   UNL     1     -10.421  10.869  64.643  1.00  0.00    -0.384 C  
BRANCH  24  25
HETATM   25  C   UNL     1     -10.708  12.090  63.767  1.00  0.00    -0.478 C  
HETATM   26  C   UNL     1     -12.203  12.326  63.607  1.00  0.00    -0.665 C  
ENDBRANCH  24  25
ENDBRANCH  22  24
ENDBRANCH  11  19
ENDBRANCH   7   9
ENDBRANCH   3   4
ENDBRANCH   2   3
TORSDOF 6
ENDMDL
MODEL      168
REMARK 921   NORMALIZED FREE ENERGY PREDICTED BY IDOCK:   -2.80 KCAL/MOL
REMARK 922        TOTAL FREE ENERGY PREDICTED BY IDOCK:   -4.57 KCAL/MOL
REMARK 923 INTER-LIGAND FREE ENERGY PREDICTED BY IDOCK:   -3.53 KCAL/MOL
REMARK 924 INTRA-LIGAND FREE ENERGY PREDICTED BY IDOCK:   -1.04 KCAL/MOL
REMARK 927      BINDING AFFINITY PREDICTED BY RF-SCORE:    0.00 PKD
ROOT
HETATM    1  C   UNL     1      -6.815   8.434  66.195  1.00  0.00    -0.065 C  
HETATM    2  C   UNL     1      -5.991   9.592  66.740  1.00  0.00    -0.059 C  
ENDROOT
BRANCH   2   3
HETATM    3  C   UNL     1      -6.610  10.926  66.333  1.00  0.00    -0.134 C  
BRANCH   3   4
HETATM    4  C   UNL     1      -8.103  10.990  66.662  1.00  0.00    -0.155 C  
HETATM    5  C   UNL     1      -8.369  11.544  68.076  1.00  0.00    -0.146 C  
HETATM    6  C   UNL     1      -7.798  12.961  68.327  1.00  0.00    -0.142 C  
HETATM    7  C   UNL     1      -9.877  11.520  68.422  1.00  0.00    -0.204 C  
HETATM    8  C   UNL     1      -8.435  14.076  67.511  1.00  0.00    -0.201 C  
BRANCH   7   9
HETATM    9  N   UNL     1     -10.513  10.197  68.460  1.00  0.00    -0.185 NA 
HETATM   10  C   UNL     1      -9.793   9.222  69.277  1.00  0.00    -0.172 C  
HETATM   11  N   UNL     1      -9.780   9.623  70.686  1.00  0.00    -0.234 NA 
HETATM   12  C   UNL     1     -11.169   9.614  71.207  1.00  0.00    -0.376 C  
HETATM   13  H1  UNL     1     -14.222  10.674  70.206  1.00  0.00     0.000 HD 
HETATM   14  C   UNL     1     -12.170  10.490  70.403  1.00  0.00    -0.328 C  
HETATM   15  H2  UNL     1     -13.745  10.135  71.737  1.00  0.00     0.000 HD 
HETATM   16  C   UNL     1     -12.061  11.970  70.805  1.00  0.00    -0.297 C  
HETATM   17  N   UNL     1     -13.565  10.099  70.733  1.00  0.00    -0.073 NA 
HETATM   18  C   UNL     1     -11.922  10.253  68.885  1.00  0.00     0.264 C  
BRANCH  11  19
HETATM   19  C   UNL     1      -8.981   8.685  71.506  1.00  0.00    -0.234 C  
HETATM   20  C   UNL     1      -6.824   8.802  70.070  1.00  0.00    -0.042 C  
HETATM   21  C   UNL     1      -7.831   7.902  70.818  1.00  0.00    -0.091 C  
HETATM   22  C   UNL     1      -7.122   6.985  71.848  1.00  0.00    -0.069 C  
HETATM   23  C   UNL     1      -5.935   9.686  70.935  1.00  0.00    -0.081 C  
BRANCH  22  24
HETATM   24  C   UNL     1      -8.025   5.945  72.537  1.00  0.00    -0.102 C  
BRANCH  24  25
HETATM   25  C   UNL     1      -8.692   4.968  71.568  1.00  0.00    -0.141 C  
HETATM   26  C   UNL     1     -10.064   4.535  72.064  1.00  0.00    -0.264 C  
ENDBRANCH  24  25
ENDBRANCH  22  24
ENDBRANCH  11  19
ENDBRANCH   7   9
ENDBRANCH   3   4
ENDBRANCH   2   3
TORSDOF 6
ENDMDL
MODEL      169
REMARK 921   NORMALIZED FREE ENERGY PREDICTED BY IDOCK:   -2.78 KCAL/MOL
REMARK 922        TOTAL FREE ENERGY PREDICTED BY IDOCK:   -4.55 KCAL/MOL
REMARK 923 INTER-LIGAND FREE ENERGY PREDICTED BY IDOCK:   -5.27 KCAL/MOL
REMARK 924 INTRA-LIGAND FREE ENERGY PREDICTED BY IDOCK:    0.72 KCAL/MOL
REMARK 927      BINDING AFFINITY PREDICTED BY RF-SCORE:    0.00 PKD
ROOT
HETATM    1  C   UNL     1      -6.361   6.000  71.619  1.00  0.00    -0.049 C  
HETATM    2  C   UNL     1      -7.108   4.847  72.274  1.00  0.00    -0.079 C  
ENDROOT
BRANCH   2   3
HETATM    3  C   UNL     1      -8.613   5.088  72.222  1.00  0.00    -0.125 C  
BRANCH   3   4
HETATM    4  C   UNL     1      -8.977   6.251  71.296  1.00  0.00    -0.139 C  
HETATM    5  C   UNL     1     -10.429   6.164  70.786  1.00  0.00    -0.285 C  
HETATM    6  C   UNL     1     -11.501   6.135  71.903  1.00  0.00    -0.355 C  
HETATM    7  C   UNL     1     -10.749   7.300  69.785  1.00  0.00    -0.239 C  
HETATM    8  C   UNL     1     -11.616   7.406  72.732  1.00  0.00    -0.255 C  
BRANCH   7   9
HETATM    9  N   UNL     1      -9.964   7.313  68.545  1.00  0.00    -0.157 NA 
HETATM   10  C   UNL     1     -10.525   8.172  67.504  1.00  0.00    -0.256 C  
HETATM   11  N   UNL     1     -10.512   9.577  67.917  1.00  0.00    -0.228 NA 
HETATM   12  C   UNL     1      -9.107  10.026  68.074  1.00  0.00    -0.131 C  
HETATM   13  H1  UNL     1      -6.251   8.861  69.465  1.00  0.00     0.000 HD 
HETATM   14  C   UNL     1      -8.255   9.166  69.049  1.00  0.00    -0.115 C  
HETATM   15  H2  UNL     1      -6.584  10.418  68.893  1.00  0.00     0.000 HD 
HETATM   16  C   UNL     1      -8.514   9.564  70.512  1.00  0.00    -0.213 C  
HETATM   17  N   UNL     1      -6.809   9.425  68.825  1.00  0.00    -0.052 NA 
HETATM   18  C   UNL     1      -8.550   7.664  68.767  1.00  0.00    -0.129 C  
BRANCH  11  19
HETATM   19  C   UNL     1     -11.155  10.443  66.904  1.00  0.00    -0.010 C  
HETATM   20  C   UNL     1      -9.046  10.793  65.435  1.00  0.00    -0.216 C  
HETATM   21  C   UNL     1     -10.264  11.445  66.121  1.00  0.00    -0.282 C  
HETATM   22  C   UNL     1     -11.128  12.247  65.112  1.00  0.00    -0.361 C  
HETATM   23  C   UNL     1      -9.344   9.874  64.258  1.00  0.00    -0.313 C  
BRANCH  22  24
HETATM   24  C   UNL     1     -12.283  13.057  65.729  1.00  0.00    -0.511 C  
BRANCH  24  25
HETATM   25  C   UNL     1     -11.978  13.602  67.125  1.00  0.00    -0.434 C  
HETATM   26  C   UNL     1     -11.138  14.869  67.061  1.00  0.00    -0.338 C  
ENDBRANCH  24  25
ENDBRANCH  22  24
ENDBRANCH  11  19
ENDBRANCH   7   9
ENDBRANCH   3   4
ENDBRANCH   2   3
TORSDOF 6
ENDMDL
MODEL      170
REMARK 921   NORMALIZED FREE ENERGY PREDICTED BY IDOCK:   -2.78 KCAL/MOL
REMARK 922        TOTAL FREE ENERGY PREDICTED BY IDOCK:   -4.54 KCAL/MOL
REMARK 923 INTER-LIGAND FREE ENERGY PREDICTED BY IDOCK:   -3.31 KCAL/MOL
REMARK 924 INTRA-LIGAND FREE ENERGY PREDICTED BY IDOCK:   -1.24 KCAL/MOL
REMARK 927      BINDING AFFINITY PREDICTED BY RF-SCORE:    0.00 PKD
ROOT
HETATM    1  C   UNL     1     -11.610   5.860  72.514  1.00  0.00    -0.327 C  
HETATM    2  C   UNL     1     -11.694   6.701  71.248  1.00  0.00    -0.386 C  
ENDROOT
BRANCH   2   3
HETATM    3  C   UNL     1     -11.682   8.187  71.592  1.00  0.00    -0.330 C  
BRANCH   3   4
HETATM    4  C   UNL     1     -10.455   8.899  71.019  1.00  0.00    -0.316 C  
HETATM    5  C   UNL     1     -10.414   8.849  69.479  1.00  0.00    -0.229 C  
HETATM    6  C   UNL     1     -11.652   9.468  68.783  1.00  0.00     0.476 C  
HETATM    7  C   UNL     1      -9.125   9.498  68.922  1.00  0.00    -0.141 C  
HETATM    8  C   UNL     1     -11.822  10.969  68.968  1.00  0.00    -0.399 C  
BRANCH   7   9
HETATM    9  N   UNL     1      -7.859   8.860  69.307  1.00  0.00    -0.094 NA 
HETATM   10  C   UNL     1      -7.864   7.406  69.157  1.00  0.00    -0.116 C  
HETATM   11  N   UNL     1      -8.013   7.023  67.751  1.00  0.00    -0.113 NA 
HETATM   12  C   UNL     1      -6.825   7.486  66.992  1.00  0.00    -0.071 C  
HETATM   13  H1  UNL     1      -4.945  10.290  66.758  1.00  0.00     0.000 HD 
HETATM   14  C   UNL     1      -6.531   9.008  67.111  1.00  0.00    -0.061 C  
HETATM   15  H2  UNL     1      -4.948   8.937  65.743  1.00  0.00     0.000 HD 
HETATM   16  C   UNL     1      -7.421   9.822  66.157  1.00  0.00    -0.101 C  
HETATM   17  N   UNL     1      -5.138   9.292  66.680  1.00  0.00    -0.033 NA 
HETATM   18  C   UNL     1      -6.696   9.426  68.601  1.00  0.00    -0.053 C  
BRANCH  11  19
HETATM   19  C   UNL     1      -8.103   5.553  67.600  1.00  0.00    -0.101 C  
HETATM   20  C   UNL     1     -10.691   5.428  67.474  1.00  0.00    -0.143 C  
HETATM   21  C   UNL     1      -9.397   4.843  68.079  1.00  0.00    -0.160 C  
HETATM   22  C   UNL     1      -9.289   3.316  67.827  1.00  0.00    -0.246 C  
HETATM   23  C   UNL     1     -10.909   5.194  65.986  1.00  0.00    -0.127 C  
BRANCH  22  24
HETATM   24  C   UNL     1      -8.107   2.615  68.521  1.00  0.00    -0.069 C  
BRANCH  24  25
HETATM   25  C   UNL     1      -8.491   1.893  69.814  1.00  0.00    -0.083 C  
HETATM   26  C   UNL     1      -8.300   2.786  71.032  1.00  0.00    -0.083 C  
ENDBRANCH  24  25
ENDBRANCH  22  24
ENDBRANCH  11  19
ENDBRANCH   7   9
ENDBRANCH   3   4
ENDBRANCH   2   3
TORSDOF 6
ENDMDL
MODEL      171
REMARK 921   NORMALIZED FREE ENERGY PREDICTED BY IDOCK:   -2.73 KCAL/MOL
REMARK 922        TOTAL FREE ENERGY PREDICTED BY IDOCK:   -4.48 KCAL/MOL
REMARK 923 INTER-LIGAND FREE ENERGY PREDICTED BY IDOCK:   -5.37 KCAL/MOL
REMARK 924 INTRA-LIGAND FREE ENERGY PREDICTED BY IDOCK:    0.88 KCAL/MOL
REMARK 927      BINDING AFFINITY PREDICTED BY RF-SCORE:    0.00 PKD
ROOT
HETATM    1  C   UNL     1     -10.780  14.296  69.318  1.00  0.00    -0.194 C  
HETATM    2  C   UNL     1     -12.116  13.598  69.110  1.00  0.00    -0.361 C  
ENDROOT
BRANCH   2   3
HETATM    3  C   UNL     1     -11.936  12.084  69.124  1.00  0.00    -0.326 C  
BRANCH   3   4
HETATM    4  C   UNL     1     -10.497  11.675  68.801  1.00  0.00    -0.226 C  
HETATM    5  C   UNL     1     -10.412  10.750  67.571  1.00  0.00    -0.260 C  
HETATM    6  C   UNL     1     -11.003  11.352  66.273  1.00  0.00    -0.303 C  
HETATM    7  C   UNL     1      -8.961  10.277  67.313  1.00  0.00    -0.132 C  
HETATM    8  C   UNL     1     -10.261  12.557  65.715  1.00  0.00    -0.289 C  
BRANCH   7   9
HETATM    9  N   UNL     1      -8.342   9.474  68.374  1.00  0.00    -0.117 NA 
HETATM   10  C   UNL     1      -9.231   9.205  69.503  1.00  0.00    -0.159 C  
HETATM   11  N   UNL     1     -10.371   8.383  69.090  1.00  0.00    -0.219 NA 
HETATM   12  C   UNL     1      -9.880   7.052  68.658  1.00  0.00    -0.148 C  
HETATM   13  H1  UNL     1      -7.389   5.808  66.735  1.00  0.00     0.000 HD 
HETATM   14  C   UNL     1      -8.804   7.088  67.537  1.00  0.00    -0.119 C  
HETATM   15  H2  UNL     1      -8.741   5.003  67.356  1.00  0.00     0.000 HD 
HETATM   16  C   UNL     1      -9.450   7.267  66.153  1.00  0.00    -0.064 C  
HETATM   17  N   UNL     1      -8.095   5.784  67.471  1.00  0.00    -0.102 NA 
HETATM   18  C   UNL     1      -7.777   8.207  67.877  1.00  0.00    -0.114 C  
BRANCH  11  19
HETATM   19  C   UNL     1     -11.319   8.177  70.208  1.00  0.00    -0.132 C  
HETATM   20  C   UNL     1      -9.760   6.682  71.645  1.00  0.00    -0.170 C  
HETATM   21  C   UNL     1     -11.175   6.891  71.066  1.00  0.00    -0.323 C  
HETATM   22  C   UNL     1     -12.256   6.873  72.179  1.00  0.00    -0.253 C  
HETATM   23  C   UNL     1      -9.320   7.660  72.726  1.00  0.00    -0.236 C  
BRANCH  22  24
HETATM   24  C   UNL     1     -13.713   6.924  71.685  1.00  0.00    -0.273 C  
BRANCH  24  25
HETATM   25  C   UNL     1     -14.317   8.329  71.686  1.00  0.00    -0.561 C  
HETATM   26  C   UNL     1     -13.692   9.207  72.761  1.00  0.00    -0.285 C  
ENDBRANCH  24  25
ENDBRANCH  22  24
ENDBRANCH  11  19
ENDBRANCH   7   9
ENDBRANCH   3   4
ENDBRANCH   2   3
TORSDOF 6
ENDMDL
MODEL      172
REMARK 921   NORMALIZED FREE ENERGY PREDICTED BY IDOCK:   -2.73 KCAL/MOL
REMARK 922        TOTAL FREE ENERGY PREDICTED BY IDOCK:   -4.48 KCAL/MOL
REMARK 923 INTER-LIGAND FREE ENERGY PREDICTED BY IDOCK:   -4.00 KCAL/MOL
REMARK 924 INTRA-LIGAND FREE ENERGY PREDICTED BY IDOCK:   -0.48 KCAL/MOL
REMARK 927      BINDING AFFINITY PREDICTED BY RF-SCORE:    0.00 PKD
ROOT
HETATM    1  C   UNL     1      -6.782   7.591  62.903  1.00  0.00    -0.066 C  
HETATM    2  C   UNL     1      -7.095   6.158  63.308  1.00  0.00    -0.052 C  
ENDROOT
BRANCH   2   3
HETATM    3  C   UNL     1      -8.033   6.136  64.510  1.00  0.00    -0.123 C  
BRANCH   3   4
HETATM    4  C   UNL     1      -7.555   7.064  65.629  1.00  0.00    -0.093 C  
HETATM    5  C   UNL     1      -8.694   7.933  66.198  1.00  0.00    -0.181 C  
HETATM    6  C   UNL     1      -9.889   7.132  66.768  1.00  0.00    -0.272 C  
HETATM    7  C   UNL     1      -8.174   8.925  67.266  1.00  0.00    -0.104 C  
HETATM    8  C   UNL     1      -9.586   6.298  68.005  1.00  0.00    -0.115 C  
BRANCH   7   9
HETATM    9  N   UNL     1      -7.197   9.920  66.807  1.00  0.00    -0.090 NA 
HETATM   10  C   UNL     1      -7.788  11.216  66.479  1.00  0.00    -0.151 C  
HETATM   11  N   UNL     1      -8.367  11.846  67.667  1.00  0.00    -0.144 NA 
HETATM   12  C   UNL     1      -7.284  12.149  68.634  1.00  0.00    -0.109 C  
HETATM   13  H1  UNL     1      -4.574  10.586  69.923  1.00  0.00     0.000 HD 
HETATM   14  C   UNL     1      -6.414  10.926  69.039  1.00  0.00    -0.057 C  
HETATM   15  H2  UNL     1      -5.309  12.018  70.443  1.00  0.00     0.000 HD 
HETATM   16  C   UNL     1      -7.107  10.085  70.124  1.00  0.00    -0.157 C  
HETATM   17  N   UNL     1      -5.144  11.389  69.657  1.00  0.00    -0.048 NA 
HETATM   18  C   UNL     1      -6.085  10.110  67.756  1.00  0.00    -0.056 C  
BRANCH  11  19
HETATM   19  C   UNL     1      -9.041  13.119  67.327  1.00  0.00    -0.217 C  
HETATM   20  C   UNL     1     -11.389  12.104  66.896  1.00  0.00    -0.402 C  
HETATM   21  C   UNL     1     -10.289  13.067  66.404  1.00  0.00    -0.287 C  
HETATM   22  C   UNL     1     -10.842  14.499  66.178  1.00  0.00    -0.317 C  
HETATM   23  C   UNL     1     -12.130  12.512  68.163  1.00  0.00    -0.124 C  
BRANCH  22  24
HETATM   24  C   UNL     1      -9.855  15.495  65.545  1.00  0.00    -0.348 C  
BRANCH  24  25
HETATM   25  C   UNL     1      -8.909  16.152  66.552  1.00  0.00    -0.331 C  
HETATM   26  C   UNL     1      -8.212  17.367  65.956  1.00  0.00    -0.161 C  
ENDBRANCH  24  25
ENDBRANCH  22  24
ENDBRANCH  11  19
ENDBRANCH   7   9
ENDBRANCH   3   4
ENDBRANCH   2   3
TORSDOF 6
ENDMDL
MODEL      173
REMARK 921   NORMALIZED FREE ENERGY PREDICTED BY IDOCK:   -2.70 KCAL/MOL
REMARK 922        TOTAL FREE ENERGY PREDICTED BY IDOCK:   -4.44 KCAL/MOL
REMARK 923 INTER-LIGAND FREE ENERGY PREDICTED BY IDOCK:   -3.68 KCAL/MOL
REMARK 924 INTRA-LIGAND FREE ENERGY PREDICTED BY IDOCK:   -0.76 KCAL/MOL
REMARK 927      BINDING AFFINITY PREDICTED BY RF-SCORE:    0.00 PKD
ROOT
HETATM    1  C   UNL     1      -8.435   3.871  69.100  1.00  0.00    -0.102 C  
HETATM    2  C   UNL     1      -8.129   5.362  69.096  1.00  0.00    -0.094 C  
ENDROOT
BRANCH   2   3
HETATM    3  C   UNL     1      -9.099   6.109  70.005  1.00  0.00    -0.151 C  
BRANCH   3   4
HETATM    4  C   UNL     1      -8.756   7.596  70.112  1.00  0.00    -0.141 C  
HETATM    5  C   UNL     1      -9.632   8.469  69.192  1.00  0.00    -0.167 C  
HETATM    6  C   UNL     1     -11.154   8.345  69.449  1.00  0.00     0.088 C  
HETATM    7  C   UNL     1      -9.212   9.957  69.250  1.00  0.00    -0.200 C  
HETATM    8  C   UNL     1     -11.633   8.866  70.796  1.00  0.00    -0.301 C  
BRANCH   7   9
HETATM    9  N   UNL     1      -7.850  10.265  68.799  1.00  0.00    -0.099 NA 
HETATM   10  C   UNL     1      -7.613   9.957  67.389  1.00  0.00    -0.091 C  
HETATM   11  N   UNL     1      -8.446  10.793  66.521  1.00  0.00    -0.141 NA 
HETATM   12  C   UNL     1      -8.042  12.212  66.680  1.00  0.00     0.018 C  
HETATM   13  H1  UNL     1      -7.317  14.337  69.211  1.00  0.00     0.000 HD 
HETATM   14  C   UNL     1      -8.083  12.740  68.141  1.00  0.00    -0.158 C  
HETATM   15  H2  UNL     1      -7.594  14.697  67.582  1.00  0.00     0.000 HD 
HETATM   16  C   UNL     1      -9.512  13.131  68.552  1.00  0.00    -0.104 C  
HETATM   17  N   UNL     1      -7.290  13.991  68.252  1.00  0.00    -0.103 NA 
HETATM   18  C   UNL     1      -7.459  11.659  69.072  1.00  0.00    -0.051 C  
BRANCH  11  19
HETATM   19  C   UNL     1      -8.274  10.429  65.097  1.00  0.00    -0.158 C  
HETATM   20  C   UNL     1     -10.680  11.042  64.344  1.00  0.00    -0.340 C  
HETATM   21  C   UNL     1      -9.532  10.012  64.288  1.00  0.00    -0.336 C  
HETATM   22  C   UNL     1      -9.136   9.677  62.826  1.00  0.00    -0.254 C  
HETATM   23  C   UNL     1     -10.442  12.361  63.622  1.00  0.00    -0.460 C  
BRANCH  22  24
HETATM   24  C   UNL     1      -8.102   8.548  62.664  1.00  0.00    -0.176 C  
BRANCH  24  25
HETATM   25  C   UNL     1      -6.668   9.046  62.481  1.00  0.00    -0.093 C  
HETATM   26  C   UNL     1      -5.655   7.932  62.702  1.00  0.00    -0.064 C  
ENDBRANCH  24  25
ENDBRANCH  22  24
ENDBRANCH  11  19
ENDBRANCH   7   9
ENDBRANCH   3   4
ENDBRANCH   2   3
TORSDOF 6
ENDMDL
MODEL      174
REMARK 921   NORMALIZED FREE ENERGY PREDICTED BY IDOCK:   -2.70 KCAL/MOL
REMARK 922        TOTAL FREE ENERGY PREDICTED BY IDOCK:   -4.43 KCAL/MOL
REMARK 923 INTER-LIGAND FREE ENERGY PREDICTED BY IDOCK:   -4.47 KCAL/MOL
REMARK 924 INTRA-LIGAND FREE ENERGY PREDICTED BY IDOCK:    0.04 KCAL/MOL
REMARK 927      BINDING AFFINITY PREDICTED BY RF-SCORE:    0.00 PKD
ROOT
HETATM    1  C   UNL     1     -10.508  19.715  68.092  1.00  0.00    -0.503 C  
HETATM    2  C   UNL     1      -9.904  18.360  67.752  1.00  0.00    -0.336 C  
ENDROOT
BRANCH   2   3
HETATM    3  C   UNL     1     -10.904  17.244  68.032  1.00  0.00    -0.297 C  
BRANCH   3   4
HETATM    4  C   UNL     1     -10.291  15.858  67.825  1.00  0.00    -0.278 C  
HETATM    5  C   UNL     1     -11.296  14.853  67.229  1.00  0.00    -0.355 C  
HETATM    6  C   UNL     1     -11.898  15.279  65.867  1.00  0.00     0.205 C  
HETATM    7  C   UNL     1     -10.684  13.438  67.109  1.00  0.00    -0.264 C  
HETATM    8  C   UNL     1     -10.912  15.344  64.710  1.00  0.00    -0.411 C  
BRANCH   7   9
HETATM    9  N   UNL     1     -10.282  12.795  68.366  1.00  0.00    -0.239 NA 
HETATM   10  C   UNL     1      -9.921  11.387  68.218  1.00  0.00    -0.198 C  
HETATM   11  N   UNL     1      -8.732  11.234  67.375  1.00  0.00    -0.137 NA 
HETATM   12  C   UNL     1      -7.572  11.862  68.053  1.00  0.00    -0.122 C  
HETATM   13  H1  UNL     1      -6.895  14.737  69.704  1.00  0.00     0.000 HD 
HETATM   14  C   UNL     1      -7.774  13.354  68.441  1.00  0.00    -0.138 C  
HETATM   15  H2  UNL     1      -5.810  13.570  69.134  1.00  0.00     0.000 HD 
HETATM   16  C   UNL     1      -7.533  14.278  67.236  1.00  0.00    -0.082 C  
HETATM   17  N   UNL     1      -6.762  13.758  69.450  1.00  0.00    -0.105 NA 
HETATM   18  C   UNL     1      -9.195  13.514  69.054  1.00  0.00     0.357 C  
BRANCH  11  19
HETATM   19  C   UNL     1      -8.410   9.807  67.150  1.00  0.00    -0.121 C  
HETATM   20  C   UNL     1      -9.442   9.642  64.776  1.00  0.00    -0.256 C  
HETATM   21  C   UNL     1      -9.302   8.997  66.171  1.00  0.00    -0.294 C  
HETATM   22  C   UNL     1      -8.793   7.535  66.077  1.00  0.00    -0.179 C  
HETATM   23  C   UNL     1      -8.193   9.648  63.905  1.00  0.00    -0.159 C  
BRANCH  22  24
HETATM   24  C   UNL     1      -8.764   6.759  67.406  1.00  0.00    -0.119 C  
BRANCH  24  25
HETATM   25  C   UNL     1      -9.888   5.731  67.546  1.00  0.00    -0.145 C  
HETATM   26  C   UNL     1     -10.252   5.494  69.004  1.00  0.00    -0.298 C  
ENDBRANCH  24  25
ENDBRANCH  22  24
ENDBRANCH  11  19
ENDBRANCH   7   9
ENDBRANCH   3   4
ENDBRANCH   2   3
TORSDOF 6
ENDMDL
MODEL      175
REMARK 921   NORMALIZED FREE ENERGY PREDICTED BY IDOCK:   -2.69 KCAL/MOL
REMARK 922        TOTAL FREE ENERGY PREDICTED BY IDOCK:   -4.42 KCAL/MOL
REMARK 923 INTER-LIGAND FREE ENERGY PREDICTED BY IDOCK:   -3.47 KCAL/MOL
REMARK 924 INTRA-LIGAND FREE ENERGY PREDICTED BY IDOCK:   -0.96 KCAL/MOL
REMARK 927      BINDING AFFINITY PREDICTED BY RF-SCORE:    0.00 PKD
ROOT
HETATM    1  C   UNL     1     -11.343  11.601  66.827  1.00  0.00    -0.354 C  
HETATM    2  C   UNL     1     -10.457  11.398  65.606  1.00  0.00    -0.316 C  
ENDROOT
BRANCH   2   3
HETATM    3  C   UNL     1      -9.193  10.633  65.984  1.00  0.00    -0.208 C  
BRANCH   3   4
HETATM    4  C   UNL     1      -9.404   9.750  67.217  1.00  0.00    -0.161 C  
HETATM    5  C   UNL     1      -8.332   8.649  67.341  1.00  0.00    -0.116 C  
HETATM    6  C   UNL     1      -6.878   9.175  67.415  1.00  0.00    -0.077 C  
HETATM    7  C   UNL     1      -8.612   7.716  68.542  1.00  0.00    -0.129 C  
HETATM    8  C   UNL     1      -6.537   9.979  68.661  1.00  0.00    -0.049 C  
BRANCH   7   9
HETATM    9  N   UNL     1      -9.865   6.953  68.494  1.00  0.00    -0.142 NA 
HETATM   10  C   UNL     1      -9.884   5.918  67.462  1.00  0.00    -0.125 C  
HETATM   11  N   UNL     1      -8.880   4.886  67.732  1.00  0.00    -0.103 NA 
HETATM   12  C   UNL     1      -9.231   4.184  68.990  1.00  0.00    -0.150 C  
HETATM   13  H1  UNL     1     -10.250   5.003  72.111  1.00  0.00     0.000 HD 
HETATM   14  C   UNL     1      -9.403   5.111  70.226  1.00  0.00    -0.156 C  
HETATM   15  H2  UNL     1      -9.693   3.510  71.544  1.00  0.00     0.000 HD 
HETATM   16  C   UNL     1      -8.041   5.472  70.843  1.00  0.00    -0.114 C  
HETATM   17  N   UNL     1     -10.138   4.395  71.300  1.00  0.00    -0.168 NA 
HETATM   18  C   UNL     1     -10.224   6.360  69.794  1.00  0.00    -0.186 C  
BRANCH  11  19
HETATM   19  C   UNL     1      -8.836   3.881  66.647  1.00  0.00    -0.126 C  
HETATM   20  C   UNL     1      -6.848   4.930  65.353  1.00  0.00    -0.061 C  
HETATM   21  C   UNL     1      -8.257   4.308  65.271  1.00  0.00    -0.106 C  
HETATM   22  C   UNL     1      -8.298   3.112  64.284  1.00  0.00    -0.089 C  
HETATM   23  C   UNL     1      -5.713   3.987  65.730  1.00  0.00    -0.022 C  
BRANCH  22  24
HETATM   24  C   UNL     1      -9.694   2.520  64.021  1.00  0.00    -0.141 C  
BRANCH  24  25
HETATM   25  C   UNL     1     -10.743   3.562  63.630  1.00  0.00    -0.265 C  
HETATM   26  C   UNL     1     -10.340   4.317  62.372  1.00  0.00    -0.107 C  
ENDBRANCH  24  25
ENDBRANCH  22  24
ENDBRANCH  11  19
ENDBRANCH   7   9
ENDBRANCH   3   4
ENDBRANCH   2   3
TORSDOF 6
ENDMDL
MODEL      176
REMARK 921   NORMALIZED FREE ENERGY PREDICTED BY IDOCK:   -2.65 KCAL/MOL
REMARK 922        TOTAL FREE ENERGY PREDICTED BY IDOCK:   -4.37 KCAL/MOL
REMARK 923 INTER-LIGAND FREE ENERGY PREDICTED BY IDOCK:   -3.49 KCAL/MOL
REMARK 924 INTRA-LIGAND FREE ENERGY PREDICTED BY IDOCK:   -0.88 KCAL/MOL
REMARK 927      BINDING AFFINITY PREDICTED BY RF-SCORE:    0.00 PKD
ROOT
HETATM    1  C   UNL     1     -10.175  16.701  66.518  1.00  0.00    -0.314 C  
HETATM    2  C   UNL     1     -10.866  15.902  65.422  1.00  0.00    -0.361 C  
ENDROOT
BRANCH   2   3
HETATM    3  C   UNL     1     -10.190  14.547  65.242  1.00  0.00    -0.431 C  
BRANCH   3   4
HETATM    4  C   UNL     1     -10.524  13.583  66.383  1.00  0.00    -0.287 C  
HETATM    5  C   UNL     1      -9.285  12.815  66.884  1.00  0.00    -0.229 C  
HETATM    6  C   UNL     1      -8.131  13.717  67.388  1.00  0.00    -0.188 C  
HETATM    7  C   UNL     1      -9.657  11.785  67.976  1.00  0.00    -0.187 C  
HETATM    8  C   UNL     1      -8.434  14.524  68.643  1.00  0.00    -0.161 C  
BRANCH   7   9
HETATM    9  N   UNL     1     -10.570  10.709  67.570  1.00  0.00    -0.233 NA 
HETATM   10  C   UNL     1     -10.062   9.369  67.856  1.00  0.00    -0.194 C  
HETATM   11  N   UNL     1      -9.922   9.155  69.298  1.00  0.00    -0.181 NA 
HETATM   12  C   UNL     1     -11.263   9.203  69.930  1.00  0.00    -0.102 C  
HETATM   13  H1  UNL     1     -14.031  11.144  69.775  1.00  0.00     0.000 HD 
HETATM   14  C   UNL     1     -12.067  10.505  69.650  1.00  0.00    -0.170 C  
HETATM   15  H2  UNL     1     -13.644   9.952  70.911  1.00  0.00     0.000 HD 
HETATM   16  C   UNL     1     -11.620  11.645  70.580  1.00  0.00    -0.028 C  
HETATM   17  N   UNL     1     -13.504  10.291  69.959  1.00  0.00     0.313 NA 
HETATM   18  C   UNL     1     -11.920  10.859  68.141  1.00  0.00     0.118 C  
BRANCH  11  19
HETATM   19  C   UNL     1      -9.329   7.831  69.592  1.00  0.00    -0.153 C  
HETATM   20  C   UNL     1      -7.551   8.672  71.282  1.00  0.00    -0.129 C  
HETATM   21  C   UNL     1      -7.851   7.775  70.063  1.00  0.00    -0.103 C  
HETATM   22  C   UNL     1      -7.431   6.304  70.319  1.00  0.00    -0.094 C  
HETATM   23  C   UNL     1      -8.169   8.244  72.606  1.00  0.00    -0.223 C  
BRANCH  22  24
HETATM   24  C   UNL     1      -7.554   5.362  69.108  1.00  0.00    -0.085 C  
BRANCH  24  25
HETATM   25  C   UNL     1      -6.209   4.959  68.501  1.00  0.00    -0.031 C  
HETATM   26  C   UNL     1      -6.185   5.178  66.995  1.00  0.00    -0.032 C  
ENDBRANCH  24  25
ENDBRANCH  22  24
ENDBRANCH  11  19
ENDBRANCH   7   9
ENDBRANCH   3   4
ENDBRANCH   2   3
TORSDOF 6
ENDMDL
MODEL      177
REMARK 921   NORMALIZED FREE ENERGY PREDICTED BY IDOCK:   -2.64 KCAL/MOL
REMARK 922        TOTAL FREE ENERGY PREDICTED BY IDOCK:   -4.36 KCAL/MOL
REMARK 923 INTER-LIGAND FREE ENERGY PREDICTED BY IDOCK:   -4.24 KCAL/MOL
REMARK 924 INTRA-LIGAND FREE ENERGY PREDICTED BY IDOCK:   -0.12 KCAL/MOL
REMARK 927      BINDING AFFINITY PREDICTED BY RF-SCORE:    0.00 PKD
ROOT
HETATM    1  C   UNL     1     -11.640   6.852  71.808  1.00  0.00    -0.322 C  
HETATM    2  C   UNL     1     -11.491   8.262  72.360  1.00  0.00    -0.463 C  
ENDROOT
BRANCH   2   3
HETATM    3  C   UNL     1     -11.782   9.294  71.276  1.00  0.00    -0.416 C  
BRANCH   3   4
HETATM    4  C   UNL     1     -10.499   9.901  70.703  1.00  0.00    -0.301 C  
HETATM    5  C   UNL     1     -10.592  10.141  69.183  1.00  0.00    -0.247 C  
HETATM    6  C   UNL     1     -11.753  11.068  68.749  1.00  0.00    -0.383 C  
HETATM    7  C   UNL     1      -9.257  10.673  68.608  1.00  0.00    -0.181 C  
HETATM    8  C   UNL     1     -11.643  12.514  69.212  1.00  0.00    -0.378 C  
BRANCH   7   9
HETATM    9  N   UNL     1      -8.096   9.783  68.732  1.00  0.00    -0.099 NA 
HETATM   10  C   UNL     1      -8.320   8.446  68.184  1.00  0.00    -0.128 C  
HETATM   11  N   UNL     1      -8.541   8.501  66.737  1.00  0.00    -0.112 NA 
HETATM   12  C   UNL     1      -7.307   8.989  66.074  1.00  0.00    -0.094 C  
HETATM   13  H1  UNL     1      -5.033  11.454  66.529  1.00  0.00     0.000 HD 
HETATM   14  C   UNL     1      -6.788  10.359  66.596  1.00  0.00    -0.099 C  
HETATM   15  H2  UNL     1      -5.250  10.458  65.179  1.00  0.00     0.000 HD 
HETATM   16  C   UNL     1      -7.558  11.525  65.956  1.00  0.00     0.285 C  
HETATM   17  N   UNL     1      -5.373  10.555  66.187  1.00  0.00    -0.064 NA 
HETATM   18  C   UNL     1      -6.871  10.357  68.150  1.00  0.00    -0.072 C  
BRANCH  11  19
HETATM   19  C   UNL     1      -8.851   7.162  66.188  1.00  0.00    -0.150 C  
HETATM   20  C   UNL     1      -9.535   6.071  68.440  1.00  0.00    -0.124 C  
HETATM   21  C   UNL     1      -8.730   5.934  67.131  1.00  0.00    -0.108 C  
HETATM   22  C   UNL     1      -9.101   4.638  66.365  1.00  0.00    -0.120 C  
HETATM   23  C   UNL     1     -11.052   6.037  68.309  1.00  0.00    -0.259 C  
BRANCH  22  24
HETATM   24  C   UNL     1      -8.244   4.337  65.122  1.00  0.00    -0.102 C  
BRANCH  24  25
HETATM   25  C   UNL     1      -9.019   4.405  63.806  1.00  0.00    -0.143 C  
HETATM   26  C   UNL     1      -9.965   3.223  63.651  1.00  0.00    -0.161 C  
ENDBRANCH  24  25
ENDBRANCH  22  24
ENDBRANCH  11  19
ENDBRANCH   7   9
ENDBRANCH   3   4
ENDBRANCH   2   3
TORSDOF 6
ENDMDL
MODEL      178
REMARK 921   NORMALIZED FREE ENERGY PREDICTED BY IDOCK:   -2.63 KCAL/MOL
REMARK 922        TOTAL FREE ENERGY PREDICTED BY IDOCK:   -4.34 KCAL/MOL
REMARK 923 INTER-LIGAND FREE ENERGY PREDICTED BY IDOCK:   -3.92 KCAL/MOL
REMARK 924 INTRA-LIGAND FREE ENERGY PREDICTED BY IDOCK:   -0.42 KCAL/MOL
REMARK 927      BINDING AFFINITY PREDICTED BY RF-SCORE:    0.00 PKD
ROOT
HETATM    1  C   UNL     1     -10.822  13.349  68.610  1.00  0.00    -0.287 C  
HETATM    2  C   UNL     1     -10.043  12.042  68.575  1.00  0.00    -0.201 C  
ENDROOT
BRANCH   2   3
HETATM    3  C   UNL     1     -10.305  11.298  67.270  1.00  0.00    -0.236 C  
BRANCH   3   4
HETATM    4  C   UNL     1      -9.050  11.209  66.398  1.00  0.00    -0.198 C  
HETATM    5  C   UNL     1      -9.235  10.259  65.199  1.00  0.00    -0.252 C  
HETATM    6  C   UNL     1     -10.404  10.635  64.256  1.00  0.00    -0.325 C  
HETATM    7  C   UNL     1      -7.930  10.115  64.380  1.00  0.00    -0.153 C  
HETATM    8  C   UNL     1     -10.237  11.944  63.498  1.00  0.00    -0.485 C  
BRANCH   7   9
HETATM    9  N   UNL     1      -6.781   9.536  65.087  1.00  0.00    -0.084 NA 
HETATM   10  C   UNL     1      -7.147   8.775  66.280  1.00  0.00    -0.082 C  
HETATM   11  N   UNL     1      -7.946   7.598  65.929  1.00  0.00    -0.109 NA 
HETATM   12  C   UNL     1      -7.118   6.672  65.119  1.00  0.00    -0.064 C  
HETATM   13  H1  UNL     1      -4.976   6.868  62.506  1.00  0.00     0.000 HD 
HETATM   14  C   UNL     1      -6.495   7.304  63.842  1.00  0.00    -0.044 C  
HETATM   15  H2  UNL     1      -5.682   5.490  63.187  1.00  0.00     0.000 HD 
HETATM   16  C   UNL     1      -7.514   7.353  62.692  1.00  0.00    -0.104 C  
HETATM   17  N   UNL     1      -5.384   6.453  63.343  1.00  0.00    -0.018 NA 
HETATM   18  C   UNL     1      -5.931   8.707  64.213  1.00  0.00    -0.066 C  
BRANCH  11  19
HETATM   19  C   UNL     1      -8.391   6.869  67.138  1.00  0.00    -0.121 C  
HETATM   20  C   UNL     1     -10.598   5.950  66.131  1.00  0.00     0.057 C  
HETATM   21  C   UNL     1      -9.913   6.631  67.334  1.00  0.00    -0.185 C  
HETATM   22  C   UNL     1     -10.162   5.851  68.651  1.00  0.00    -0.243 C  
HETATM   23  C   UNL     1     -10.229   4.494  65.877  1.00  0.00    -0.289 C  
BRANCH  22  24
HETATM   24  C   UNL     1      -9.644   6.533  69.931  1.00  0.00    -0.163 C  
BRANCH  24  25
HETATM   25  C   UNL     1      -9.140   5.553  70.992  1.00  0.00    -0.163 C  
HETATM   26  C   UNL     1      -8.637   4.260  70.366  1.00  0.00    -0.105 C  
ENDBRANCH  24  25
ENDBRANCH  22  24
ENDBRANCH  11  19
ENDBRANCH   7   9
ENDBRANCH   3   4
ENDBRANCH   2   3
TORSDOF 6
ENDMDL
MODEL      179
REMARK 921   NORMALIZED FREE ENERGY PREDICTED BY IDOCK:   -2.59 KCAL/MOL
REMARK 922        TOTAL FREE ENERGY PREDICTED BY IDOCK:   -4.29 KCAL/MOL
REMARK 923 INTER-LIGAND FREE ENERGY PREDICTED BY IDOCK:   -5.45 KCAL/MOL
REMARK 924 INTRA-LIGAND FREE ENERGY PREDICTED BY IDOCK:    1.16 KCAL/MOL
REMARK 927      BINDING AFFINITY PREDICTED BY RF-SCORE:    0.00 PKD
ROOT
HETATM    1  C   UNL     1      -8.156   7.919  67.257  1.00  0.00    -0.118 C  
HETATM    2  C   UNL     1      -7.013   8.299  68.188  1.00  0.00    -0.077 C  
ENDROOT
BRANCH   2   3
HETATM    3  C   UNL     1      -6.573   7.094  69.013  1.00  0.00    -0.044 C  
BRANCH   3   4
HETATM    4  C   UNL     1      -7.308   7.016  70.353  1.00  0.00    -0.083 C  
HETATM    5  C   UNL     1      -8.765   6.537  70.197  1.00  0.00    -0.140 C  
HETATM    6  C   UNL     1      -8.916   5.150  69.526  1.00  0.00    -0.128 C  
HETATM    7  C   UNL     1      -9.515   6.548  71.549  1.00  0.00    -0.157 C  
HETATM    8  C   UNL     1      -8.365   3.976  70.323  1.00  0.00    -0.081 C  
BRANCH   7   9
HETATM    9  N   UNL     1      -9.665   7.857  72.198  1.00  0.00    -0.184 NA 
HETATM   10  C   UNL     1      -9.518   8.987  71.283  1.00  0.00    -0.269 C  
HETATM   11  N   UNL     1     -10.584   8.993  70.279  1.00  0.00    -0.208 NA 
HETATM   12  C   UNL     1     -11.887   9.209  70.954  1.00  0.00    -0.270 C  
HETATM   13  H1  UNL     1     -13.509   8.050  73.689  1.00  0.00     0.000 HD 
HETATM   14  C   UNL     1     -12.211   8.190  72.083  1.00  0.00    -0.350 C  
HETATM   15  H2  UNL     1     -14.126   8.971  72.412  1.00  0.00     0.000 HD 
HETATM   16  C   UNL     1     -12.762   6.876  71.504  1.00  0.00    -0.396 C  
HETATM   17  N   UNL     1     -13.296   8.719  72.949  1.00  0.00    -0.253 NA 
HETATM   18  C   UNL     1     -10.930   7.984  72.942  1.00  0.00    -0.330 C  
BRANCH  11  19
HETATM   19  C   UNL     1     -10.395  10.086  69.299  1.00  0.00    -0.219 C  
HETATM   20  C   UNL     1     -12.603  11.341  69.825  1.00  0.00    -0.090 C  
HETATM   21  C   UNL     1     -11.655  10.796  68.736  1.00  0.00    -0.350 C  
HETATM   22  C   UNL     1     -11.237  11.904  67.735  1.00  0.00    -0.330 C  
HETATM   23  C   UNL     1     -12.091  12.521  70.639  1.00  0.00    -0.312 C  
BRANCH  22  24
HETATM   24  C   UNL     1     -10.413  11.426  66.526  1.00  0.00    -0.292 C  
BRANCH  24  25
HETATM   25  C   UNL     1     -10.930  11.942  65.183  1.00  0.00    -0.365 C  
HETATM   26  C   UNL     1     -10.184  11.313  64.016  1.00  0.00    -0.403 C  
ENDBRANCH  24  25
ENDBRANCH  22  24
ENDBRANCH  11  19
ENDBRANCH   7   9
ENDBRANCH   3   4
ENDBRANCH   2   3
TORSDOF 6
ENDMDL
MODEL      180
REMARK 921   NORMALIZED FREE ENERGY PREDICTED BY IDOCK:   -2.53 KCAL/MOL
REMARK 922        TOTAL FREE ENERGY PREDICTED BY IDOCK:   -4.21 KCAL/MOL
REMARK 923 INTER-LIGAND FREE ENERGY PREDICTED BY IDOCK:   -3.95 KCAL/MOL
REMARK 924 INTRA-LIGAND FREE ENERGY PREDICTED BY IDOCK:   -0.26 KCAL/MOL
REMARK 927      BINDING AFFINITY PREDICTED BY RF-SCORE:    0.00 PKD
ROOT
HETATM    1  C   UNL     1      -8.937   3.211  69.711  1.00  0.00    -0.175 C  
HETATM    2  C   UNL     1      -9.138   3.573  68.247  1.00  0.00    -0.201 C  
ENDROOT
BRANCH   2   3
HETATM    3  C   UNL     1     -10.356   4.476  68.082  1.00  0.00     0.176 C  
BRANCH   3   4
HETATM    4  C   UNL     1      -9.961   5.934  67.839  1.00  0.00    -0.157 C  
HETATM    5  C   UNL     1     -10.747   6.912  68.734  1.00  0.00    -0.255 C  
HETATM    6  C   UNL     1     -10.591   6.658  70.254  1.00  0.00    -0.265 C  
HETATM    7  C   UNL     1     -10.397   8.385  68.413  1.00  0.00    -0.200 C  
HETATM    8  C   UNL     1      -9.196   6.891  70.815  1.00  0.00    -0.158 C  
BRANCH   7   9
HETATM    9  N   UNL     1     -10.717   8.847  67.057  1.00  0.00    -0.198 NA 
HETATM   10  C   UNL     1     -11.013  10.277  66.978  1.00  0.00    -0.119 C  
HETATM   11  N   UNL     1      -9.838  11.077  67.331  1.00  0.00    -0.172 NA 
HETATM   12  C   UNL     1      -8.772  10.847  66.325  1.00  0.00    -0.171 C  
HETATM   13  H1  UNL     1      -7.371   8.214  64.725  1.00  0.00     0.000 HD 
HETATM   14  C   UNL     1      -8.374   9.357  66.129  1.00  0.00    -0.115 C  
HETATM   15  H2  UNL     1      -6.826   9.814  64.797  1.00  0.00     0.000 HD 
HETATM   16  C   UNL     1      -7.400   8.893  67.225  1.00  0.00    -0.080 C  
HETATM   17  N   UNL     1      -7.632   9.192  64.853  1.00  0.00    -0.105 NA 
HETATM   18  C   UNL     1      -9.675   8.504  66.074  1.00  0.00    -0.125 C  
BRANCH  11  19
HETATM   19  C   UNL     1     -10.152  12.524  67.336  1.00  0.00    -0.210 C  
HETATM   20  C   UNL     1     -12.270  12.360  68.825  1.00  0.00     0.025 C  
HETATM   21  C   UNL     1     -11.628  12.954  67.554  1.00  0.00    -0.409 C  
HETATM   22  C   UNL     1     -11.738  14.501  67.528  1.00  0.00    -0.413 C  
HETATM   23  C   UNL     1     -11.742  12.878  70.156  1.00  0.00    -0.234 C  
BRANCH  22  24
HETATM   24  C   UNL     1     -11.260  15.176  66.230  1.00  0.00    -0.273 C  
BRANCH  24  25
HETATM   25  C   UNL     1     -10.550  16.512  66.453  1.00  0.00    -0.221 C  
HETATM   26  C   UNL     1      -9.294  16.628  65.602  1.00  0.00     0.105 C  
ENDBRANCH  24  25
ENDBRANCH  22  24
ENDBRANCH  11  19
ENDBRANCH   7   9
ENDBRANCH   3   4
ENDBRANCH   2   3
TORSDOF 6
ENDMDL
MODEL      181
REMARK 921   NORMALIZED FREE ENERGY PREDICTED BY IDOCK:   -2.51 KCAL/MOL
REMARK 922        TOTAL FREE ENERGY PREDICTED BY IDOCK:   -4.18 KCAL/MOL
REMARK 923 INTER-LIGAND FREE ENERGY PREDICTED BY IDOCK:   -4.40 KCAL/MOL
REMARK 924 INTRA-LIGAND FREE ENERGY PREDICTED BY IDOCK:    0.22 KCAL/MOL
REMARK 927      BINDING AFFINITY PREDICTED BY RF-SCORE:    0.00 PKD
ROOT
HETATM    1  C   UNL     1      -9.622   4.116  64.340  1.00  0.00    -0.162 C  
HETATM    2  C   UNL     1      -9.024   4.794  65.565  1.00  0.00    -0.146 C  
ENDROOT
BRANCH   2   3
HETATM    3  C   UNL     1      -7.549   5.106  65.336  1.00  0.00    -0.085 C  
BRANCH   3   4
HETATM    4  C   UNL     1      -6.936   5.876  66.508  1.00  0.00    -0.060 C  
HETATM    5  C   UNL     1      -8.007   6.503  67.423  1.00  0.00    -0.113 C  
HETATM    6  C   UNL     1      -9.004   5.487  68.032  1.00  0.00    -0.108 C  
HETATM    7  C   UNL     1      -7.368   7.348  68.550  1.00  0.00    -0.100 C  
HETATM    8  C   UNL     1      -8.404   4.492  69.015  1.00  0.00    -0.086 C  
BRANCH   7   9
HETATM    9  N   UNL     1      -6.578   8.509  68.124  1.00  0.00    -0.060 NA 
HETATM   10  C   UNL     1      -7.343   9.492  67.360  1.00  0.00    -0.087 C  
HETATM   11  N   UNL     1      -8.396  10.094  68.182  1.00  0.00    -0.116 NA 
HETATM   12  C   UNL     1      -7.771  10.863  69.285  1.00  0.00    -0.099 C  
HETATM   13  H1  UNL     1      -5.284  10.431  71.539  1.00  0.00     0.000 HD 
HETATM   14  C   UNL     1      -6.790  10.046  70.173  1.00  0.00    -0.137 C  
HETATM   15  H2  UNL     1      -6.475  11.631  71.503  1.00  0.00     0.000 HD 
HETATM   16  C   UNL     1      -7.550   9.215  71.221  1.00  0.00    -0.064 C  
HETATM   17  N   UNL     1      -5.928  10.967  70.957  1.00  0.00    -0.360 NA 
HETATM   18  C   UNL     1      -5.893   9.178  69.244  1.00  0.00    -0.035 C  
BRANCH  11  19
HETATM   19  C   UNL     1      -9.229  11.028  67.392  1.00  0.00    -0.151 C  
HETATM   20  C   UNL     1     -11.502  10.364  68.450  1.00  0.00    -0.227 C  
HETATM   21  C   UNL     1     -10.719  10.664  67.155  1.00  0.00    -0.327 C  
HETATM   22  C   UNL     1     -11.409  11.771  66.314  1.00  0.00    -0.350 C  
HETATM   23  C   UNL     1     -11.760  11.546  69.375  1.00  0.00    -0.413 C  
BRANCH  22  24
HETATM   24  C   UNL     1     -10.784  12.035  64.932  1.00  0.00    -0.346 C  
BRANCH  24  25
HETATM   25  C   UNL     1     -10.656  13.519  64.586  1.00  0.00    -0.441 C  
HETATM   26  C   UNL     1     -11.185  14.403  65.706  1.00  0.00    -0.326 C  
ENDBRANCH  24  25
ENDBRANCH  22  24
ENDBRANCH  11  19
ENDBRANCH   7   9
ENDBRANCH   3   4
ENDBRANCH   2   3
TORSDOF 6
ENDMDL
MODEL      182
REMARK 921   NORMALIZED FREE ENERGY PREDICTED BY IDOCK:   -2.50 KCAL/MOL
REMARK 922        TOTAL FREE ENERGY PREDICTED BY IDOCK:   -4.17 KCAL/MOL
REMARK 923 INTER-LIGAND FREE ENERGY PREDICTED BY IDOCK:   -4.28 KCAL/MOL
REMARK 924 INTRA-LIGAND FREE ENERGY PREDICTED BY IDOCK:    0.12 KCAL/MOL
REMARK 927      BINDING AFFINITY PREDICTED BY RF-SCORE:    0.00 PKD
ROOT
HETATM    1  C   UNL     1      -6.450   7.375  62.998  1.00  0.00    -0.054 C  
HETATM    2  C   UNL     1      -6.144   5.887  63.091  1.00  0.00    -0.021 C  
ENDROOT
BRANCH   2   3
HETATM    3  C   UNL     1      -7.214   5.172  63.911  1.00  0.00    -0.050 C  
BRANCH   3   4
HETATM    4  C   UNL     1      -7.278   5.693  65.349  1.00  0.00    -0.067 C  
HETATM    5  C   UNL     1      -8.709   6.083  65.768  1.00  0.00    -0.155 C  
HETATM    6  C   UNL     1      -9.743   4.935  65.666  1.00  0.00    -0.161 C  
HETATM    7  C   UNL     1      -8.740   6.688  67.192  1.00  0.00    -0.111 C  
HETATM    8  C   UNL     1      -9.524   3.772  66.622  1.00  0.00    -0.212 C  
BRANCH   7   9
HETATM    9  N   UNL     1      -7.989   7.934  67.385  1.00  0.00    -0.120 NA 
HETATM   10  C   UNL     1      -8.498   9.055  66.597  1.00  0.00    -0.122 C  
HETATM   11  N   UNL     1      -9.854   9.420  67.016  1.00  0.00    -0.187 NA 
HETATM   12  C   UNL     1      -9.815   9.915  68.414  1.00  0.00    -0.151 C  
HETATM   13  H1  UNL     1      -8.396   9.007  71.349  1.00  0.00     0.000 HD 
HETATM   14  C   UNL     1      -9.178   8.930  69.435  1.00  0.00    -0.146 C  
HETATM   15  H2  UNL     1      -9.607  10.156  71.076  1.00  0.00     0.000 HD 
HETATM   16  C   UNL     1     -10.187   7.856  69.874  1.00  0.00    -0.210 C  
HETATM   17  N   UNL     1      -8.813   9.654  70.679  1.00  0.00    -0.186 NA 
HETATM   18  C   UNL     1      -7.890   8.329  68.800  1.00  0.00    -0.115 C  
BRANCH  11  19
HETATM   19  C   UNL     1     -10.408  10.498  66.168  1.00  0.00    -0.210 C  
HETATM   20  C   UNL     1      -8.530  10.461  64.379  1.00  0.00    -0.166 C  
HETATM   21  C   UNL     1      -9.427  11.323  65.292  1.00  0.00    -0.248 C  
HETATM   22  C   UNL     1     -10.208  12.392  64.483  1.00  0.00    -0.325 C  
HETATM   23  C   UNL     1      -9.226   9.746  63.228  1.00  0.00    -0.219 C  
BRANCH  22  24
HETATM   24  C   UNL     1     -11.015  13.397  65.324  1.00  0.00    -0.306 C  
BRANCH  24  25
HETATM   25  C   UNL     1     -10.615  14.855  65.094  1.00  0.00    -0.450 C  
HETATM   26  C   UNL     1     -10.719  15.673  66.373  1.00  0.00    -0.291 C  
ENDBRANCH  24  25
ENDBRANCH  22  24
ENDBRANCH  11  19
ENDBRANCH   7   9
ENDBRANCH   3   4
ENDBRANCH   2   3
TORSDOF 6
ENDMDL
MODEL      183
REMARK 921   NORMALIZED FREE ENERGY PREDICTED BY IDOCK:   -2.50 KCAL/MOL
REMARK 922        TOTAL FREE ENERGY PREDICTED BY IDOCK:   -4.16 KCAL/MOL
REMARK 923 INTER-LIGAND FREE ENERGY PREDICTED BY IDOCK:   -4.40 KCAL/MOL
REMARK 924 INTRA-LIGAND FREE ENERGY PREDICTED BY IDOCK:    0.23 KCAL/MOL
REMARK 927      BINDING AFFINITY PREDICTED BY RF-SCORE:    0.00 PKD
ROOT
HETATM    1  C   UNL     1     -10.555  16.704  68.313  1.00  0.00    -0.338 C  
HETATM    2  C   UNL     1     -10.775  15.219  68.563  1.00  0.00    -0.247 C  
ENDROOT
BRANCH   2   3
HETATM    3  C   UNL     1     -10.472  14.415  67.304  1.00  0.00    -0.269 C  
BRANCH   3   4
HETATM    4  C   UNL     1      -9.624  13.177  67.603  1.00  0.00    -0.210 C  
HETATM    5  C   UNL     1     -10.453  11.877  67.576  1.00  0.00    -0.233 C  
HETATM    6  C   UNL     1     -11.177  11.605  66.235  1.00  0.00    -0.332 C  
HETATM    7  C   UNL     1      -9.598  10.649  67.966  1.00  0.00    -0.157 C  
HETATM    8  C   UNL     1     -10.267  11.331  65.046  1.00  0.00    -0.339 C  
BRANCH   7   9
HETATM    9  N   UNL     1      -9.035  10.653  69.322  1.00  0.00    -0.130 NA 
HETATM   10  C   UNL     1      -9.294   9.424  70.070  1.00  0.00    -0.226 C  
HETATM   11  N   UNL     1      -8.634   8.277  69.443  1.00  0.00    -0.133 NA 
HETATM   12  C   UNL     1      -7.164   8.466  69.507  1.00  0.00    -0.061 C  
HETATM   13  H1  UNL     1      -4.936  10.950  68.943  1.00  0.00     0.000 HD 
HETATM   14  C   UNL     1      -6.651   9.795  68.883  1.00  0.00    -0.046 C  
HETATM   15  H2  UNL     1      -4.638   9.301  69.171  1.00  0.00     0.000 HD 
HETATM   16  C   UNL     1      -6.541   9.684  67.353  1.00  0.00    -0.070 C  
HETATM   17  N   UNL     1      -5.272  10.079  69.353  1.00  0.00    -0.035 NA 
HETATM   18  C   UNL     1      -7.591  10.948  69.341  1.00  0.00    -0.094 C  
BRANCH  11  19
HETATM   19  C   UNL     1      -8.960   7.016  70.146  1.00  0.00    -0.145 C  
HETATM   20  C   UNL     1      -8.664   7.936  72.553  1.00  0.00    -0.209 C  
HETATM   21  C   UNL     1      -8.368   6.790  71.563  1.00  0.00    -0.115 C  
HETATM   22  C   UNL     1      -8.834   5.420  72.120  1.00  0.00    -0.133 C  
HETATM   23  C   UNL     1     -10.113   8.091  72.995  1.00  0.00    -0.351 C  
BRANCH  22  24
HETATM   24  C   UNL     1      -8.447   4.196  71.270  1.00  0.00    -0.102 C  
BRANCH  24  25
HETATM   25  C   UNL     1      -9.581   3.185  71.092  1.00  0.00    -0.230 C  
HETATM   26  C   UNL     1      -9.663   2.222  72.267  1.00  0.00    -0.193 C  
ENDBRANCH  24  25
ENDBRANCH  22  24
ENDBRANCH  11  19
ENDBRANCH   7   9
ENDBRANCH   3   4
ENDBRANCH   2   3
TORSDOF 6
ENDMDL
MODEL      184
REMARK 921   NORMALIZED FREE ENERGY PREDICTED BY IDOCK:   -2.48 KCAL/MOL
REMARK 922        TOTAL FREE ENERGY PREDICTED BY IDOCK:   -4.14 KCAL/MOL
REMARK 923 INTER-LIGAND FREE ENERGY PREDICTED BY IDOCK:   -4.47 KCAL/MOL
REMARK 924 INTRA-LIGAND FREE ENERGY PREDICTED BY IDOCK:    0.33 KCAL/MOL
REMARK 927      BINDING AFFINITY PREDICTED BY RF-SCORE:    0.00 PKD
ROOT
HETATM    1  C   UNL     1     -10.737   5.098  66.182  1.00  0.00    -0.247 C  
HETATM    2  C   UNL     1      -9.482   4.266  65.958  1.00  0.00    -0.177 C  
ENDROOT
BRANCH   2   3
HETATM    3  C   UNL     1      -9.105   3.514  67.230  1.00  0.00    -0.194 C  
BRANCH   3   4
HETATM    4  C   UNL     1      -8.212   4.351  68.148  1.00  0.00    -0.090 C  
HETATM    5  C   UNL     1      -9.026   5.237  69.112  1.00  0.00    -0.124 C  
HETATM    6  C   UNL     1     -10.001   4.459  70.029  1.00  0.00    -0.245 C  
HETATM    7  C   UNL     1      -8.107   6.138  69.970  1.00  0.00    -0.119 C  
HETATM    8  C   UNL     1      -9.345   3.540  71.049  1.00  0.00    -0.213 C  
BRANCH   7   9
HETATM    9  N   UNL     1      -7.286   7.112  69.240  1.00  0.00    -0.089 NA 
HETATM   10  C   UNL     1      -8.056   7.979  68.351  1.00  0.00    -0.122 C  
HETATM   11  N   UNL     1      -8.977   8.828  69.110  1.00  0.00    -0.137 NA 
HETATM   12  C   UNL     1      -8.194   9.750  69.968  1.00  0.00    -0.191 C  
HETATM   13  H1  UNL     1      -5.528   9.576  72.045  1.00  0.00     0.000 HD 
HETATM   14  C   UNL     1      -7.187   9.051  70.924  1.00  0.00    -0.103 C  
HETATM   15  H2  UNL     1      -6.632  10.843  71.854  1.00  0.00     0.000 HD 
HETATM   16  C   UNL     1      -7.892   8.525  72.185  1.00  0.00    -0.136 C  
HETATM   17  N   UNL     1      -6.189  10.035  71.418  1.00  0.00    -0.314 NA 
HETATM   18  C   UNL     1      -6.449   7.935  70.130  1.00  0.00    -0.037 C  
BRANCH  11  19
HETATM   19  C   UNL     1      -9.819   9.648  68.211  1.00  0.00    -0.150 C  
HETATM   20  C   UNL     1      -8.174   9.671  66.206  1.00  0.00    -0.116 C  
HETATM   21  C   UNL     1      -9.117  10.490  67.111  1.00  0.00    -0.154 C  
HETATM   22  C   UNL     1     -10.174  11.267  66.283  1.00  0.00    -0.280 C  
HETATM   23  C   UNL     1      -8.837   8.676  65.263  1.00  0.00    -0.178 C  
BRANCH  22  24
HETATM   24  C   UNL     1     -11.065  12.230  67.087  1.00  0.00    -0.330 C  
BRANCH  24  25
HETATM   25  C   UNL     1     -11.460  13.492  66.318  1.00  0.00    -0.350 C  
HETATM   26  C   UNL     1     -11.412  14.727  67.206  1.00  0.00    -0.378 C  
ENDBRANCH  24  25
ENDBRANCH  22  24
ENDBRANCH  11  19
ENDBRANCH   7   9
ENDBRANCH   3   4
ENDBRANCH   2   3
TORSDOF 6
ENDMDL
MODEL      185
REMARK 921   NORMALIZED FREE ENERGY PREDICTED BY IDOCK:   -2.44 KCAL/MOL
REMARK 922        TOTAL FREE ENERGY PREDICTED BY IDOCK:   -4.09 KCAL/MOL
REMARK 923 INTER-LIGAND FREE ENERGY PREDICTED BY IDOCK:   -4.69 KCAL/MOL
REMARK 924 INTRA-LIGAND FREE ENERGY PREDICTED BY IDOCK:    0.61 KCAL/MOL
REMARK 927      BINDING AFFINITY PREDICTED BY RF-SCORE:    0.00 PKD
ROOT
HETATM    1  C   UNL     1      -6.053  12.959  68.668  1.00  0.00    -0.068 C  
HETATM    2  C   UNL     1      -6.882  13.232  67.421  1.00  0.00    -0.098 C  
ENDROOT
BRANCH   2   3
HETATM    3  C   UNL     1      -7.980  12.184  67.270  1.00  0.00    -0.176 C  
BRANCH   3   4
HETATM    4  C   UNL     1      -7.408  10.773  67.108  1.00  0.00    -0.101 C  
HETATM    5  C   UNL     1      -8.490   9.741  66.736  1.00  0.00    -0.125 C  
HETATM    6  C   UNL     1      -9.260  10.060  65.430  1.00  0.00    -0.259 C  
HETATM    7  C   UNL     1      -7.909   8.309  66.662  1.00  0.00    -0.094 C  
HETATM    8  C   UNL     1      -8.431  10.007  64.155  1.00  0.00    -0.179 C  
BRANCH   7   9
HETATM    9  N   UNL     1      -7.353   7.769  67.909  1.00  0.00    -0.100 NA 
HETATM   10  C   UNL     1      -8.239   7.919  69.062  1.00  0.00    -0.126 C  
HETATM   11  N   UNL     1      -9.469   7.143  68.885  1.00  0.00    -0.143 NA 
HETATM   12  C   UNL     1      -9.130   5.699  68.844  1.00  0.00    -0.115 C  
HETATM   13  H1  UNL     1      -6.828   3.713  67.359  1.00  0.00     0.000 HD 
HETATM   14  C   UNL     1      -8.082   5.308  67.764  1.00  0.00    -0.099 C  
HETATM   15  H2  UNL     1      -8.242   3.261  68.169  1.00  0.00     0.000 HD 
HETATM   16  C   UNL     1      -8.737   5.165  66.380  1.00  0.00    -0.113 C  
HETATM   17  N   UNL     1      -7.515   3.969  68.067  1.00  0.00    -0.067 NA 
HETATM   18  C   UNL     1      -6.936   6.361  67.787  1.00  0.00    -0.075 C  
BRANCH  11  19
HETATM   19  C   UNL     1     -10.407   7.357  70.010  1.00  0.00    -0.219 C  
HETATM   20  C   UNL     1     -10.391   4.912  70.877  1.00  0.00    -0.225 C  
HETATM   21  C   UNL     1     -11.240   6.147  70.512  1.00  0.00    -0.403 C  
HETATM   22  C   UNL     1     -12.151   6.583  71.690  1.00  0.00    -0.381 C  
HETATM   23  C   UNL     1      -9.509   5.038  72.112  1.00  0.00    -0.175 C  
BRANCH  22  24
HETATM   24  C   UNL     1     -13.145   7.714  71.373  1.00  0.00    -0.339 C  
BRANCH  24  25
HETATM   25  C   UNL     1     -12.945   8.969  72.225  1.00  0.00    -0.490 C  
HETATM   26  C   UNL     1     -12.480  10.149  71.384  1.00  0.00    -0.524 C  
ENDBRANCH  24  25
ENDBRANCH  22  24
ENDBRANCH  11  19
ENDBRANCH   7   9
ENDBRANCH   3   4
ENDBRANCH   2   3
TORSDOF 6
ENDMDL
MODEL      186
REMARK 921   NORMALIZED FREE ENERGY PREDICTED BY IDOCK:   -2.44 KCAL/MOL
REMARK 922        TOTAL FREE ENERGY PREDICTED BY IDOCK:   -4.08 KCAL/MOL
REMARK 923 INTER-LIGAND FREE ENERGY PREDICTED BY IDOCK:   -3.27 KCAL/MOL
REMARK 924 INTRA-LIGAND FREE ENERGY PREDICTED BY IDOCK:   -0.81 KCAL/MOL
REMARK 927      BINDING AFFINITY PREDICTED BY RF-SCORE:    0.00 PKD
ROOT
HETATM    1  C   UNL     1      -6.643   7.707  71.941  1.00  0.00    -0.043 C  
HETATM    2  C   UNL     1      -8.007   7.219  71.474  1.00  0.00    -0.100 C  
ENDROOT
BRANCH   2   3
HETATM    3  C   UNL     1      -8.247   7.614  70.021  1.00  0.00    -0.125 C  
BRANCH   3   4
HETATM    4  C   UNL     1      -8.363   6.392  69.106  1.00  0.00    -0.122 C  
HETATM    5  C   UNL     1      -7.198   6.298  68.101  1.00  0.00    -0.084 C  
HETATM    6  C   UNL     1      -5.794   6.234  68.750  1.00  0.00    -0.020 C  
HETATM    7  C   UNL     1      -7.380   5.108  67.130  1.00  0.00    -0.082 C  
HETATM    8  C   UNL     1      -5.508   4.980  69.563  1.00  0.00    -0.008 C  
BRANCH   7   9
HETATM    9  N   UNL     1      -8.563   5.152  66.261  1.00  0.00    -0.113 NA 
HETATM   10  C   UNL     1      -9.061   6.504  66.016  1.00  0.00    -0.086 C  
HETATM   11  N   UNL     1      -8.079   7.302  65.277  1.00  0.00    -0.130 NA 
HETATM   12  C   UNL     1      -7.887   6.710  63.931  1.00  0.00    -0.109 C  
HETATM   13  H1  UNL     1      -7.443   3.635  62.590  1.00  0.00     0.000 HD 
HETATM   14  C   UNL     1      -7.477   5.210  63.932  1.00  0.00    -0.061 C  
HETATM   15  H2  UNL     1      -7.240   5.143  61.853  1.00  0.00     0.000 HD 
HETATM   16  C   UNL     1      -5.970   5.046  64.187  1.00  0.00    -0.021 C  
HETATM   17  N   UNL     1      -7.712   4.619  62.589  1.00  0.00    -0.059 NA 
HETATM   18  C   UNL     1      -8.355   4.462  64.976  1.00  0.00    -0.117 C  
BRANCH  11  19
HETATM   19  C   UNL     1      -8.542   8.696  65.099  1.00  0.00    -0.173 C  
HETATM   20  C   UNL     1      -6.796   9.790  66.675  1.00  0.00    -0.084 C  
HETATM   21  C   UNL     1      -8.275   9.711  66.243  1.00  0.00    -0.116 C  
HETATM   22  C   UNL     1      -8.832  11.106  65.854  1.00  0.00    -0.193 C  
HETATM   23  C   UNL     1      -5.829  10.404  65.671  1.00  0.00    -0.114 C  
BRANCH  22  24
HETATM   24  C   UNL     1     -10.340  11.154  65.553  1.00  0.00    -0.326 C  
BRANCH  24  25
HETATM   25  C   UNL     1     -10.669  11.253  64.062  1.00  0.00    -0.444 C  
HETATM   26  C   UNL     1     -11.446  12.522  63.743  1.00  0.00    -0.542 C  
ENDBRANCH  24  25
ENDBRANCH  22  24
ENDBRANCH  11  19
ENDBRANCH   7   9
ENDBRANCH   3   4
ENDBRANCH   2   3
TORSDOF 6
ENDMDL
MODEL      187
REMARK 921   NORMALIZED FREE ENERGY PREDICTED BY IDOCK:   -2.43 KCAL/MOL
REMARK 922        TOTAL FREE ENERGY PREDICTED BY IDOCK:   -4.08 KCAL/MOL
REMARK 923 INTER-LIGAND FREE ENERGY PREDICTED BY IDOCK:   -4.07 KCAL/MOL
REMARK 924 INTRA-LIGAND FREE ENERGY PREDICTED BY IDOCK:   -0.00 KCAL/MOL
REMARK 927      BINDING AFFINITY PREDICTED BY RF-SCORE:    0.00 PKD
ROOT
HETATM    1  C   UNL     1      -9.192  10.073  63.704  1.00  0.00    -0.314 C  
HETATM    2  C   UNL     1     -10.371  10.978  64.031  1.00  0.00    -0.436 C  
ENDROOT
BRANCH   2   3
HETATM    3  C   UNL     1     -10.077  11.811  65.273  1.00  0.00    -0.300 C  
BRANCH   3   4
HETATM    4  C   UNL     1     -10.169  10.981  66.556  1.00  0.00    -0.280 C  
HETATM    5  C   UNL     1      -8.800  10.424  66.994  1.00  0.00    -0.143 C  
HETATM    6  C   UNL     1      -7.718  11.504  67.241  1.00  0.00    -0.150 C  
HETATM    7  C   UNL     1      -8.927   9.518  68.241  1.00  0.00    -0.124 C  
HETATM    8  C   UNL     1      -7.982  12.436  68.414  1.00  0.00    -0.149 C  
BRANCH   7   9
HETATM    9  N   UNL     1      -9.741   8.306  68.083  1.00  0.00    -0.154 NA 
HETATM   10  C   UNL     1      -8.981   7.065  68.224  1.00  0.00    -0.128 C  
HETATM   11  N   UNL     1      -8.443   6.927  69.579  1.00  0.00    -0.132 NA 
HETATM   12  C   UNL     1      -9.569   6.802  70.538  1.00  0.00    -0.169 C  
HETATM   13  H1  UNL     1     -12.543   8.310  71.113  1.00  0.00     0.000 HD 
HETATM   14  C   UNL     1     -10.604   7.961  70.480  1.00  0.00    -0.223 C  
HETATM   15  H2  UNL     1     -11.702   7.229  72.106  1.00  0.00     0.000 HD 
HETATM   16  C   UNL     1     -10.110   9.187  71.265  1.00  0.00    -0.388 C  
HETATM   17  N   UNL     1     -11.864   7.550  71.151  1.00  0.00    -0.293 NA 
HETATM   18  C   UNL     1     -10.905   8.277  68.986  1.00  0.00     0.012 C  
BRANCH  11  19
HETATM   19  C   UNL     1      -7.603   5.716  69.705  1.00  0.00    -0.075 C  
HETATM   20  C   UNL     1      -9.495   3.997  69.265  1.00  0.00    -0.260 C  
HETATM   21  C   UNL     1      -8.284   4.390  70.137  1.00  0.00    -0.067 C  
HETATM   22  C   UNL     1      -7.233   3.250  70.203  1.00  0.00    -0.041 C  
HETATM   23  C   UNL     1      -9.189   3.574  67.834  1.00  0.00    -0.230 C  
BRANCH  22  24
HETATM   24  C   UNL     1      -6.060   3.489  71.170  1.00  0.00    -0.015 C  
BRANCH  24  25
HETATM   25  C   UNL     1      -6.471   3.520  72.643  1.00  0.00    -0.014 C  
HETATM   26  C   UNL     1      -5.342   3.048  73.549  1.00  0.00     0.000 C  
ENDBRANCH  24  25
ENDBRANCH  22  24
ENDBRANCH  11  19
ENDBRANCH   7   9
ENDBRANCH   3   4
ENDBRANCH   2   3
TORSDOF 6
ENDMDL
MODEL      188
REMARK 921   NORMALIZED FREE ENERGY PREDICTED BY IDOCK:   -2.43 KCAL/MOL
REMARK 922        TOTAL FREE ENERGY PREDICTED BY IDOCK:   -4.07 KCAL/MOL
REMARK 923 INTER-LIGAND FREE ENERGY PREDICTED BY IDOCK:   -3.55 KCAL/MOL
REMARK 924 INTRA-LIGAND FREE ENERGY PREDICTED BY IDOCK:   -0.52 KCAL/MOL
REMARK 927      BINDING AFFINITY PREDICTED BY RF-SCORE:    0.00 PKD
ROOT
HETATM    1  C   UNL     1      -5.152   8.359  62.850  1.00  0.00    -0.063 C  
HETATM    2  C   UNL     1      -5.164   9.729  63.512  1.00  0.00    -0.075 C  
ENDROOT
BRANCH   2   3
HETATM    3  C   UNL     1      -6.587  10.130  63.886  1.00  0.00    -0.117 C  
BRANCH   3   4
HETATM    4  C   UNL     1      -6.935   9.736  65.323  1.00  0.00    -0.111 C  
HETATM    5  C   UNL     1      -8.328   9.085  65.432  1.00  0.00    -0.151 C  
HETATM    6  C   UNL     1      -8.511   7.813  64.567  1.00  0.00     0.093 C  
HETATM    7  C   UNL     1      -8.697   8.774  66.902  1.00  0.00    -0.127 C  
HETATM    8  C   UNL     1      -7.659   6.620  64.972  1.00  0.00    -0.099 C  
BRANCH   7   9
HETATM    9  N   UNL     1      -8.801   9.928  67.803  1.00  0.00    -0.129 NA 
HETATM   10  C   UNL     1      -9.620   9.677  68.988  1.00  0.00    -0.168 C  
HETATM   11  N   UNL     1      -9.016   8.648  69.837  1.00  0.00    -0.146 NA 
HETATM   12  C   UNL     1      -7.722   9.148  70.361  1.00  0.00    -0.127 C  
HETATM   13  H1  UNL     1      -4.996  10.760  69.168  1.00  0.00     0.000 HD 
HETATM   14  C   UNL     1      -6.715   9.612  69.271  1.00  0.00    -0.049 C  
HETATM   15  H2  UNL     1      -5.191   9.984  70.658  1.00  0.00     0.000 HD 
HETATM   16  C   UNL     1      -5.970   8.414  68.658  1.00  0.00    -0.044 C  
HETATM   17  N   UNL     1      -5.657  10.456  69.883  1.00  0.00    -0.043 NA 
HETATM   18  C   UNL     1      -7.487  10.453  68.214  1.00  0.00    -0.090 C  
BRANCH  11  19
HETATM   19  C   UNL     1      -9.881   8.328  70.994  1.00  0.00    -0.187 C  
HETATM   20  C   UNL     1     -10.859   6.126  70.032  1.00  0.00    -0.408 C  
HETATM   21  C   UNL     1     -11.146   7.461  70.750  1.00  0.00    -0.285 C  
HETATM   22  C   UNL     1     -11.905   7.241  72.085  1.00  0.00    -0.324 C  
HETATM   23  C   UNL     1     -10.088   5.082  70.829  1.00  0.00    -0.307 C  
BRANCH  22  24
HETATM   24  C   UNL     1     -12.369   8.523  72.800  1.00  0.00    -0.133 C  
BRANCH  24  25
HETATM   25  C   UNL     1     -12.768   9.652  71.847  1.00  0.00    -0.499 C  
HETATM   26  C   UNL     1     -14.244   9.582  71.484  1.00  0.00     0.042 C  
ENDBRANCH  24  25
ENDBRANCH  22  24
ENDBRANCH  11  19
ENDBRANCH   7   9
ENDBRANCH   3   4
ENDBRANCH   2   3
TORSDOF 6
ENDMDL
MODEL      189
REMARK 921   NORMALIZED FREE ENERGY PREDICTED BY IDOCK:   -2.41 KCAL/MOL
REMARK 922        TOTAL FREE ENERGY PREDICTED BY IDOCK:   -4.04 KCAL/MOL
REMARK 923 INTER-LIGAND FREE ENERGY PREDICTED BY IDOCK:   -3.43 KCAL/MOL
REMARK 924 INTRA-LIGAND FREE ENERGY PREDICTED BY IDOCK:   -0.61 KCAL/MOL
REMARK 927      BINDING AFFINITY PREDICTED BY RF-SCORE:    0.00 PKD
ROOT
HETATM    1  C   UNL     1      -5.763   9.195  72.688  1.00  0.00    -0.030 C  
HETATM    2  C   UNL     1      -5.759   8.627  74.100  1.00  0.00    -0.122 C  
ENDROOT
BRANCH   2   3
HETATM    3  C   UNL     1      -7.081   7.928  74.398  1.00  0.00    -0.170 C  
BRANCH   3   4
HETATM    4  C   UNL     1      -7.916   7.717  73.133  1.00  0.00    -0.152 C  
HETATM    5  C   UNL     1      -7.749   6.301  72.547  1.00  0.00    -0.102 C  
HETATM    6  C   UNL     1      -8.121   5.156  73.521  1.00  0.00    -0.110 C  
HETATM    7  C   UNL     1      -8.531   6.136  71.223  1.00  0.00    -0.125 C  
HETATM    8  C   UNL     1      -9.591   5.080  73.908  1.00  0.00    -0.135 C  
BRANCH   7   9
HETATM    9  N   UNL     1      -8.119   7.003  70.113  1.00  0.00    -0.128 NA 
HETATM   10  C   UNL     1      -8.118   6.333  68.813  1.00  0.00    -0.109 C  
HETATM   11  N   UNL     1      -9.472   5.927  68.430  1.00  0.00    -0.119 NA 
HETATM   12  C   UNL     1     -10.308   7.138  68.240  1.00  0.00    -0.195 C  
HETATM   13  H1  UNL     1     -10.883  10.056  69.853  1.00  0.00     0.000 HD 
HETATM   14  C   UNL     1     -10.355   8.093  69.466  1.00  0.00    -0.222 C  
HETATM   15  H2  UNL     1     -11.753   9.371  68.574  1.00  0.00     0.000 HD 
HETATM   16  C   UNL     1     -11.362   7.598  70.518  1.00  0.00    -0.266 C  
HETATM   17  N   UNL     1     -10.852   9.429  69.049  1.00  0.00    -0.181 NA 
HETATM   18  C   UNL     1      -8.912   8.241  70.029  1.00  0.00    -0.142 C  
BRANCH  11  19
HETATM   19  C   UNL     1      -9.468   5.174  67.155  1.00  0.00    -0.131 C  
HETATM   20  C   UNL     1      -8.339   3.031  68.083  1.00  0.00    -0.094 C  
HETATM   21  C   UNL     1      -8.387   4.079  66.952  1.00  0.00    -0.100 C  
HETATM   22  C   UNL     1      -8.562   3.413  65.562  1.00  0.00    -0.112 C  
HETATM   23  C   UNL     1      -9.526   2.082  68.177  1.00  0.00    -0.218 C  
BRANCH  22  24
HETATM   24  C   UNL     1      -8.470   4.366  64.356  1.00  0.00    -0.117 C  
BRANCH  24  25
HETATM   25  C   UNL     1      -9.543   4.122  63.294  1.00  0.00    -0.132 C  
HETATM   26  C   UNL     1     -10.647   3.211  63.811  1.00  0.00    -0.220 C  
ENDBRANCH  24  25
ENDBRANCH  22  24
ENDBRANCH  11  19
ENDBRANCH   7   9
ENDBRANCH   3   4
ENDBRANCH   2   3
TORSDOF 6
ENDMDL
MODEL      190
REMARK 921   NORMALIZED FREE ENERGY PREDICTED BY IDOCK:   -2.41 KCAL/MOL
REMARK 922        TOTAL FREE ENERGY PREDICTED BY IDOCK:   -4.04 KCAL/MOL
REMARK 923 INTER-LIGAND FREE ENERGY PREDICTED BY IDOCK:   -4.37 KCAL/MOL
REMARK 924 INTRA-LIGAND FREE ENERGY PREDICTED BY IDOCK:    0.32 KCAL/MOL
REMARK 927      BINDING AFFINITY PREDICTED BY RF-SCORE:    0.00 PKD
ROOT
HETATM    1  C   UNL     1     -11.662   6.731  71.950  1.00  0.00    -0.349 C  
HETATM    2  C   UNL     1     -11.625   8.121  72.567  1.00  0.00    -0.468 C  
ENDROOT
BRANCH   2   3
HETATM    3  C   UNL     1     -11.896   9.183  71.506  1.00  0.00    -0.428 C  
BRANCH   3   4
HETATM    4  C   UNL     1     -10.608   9.861  71.031  1.00  0.00    -0.173 C  
HETATM    5  C   UNL     1     -10.543   9.987  69.496  1.00  0.00    -0.267 C  
HETATM    6  C   UNL     1     -11.717  10.775  68.866  1.00  0.00    -0.338 C  
HETATM    7  C   UNL     1      -9.198  10.594  69.032  1.00  0.00    -0.167 C  
HETATM    8  C   UNL     1     -11.778  12.253  69.223  1.00  0.00    -0.388 C  
BRANCH   7   9
HETATM    9  N   UNL     1      -7.992   9.821  69.351  1.00  0.00    -0.111 NA 
HETATM   10  C   UNL     1      -8.078   8.412  68.970  1.00  0.00    -0.116 C  
HETATM   11  N   UNL     1      -8.188   8.266  67.517  1.00  0.00    -0.121 NA 
HETATM   12  C   UNL     1      -6.943   8.762  66.882  1.00  0.00    -0.074 C  
HETATM   13  H1  UNL     1      -4.888  11.437  67.162  1.00  0.00     0.000 HD 
HETATM   14  C   UNL     1      -6.563  10.224  67.252  1.00  0.00    -0.068 C  
HETATM   15  H2  UNL     1      -4.929  10.264  65.944  1.00  0.00     0.000 HD 
HETATM   16  C   UNL     1      -7.360  11.236  66.412  1.00  0.00    -0.058 C  
HETATM   17  N   UNL     1      -5.138  10.478  66.919  1.00  0.00    -0.040 NA 
HETATM   18  C   UNL     1      -6.767  10.412  68.784  1.00  0.00    -0.053 C  
BRANCH  11  19
HETATM   19  C   UNL     1      -8.361   6.848  67.130  1.00  0.00    -0.121 C  
HETATM   20  C   UNL     1      -7.575   7.115  64.672  1.00  0.00    -0.106 C  
HETATM   21  C   UNL     1      -8.624   6.520  65.635  1.00  0.00    -0.132 C  
HETATM   22  C   UNL     1      -8.769   4.988  65.445  1.00  0.00    -0.146 C  
HETATM   23  C   UNL     1      -6.178   6.512  64.736  1.00  0.00    -0.038 C  
BRANCH  22  24
HETATM   24  C   UNL     1      -9.898   4.326  66.257  1.00  0.00    -0.234 C  
BRANCH  24  25
HETATM   25  C   UNL     1      -9.405   3.530  67.466  1.00  0.00    -0.249 C  
HETATM   26  C   UNL     1      -8.575   2.326  67.044  1.00  0.00    -0.118 C  
ENDBRANCH  24  25
ENDBRANCH  22  24
ENDBRANCH  11  19
ENDBRANCH   7   9
ENDBRANCH   3   4
ENDBRANCH   2   3
TORSDOF 6
ENDMDL
MODEL      191
REMARK 921   NORMALIZED FREE ENERGY PREDICTED BY IDOCK:   -2.35 KCAL/MOL
REMARK 922        TOTAL FREE ENERGY PREDICTED BY IDOCK:   -3.96 KCAL/MOL
REMARK 923 INTER-LIGAND FREE ENERGY PREDICTED BY IDOCK:   -3.92 KCAL/MOL
REMARK 924 INTRA-LIGAND FREE ENERGY PREDICTED BY IDOCK:   -0.04 KCAL/MOL
REMARK 927      BINDING AFFINITY PREDICTED BY RF-SCORE:    0.00 PKD
ROOT
HETATM    1  C   UNL     1      -6.291   7.481  71.545  1.00  0.00    -0.035 C  
HETATM    2  C   UNL     1      -7.068   6.707  72.601  1.00  0.00    -0.080 C  
ENDROOT
BRANCH   2   3
HETATM    3  C   UNL     1      -8.526   7.154  72.625  1.00  0.00    -0.124 C  
BRANCH   3   4
HETATM    4  C   UNL     1      -8.728   8.491  71.910  1.00  0.00    -0.270 C  
HETATM    5  C   UNL     1      -9.770   8.400  70.778  1.00  0.00    -0.207 C  
HETATM    6  C   UNL     1     -11.171   7.923  71.231  1.00  0.00    -0.283 C  
HETATM    7  C   UNL     1      -9.897   9.738  70.012  1.00  0.00    -0.251 C  
HETATM    8  C   UNL     1     -11.914   8.871  72.161  1.00  0.00    -0.419 C  
BRANCH   7   9
HETATM    9  N   UNL     1      -8.692  10.204  69.315  1.00  0.00    -0.168 NA 
HETATM   10  C   UNL     1      -8.095   9.200  68.436  1.00  0.00    -0.104 C  
HETATM   11  N   UNL     1      -9.000   8.859  67.336  1.00  0.00    -0.132 NA 
HETATM   12  C   UNL     1      -9.198  10.054  66.480  1.00  0.00    -0.150 C  
HETATM   13  H1  UNL     1      -9.817  13.355  66.899  1.00  0.00     0.000 HD 
HETATM   14  C   UNL     1      -9.709  11.315  67.232  1.00  0.00    -0.174 C  
HETATM   15  H2  UNL     1      -9.896  12.441  65.477  1.00  0.00     0.000 HD 
HETATM   16  C   UNL     1     -11.231  11.255  67.448  1.00  0.00    -0.370 C  
HETATM   17  N   UNL     1      -9.482  12.528  66.405  1.00  0.00    -0.240 NA 
HETATM   18  C   UNL     1      -8.913  11.451  68.562  1.00  0.00    -0.158 C  
BRANCH  11  19
HETATM   19  C   UNL     1      -8.439   7.783  66.490  1.00  0.00    -0.132 C  
HETATM   20  C   UNL     1      -6.986   9.318  64.986  1.00  0.00    -0.086 C  
HETATM   21  C   UNL     1      -7.983   8.141  65.050  1.00  0.00    -0.139 C  
HETATM   22  C   UNL     1      -7.425   6.880  64.340  1.00  0.00    -0.100 C  
HETATM   23  C   UNL     1      -5.594   9.057  65.545  1.00  0.00    -0.046 C  
BRANCH  22  24
HETATM   24  C   UNL     1      -8.407   5.701  64.221  1.00  0.00    -0.081 C  
BRANCH  24  25
HETATM   25  C   UNL     1      -7.951   4.440  64.957  1.00  0.00    -0.097 C  
HETATM   26  C   UNL     1      -7.669   3.298  63.992  1.00  0.00    -0.076 C  
ENDBRANCH  24  25
ENDBRANCH  22  24
ENDBRANCH  11  19
ENDBRANCH   7   9
ENDBRANCH   3   4
ENDBRANCH   2   3
TORSDOF 6
ENDMDL
MODEL      192
REMARK 921   NORMALIZED FREE ENERGY PREDICTED BY IDOCK:   -2.32 KCAL/MOL
REMARK 922        TOTAL FREE ENERGY PREDICTED BY IDOCK:   -3.92 KCAL/MOL
REMARK 923 INTER-LIGAND FREE ENERGY PREDICTED BY IDOCK:   -4.28 KCAL/MOL
REMARK 924 INTRA-LIGAND FREE ENERGY PREDICTED BY IDOCK:    0.35 KCAL/MOL
REMARK 927      BINDING AFFINITY PREDICTED BY RF-SCORE:    0.00 PKD
ROOT
HETATM    1  C   UNL     1      -9.611   5.998  66.549  1.00  0.00    -0.182 C  
HETATM    2  C   UNL     1     -10.245   5.260  67.719  1.00  0.00    -0.211 C  
ENDROOT
BRANCH   2   3
HETATM    3  C   UNL     1      -9.429   4.021  68.073  1.00  0.00    -0.220 C  
BRANCH   3   4
HETATM    4  C   UNL     1      -8.389   4.309  69.158  1.00  0.00    -0.084 C  
HETATM    5  C   UNL     1      -9.034   4.700  70.502  1.00  0.00    -0.155 C  
HETATM    6  C   UNL     1      -9.998   3.638  71.084  1.00  0.00    -0.118 C  
HETATM    7  C   UNL     1      -7.966   5.071  71.558  1.00  0.00    -0.112 C  
HETATM    8  C   UNL     1      -9.349   2.327  71.505  1.00  0.00    -0.191 C  
BRANCH   7   9
HETATM    9  N   UNL     1      -7.121   6.231  71.248  1.00  0.00    -0.075 NA 
HETATM   10  C   UNL     1      -7.703   7.134  70.257  1.00  0.00    -0.095 C  
HETATM   11  N   UNL     1      -8.933   7.749  70.763  1.00  0.00    -0.147 NA 
HETATM   12  C   UNL     1      -8.604   8.610  71.926  1.00  0.00    -0.162 C  
HETATM   13  H1  UNL     1      -6.715   8.414  74.727  1.00  0.00     0.000 HD 
HETATM   14  C   UNL     1      -7.845   7.888  73.075  1.00  0.00    -0.131 C  
HETATM   15  H2  UNL     1      -7.887   9.566  74.326  1.00  0.00     0.000 HD 
HETATM   16  C   UNL     1      -8.815   7.099  73.971  1.00  0.00    -0.231 C  
HETATM   17  N   UNL     1      -7.212   8.888  73.972  1.00  0.00    -0.393 NA 
HETATM   18  C   UNL     1      -6.736   6.995  72.447  1.00  0.00    -0.057 C  
BRANCH  11  19
HETATM   19  C   UNL     1      -9.573   8.599  69.735  1.00  0.00    -0.171 C  
HETATM   20  C   UNL     1      -7.420   9.850  69.006  1.00  0.00    -0.083 C  
HETATM   21  C   UNL     1      -8.910   9.960  69.391  1.00  0.00    -0.195 C  
HETATM   22  C   UNL     1      -9.732  10.687  68.294  1.00  0.00    -0.169 C  
HETATM   23  C   UNL     1      -7.113   9.169  67.678  1.00  0.00    -0.082 C  
BRANCH  22  24
HETATM   24  C   UNL     1     -11.200  10.979  68.653  1.00  0.00    -0.322 C  
BRANCH  24  25
HETATM   25  C   UNL     1     -11.768  12.223  67.968  1.00  0.00    -0.417 C  
HETATM   26  C   UNL     1     -10.850  13.425  68.139  1.00  0.00    -0.273 C  
ENDBRANCH  24  25
ENDBRANCH  22  24
ENDBRANCH  11  19
ENDBRANCH   7   9
ENDBRANCH   3   4
ENDBRANCH   2   3
TORSDOF 6
ENDMDL
MODEL      193
REMARK 921   NORMALIZED FREE ENERGY PREDICTED BY IDOCK:   -2.31 KCAL/MOL
REMARK 922        TOTAL FREE ENERGY PREDICTED BY IDOCK:   -3.91 KCAL/MOL
REMARK 923 INTER-LIGAND FREE ENERGY PREDICTED BY IDOCK:   -4.77 KCAL/MOL
REMARK 924 INTRA-LIGAND FREE ENERGY PREDICTED BY IDOCK:    0.86 KCAL/MOL
REMARK 927      BINDING AFFINITY PREDICTED BY RF-SCORE:    0.00 PKD
ROOT
HETATM    1  C   UNL     1     -12.904  11.871  71.068  1.00  0.00    -0.291 C  
HETATM    2  C   UNL     1     -12.774  10.364  70.896  1.00  0.00    -0.477 C  
ENDROOT
BRANCH   2   3
HETATM    3  C   UNL     1     -11.386  10.004  70.376  1.00  0.00    -0.392 C  
BRANCH   3   4
HETATM    4  C   UNL     1     -11.402   9.669  68.883  1.00  0.00     0.074 C  
HETATM    5  C   UNL     1     -10.174   8.842  68.454  1.00  0.00    -0.231 C  
HETATM    6  C   UNL     1     -10.008   7.500  69.208  1.00  0.00    -0.179 C  
HETATM    7  C   UNL     1     -10.163   8.589  66.928  1.00  0.00    -0.305 C  
HETATM    8  C   UNL     1     -11.094   6.466  68.946  1.00  0.00    -0.420 C  
BRANCH   7   9
HETATM    9  N   UNL     1     -10.076   9.779  66.072  1.00  0.00    -0.273 NA 
HETATM   10  C   UNL     1      -9.627  10.978  66.777  1.00  0.00    -0.190 C  
HETATM   11  N   UNL     1      -8.255  10.820  67.264  1.00  0.00    -0.120 NA 
HETATM   12  C   UNL     1      -7.340  10.688  66.103  1.00  0.00    -0.138 C  
HETATM   13  H1  UNL     1      -7.244   8.996  63.174  1.00  0.00     0.000 HD 
HETATM   14  C   UNL     1      -7.701   9.542  65.117  1.00  0.00    -0.112 C  
HETATM   15  H2  UNL     1      -5.998   9.849  63.939  1.00  0.00     0.000 HD 
HETATM   16  C   UNL     1      -7.195   8.184  65.634  1.00  0.00    -0.071 C  
HETATM   17  N   UNL     1      -7.007   9.749  63.821  1.00  0.00    -0.114 NA 
HETATM   18  C   UNL     1      -9.239   9.565  64.879  1.00  0.00    -0.223 C  
BRANCH  11  19
HETATM   19  C   UNL     1      -7.823  11.997  68.051  1.00  0.00    -0.145 C  
HETATM   20  C   UNL     1      -9.789  13.545  67.368  1.00  0.00    -0.227 C  
HETATM   21  C   UNL     1      -8.265  13.405  67.571  1.00  0.00    -0.186 C  
HETATM   22  C   UNL     1      -7.714  14.491  68.532  1.00  0.00    -0.129 C  
HETATM   23  C   UNL     1     -10.644  13.517  68.627  1.00  0.00    -0.259 C  
BRANCH  22  24
HETATM   24  C   UNL     1      -6.183  14.526  68.680  1.00  0.00    -0.083 C  
BRANCH  24  25
HETATM   25  C   UNL     1      -5.506  15.607  67.836  1.00  0.00    -0.146 C  
HETATM   26  C   UNL     1      -5.953  17.002  68.249  1.00  0.00    -0.134 C  
ENDBRANCH  24  25
ENDBRANCH  22  24
ENDBRANCH  11  19
ENDBRANCH   7   9
ENDBRANCH   3   4
ENDBRANCH   2   3
TORSDOF 6
ENDMDL
MODEL      194
REMARK 921   NORMALIZED FREE ENERGY PREDICTED BY IDOCK:   -2.31 KCAL/MOL
REMARK 922        TOTAL FREE ENERGY PREDICTED BY IDOCK:   -3.90 KCAL/MOL
REMARK 923 INTER-LIGAND FREE ENERGY PREDICTED BY IDOCK:   -4.03 KCAL/MOL
REMARK 924 INTRA-LIGAND FREE ENERGY PREDICTED BY IDOCK:    0.13 KCAL/MOL
REMARK 927      BINDING AFFINITY PREDICTED BY RF-SCORE:    0.00 PKD
ROOT
HETATM    1  C   UNL     1     -10.711   7.130  73.363  1.00  0.00    -0.410 C  
HETATM    2  C   UNL     1     -11.038   5.929  72.486  1.00  0.00    -0.328 C  
ENDROOT
BRANCH   2   3
HETATM    3  C   UNL     1      -9.792   5.453  71.747  1.00  0.00    -0.223 C  
BRANCH   3   4
HETATM    4  C   UNL     1     -10.130   4.855  70.379  1.00  0.00    -0.316 C  
HETATM    5  C   UNL     1      -8.879   4.649  69.503  1.00  0.00    -0.121 C  
HETATM    6  C   UNL     1      -7.798   3.735  70.132  1.00  0.00    -0.047 C  
HETATM    7  C   UNL     1      -9.250   4.126  68.095  1.00  0.00    -0.147 C  
HETATM    8  C   UNL     1      -8.201   2.280  70.317  1.00  0.00    -0.063 C  
BRANCH   7   9
HETATM    9  N   UNL     1     -10.086   5.009  67.274  1.00  0.00    -0.189 NA 
HETATM   10  C   UNL     1      -9.545   6.359  67.124  1.00  0.00    -0.134 C  
HETATM   11  N   UNL     1      -8.273   6.338  66.396  1.00  0.00    -0.111 NA 
HETATM   12  C   UNL     1      -8.512   5.861  65.012  1.00  0.00    -0.111 C  
HETATM   13  H1  UNL     1     -10.232   3.379  63.485  1.00  0.00     0.000 HD 
HETATM   14  C   UNL     1      -9.216   4.478  64.914  1.00  0.00    -0.156 C  
HETATM   15  H2  UNL     1      -9.061   4.407  62.827  1.00  0.00     0.000 HD 
HETATM   16  C   UNL     1      -8.212   3.329  65.105  1.00  0.00    -0.094 C  
HETATM   17  N   UNL     1      -9.771   4.287  63.549  1.00  0.00    -0.104 NA 
HETATM   18  C   UNL     1     -10.381   4.445  65.945  1.00  0.00    -0.204 C  
BRANCH  11  19
HETATM   19  C   UNL     1      -7.678   7.691  66.314  1.00  0.00    -0.089 C  
HETATM   20  C   UNL     1      -9.901   8.969  65.927  1.00  0.00    -0.257 C  
HETATM   21  C   UNL     1      -8.431   8.777  65.501  1.00  0.00    -0.181 C  
HETATM   22  C   UNL     1      -7.644  10.114  65.545  1.00  0.00    -0.146 C  
HETATM   23  C   UNL     1     -10.133   9.590  67.297  1.00  0.00    -0.272 C  
BRANCH  22  24
HETATM   24  C   UNL     1      -6.208  10.053  64.994  1.00  0.00    -0.115 C  
BRANCH  24  25
HETATM   25  C   UNL     1      -6.134  10.004  63.467  1.00  0.00    -0.130 C  
HETATM   26  C   UNL     1      -5.987   8.577  62.959  1.00  0.00    -0.082 C  
ENDBRANCH  24  25
ENDBRANCH  22  24
ENDBRANCH  11  19
ENDBRANCH   7   9
ENDBRANCH   3   4
ENDBRANCH   2   3
TORSDOF 6
ENDMDL
MODEL      195
REMARK 921   NORMALIZED FREE ENERGY PREDICTED BY IDOCK:   -2.29 KCAL/MOL
REMARK 922        TOTAL FREE ENERGY PREDICTED BY IDOCK:   -3.88 KCAL/MOL
REMARK 923 INTER-LIGAND FREE ENERGY PREDICTED BY IDOCK:   -4.30 KCAL/MOL
REMARK 924 INTRA-LIGAND FREE ENERGY PREDICTED BY IDOCK:    0.41 KCAL/MOL
REMARK 927      BINDING AFFINITY PREDICTED BY RF-SCORE:    0.00 PKD
ROOT
HETATM    1  C   UNL     1      -6.925   8.613  69.281  1.00  0.00    -0.058 C  
HETATM    2  C   UNL     1      -7.676   8.021  70.465  1.00  0.00    -0.085 C  
ENDROOT
BRANCH   2   3
HETATM    3  C   UNL     1      -9.116   8.524  70.489  1.00  0.00    -0.174 C  
BRANCH   3   4
HETATM    4  C   UNL     1      -9.214  10.003  70.108  1.00  0.00    -0.078 C  
HETATM    5  C   UNL     1     -10.409  10.293  69.179  1.00  0.00    -0.241 C  
HETATM    6  C   UNL     1     -11.786   9.893  69.763  1.00  0.00    -0.015 C  
HETATM    7  C   UNL     1     -10.440  11.775  68.737  1.00  0.00    -0.198 C  
HETATM    8  C   UNL     1     -12.235  10.687  70.981  1.00  0.00    -0.498 C  
BRANCH   7   9
HETATM    9  N   UNL     1      -9.291  12.242  67.951  1.00  0.00    -0.184 NA 
HETATM   10  C   UNL     1      -8.543  11.165  67.306  1.00  0.00    -0.140 C  
HETATM   11  N   UNL     1      -9.366  10.476  66.309  1.00  0.00    -0.166 NA 
HETATM   12  C   UNL     1      -9.700  11.423  65.217  1.00  0.00    -0.241 C  
HETATM   13  H1  UNL     1     -10.768  14.620  64.919  1.00  0.00     0.000 HD 
HETATM   14  C   UNL     1     -10.396  12.733  65.682  1.00  0.00    -0.279 C  
HETATM   15  H2  UNL     1     -10.688  13.423  63.727  1.00  0.00     0.000 HD 
HETATM   16  C   UNL     1     -11.900  12.513  65.913  1.00  0.00    -0.489 C  
HETATM   17  N   UNL     1     -10.312  13.761  64.613  1.00  0.00    -0.422 NA 
HETATM   18  C   UNL     1      -9.659  13.258  66.949  1.00  0.00    -0.249 C  
BRANCH  11  19
HETATM   19  C   UNL     1      -8.643   9.331  65.711  1.00  0.00    -0.152 C  
HETATM   20  C   UNL     1      -6.398  10.571  65.320  1.00  0.00    -0.080 C  
HETATM   21  C   UNL     1      -7.472   9.629  64.737  1.00  0.00    -0.122 C  
HETATM   22  C   UNL     1      -6.852   8.299  64.231  1.00  0.00    -0.066 C  
HETATM   23  C   UNL     1      -5.544  10.007  66.448  1.00  0.00    -0.046 C  
BRANCH  22  24
HETATM   24  C   UNL     1      -7.821   7.357  63.496  1.00  0.00    -0.111 C  
BRANCH  24  25
HETATM   25  C   UNL     1      -7.715   5.896  63.936  1.00  0.00    -0.096 C  
HETATM   26  C   UNL     1      -7.892   5.749  65.440  1.00  0.00    -0.107 C  
ENDBRANCH  24  25
ENDBRANCH  22  24
ENDBRANCH  11  19
ENDBRANCH   7   9
ENDBRANCH   3   4
ENDBRANCH   2   3
TORSDOF 6
ENDMDL
MODEL      196
REMARK 921   NORMALIZED FREE ENERGY PREDICTED BY IDOCK:   -2.27 KCAL/MOL
REMARK 922        TOTAL FREE ENERGY PREDICTED BY IDOCK:   -3.85 KCAL/MOL
REMARK 923 INTER-LIGAND FREE ENERGY PREDICTED BY IDOCK:   -4.63 KCAL/MOL
REMARK 924 INTRA-LIGAND FREE ENERGY PREDICTED BY IDOCK:    0.78 KCAL/MOL
REMARK 927      BINDING AFFINITY PREDICTED BY RF-SCORE:    0.00 PKD
ROOT
HETATM    1  C   UNL     1     -10.413   4.865  72.632  1.00  0.00    -0.261 C  
HETATM    2  C   UNL     1      -9.929   4.851  71.189  1.00  0.00    -0.278 C  
ENDROOT
BRANCH   2   3
HETATM    3  C   UNL     1      -8.646   5.664  71.048  1.00  0.00    -0.127 C  
BRANCH   3   4
HETATM    4  C   UNL     1      -8.859   6.933  70.220  1.00  0.00    -0.148 C  
HETATM    5  C   UNL     1      -7.654   7.251  69.313  1.00  0.00    -0.102 C  
HETATM    6  C   UNL     1      -7.288   6.126  68.314  1.00  0.00    -0.086 C  
HETATM    7  C   UNL     1      -7.852   8.582  68.550  1.00  0.00    -0.108 C  
HETATM    8  C   UNL     1      -8.327   5.844  67.238  1.00  0.00    -0.105 C  
BRANCH   7   9
HETATM    9  N   UNL     1      -7.973   9.791  69.374  1.00  0.00    -0.111 NA 
HETATM   10  C   UNL     1      -7.987  11.031  68.600  1.00  0.00    -0.143 C  
HETATM   11  N   UNL     1      -9.169  11.100  67.738  1.00  0.00    -0.150 NA 
HETATM   12  C   UNL     1     -10.386  11.159  68.584  1.00  0.00    -0.203 C  
HETATM   13  H1  UNL     1     -11.607   9.586  71.321  1.00  0.00     0.000 HD 
HETATM   14  C   UNL     1     -10.526   9.993  69.604  1.00  0.00    -0.248 C  
HETATM   15  H2  UNL     1     -12.415  10.620  70.253  1.00  0.00     0.000 HD 
HETATM   16  C   UNL     1     -11.090   8.731  68.930  1.00  0.00     0.190 C  
HETATM   17  N   UNL     1     -11.515  10.351  70.652  1.00  0.00    -0.336 NA 
HETATM   18  C   UNL     1      -9.141   9.756  70.272  1.00  0.00    -0.157 C  
BRANCH  11  19
HETATM   19  C   UNL     1      -9.148  12.312  66.889  1.00  0.00    -0.208 C  
HETATM   20  C   UNL     1      -9.449  14.025  68.814  1.00  0.00    -0.076 C  
HETATM   21  C   UNL     1      -9.881  13.581  67.401  1.00  0.00    -0.227 C  
HETATM   22  C   UNL     1      -9.733  14.731  66.371  1.00  0.00    -0.311 C  
HETATM   23  C   UNL     1      -8.037  14.578  68.947  1.00  0.00    -0.124 C  
BRANCH  22  24
HETATM   24  C   UNL     1     -10.281  14.432  64.963  1.00  0.00    -0.406 C  
BRANCH  24  25
HETATM   25  C   UNL     1     -11.739  13.970  64.953  1.00  0.00    -0.385 C  
HETATM   26  C   UNL     1     -11.931  12.740  64.078  1.00  0.00    -0.522 C  
ENDBRANCH  24  25
ENDBRANCH  22  24
ENDBRANCH  11  19
ENDBRANCH   7   9
ENDBRANCH   3   4
ENDBRANCH   2   3
TORSDOF 6
ENDMDL
MODEL      197
REMARK 921   NORMALIZED FREE ENERGY PREDICTED BY IDOCK:   -2.25 KCAL/MOL
REMARK 922        TOTAL FREE ENERGY PREDICTED BY IDOCK:   -3.83 KCAL/MOL
REMARK 923 INTER-LIGAND FREE ENERGY PREDICTED BY IDOCK:   -4.51 KCAL/MOL
REMARK 924 INTRA-LIGAND FREE ENERGY PREDICTED BY IDOCK:    0.69 KCAL/MOL
REMARK 927      BINDING AFFINITY PREDICTED BY RF-SCORE:    0.00 PKD
ROOT
HETATM    1  C   UNL     1      -7.263   7.138  72.142  1.00  0.00    -0.072 C  
HETATM    2  C   UNL     1      -8.566   6.815  71.425  1.00  0.00    -0.124 C  
ENDROOT
BRANCH   2   3
HETATM    3  C   UNL     1      -9.054   8.022  70.631  1.00  0.00    -0.154 C  
BRANCH   3   4
HETATM    4  C   UNL     1      -8.822   7.853  69.128  1.00  0.00    -0.142 C  
HETATM    5  C   UNL     1      -8.216   9.114  68.481  1.00  0.00    -0.115 C  
HETATM    6  C   UNL     1      -6.864   9.561  69.090  1.00  0.00    -0.050 C  
HETATM    7  C   UNL     1      -8.071   8.954  66.949  1.00  0.00    -0.109 C  
HETATM    8  C   UNL     1      -5.703   8.602  68.875  1.00  0.00    -0.040 C  
BRANCH   7   9
HETATM    9  N   UNL     1      -9.316   8.762  66.196  1.00  0.00    -0.217 NA 
HETATM   10  C   UNL     1     -10.273   9.857  66.352  1.00  0.00    -0.222 C  
HETATM   11  N   UNL     1      -9.740  11.104  65.799  1.00  0.00    -0.215 NA 
HETATM   12  C   UNL     1      -9.565  10.950  64.334  1.00  0.00    -0.265 C  
HETATM   13  H1  UNL     1      -8.318   8.646  62.193  1.00  0.00     0.000 HD 
HETATM   14  C   UNL     1      -8.679   9.746  63.908  1.00  0.00    -0.218 C  
HETATM   15  H2  UNL     1      -8.750  10.250  61.877  1.00  0.00     0.000 HD 
HETATM   16  C   UNL     1      -7.184  10.089  64.021  1.00  0.00    -0.129 C  
HETATM   17  N   UNL     1      -8.900   9.435  62.472  1.00  0.00    -0.237 NA 
HETATM   18  C   UNL     1      -9.084   8.511  64.763  1.00  0.00     0.328 C  
BRANCH  11  19
HETATM   19  C   UNL     1     -10.667  12.235  66.029  1.00  0.00    -0.261 C  
HETATM   20  C   UNL     1     -11.496  12.440  63.579  1.00  0.00    -0.561 C  
HETATM   21  C   UNL     1     -10.989  13.176  64.837  1.00  0.00    -0.337 C  
HETATM   22  C   UNL     1     -11.977  14.284  65.288  1.00  0.00    -0.389 C  
HETATM   23  C   UNL     1     -12.878  11.808  63.676  1.00  0.00    -0.339 C  
BRANCH  22  24
HETATM   24  C   UNL     1     -11.488  15.173  66.446  1.00  0.00    -0.160 C  
BRANCH  24  25
HETATM   25  C   UNL     1      -9.973  15.138  66.654  1.00  0.00    -0.261 C  
HETATM   26  C   UNL     1      -9.500  16.298  67.517  1.00  0.00    -0.227 C  
ENDBRANCH  24  25
ENDBRANCH  22  24
ENDBRANCH  11  19
ENDBRANCH   7   9
ENDBRANCH   3   4
ENDBRANCH   2   3
TORSDOF 6
ENDMDL
MODEL      198
REMARK 921   NORMALIZED FREE ENERGY PREDICTED BY IDOCK:   -2.18 KCAL/MOL
REMARK 922        TOTAL FREE ENERGY PREDICTED BY IDOCK:   -3.74 KCAL/MOL
REMARK 923 INTER-LIGAND FREE ENERGY PREDICTED BY IDOCK:   -2.92 KCAL/MOL
REMARK 924 INTRA-LIGAND FREE ENERGY PREDICTED BY IDOCK:   -0.82 KCAL/MOL
REMARK 927      BINDING AFFINITY PREDICTED BY RF-SCORE:    0.00 PKD
ROOT
HETATM    1  C   UNL     1      -7.897   9.383  66.835  1.00  0.00    -0.105 C  
HETATM    2  C   UNL     1      -9.089   8.525  67.234  1.00  0.00    -0.152 C  
ENDROOT
BRANCH   2   3
HETATM    3  C   UNL     1      -9.404   7.508  66.142  1.00  0.00    -0.128 C  
BRANCH   3   4
HETATM    4  C   UNL     1      -8.559   6.240  66.277  1.00  0.00    -0.138 C  
HETATM    5  C   UNL     1      -9.318   5.102  66.988  1.00  0.00    -0.127 C  
HETATM    6  C   UNL     1     -10.640   4.683  66.299  1.00  0.00    -0.150 C  
HETATM    7  C   UNL     1      -8.419   3.859  67.193  1.00  0.00    -0.100 C  
HETATM    8  C   UNL     1     -10.487   4.044  64.926  1.00  0.00    -0.175 C  
BRANCH   7   9
HETATM    9  N   UNL     1      -7.235   4.046  68.040  1.00  0.00    -0.059 NA 
HETATM   10  C   UNL     1      -7.337   5.186  68.949  1.00  0.00    -0.065 C  
HETATM   11  N   UNL     1      -8.412   4.987  69.924  1.00  0.00    -0.087 NA 
HETATM   12  C   UNL     1      -8.075   3.830  70.790  1.00  0.00    -0.061 C  
HETATM   13  H1  UNL     1      -6.884   0.686  70.410  1.00  0.00     0.000 HD 
HETATM   14  C   UNL     1      -7.785   2.508  70.025  1.00  0.00    -0.043 C  
HETATM   15  H2  UNL     1      -7.580   1.389  71.782  1.00  0.00     0.000 HD 
HETATM   16  C   UNL     1      -9.091   1.796  69.631  1.00  0.00    -0.156 C  
HETATM   17  N   UNL     1      -7.073   1.553  70.912  1.00  0.00    -0.032 NA 
HETATM   18  C   UNL     1      -6.881   2.836  68.802  1.00  0.00    -0.037 C  
BRANCH  11  19
HETATM   19  C   UNL     1      -8.577   6.173  70.794  1.00  0.00    -0.135 C  
HETATM   20  C   UNL     1     -10.791   7.011  69.735  1.00  0.00    -0.276 C  
HETATM   21  C   UNL     1      -9.383   7.381  70.247  1.00  0.00    -0.162 C  
HETATM   22  C   UNL     1      -9.440   8.508  71.311  1.00  0.00    -0.265 C  
HETATM   23  C   UNL     1     -11.806   6.592  70.791  1.00  0.00    -0.394 C  
BRANCH  22  24
HETATM   24  C   UNL     1      -8.075   9.049  71.772  1.00  0.00     0.080 C  
BRANCH  24  25
HETATM   25  C   UNL     1      -7.291   9.766  70.671  1.00  0.00    -0.070 C  
HETATM   26  C   UNL     1      -5.805   9.828  70.990  1.00  0.00    -0.082 C  
ENDBRANCH  24  25
ENDBRANCH  22  24
ENDBRANCH  11  19
ENDBRANCH   7   9
ENDBRANCH   3   4
ENDBRANCH   2   3
TORSDOF 6
ENDMDL
MODEL      199
REMARK 921   NORMALIZED FREE ENERGY PREDICTED BY IDOCK:   -2.17 KCAL/MOL
REMARK 922        TOTAL FREE ENERGY PREDICTED BY IDOCK:   -3.72 KCAL/MOL
REMARK 923 INTER-LIGAND FREE ENERGY PREDICTED BY IDOCK:   -3.02 KCAL/MOL
REMARK 924 INTRA-LIGAND FREE ENERGY PREDICTED BY IDOCK:   -0.71 KCAL/MOL
REMARK 927      BINDING AFFINITY PREDICTED BY RF-SCORE:    0.00 PKD
ROOT
HETATM    1  C   UNL     1     -12.397   7.952  72.104  1.00  0.00    -0.331 C  
HETATM    2  C   UNL     1     -12.123   6.517  71.675  1.00  0.00    -0.381 C  
ENDROOT
BRANCH   2   3
HETATM    3  C   UNL     1     -10.622   6.273  71.555  1.00  0.00    -0.282 C  
BRANCH   3   4
HETATM    4  C   UNL     1     -10.306   5.064  70.671  1.00  0.00    -0.278 C  
HETATM    5  C   UNL     1      -8.797   4.758  70.613  1.00  0.00    -0.146 C  
HETATM    6  C   UNL     1      -8.144   4.484  71.990  1.00  0.00    -0.100 C  
HETATM    7  C   UNL     1      -8.490   3.589  69.648  1.00  0.00    -0.060 C  
HETATM    8  C   UNL     1      -8.616   3.221  72.696  1.00  0.00    -0.090 C  
BRANCH   7   9
HETATM    9  N   UNL     1      -8.838   3.802  68.238  1.00  0.00    -0.104 NA 
HETATM   10  C   UNL     1      -8.660   5.182  67.791  1.00  0.00    -0.103 C  
HETATM   11  N   UNL     1      -7.250   5.576  67.846  1.00  0.00    -0.071 NA 
HETATM   12  C   UNL     1      -6.478   4.755  66.882  1.00  0.00    -0.045 C  
HETATM   13  H1  UNL     1      -6.262   1.500  65.980  1.00  0.00     0.000 HD 
HETATM   14  C   UNL     1      -6.620   3.218  67.076  1.00  0.00    -0.037 C  
HETATM   15  H2  UNL     1      -5.221   2.773  65.584  1.00  0.00     0.000 HD 
HETATM   16  C   UNL     1      -5.700   2.713  68.199  1.00  0.00    -0.019 C  
HETATM   17  N   UNL     1      -6.169   2.508  65.852  1.00  0.00    -0.023 NA 
HETATM   18  C   UNL     1      -8.121   2.892  67.328  1.00  0.00    -0.078 C  
BRANCH  11  19
HETATM   19  C   UNL     1      -7.073   6.998  67.475  1.00  0.00    -0.085 C  
HETATM   20  C   UNL     1      -6.809   7.902  69.892  1.00  0.00    -0.045 C  
HETATM   21  C   UNL     1      -7.472   8.083  68.511  1.00  0.00    -0.102 C  
HETATM   22  C   UNL     1      -7.204   9.496  67.929  1.00  0.00    -0.082 C  
HETATM   23  C   UNL     1      -5.308   8.146  69.959  1.00  0.00    -0.023 C  
BRANCH  22  24
HETATM   24  C   UNL     1      -7.949   9.824  66.623  1.00  0.00    -0.112 C  
BRANCH  24  25
HETATM   25  C   UNL     1      -9.445   9.511  66.669  1.00  0.00    -0.222 C  
HETATM   26  C   UNL     1     -10.075   9.981  67.973  1.00  0.00    -0.197 C  
ENDBRANCH  24  25
ENDBRANCH  22  24
ENDBRANCH  11  19
ENDBRANCH   7   9
ENDBRANCH   3   4
ENDBRANCH   2   3
TORSDOF 6
ENDMDL
MODEL      200
REMARK 921   NORMALIZED FREE ENERGY PREDICTED BY IDOCK:   -2.15 KCAL/MOL
REMARK 922        TOTAL FREE ENERGY PREDICTED BY IDOCK:   -3.70 KCAL/MOL
REMARK 923 INTER-LIGAND FREE ENERGY PREDICTED BY IDOCK:   -2.78 KCAL/MOL
REMARK 924 INTRA-LIGAND FREE ENERGY PREDICTED BY IDOCK:   -0.92 KCAL/MOL
REMARK 927      BINDING AFFINITY PREDICTED BY RF-SCORE:    0.00 PKD
ROOT
HETATM    1  C   UNL     1      -6.512   4.001  73.637  1.00  0.00    -0.041 C  
HETATM    2  C   UNL     1      -7.890   4.270  73.050  1.00  0.00    -0.086 C  
ENDROOT
BRANCH   2   3
HETATM    3  C   UNL     1      -7.772   5.045  71.742  1.00  0.00    -0.107 C  
BRANCH   3   4
HETATM    4  C   UNL     1      -8.429   6.424  71.830  1.00  0.00    -0.124 C  
HETATM    5  C   UNL     1      -9.682   6.536  70.940  1.00  0.00    -0.190 C  
HETATM    6  C   UNL     1     -10.787   5.498  71.254  1.00  0.00    -0.250 C  
HETATM    7  C   UNL     1     -10.280   7.962  70.975  1.00  0.00    -0.197 C  
HETATM    8  C   UNL     1     -11.450   5.642  72.617  1.00  0.00    -0.339 C  
BRANCH   7   9
HETATM    9  N   UNL     1      -9.421   9.040  70.471  1.00  0.00    -0.202 NA 
HETATM   10  C   UNL     1      -8.908   8.801  69.123  1.00  0.00    -0.137 C  
HETATM   11  N   UNL     1      -9.998   8.763  68.145  1.00  0.00    -0.167 NA 
HETATM   12  C   UNL     1     -10.643  10.098  68.083  1.00  0.00    -0.223 C  
HETATM   13  H1  UNL     1     -11.734  12.451  70.257  1.00  0.00     0.000 HD 
HETATM   14  C   UNL     1     -11.157  10.635  69.448  1.00  0.00    -0.260 C  
HETATM   15  H2  UNL     1     -12.024  12.339  68.594  1.00  0.00     0.000 HD 
HETATM   16  C   UNL     1     -12.523  10.025  69.806  1.00  0.00     0.277 C  
HETATM   17  N   UNL     1     -11.396  12.099  69.361  1.00  0.00    -0.262 NA 
HETATM   18  C   UNL     1     -10.069  10.362  70.526  1.00  0.00     0.500 C  
BRANCH  11  19
HETATM   19  C   UNL     1      -9.496   8.439  66.791  1.00  0.00    -0.197 C  
HETATM   20  C   UNL     1      -8.868   5.973  67.293  1.00  0.00    -0.107 C  
HETATM   21  C   UNL     1      -8.441   7.309  66.649  1.00  0.00    -0.124 C  
HETATM   22  C   UNL     1      -8.056   7.127  65.158  1.00  0.00    -0.127 C  
HETATM   23  C   UNL     1     -10.009   5.228  66.614  1.00  0.00    -0.227 C  
BRANCH  22  24
HETATM   24  C   UNL     1      -7.474   8.374  64.469  1.00  0.00    -0.099 C  
BRANCH  24  25
HETATM   25  C   UNL     1      -6.297   9.000  65.218  1.00  0.00    -0.064 C  
HETATM   26  C   UNL     1      -5.228   7.968  65.545  1.00  0.00    -0.028 C  
ENDBRANCH  24  25
ENDBRANCH  22  24
ENDBRANCH  11  19
ENDBRANCH   7   9
ENDBRANCH   3   4
ENDBRANCH   2   3
TORSDOF 6
ENDMDL
MODEL      201
REMARK 921   NORMALIZED FREE ENERGY PREDICTED BY IDOCK:   -2.15 KCAL/MOL
REMARK 922        TOTAL FREE ENERGY PREDICTED BY IDOCK:   -3.69 KCAL/MOL
REMARK 923 INTER-LIGAND FREE ENERGY PREDICTED BY IDOCK:   -2.60 KCAL/MOL
REMARK 924 INTRA-LIGAND FREE ENERGY PREDICTED BY IDOCK:   -1.08 KCAL/MOL
REMARK 927      BINDING AFFINITY PREDICTED BY RF-SCORE:    0.00 PKD
ROOT
HETATM    1  C   UNL     1      -7.103   9.176  65.702  1.00  0.00    -0.082 C  
HETATM    2  C   UNL     1      -7.445   8.080  64.703  1.00  0.00    -0.097 C  
ENDROOT
BRANCH   2   3
HETATM    3  C   UNL     1      -6.339   7.031  64.662  1.00  0.00    -0.037 C  
BRANCH   3   4
HETATM    4  C   UNL     1      -5.698   6.819  66.036  1.00  0.00    -0.029 C  
HETATM    5  C   UNL     1      -6.542   5.903  66.943  1.00  0.00    -0.056 C  
HETATM    6  C   UNL     1      -6.814   4.495  66.359  1.00  0.00    -0.058 C  
HETATM    7  C   UNL     1      -5.922   5.772  68.355  1.00  0.00    -0.020 C  
HETATM    8  C   UNL     1      -5.588   3.607  66.200  1.00  0.00    -0.018 C  
BRANCH   7   9
HETATM    9  N   UNL     1      -5.821   7.010  69.137  1.00  0.00    -0.018 NA 
HETATM   10  C   UNL     1      -7.097   7.701  69.311  1.00  0.00    -0.076 C  
HETATM   11  N   UNL     1      -8.032   6.891  70.095  1.00  0.00    -0.113 NA 
HETATM   12  C   UNL     1      -7.496   6.719  71.467  1.00  0.00    -0.087 C  
HETATM   13  H1  UNL     1      -4.532   5.966  72.916  1.00  0.00     0.000 HD 
HETATM   14  C   UNL     1      -6.065   6.114  71.534  1.00  0.00    -0.040 C  
HETATM   15  H2  UNL     1      -6.066   6.021  73.626  1.00  0.00     0.000 HD 
HETATM   16  C   UNL     1      -6.102   4.583  71.389  1.00  0.00    -0.018 C  
HETATM   17  N   UNL     1      -5.470   6.364  72.872  1.00  0.00    -0.036 NA 
HETATM   18  C   UNL     1      -5.187   6.805  70.451  1.00  0.00    -0.018 C  
BRANCH  11  19
HETATM   19  C   UNL     1      -9.354   7.547  70.203  1.00  0.00    -0.157 C  
HETATM   20  C   UNL     1      -9.925   7.480  67.674  1.00  0.00    -0.219 C  
HETATM   21  C   UNL     1      -9.896   8.318  68.969  1.00  0.00    -0.176 C  
HETATM   22  C   UNL     1     -11.288   8.922  69.290  1.00  0.00     0.325 C  
HETATM   23  C   UNL     1     -10.939   6.344  67.625  1.00  0.00    -0.441 C  
BRANCH  22  24
HETATM   24  C   UNL     1     -11.326   9.896  70.482  1.00  0.00    -0.399 C  
BRANCH  24  25
HETATM   25  C   UNL     1     -12.739  10.308  70.898  1.00  0.00    -0.462 C  
HETATM   26  C   UNL     1     -13.600   9.098  71.229  1.00  0.00    -0.272 C  
ENDBRANCH  24  25
ENDBRANCH  22  24
ENDBRANCH  11  19
ENDBRANCH   7   9
ENDBRANCH   3   4
ENDBRANCH   2   3
TORSDOF 6
ENDMDL
MODEL      202
REMARK 921   NORMALIZED FREE ENERGY PREDICTED BY IDOCK:   -1.97 KCAL/MOL
REMARK 922        TOTAL FREE ENERGY PREDICTED BY IDOCK:   -3.45 KCAL/MOL
REMARK 923 INTER-LIGAND FREE ENERGY PREDICTED BY IDOCK:   -2.92 KCAL/MOL
REMARK 924 INTRA-LIGAND FREE ENERGY PREDICTED BY IDOCK:   -0.52 KCAL/MOL
REMARK 927      BINDING AFFINITY PREDICTED BY RF-SCORE:    0.00 PKD
ROOT
HETATM    1  C   UNL     1      -9.883   5.655  67.804  1.00  0.00    -0.153 C  
HETATM    2  C   UNL     1      -8.461   5.120  67.723  1.00  0.00    -0.104 C  
ENDROOT
BRANCH   2   3
HETATM    3  C   UNL     1      -8.318   3.853  68.560  1.00  0.00    -0.094 C  
BRANCH   3   4
HETATM    4  C   UNL     1      -7.682   4.133  69.923  1.00  0.00    -0.052 C  
HETATM    5  C   UNL     1      -8.599   4.968  70.839  1.00  0.00    -0.129 C  
HETATM    6  C   UNL     1      -9.981   4.329  71.118  1.00  0.00    -0.226 C  
HETATM    7  C   UNL     1      -7.904   5.314  72.177  1.00  0.00    -0.105 C  
HETATM    8  C   UNL     1      -9.953   3.038  71.923  1.00  0.00    -0.210 C  
BRANCH   7   9
HETATM    9  N   UNL     1      -6.691   6.136  72.086  1.00  0.00    -0.066 NA 
HETATM   10  C   UNL     1      -6.669   7.024  70.925  1.00  0.00    -0.053 C  
HETATM   11  N   UNL     1      -7.739   8.022  71.004  1.00  0.00    -0.081 NA 
HETATM   12  C   UNL     1      -7.494   8.904  72.171  1.00  0.00     0.159 C  
HETATM   13  H1  UNL     1      -6.607   8.567  75.420  1.00  0.00     0.000 HD 
HETATM   14  C   UNL     1      -7.343   8.161  73.529  1.00  0.00    -0.145 C  
HETATM   15  H2  UNL     1      -7.209   9.937  74.630  1.00  0.00     0.000 HD 
HETATM   16  C   UNL     1      -8.716   7.805  74.123  1.00  0.00    -0.293 C  
HETATM   17  N   UNL     1      -6.706   9.055  74.529  1.00  0.00    -0.371 NA 
HETATM   18  C   UNL     1      -6.436   6.916  73.309  1.00  0.00    -0.063 C  
BRANCH  11  19
HETATM   19  C   UNL     1      -7.775   8.871  69.793  1.00  0.00    -0.078 C  
HETATM   20  C   UNL     1     -10.359   8.958  69.572  1.00  0.00    -0.213 C  
HETATM   21  C   UNL     1      -9.007   8.760  68.854  1.00  0.00    -0.134 C  
HETATM   22  C   UNL     1      -8.849   9.731  67.655  1.00  0.00    -0.127 C  
HETATM   23  C   UNL     1     -10.656  10.363  70.080  1.00  0.00    -0.282 C  
BRANCH  22  24
HETATM   24  C   UNL     1      -7.599   9.508  66.785  1.00  0.00    -0.098 C  
BRANCH  24  25
HETATM   25  C   UNL     1      -6.389  10.336  67.219  1.00  0.00    -0.066 C  
HETATM   26  C   UNL     1      -6.127  11.490  66.262  1.00  0.00     0.061 C  
ENDBRANCH  24  25
ENDBRANCH  22  24
ENDBRANCH  11  19
ENDBRANCH   7   9
ENDBRANCH   3   4
ENDBRANCH   2   3
TORSDOF 6
ENDMDL
MODEL      203
REMARK 921   NORMALIZED FREE ENERGY PREDICTED BY IDOCK:   -1.90 KCAL/MOL
REMARK 922        TOTAL FREE ENERGY PREDICTED BY IDOCK:   -3.35 KCAL/MOL
REMARK 923 INTER-LIGAND FREE ENERGY PREDICTED BY IDOCK:   -2.82 KCAL/MOL
REMARK 924 INTRA-LIGAND FREE ENERGY PREDICTED BY IDOCK:   -0.53 KCAL/MOL
REMARK 927      BINDING AFFINITY PREDICTED BY RF-SCORE:    0.00 PKD
ROOT
HETATM    1  C   UNL     1      -8.962   3.713  74.205  1.00  0.00    -0.091 C  
HETATM    2  C   UNL     1      -7.441   3.680  74.276  1.00  0.00    -0.058 C  
ENDROOT
BRANCH   2   3
HETATM    3  C   UNL     1      -6.844   4.836  73.481  1.00  0.00    -0.070 C  
BRANCH   3   4
HETATM    4  C   UNL     1      -7.826   5.387  72.445  1.00  0.00    -0.103 C  
HETATM    5  C   UNL     1      -7.283   5.280  71.006  1.00  0.00    -0.069 C  
HETATM    6  C   UNL     1      -6.930   3.840  70.560  1.00  0.00    -0.034 C  
HETATM    7  C   UNL     1      -8.250   5.921  69.983  1.00  0.00    -0.121 C  
HETATM    8  C   UNL     1      -8.109   2.885  70.440  1.00  0.00    -0.056 C  
BRANCH   7   9
HETATM    9  N   UNL     1      -8.497   7.360  70.136  1.00  0.00    -0.136 NA 
HETATM   10  C   UNL     1      -8.546   8.086  68.868  1.00  0.00    -0.131 C  
HETATM   11  N   UNL     1      -9.678   7.642  68.051  1.00  0.00    -0.149 NA 
HETATM   12  C   UNL     1     -10.943   7.988  68.744  1.00  0.00     0.182 C  
HETATM   13  H1  UNL     1     -12.217   7.786  71.872  1.00  0.00     0.000 HD 
HETATM   14  C   UNL     1     -11.066   7.430  70.190  1.00  0.00    -0.246 C  
HETATM   15  H2  UNL     1     -13.026   8.126  70.426  1.00  0.00     0.000 HD 
HETATM   16  C   UNL     1     -11.508   5.957  70.181  1.00  0.00    -0.072 C  
HETATM   17  N   UNL     1     -12.136   8.153  70.924  1.00  0.00    -0.213 NA 
HETATM   18  C   UNL     1      -9.710   7.652  70.920  1.00  0.00    -0.172 C  
BRANCH  11  19
HETATM   19  C   UNL     1      -9.685   8.312  66.731  1.00  0.00    -0.239 C  
HETATM   20  C   UNL     1      -7.307   7.566  66.010  1.00  0.00    -0.081 C  
HETATM   21  C   UNL     1      -8.324   8.723  66.108  1.00  0.00    -0.126 C  
HETATM   22  C   UNL     1      -8.553   9.401  64.732  1.00  0.00    -0.202 C  
HETATM   23  C   UNL     1      -7.629   6.467  65.007  1.00  0.00    -0.091 C  
BRANCH  22  24
HETATM   24  C   UNL     1      -9.437  10.662  64.756  1.00  0.00    -0.306 C  
BRANCH  24  25
HETATM   25  C   UNL     1      -9.243  11.575  63.544  1.00  0.00    -0.054 C  
HETATM   26  C   UNL     1      -8.248  10.988  62.554  1.00  0.00    -0.184 C  
ENDBRANCH  24  25
ENDBRANCH  22  24
ENDBRANCH  11  19
ENDBRANCH   7   9
ENDBRANCH   3   4
ENDBRANCH   2   3
TORSDOF 6
ENDMDL
MODEL      204
REMARK 921   NORMALIZED FREE ENERGY PREDICTED BY IDOCK:   -1.85 KCAL/MOL
REMARK 922        TOTAL FREE ENERGY PREDICTED BY IDOCK:   -3.29 KCAL/MOL
REMARK 923 INTER-LIGAND FREE ENERGY PREDICTED BY IDOCK:   -2.97 KCAL/MOL
REMARK 924 INTRA-LIGAND FREE ENERGY PREDICTED BY IDOCK:   -0.32 KCAL/MOL
REMARK 927      BINDING AFFINITY PREDICTED BY RF-SCORE:    0.00 PKD
ROOT
HETATM    1  C   UNL     1      -7.853  20.135  71.034  1.00  0.00     1.602 C  
HETATM    2  C   UNL     1      -6.547  20.006  70.263  1.00  0.00    -0.223 C  
ENDROOT
BRANCH   2   3
HETATM    3  C   UNL     1      -6.819  19.619  68.813  1.00  0.00    -0.362 C  
BRANCH   3   4
HETATM    4  C   UNL     1      -6.815  18.102  68.613  1.00  0.00    -0.253 C  
HETATM    5  C   UNL     1      -7.577  17.675  67.343  1.00  0.00    -0.213 C  
HETATM    6  C   UNL     1      -7.038  18.296  66.032  1.00  0.00    -0.307 C  
HETATM    7  C   UNL     1      -7.635  16.135  67.206  1.00  0.00    -0.184 C  
HETATM    8  C   UNL     1      -5.638  17.856  65.628  1.00  0.00    -0.181 C  
BRANCH   7   9
HETATM    9  N   UNL     1      -8.340  15.414  68.273  1.00  0.00    -0.147 NA 
HETATM   10  C   UNL     1      -8.894  14.130  67.848  1.00  0.00    -0.182 C  
HETATM   11  N   UNL     1      -7.830  13.198  67.467  1.00  0.00    -0.163 NA 
HETATM   12  C   UNL     1      -7.005  12.887  68.661  1.00  0.00    -0.101 C  
HETATM   13  H1  UNL     1      -5.575  14.578  71.220  1.00  0.00     0.000 HD 
HETATM   14  C   UNL     1      -6.407  14.130  69.379  1.00  0.00    -0.114 C  
HETATM   15  H2  UNL     1      -5.319  12.975  70.744  1.00  0.00     0.000 HD 
HETATM   16  C   UNL     1      -5.137  14.625  68.667  1.00  0.00    -0.096 C  
HETATM   17  N   UNL     1      -5.967  13.762  70.749  1.00  0.00    -0.180 NA 
HETATM   18  C   UNL     1      -7.513  15.221  69.476  1.00  0.00    -0.214 C  
BRANCH  11  19
HETATM   19  C   UNL     1      -8.385  11.925  66.956  1.00  0.00    -0.178 C  
HETATM   20  C   UNL     1      -6.133  10.925  66.145  1.00  0.00    -0.135 C  
HETATM   21  C   UNL     1      -7.619  11.190  65.823  1.00  0.00     0.147 C  
HETATM   22  C   UNL     1      -8.363   9.884  65.439  1.00  0.00    -0.150 C  
HETATM   23  C   UNL     1      -5.850   9.900  67.235  1.00  0.00    -0.050 C  
BRANCH  22  24
HETATM   24  C   UNL     1      -9.813  10.068  64.957  1.00  0.00    -0.374 C  
BRANCH  24  25
HETATM   25  C   UNL     1      -9.927  10.740  63.587  1.00  0.00    -0.405 C  
HETATM   26  C   UNL     1     -10.751  12.017  63.657  1.00  0.00    -0.506 C  
ENDBRANCH  24  25
ENDBRANCH  22  24
ENDBRANCH  11  19
ENDBRANCH   7   9
ENDBRANCH   3   4
ENDBRANCH   2   3
TORSDOF 6
ENDMDL
MODEL      205
REMARK 921   NORMALIZED FREE ENERGY PREDICTED BY IDOCK:   -1.85 KCAL/MOL
REMARK 922        TOTAL FREE ENERGY PREDICTED BY IDOCK:   -3.28 KCAL/MOL
REMARK 923 INTER-LIGAND FREE ENERGY PREDICTED BY IDOCK:   -3.21 KCAL/MOL
REMARK 924 INTRA-LIGAND FREE ENERGY PREDICTED BY IDOCK:   -0.07 KCAL/MOL
REMARK 927      BINDING AFFINITY PREDICTED BY RF-SCORE:    0.00 PKD
ROOT
HETATM    1  C   UNL     1     -10.673  11.746  68.970  1.00  0.00    -0.209 C  
HETATM    2  C   UNL     1     -11.378  10.956  67.876  1.00  0.00    -0.380 C  
ENDROOT
BRANCH   2   3
HETATM    3  C   UNL     1     -10.461   9.870  67.326  1.00  0.00    -0.319 C  
BRANCH   3   4
HETATM    4  C   UNL     1     -10.556   8.574  68.134  1.00  0.00    -0.181 C  
HETATM    5  C   UNL     1      -9.174   7.949  68.407  1.00  0.00    -0.134 C  
HETATM    6  C   UNL     1      -8.190   8.874  69.165  1.00  0.00    -0.118 C  
HETATM    7  C   UNL     1      -9.297   6.597  69.149  1.00  0.00    -0.134 C  
HETATM    8  C   UNL     1      -8.584   9.213  70.596  1.00  0.00    -0.266 C  
BRANCH   7   9
HETATM    9  N   UNL     1     -10.007   5.528  68.437  1.00  0.00    -0.149 NA 
HETATM   10  C   UNL     1      -9.603   5.382  67.040  1.00  0.00    -0.139 C  
HETATM   11  N   UNL     1      -8.200   4.970  66.939  1.00  0.00    -0.108 NA 
HETATM   12  C   UNL     1      -8.047   3.618  67.530  1.00  0.00    -0.089 C  
HETATM   13  H1  UNL     1      -9.060   1.973  70.308  1.00  0.00     0.000 HD 
HETATM   14  C   UNL     1      -8.545   3.489  68.997  1.00  0.00    -0.082 C  
HETATM   15  H2  UNL     1      -7.890   1.509  69.178  1.00  0.00     0.000 HD 
HETATM   16  C   UNL     1      -7.492   4.011  69.989  1.00  0.00    -0.045 C  
HETATM   17  N   UNL     1      -8.734   2.057  69.346  1.00  0.00    -0.064 NA 
HETATM   18  C   UNL     1      -9.911   4.225  69.119  1.00  0.00    -0.093 C  
BRANCH  11  19
HETATM   19  C   UNL     1      -7.760   4.901  65.528  1.00  0.00    -0.086 C  
HETATM   20  C   UNL     1      -9.264   2.901  64.846  1.00  0.00    -0.148 C  
HETATM   21  C   UNL     1      -7.860   3.538  64.791  1.00  0.00    -0.082 C  
HETATM   22  C   UNL     1      -7.355   3.685  63.332  1.00  0.00    -0.051 C  
HETATM   23  C   UNL     1     -10.357   3.605  64.052  1.00  0.00    -0.259 C  
BRANCH  22  24
HETATM   24  C   UNL     1      -5.902   4.173  63.182  1.00  0.00    -0.017 C  
BRANCH  24  25
HETATM   25  C   UNL     1      -5.767   5.477  62.395  1.00  0.00    -0.014 C  
HETATM   26  C   UNL     1      -6.533   6.613  63.057  1.00  0.00    -0.038 C  
ENDBRANCH  24  25
ENDBRANCH  22  24
ENDBRANCH  11  19
ENDBRANCH   7   9
ENDBRANCH   3   4
ENDBRANCH   2   3
TORSDOF 6
ENDMDL
MODEL      206
REMARK 921   NORMALIZED FREE ENERGY PREDICTED BY IDOCK:   -1.83 KCAL/MOL
REMARK 922        TOTAL FREE ENERGY PREDICTED BY IDOCK:   -3.26 KCAL/MOL
REMARK 923 INTER-LIGAND FREE ENERGY PREDICTED BY IDOCK:   -3.82 KCAL/MOL
REMARK 924 INTRA-LIGAND FREE ENERGY PREDICTED BY IDOCK:    0.56 KCAL/MOL
REMARK 927      BINDING AFFINITY PREDICTED BY RF-SCORE:    0.00 PKD
ROOT
HETATM    1  C   UNL     1     -12.253  11.218  70.968  1.00  0.00    -0.417 C  
HETATM    2  C   UNL     1     -11.864  10.384  69.755  1.00  0.00    -0.278 C  
ENDROOT
BRANCH   2   3
HETATM    3  C   UNL     1     -10.570   9.624  70.023  1.00  0.00    -0.300 C  
BRANCH   3   4
HETATM    4  C   UNL     1     -10.832   8.205  70.532  1.00  0.00    -0.247 C  
HETATM    5  C   UNL     1      -9.536   7.479  70.941  1.00  0.00    -0.165 C  
HETATM    6  C   UNL     1      -8.715   8.199  72.038  1.00  0.00    -0.221 C  
HETATM    7  C   UNL     1      -9.813   6.018  71.370  1.00  0.00    -0.173 C  
HETATM    8  C   UNL     1      -9.381   8.281  73.404  1.00  0.00    -0.186 C  
BRANCH   7   9
HETATM    9  N   UNL     1     -10.377   5.135  70.342  1.00  0.00    -0.271 NA 
HETATM   10  C   UNL     1     -10.185   5.623  68.978  1.00  0.00    -0.222 C  
HETATM   11  N   UNL     1      -8.763   5.669  68.630  1.00  0.00    -0.107 NA 
HETATM   12  C   UNL     1      -8.219   4.289  68.626  1.00  0.00    -0.083 C  
HETATM   13  H1  UNL     1      -8.372   1.536  70.589  1.00  0.00     0.000 HD 
HETATM   14  C   UNL     1      -8.428   3.504  69.952  1.00  0.00    -0.052 C  
HETATM   15  H2  UNL     1      -7.330   1.848  69.293  1.00  0.00     0.000 HD 
HETATM   16  C   UNL     1      -7.368   3.888  70.999  1.00  0.00    -0.037 C  
HETATM   17  N   UNL     1      -8.235   2.050  69.718  1.00  0.00    -0.044 NA 
HETATM   18  C   UNL     1      -9.883   3.750  70.445  1.00  0.00    -0.065 C  
BRANCH  11  19
HETATM   19  C   UNL     1      -8.556   6.241  67.281  1.00  0.00    -0.107 C  
HETATM   20  C   UNL     1      -9.120   4.085  65.955  1.00  0.00    -0.144 C  
HETATM   21  C   UNL     1      -8.161   5.281  66.127  1.00  0.00    -0.110 C  
HETATM   22  C   UNL     1      -7.999   6.078  64.806  1.00  0.00    -0.127 C  
HETATM   23  C   UNL     1     -10.517   4.405  65.440  1.00  0.00    -0.219 C  
BRANCH  22  24
HETATM   24  C   UNL     1      -6.946   7.200  64.837  1.00  0.00    -0.055 C  
BRANCH  24  25
HETATM   25  C   UNL     1      -7.405   8.496  64.166  1.00  0.00    -0.103 C  
HETATM   26  C   UNL     1      -6.234   9.266  63.573  1.00  0.00    -0.090 C  
ENDBRANCH  24  25
ENDBRANCH  22  24
ENDBRANCH  11  19
ENDBRANCH   7   9
ENDBRANCH   3   4
ENDBRANCH   2   3
TORSDOF 6
ENDMDL
MODEL      207
REMARK 921   NORMALIZED FREE ENERGY PREDICTED BY IDOCK:   -1.81 KCAL/MOL
REMARK 922        TOTAL FREE ENERGY PREDICTED BY IDOCK:   -3.23 KCAL/MOL
REMARK 923 INTER-LIGAND FREE ENERGY PREDICTED BY IDOCK:   -4.75 KCAL/MOL
REMARK 924 INTRA-LIGAND FREE ENERGY PREDICTED BY IDOCK:    1.53 KCAL/MOL
REMARK 927      BINDING AFFINITY PREDICTED BY RF-SCORE:    0.00 PKD
ROOT
HETATM    1  C   UNL     1     -11.126  17.249  65.571  1.00  0.00     0.266 C  
HETATM    2  C   UNL     1     -10.251  16.071  65.168  1.00  0.00    -0.149 C  
ENDROOT
BRANCH   2   3
HETATM    3  C   UNL     1     -11.055  15.064  64.352  1.00  0.00    -0.120 C  
BRANCH   3   4
HETATM    4  C   UNL     1     -10.434  13.666  64.393  1.00  0.00    -0.322 C  
HETATM    5  C   UNL     1     -11.274  12.674  65.222  1.00  0.00    -0.335 C  
HETATM    6  C   UNL     1     -12.731  12.498  64.729  1.00  0.00    -0.415 C  
HETATM    7  C   UNL     1     -10.586  11.292  65.324  1.00  0.00    -0.261 C  
HETATM    8  C   UNL     1     -12.883  11.851  63.360  1.00  0.00    -0.393 C  
BRANCH   7   9
HETATM    9  N   UNL     1      -9.282  11.263  65.996  1.00  0.00    -0.204 NA 
HETATM   10  C   UNL     1      -8.774  12.587  66.352  1.00  0.00     0.053 C  
HETATM   11  N   UNL     1      -9.641  13.235  67.340  1.00  0.00    -0.217 NA 
HETATM   12  C   UNL     1      -9.606  12.455  68.602  1.00  0.00    -0.028 C  
HETATM   13  H1  UNL     1      -9.778   9.209  69.541  1.00  0.00     0.000 HD 
HETATM   14  C   UNL     1      -9.984  10.955  68.450  1.00  0.00    -0.178 C  
HETATM   15  H2  UNL     1      -9.887  10.592  70.509  1.00  0.00     0.000 HD 
HETATM   16  C   UNL     1     -11.510  10.768  68.410  1.00  0.00    -0.358 C  
HETATM   17  N   UNL     1      -9.529  10.193  69.641  1.00  0.00    -0.221 NA 
HETATM   18  C   UNL     1      -9.270  10.394  67.186  1.00  0.00    -0.143 C  
BRANCH  11  19
HETATM   19  C   UNL     1      -9.181  14.609  67.643  1.00  0.00    -0.193 C  
HETATM   20  C   UNL     1      -7.063  13.924  68.975  1.00  0.00    -0.098 C  
HETATM   21  C   UNL     1      -8.310  14.830  68.908  1.00  0.00    -0.163 C  
HETATM   22  C   UNL     1      -7.933  16.330  69.037  1.00  0.00    -0.238 C  
HETATM   23  C   UNL     1      -5.964  14.208  67.960  1.00  0.00    -0.146 C  
BRANCH  22  24
HETATM   24  C   UNL     1      -9.122  17.303  69.132  1.00  0.00     0.008 C  
BRANCH  24  25
HETATM   25  C   UNL     1      -8.903  18.620  68.387  1.00  0.00    -0.367 C  
HETATM   26  C   UNL     1     -10.067  19.579  68.588  1.00  0.00    -0.535 C  
ENDBRANCH  24  25
ENDBRANCH  22  24
ENDBRANCH  11  19
ENDBRANCH   7   9
ENDBRANCH   3   4
ENDBRANCH   2   3
TORSDOF 6
ENDMDL
MODEL      208
REMARK 921   NORMALIZED FREE ENERGY PREDICTED BY IDOCK:   -1.79 KCAL/MOL
REMARK 922        TOTAL FREE ENERGY PREDICTED BY IDOCK:   -3.21 KCAL/MOL
REMARK 923 INTER-LIGAND FREE ENERGY PREDICTED BY IDOCK:   -3.29 KCAL/MOL
REMARK 924 INTRA-LIGAND FREE ENERGY PREDICTED BY IDOCK:    0.08 KCAL/MOL
REMARK 927      BINDING AFFINITY PREDICTED BY RF-SCORE:    0.00 PKD
ROOT
HETATM    1  C   UNL     1      -8.218   9.532  62.357  1.00  0.00    -0.149 C  
HETATM    2  C   UNL     1      -6.807   9.716  62.898  1.00  0.00    -0.104 C  
ENDROOT
BRANCH   2   3
HETATM    3  C   UNL     1      -6.826   9.812  64.420  1.00  0.00    -0.119 C  
BRANCH   3   4
HETATM    4  C   UNL     1      -7.555   8.628  65.060  1.00  0.00    -0.098 C  
HETATM    5  C   UNL     1      -8.083   8.957  66.470  1.00  0.00    -0.107 C  
HETATM    6  C   UNL     1      -9.057  10.160  66.526  1.00  0.00    -0.166 C  
HETATM    7  C   UNL     1      -8.739   7.723  67.134  1.00  0.00    -0.125 C  
HETATM    8  C   UNL     1     -10.387   9.957  65.815  1.00  0.00    -0.155 C  
BRANCH   7   9
HETATM    9  N   UNL     1      -7.862   6.570  67.371  1.00  0.00    -0.111 NA 
HETATM   10  C   UNL     1      -7.864   6.105  68.757  1.00  0.00    -0.101 C  
HETATM   11  N   UNL     1      -9.184   5.600  69.141  1.00  0.00    -0.114 NA 
HETATM   12  C   UNL     1      -9.500   4.399  68.330  1.00  0.00    -0.154 C  
HETATM   13  H1  UNL     1      -9.303   3.448  65.089  1.00  0.00     0.000 HD 
HETATM   14  C   UNL     1      -9.429   4.616  66.792  1.00  0.00    -0.162 C  
HETATM   15  H2  UNL     1     -10.115   2.685  66.362  1.00  0.00     0.000 HD 
HETATM   16  C   UNL     1     -10.714   5.275  66.264  1.00  0.00    -0.260 C  
HETATM   17  N   UNL     1      -9.350   3.305  66.098  1.00  0.00    -0.150 NA 
HETATM   18  C   UNL     1      -8.149   5.439  66.471  1.00  0.00    -0.105 C  
BRANCH  11  19
HETATM   19  C   UNL     1      -9.216   5.206  70.568  1.00  0.00    -0.146 C  
HETATM   20  C   UNL     1      -6.842   4.163  70.639  1.00  0.00    -0.033 C  
HETATM   21  C   UNL     1      -8.329   4.016  71.022  1.00  0.00    -0.090 C  
HETATM   22  C   UNL     1      -8.506   3.773  72.544  1.00  0.00    -0.092 C  
HETATM   23  C   UNL     1      -6.060   5.247  71.368  1.00  0.00    -0.029 C  
BRANCH  22  24
HETATM   24  C   UNL     1      -9.943   3.464  73.000  1.00  0.00    -0.208 C  
BRANCH  24  25
HETATM   25  C   UNL     1     -10.644   4.644  73.676  1.00  0.00    -0.313 C  
HETATM   26  C   UNL     1      -9.685   5.439  74.549  1.00  0.00    -0.199 C  
ENDBRANCH  24  25
ENDBRANCH  22  24
ENDBRANCH  11  19
ENDBRANCH   7   9
ENDBRANCH   3   4
ENDBRANCH   2   3
TORSDOF 6
ENDMDL
MODEL      209
REMARK 921   NORMALIZED FREE ENERGY PREDICTED BY IDOCK:   -1.76 KCAL/MOL
REMARK 922        TOTAL FREE ENERGY PREDICTED BY IDOCK:   -3.17 KCAL/MOL
REMARK 923 INTER-LIGAND FREE ENERGY PREDICTED BY IDOCK:   -2.96 KCAL/MOL
REMARK 924 INTRA-LIGAND FREE ENERGY PREDICTED BY IDOCK:   -0.21 KCAL/MOL
REMARK 927      BINDING AFFINITY PREDICTED BY RF-SCORE:    0.00 PKD
ROOT
HETATM    1  C   UNL     1      -8.734   9.109  64.490  1.00  0.00    -0.192 C  
HETATM    2  C   UNL     1      -7.616   8.078  64.422  1.00  0.00    -0.116 C  
ENDROOT
BRANCH   2   3
HETATM    3  C   UNL     1      -8.098   6.813  63.720  1.00  0.00     0.003 C  
BRANCH   3   4
HETATM    4  C   UNL     1      -7.507   5.548  64.347  1.00  0.00    -0.068 C  
HETATM    5  C   UNL     1      -8.574   4.690  65.054  1.00  0.00    -0.138 C  
HETATM    6  C   UNL     1      -9.737   4.231  64.141  1.00  0.00    -0.096 C  
HETATM    7  C   UNL     1      -7.944   3.463  65.755  1.00  0.00    -0.092 C  
HETATM    8  C   UNL     1      -9.352   3.264  63.031  1.00  0.00    -0.095 C  
BRANCH   7   9
HETATM    9  N   UNL     1      -6.985   3.749  66.829  1.00  0.00    -0.058 NA 
HETATM   10  C   UNL     1      -7.104   5.098  67.379  1.00  0.00    -0.066 C  
HETATM   11  N   UNL     1      -8.400   5.287  68.035  1.00  0.00    -0.098 NA 
HETATM   12  C   UNL     1      -8.488   4.382  69.207  1.00  0.00    -0.077 C  
HETATM   13  H1  UNL     1      -7.804   1.146  69.925  1.00  0.00     0.000 HD 
HETATM   14  C   UNL     1      -8.256   2.878  68.887  1.00  0.00    -0.059 C  
HETATM   15  H2  UNL     1      -8.678   2.266  70.844  1.00  0.00     0.000 HD 
HETATM   16  C   UNL     1      -9.531   2.226  68.325  1.00  0.00    -0.227 C  
HETATM   17  N   UNL     1      -7.956   2.133  70.136  1.00  0.00    -0.042 NA 
HETATM   18  C   UNL     1      -7.040   2.763  67.922  1.00  0.00    -0.049 C  
BRANCH  11  19
HETATM   19  C   UNL     1      -8.562   6.675  68.521  1.00  0.00    -0.124 C  
HETATM   20  C   UNL     1     -11.154   6.720  68.430  1.00  0.00    -0.214 C  
HETATM   21  C   UNL     1      -9.837   7.456  68.104  1.00  0.00    -0.174 C  
HETATM   22  C   UNL     1      -9.812   8.880  68.719  1.00  0.00    -0.182 C  
HETATM   23  C   UNL     1     -11.508   6.587  69.905  1.00  0.00    -0.467 C  
BRANCH  22  24
HETATM   24  C   UNL     1      -8.604   9.748  68.324  1.00  0.00    -0.119 C  
BRANCH  24  25
HETATM   25  C   UNL     1      -7.293   9.320  68.986  1.00  0.00    -0.072 C  
HETATM   26  C   UNL     1      -7.297   9.614  70.479  1.00  0.00    -0.141 C  
ENDBRANCH  24  25
ENDBRANCH  22  24
ENDBRANCH  11  19
ENDBRANCH   7   9
ENDBRANCH   3   4
ENDBRANCH   2   3
TORSDOF 6
ENDMDL
MODEL      210
REMARK 921   NORMALIZED FREE ENERGY PREDICTED BY IDOCK:   -1.70 KCAL/MOL
REMARK 922        TOTAL FREE ENERGY PREDICTED BY IDOCK:   -3.08 KCAL/MOL
REMARK 923 INTER-LIGAND FREE ENERGY PREDICTED BY IDOCK:   -2.90 KCAL/MOL
REMARK 924 INTRA-LIGAND FREE ENERGY PREDICTED BY IDOCK:   -0.19 KCAL/MOL
REMARK 927      BINDING AFFINITY PREDICTED BY RF-SCORE:    0.00 PKD
ROOT
HETATM    1  C   UNL     1      -6.834   9.367  72.003  1.00  0.00     0.421 C  
HETATM    2  C   UNL     1      -7.940   8.430  71.535  1.00  0.00    -0.161 C  
ENDROOT
BRANCH   2   3
HETATM    3  C   UNL     1      -7.627   7.886  70.146  1.00  0.00    -0.083 C  
BRANCH   3   4
HETATM    4  C   UNL     1      -8.020   6.415  70.003  1.00  0.00    -0.112 C  
HETATM    5  C   UNL     1      -7.236   5.703  68.883  1.00  0.00    -0.077 C  
HETATM    6  C   UNL     1      -5.698   5.735  69.056  1.00  0.00    -0.012 C  
HETATM    7  C   UNL     1      -7.710   4.242  68.697  1.00  0.00    -0.066 C  
HETATM    8  C   UNL     1      -5.159   4.963  70.251  1.00  0.00     0.000 C  
BRANCH   7   9
HETATM    9  N   UNL     1      -9.108   4.059  68.288  1.00  0.00    -0.126 NA 
HETATM   10  C   UNL     1      -9.807   5.312  68.006  1.00  0.00    -0.149 C  
HETATM   11  N   UNL     1      -9.214   5.998  66.856  1.00  0.00    -0.123 NA 
HETATM   12  C   UNL     1      -9.406   5.167  65.642  1.00  0.00    -0.138 C  
HETATM   13  H1  UNL     1      -9.083   1.915  64.762  1.00  0.00     0.000 HD 
HETATM   14  C   UNL     1      -8.854   3.717  65.753  1.00  0.00    -0.124 C  
HETATM   15  H2  UNL     1      -9.301   3.260  63.760  1.00  0.00     0.000 HD 
HETATM   16  C   UNL     1      -7.337   3.679  65.503  1.00  0.00    -0.076 C  
HETATM   17  N   UNL     1      -9.445   2.866  64.689  1.00  0.00    -0.153 NA 
HETATM   18  C   UNL     1      -9.255   3.144  67.143  1.00  0.00    -0.181 C  
BRANCH  11  19
HETATM   19  C   UNL     1      -9.861   7.307  66.616  1.00  0.00    -0.187 C  
HETATM   20  C   UNL     1      -7.809   8.455  65.521  1.00  0.00    -0.109 C  
HETATM   21  C   UNL     1      -8.961   8.570  66.541  1.00  0.00    -0.194 C  
HETATM   22  C   UNL     1      -9.832   9.827  66.281  1.00  0.00    -0.315 C  
HETATM   23  C   UNL     1      -8.206   8.440  64.051  1.00  0.00    -0.115 C  
BRANCH  22  24
HETATM   24  C   UNL     1     -10.916  10.109  67.336  1.00  0.00    -0.295 C  
BRANCH  24  25
HETATM   25  C   UNL     1     -10.397  10.843  68.574  1.00  0.00    -0.203 C  
HETATM   26  C   UNL     1     -11.178  12.122  68.836  1.00  0.00    -0.320 C  
ENDBRANCH  24  25
ENDBRANCH  22  24
ENDBRANCH  11  19
ENDBRANCH   7   9
ENDBRANCH   3   4
ENDBRANCH   2   3
TORSDOF 6
ENDMDL
MODEL      211
REMARK 921   NORMALIZED FREE ENERGY PREDICTED BY IDOCK:   -1.63 KCAL/MOL
REMARK 922        TOTAL FREE ENERGY PREDICTED BY IDOCK:   -2.99 KCAL/MOL
REMARK 923 INTER-LIGAND FREE ENERGY PREDICTED BY IDOCK:   -3.64 KCAL/MOL
REMARK 924 INTRA-LIGAND FREE ENERGY PREDICTED BY IDOCK:    0.65 KCAL/MOL
REMARK 927      BINDING AFFINITY PREDICTED BY RF-SCORE:    0.00 PKD
ROOT
HETATM    1  C   UNL     1      -6.208   3.400  69.043  1.00  0.00    -0.029 C  
HETATM    2  C   UNL     1      -7.281   4.081  69.881  1.00  0.00    -0.042 C  
ENDROOT
BRANCH   2   3
HETATM    3  C   UNL     1      -6.844   4.171  71.339  1.00  0.00    -0.031 C  
BRANCH   3   4
HETATM    4  C   UNL     1      -7.546   5.311  72.079  1.00  0.00    -0.098 C  
HETATM    5  C   UNL     1      -9.024   5.457  71.666  1.00  0.00    -0.147 C  
HETATM    6  C   UNL     1      -9.882   4.188  71.890  1.00  0.00    -0.251 C  
HETATM    7  C   UNL     1      -9.692   6.668  72.360  1.00  0.00    -0.154 C  
HETATM    8  C   UNL     1     -10.081   3.782  73.344  1.00  0.00    -0.200 C  
BRANCH   7   9
HETATM    9  N   UNL     1      -9.130   7.987  72.048  1.00  0.00    -0.144 NA 
HETATM   10  C   UNL     1      -8.369   8.022  70.800  1.00  0.00    -0.115 C  
HETATM   11  N   UNL     1      -9.233   7.750  69.649  1.00  0.00    -0.153 NA 
HETATM   12  C   UNL     1     -10.232   8.840  69.523  1.00  0.00    -0.208 C  
HETATM   13  H1  UNL     1     -12.301  10.583  71.556  1.00  0.00     0.000 HD 
HETATM   14  C   UNL     1     -11.088   9.088  70.797  1.00  0.00    -0.272 C  
HETATM   15  H2  UNL     1     -12.285  10.531  69.865  1.00  0.00     0.000 HD 
HETATM   16  C   UNL     1     -12.244   8.079  70.895  1.00  0.00    -0.122 C  
HETATM   17  N   UNL     1     -11.739  10.421  70.720  1.00  0.00    -0.347 NA 
HETATM   18  C   UNL     1     -10.147   9.054  72.036  1.00  0.00    -0.172 C  
BRANCH  11  19
HETATM   19  C   UNL     1      -8.455   7.700  68.391  1.00  0.00    -0.125 C  
HETATM   20  C   UNL     1     -10.466   8.037  66.787  1.00  0.00    -0.319 C  
HETATM   21  C   UNL     1      -9.179   7.243  67.096  1.00  0.00    -0.156 C  
HETATM   22  C   UNL     1      -8.192   7.265  65.900  1.00  0.00    -0.132 C  
HETATM   23  C   UNL     1     -10.280   9.491  66.375  1.00  0.00    -0.302 C  
BRANCH  22  24
HETATM   24  C   UNL     1      -6.945   6.377  66.056  1.00  0.00    -0.062 C  
BRANCH  24  25
HETATM   25  C   UNL     1      -6.629   5.534  64.819  1.00  0.00    -0.043 C  
HETATM   26  C   UNL     1      -5.770   4.327  65.169  1.00  0.00    -0.018 C  
ENDBRANCH  24  25
ENDBRANCH  22  24
ENDBRANCH  11  19
ENDBRANCH   7   9
ENDBRANCH   3   4
ENDBRANCH   2   3
TORSDOF 6
ENDMDL
MODEL      212
REMARK 921   NORMALIZED FREE ENERGY PREDICTED BY IDOCK:   -1.58 KCAL/MOL
REMARK 922        TOTAL FREE ENERGY PREDICTED BY IDOCK:   -2.92 KCAL/MOL
REMARK 923 INTER-LIGAND FREE ENERGY PREDICTED BY IDOCK:   -4.12 KCAL/MOL
REMARK 924 INTRA-LIGAND FREE ENERGY PREDICTED BY IDOCK:    1.20 KCAL/MOL
REMARK 927      BINDING AFFINITY PREDICTED BY RF-SCORE:    0.00 PKD
ROOT
HETATM    1  C   UNL     1      -5.384  11.918  68.694  1.00  0.00    -0.049 C  
HETATM    2  C   UNL     1      -6.392  12.858  68.048  1.00  0.00    -0.109 C  
ENDROOT
BRANCH   2   3
HETATM    3  C   UNL     1      -7.774  12.217  68.011  1.00  0.00    -0.134 C  
BRANCH   3   4
HETATM    4  C   UNL     1      -7.772  10.893  67.243  1.00  0.00    -0.112 C  
HETATM    5  C   UNL     1      -9.061  10.078  67.474  1.00  0.00    -0.144 C  
HETATM    6  C   UNL     1     -10.365  10.816  67.083  1.00  0.00    -0.269 C  
HETATM    7  C   UNL     1      -9.002   8.707  66.760  1.00  0.00    -0.141 C  
HETATM    8  C   UNL     1     -10.531  11.107  65.599  1.00  0.00    -0.308 C  
BRANCH   7   9
HETATM    9  N   UNL     1      -7.947   7.788  67.203  1.00  0.00    -0.115 NA 
HETATM   10  C   UNL     1      -7.940   7.553  68.645  1.00  0.00    -0.123 C  
HETATM   11  N   UNL     1      -9.167   6.877  69.074  1.00  0.00    -0.138 NA 
HETATM   12  C   UNL     1      -9.218   5.527  68.462  1.00  0.00    -0.118 C  
HETATM   13  H1  UNL     1      -8.678   4.136  65.425  1.00  0.00     0.000 HD 
HETATM   14  C   UNL     1      -9.104   5.511  66.912  1.00  0.00    -0.115 C  
HETATM   15  H2  UNL     1      -9.408   3.444  66.785  1.00  0.00     0.000 HD 
HETATM   16  C   UNL     1     -10.456   5.830  66.252  1.00  0.00    -0.131 C  
HETATM   17  N   UNL     1      -8.753   4.146  66.442  1.00  0.00    -0.113 NA 
HETATM   18  C   UNL     1      -7.976   6.498  66.492  1.00  0.00    -0.109 C  
BRANCH  11  19
HETATM   19  C   UNL     1      -9.205   6.711  70.545  1.00  0.00    -0.156 C  
HETATM   20  C   UNL     1      -9.790   4.184  70.541  1.00  0.00    -0.252 C  
HETATM   21  C   UNL     1     -10.086   5.577  71.134  1.00  0.00    -0.267 C  
HETATM   22  C   UNL     1      -9.981   5.574  72.682  1.00  0.00    -0.194 C  
HETATM   23  C   UNL     1      -8.448   3.565  70.906  1.00  0.00    -0.102 C  
BRANCH  22  24
HETATM   24  C   UNL     1     -10.406   6.881  73.375  1.00  0.00    -0.337 C  
BRANCH  24  25
HETATM   25  C   UNL     1      -9.367   7.999  73.274  1.00  0.00    -0.344 C  
HETATM   26  C   UNL     1      -8.399   7.972  74.448  1.00  0.00    -0.244 C  
ENDBRANCH  24  25
ENDBRANCH  22  24
ENDBRANCH  11  19
ENDBRANCH   7   9
ENDBRANCH   3   4
ENDBRANCH   2   3
TORSDOF 6
ENDMDL
MODEL      213
REMARK 921   NORMALIZED FREE ENERGY PREDICTED BY IDOCK:   -1.52 KCAL/MOL
REMARK 922        TOTAL FREE ENERGY PREDICTED BY IDOCK:   -2.84 KCAL/MOL
REMARK 923 INTER-LIGAND FREE ENERGY PREDICTED BY IDOCK:   -4.18 KCAL/MOL
REMARK 924 INTRA-LIGAND FREE ENERGY PREDICTED BY IDOCK:    1.35 KCAL/MOL
REMARK 927      BINDING AFFINITY PREDICTED BY RF-SCORE:    0.00 PKD
ROOT
HETATM    1  C   UNL     1     -10.798   6.320  68.950  1.00  0.00    -0.396 C  
HETATM    2  C   UNL     1     -10.400   5.683  70.274  1.00  0.00    -0.336 C  
ENDROOT
BRANCH   2   3
HETATM    3  C   UNL     1      -9.168   6.373  70.850  1.00  0.00    -0.161 C  
BRANCH   3   4
HETATM    4  C   UNL     1      -8.042   6.490  69.820  1.00  0.00    -0.125 C  
HETATM    5  C   UNL     1      -7.102   7.677  70.111  1.00  0.00    -0.059 C  
HETATM    6  C   UNL     1      -6.427   7.636  71.504  1.00  0.00    -0.038 C  
HETATM    7  C   UNL     1      -6.024   7.831  69.013  1.00  0.00    -0.034 C  
HETATM    8  C   UNL     1      -5.443   6.496  71.718  1.00  0.00    -0.028 C  
BRANCH   7   9
HETATM    9  N   UNL     1      -6.512   8.120  67.659  1.00  0.00    -0.056 NA 
HETATM   10  C   UNL     1      -7.931   8.467  67.607  1.00  0.00    -0.110 C  
HETATM   11  N   UNL     1      -8.195   9.715  68.326  1.00  0.00    -0.105 NA 
HETATM   12  C   UNL     1      -7.499  10.830  67.637  1.00  0.00    -0.095 C  
HETATM   13  H1  UNL     1      -4.451  11.425  66.294  1.00  0.00     0.000 HD 
HETATM   14  C   UNL     1      -5.970  10.624  67.449  1.00  0.00    -0.052 C  
HETATM   15  H2  UNL     1      -5.687  12.530  66.630  1.00  0.00     0.000 HD 
HETATM   16  C   UNL     1      -5.200  10.977  68.733  1.00  0.00    -0.040 C  
HETATM   17  N   UNL     1      -5.454  11.560  66.417  1.00  0.00    -0.246 NA 
HETATM   18  C   UNL     1      -5.724   9.162  66.977  1.00  0.00    -0.045 C  
BRANCH  11  19
HETATM   19  C   UNL     1      -9.641  10.028  68.350  1.00  0.00    -0.145 C  
HETATM   20  C   UNL     1      -9.402  12.565  67.865  1.00  0.00    -0.200 C  
HETATM   21  C   UNL     1     -10.075  11.472  68.721  1.00  0.00    -0.191 C  
HETATM   22  C   UNL     1     -11.622  11.587  68.682  1.00  0.00    -0.375 C  
HETATM   23  C   UNL     1      -9.819  12.631  66.401  1.00  0.00    -0.263 C  
BRANCH  22  24
HETATM   24  C   UNL     1     -12.378  10.634  69.625  1.00  0.00    -0.209 C  
BRANCH  24  25
HETATM   25  C   UNL     1     -12.074  10.860  71.106  1.00  0.00    -0.386 C  
HETATM   26  C   UNL     1     -12.840   9.887  71.990  1.00  0.00    -0.488 C  
ENDBRANCH  24  25
ENDBRANCH  22  24
ENDBRANCH  11  19
ENDBRANCH   7   9
ENDBRANCH   3   4
ENDBRANCH   2   3
TORSDOF 6
ENDMDL
MODEL      214
REMARK 921   NORMALIZED FREE ENERGY PREDICTED BY IDOCK:   -1.41 KCAL/MOL
REMARK 922        TOTAL FREE ENERGY PREDICTED BY IDOCK:   -2.69 KCAL/MOL
REMARK 923 INTER-LIGAND FREE ENERGY PREDICTED BY IDOCK:   -2.87 KCAL/MOL
REMARK 924 INTRA-LIGAND FREE ENERGY PREDICTED BY IDOCK:    0.18 KCAL/MOL
REMARK 927      BINDING AFFINITY PREDICTED BY RF-SCORE:    0.00 PKD
ROOT
HETATM    1  C   UNL     1      -6.238   9.794  71.496  1.00  0.00     0.148 C  
HETATM    2  C   UNL     1      -6.012   8.752  72.582  1.00  0.00    -0.071 C  
ENDROOT
BRANCH   2   3
HETATM    3  C   UNL     1      -7.292   7.965  72.841  1.00  0.00    -0.128 C  
BRANCH   3   4
HETATM    4  C   UNL     1      -7.964   7.517  71.541  1.00  0.00    -0.094 C  
HETATM    5  C   UNL     1      -7.657   6.046  71.198  1.00  0.00    -0.100 C  
HETATM    6  C   UNL     1      -8.079   5.031  72.288  1.00  0.00    -0.112 C  
HETATM    7  C   UNL     1      -8.272   5.638  69.838  1.00  0.00    -0.109 C  
HETATM    8  C   UNL     1      -9.578   4.911  72.523  1.00  0.00    -0.176 C  
BRANCH   7   9
HETATM    9  N   UNL     1      -7.781   6.362  68.659  1.00  0.00    -0.100 NA 
HETATM   10  C   UNL     1      -7.482   5.497  67.520  1.00  0.00    -0.084 C  
HETATM   11  N   UNL     1      -8.695   4.843  67.024  1.00  0.00    -0.104 NA 
HETATM   12  C   UNL     1      -9.621   5.874  66.494  1.00  0.00    -0.156 C  
HETATM   13  H1  UNL     1     -10.795   8.903  67.439  1.00  0.00     0.000 HD 
HETATM   14  C   UNL     1      -9.986   7.000  67.502  1.00  0.00    -0.156 C  
HETATM   15  H2  UNL     1     -11.350   7.901  66.194  1.00  0.00     0.000 HD 
HETATM   16  C   UNL     1     -11.092   6.544  68.467  1.00  0.00    -0.347 C  
HETATM   17  N   UNL     1     -10.556   8.165  66.777  1.00  0.00    -0.265 NA 
HETATM   18  C   UNL     1      -8.686   7.444  68.234  1.00  0.00    -0.122 C  
BRANCH  11  19
HETATM   19  C   UNL     1      -8.388   3.900  65.925  1.00  0.00    -0.109 C  
HETATM   20  C   UNL     1      -7.912   5.699  64.118  1.00  0.00    -0.121 C  
HETATM   21  C   UNL     1      -8.620   4.373  64.464  1.00  0.00    -0.135 C  
HETATM   22  C   UNL     1      -8.234   3.243  63.473  1.00  0.00    -0.085 C  
HETATM   23  C   UNL     1      -6.391   5.656  64.044  1.00  0.00    -0.025 C  
BRANCH  22  24
HETATM   24  C   UNL     1      -9.004   1.922  63.647  1.00  0.00    -0.090 C  
BRANCH  24  25
HETATM   25  C   UNL     1     -10.475   2.005  63.234  1.00  0.00    -0.158 C  
HETATM   26  C   UNL     1     -10.743   3.222  62.361  1.00  0.00    -0.169 C  
ENDBRANCH  24  25
ENDBRANCH  22  24
ENDBRANCH  11  19
ENDBRANCH   7   9
ENDBRANCH   3   4
ENDBRANCH   2   3
TORSDOF 6
ENDMDL
MODEL      215
REMARK 921   NORMALIZED FREE ENERGY PREDICTED BY IDOCK:   -1.38 KCAL/MOL
REMARK 922        TOTAL FREE ENERGY PREDICTED BY IDOCK:   -2.66 KCAL/MOL
REMARK 923 INTER-LIGAND FREE ENERGY PREDICTED BY IDOCK:   -3.24 KCAL/MOL
REMARK 924 INTRA-LIGAND FREE ENERGY PREDICTED BY IDOCK:    0.59 KCAL/MOL
REMARK 927      BINDING AFFINITY PREDICTED BY RF-SCORE:    0.00 PKD
ROOT
HETATM    1  C   UNL     1      -5.772   8.181  63.773  1.00  0.00    -0.061 C  
HETATM    2  C   UNL     1      -5.254   9.517  64.286  1.00  0.00    -0.060 C  
ENDROOT
BRANCH   2   3
HETATM    3  C   UNL     1      -6.412  10.412  64.712  1.00  0.00    -0.059 C  
BRANCH   3   4
HETATM    4  C   UNL     1      -7.017   9.971  66.047  1.00  0.00    -0.110 C  
HETATM    5  C   UNL     1      -8.556  10.065  66.054  1.00  0.00    -0.148 C  
HETATM    6  C   UNL     1      -9.255   9.230  64.954  1.00  0.00    -0.206 C  
HETATM    7  C   UNL     1      -9.142   9.700  67.438  1.00  0.00    -0.130 C  
HETATM    8  C   UNL     1      -9.109   7.721  65.087  1.00  0.00     0.388 C  
BRANCH   7   9
HETATM    9  N   UNL     1      -8.753  10.567  68.558  1.00  0.00    -0.133 NA 
HETATM   10  C   UNL     1      -8.365  11.915  68.149  1.00  0.00    -0.161 C  
HETATM   11  N   UNL     1      -9.496  12.632  67.555  1.00  0.00    -0.181 NA 
HETATM   12  C   UNL     1     -10.544  12.826  68.587  1.00  0.00    -0.233 C  
HETATM   13  H1  UNL     1     -12.063  10.987  70.987  1.00  0.00     0.000 HD 
HETATM   14  C   UNL     1     -11.031  11.520  69.274  1.00  0.00    -0.208 C  
HETATM   15  H2  UNL     1     -12.507  12.504  70.385  1.00  0.00     0.000 HD 
HETATM   16  C   UNL     1     -12.064  10.785  68.404  1.00  0.00     0.180 C  
HETATM   17  N   UNL     1     -11.744  11.844  70.536  1.00  0.00    -0.157 NA 
HETATM   18  C   UNL     1      -9.786  10.646  69.605  1.00  0.00    -0.013 C  
BRANCH  11  19
HETATM   19  C   UNL     1      -9.090  13.967  67.063  1.00  0.00    -0.250 C  
HETATM   20  C   UNL     1      -7.325  14.436  68.906  1.00  0.00    -0.127 C  
HETATM   21  C   UNL     1      -8.512  14.983  68.085  1.00  0.00    -0.151 C  
HETATM   22  C   UNL     1      -8.147  16.309  67.366  1.00  0.00    -0.178 C  
HETATM   23  C   UNL     1      -6.027  14.202  68.145  1.00  0.00    -0.133 C  
BRANCH  22  24
HETATM   24  C   UNL     1      -9.312  17.010  66.644  1.00  0.00    -0.274 C  
BRANCH  24  25
HETATM   25  C   UNL     1      -9.258  18.536  66.722  1.00  0.00    -0.297 C  
HETATM   26  C   UNL     1     -10.438  19.176  66.005  1.00  0.00    -0.546 C  
ENDBRANCH  24  25
ENDBRANCH  22  24
ENDBRANCH  11  19
ENDBRANCH   7   9
ENDBRANCH   3   4
ENDBRANCH   2   3
TORSDOF 6
ENDMDL
MODEL      216
REMARK 921   NORMALIZED FREE ENERGY PREDICTED BY IDOCK:   -1.38 KCAL/MOL
REMARK 922        TOTAL FREE ENERGY PREDICTED BY IDOCK:   -2.66 KCAL/MOL
REMARK 923 INTER-LIGAND FREE ENERGY PREDICTED BY IDOCK:   -2.22 KCAL/MOL
REMARK 924 INTRA-LIGAND FREE ENERGY PREDICTED BY IDOCK:   -0.44 KCAL/MOL
REMARK 927      BINDING AFFINITY PREDICTED BY RF-SCORE:    0.00 PKD
ROOT
HETATM    1  C   UNL     1      -5.165   9.866  71.765  1.00  0.00    -0.070 C  
HETATM    2  C   UNL     1      -5.130   9.347  73.196  1.00  0.00    -0.084 C  
ENDROOT
BRANCH   2   3
HETATM    3  C   UNL     1      -6.499   8.813  73.604  1.00  0.00    -0.012 C  
BRANCH   3   4
HETATM    4  C   UNL     1      -7.342   8.410  72.392  1.00  0.00    -0.126 C  
HETATM    5  C   UNL     1      -7.357   6.885  72.168  1.00  0.00    -0.087 C  
HETATM    6  C   UNL     1      -7.887   6.065  73.370  1.00  0.00    -0.100 C  
HETATM    7  C   UNL     1      -8.142   6.505  70.890  1.00  0.00    -0.123 C  
HETATM    8  C   UNL     1      -9.357   6.270  73.703  1.00  0.00    -0.143 C  
BRANCH   7   9
HETATM    9  N   UNL     1      -7.608   7.020  69.623  1.00  0.00    -0.102 NA 
HETATM   10  C   UNL     1      -7.246   5.973  68.669  1.00  0.00    -0.084 C  
HETATM   11  N   UNL     1      -8.426   5.214  68.247  1.00  0.00    -0.096 NA 
HETATM   12  C   UNL     1      -9.342   6.114  67.504  1.00  0.00    -0.113 C  
HETATM   13  H1  UNL     1     -10.602   9.236  67.846  1.00  0.00     0.000 HD 
HETATM   14  C   UNL     1      -9.768   7.392  68.279  1.00  0.00    -0.152 C  
HETATM   15  H2  UNL     1     -11.086   8.017  66.777  1.00  0.00     0.000 HD 
HETATM   16  C   UNL     1     -10.910   7.090  69.264  1.00  0.00    -0.241 C  
HETATM   17  N   UNL     1     -10.322   8.398  67.337  1.00  0.00    -0.263 NA 
HETATM   18  C   UNL     1      -8.510   7.988  68.975  1.00  0.00    -0.130 C  
BRANCH  11  19
HETATM   19  C   UNL     1      -8.056   4.100  67.347  1.00  0.00    -0.099 C  
HETATM   20  C   UNL     1      -6.120   3.174  68.804  1.00  0.00    -0.028 C  
HETATM   21  C   UNL     1      -6.596   3.572  67.391  1.00  0.00    -0.042 C  
HETATM   22  C   UNL     1      -6.422   2.408  66.381  1.00  0.00    -0.028 C  
HETATM   23  C   UNL     1      -6.767   1.938  69.414  1.00  0.00    -0.029 C  
BRANCH  22  24
HETATM   24  C   UNL     1      -6.730   2.756  64.913  1.00  0.00    -0.040 C  
BRANCH  24  25
HETATM   25  C   UNL     1      -5.528   3.308  64.145  1.00  0.00    -0.009 C  
HETATM   26  C   UNL     1      -5.630   4.814  63.953  1.00  0.00    -0.017 C  
ENDBRANCH  24  25
ENDBRANCH  22  24
ENDBRANCH  11  19
ENDBRANCH   7   9
ENDBRANCH   3   4
ENDBRANCH   2   3
TORSDOF 6
ENDMDL
MODEL      217
REMARK 921   NORMALIZED FREE ENERGY PREDICTED BY IDOCK:   -1.34 KCAL/MOL
REMARK 922        TOTAL FREE ENERGY PREDICTED BY IDOCK:   -2.60 KCAL/MOL
REMARK 923 INTER-LIGAND FREE ENERGY PREDICTED BY IDOCK:   -5.40 KCAL/MOL
REMARK 924 INTRA-LIGAND FREE ENERGY PREDICTED BY IDOCK:    2.80 KCAL/MOL
REMARK 927      BINDING AFFINITY PREDICTED BY RF-SCORE:    0.00 PKD
ROOT
HETATM    1  C   UNL     1     -12.106  15.874  71.656  1.00  0.00    -0.554 C  
HETATM    2  C   UNL     1     -11.166  16.395  70.578  1.00  0.00    -0.230 C  
ENDROOT
BRANCH   2   3
HETATM    3  C   UNL     1     -10.079  15.370  70.277  1.00  0.00    -0.053 C  
BRANCH   3   4
HETATM    4  C   UNL     1      -9.652  15.400  68.807  1.00  0.00    -0.209 C  
HETATM    5  C   UNL     1     -10.853  15.528  67.849  1.00  0.00    -0.307 C  
HETATM    6  C   UNL     1     -11.730  16.782  68.083  1.00  0.00     0.489 C  
HETATM    7  C   UNL     1     -10.409  15.469  66.369  1.00  0.00    -0.296 C  
HETATM    8  C   UNL     1     -11.053  18.114  67.794  1.00  0.00     0.073 C  
BRANCH   7   9
HETATM    9  N   UNL     1      -9.768  14.223  65.931  1.00  0.00    -0.291 NA 
HETATM   10  C   UNL     1      -9.587  13.247  67.004  1.00  0.00    -0.243 C  
HETATM   11  N   UNL     1     -10.878  12.790  67.524  1.00  0.00    -0.235 NA 
HETATM   12  C   UNL     1     -11.601  12.059  66.454  1.00  0.00    -0.313 C  
HETATM   13  H1  UNL     1     -12.274  12.465  63.163  1.00  0.00     0.000 HD 
HETATM   14  C   UNL     1     -11.799  12.862  65.138  1.00  0.00    -0.380 C  
HETATM   15  H2  UNL     1     -12.954  11.359  64.248  1.00  0.00     0.000 HD 
HETATM   16  C   UNL     1     -12.994  13.823  65.248  1.00  0.00    -0.328 C  
HETATM   17  N   UNL     1     -12.144  11.938  64.027  1.00  0.00    -0.364 NA 
HETATM   18  C   UNL     1     -10.465  13.588  64.799  1.00  0.00    -0.413 C  
BRANCH  11  19
HETATM   19  C   UNL     1     -10.702  11.866  68.667  1.00  0.00    -0.235 C  
HETATM   20  C   UNL     1      -8.898  10.367  67.560  1.00  0.00    -0.134 C  
HETATM   21  C   UNL     1     -10.206  10.424  68.377  1.00  0.00    -0.186 C  
HETATM   22  C   UNL     1     -10.086   9.628  69.703  1.00  0.00    -0.242 C  
HETATM   23  C   UNL     1      -7.636  10.844  68.267  1.00  0.00    -0.100 C  
BRANCH  22  24
HETATM   24  C   UNL     1     -11.387   9.501  70.516  1.00  0.00    -0.343 C  
BRANCH  24  25
HETATM   25  C   UNL     1     -11.516   8.177  71.271  1.00  0.00    -0.299 C  
HETATM   26  C   UNL     1     -10.298   7.290  71.060  1.00  0.00    -0.208 C  
ENDBRANCH  24  25
ENDBRANCH  22  24
ENDBRANCH  11  19
ENDBRANCH   7   9
ENDBRANCH   3   4
ENDBRANCH   2   3
TORSDOF 6
ENDMDL
MODEL      218
REMARK 921   NORMALIZED FREE ENERGY PREDICTED BY IDOCK:   -1.31 KCAL/MOL
REMARK 922        TOTAL FREE ENERGY PREDICTED BY IDOCK:   -2.55 KCAL/MOL
REMARK 923 INTER-LIGAND FREE ENERGY PREDICTED BY IDOCK:   -2.85 KCAL/MOL
REMARK 924 INTRA-LIGAND FREE ENERGY PREDICTED BY IDOCK:    0.30 KCAL/MOL
REMARK 927      BINDING AFFINITY PREDICTED BY RF-SCORE:    0.00 PKD
ROOT
HETATM    1  C   UNL     1      -7.745  10.753  65.409  1.00  0.00     0.022 C  
HETATM    2  C   UNL     1      -6.825   9.801  64.658  1.00  0.00    -0.123 C  
ENDROOT
BRANCH   2   3
HETATM    3  C   UNL     1      -7.509   8.456  64.444  1.00  0.00    -0.104 C  
BRANCH   3   4
HETATM    4  C   UNL     1      -6.816   7.330  65.215  1.00  0.00    -0.051 C  
HETATM    5  C   UNL     1      -7.770   6.161  65.531  1.00  0.00    -0.094 C  
HETATM    6  C   UNL     1      -8.423   5.510  64.287  1.00  0.00    -0.069 C  
HETATM    7  C   UNL     1      -7.075   5.075  66.385  1.00  0.00    -0.072 C  
HETATM    8  C   UNL     1      -7.465   4.788  63.351  1.00  0.00    -0.055 C  
BRANCH   7   9
HETATM    9  N   UNL     1      -6.611   5.491  67.714  1.00  0.00    -0.051 NA 
HETATM   10  C   UNL     1      -7.550   6.362  68.419  1.00  0.00    -0.100 C  
HETATM   11  N   UNL     1      -8.801   5.659  68.712  1.00  0.00    -0.109 NA 
HETATM   12  C   UNL     1      -8.524   4.546  69.653  1.00  0.00    -0.069 C  
HETATM   13  H1  UNL     1      -6.235   2.079  70.004  1.00  0.00     0.000 HD 
HETATM   14  C   UNL     1      -7.438   3.543  69.173  1.00  0.00    -0.052 C  
HETATM   15  H2  UNL     1      -7.709   2.270  70.812  1.00  0.00     0.000 HD 
HETATM   16  C   UNL     1      -8.024   2.522  68.183  1.00  0.00    -0.063 C  
HETATM   17  N   UNL     1      -6.948   2.737  70.320  1.00  0.00    -0.033 NA 
HETATM   18  C   UNL     1      -6.250   4.353  68.577  1.00  0.00    -0.032 C  
BRANCH  11  19
HETATM   19  C   UNL     1      -9.788   6.559  69.350  1.00  0.00    -0.146 C  
HETATM   20  C   UNL     1      -9.351   8.608  67.821  1.00  0.00    -0.157 C  
HETATM   21  C   UNL     1      -9.552   8.090  69.261  1.00  0.00    -0.157 C  
HETATM   22  C   UNL     1     -10.697   8.846  69.985  1.00  0.00    -0.241 C  
HETATM   23  C   UNL     1     -10.571   8.569  66.911  1.00  0.00    -0.279 C  
BRANCH  22  24
HETATM   24  C   UNL     1     -10.875   8.505  71.475  1.00  0.00    -0.332 C  
BRANCH  24  25
HETATM   25  C   UNL     1     -10.327   7.130  71.863  1.00  0.00    -0.212 C  
HETATM   26  C   UNL     1      -9.863   7.101  73.312  1.00  0.00    -0.275 C  
ENDBRANCH  24  25
ENDBRANCH  22  24
ENDBRANCH  11  19
ENDBRANCH   7   9
ENDBRANCH   3   4
ENDBRANCH   2   3
TORSDOF 6
ENDMDL
MODEL      219
REMARK 921   NORMALIZED FREE ENERGY PREDICTED BY IDOCK:   -1.29 KCAL/MOL
REMARK 922        TOTAL FREE ENERGY PREDICTED BY IDOCK:   -2.53 KCAL/MOL
REMARK 923 INTER-LIGAND FREE ENERGY PREDICTED BY IDOCK:   -4.75 KCAL/MOL
REMARK 924 INTRA-LIGAND FREE ENERGY PREDICTED BY IDOCK:    2.23 KCAL/MOL
REMARK 927      BINDING AFFINITY PREDICTED BY RF-SCORE:    0.00 PKD
ROOT
HETATM    1  C   UNL     1     -11.485  13.166  68.861  1.00  0.00    -0.343 C  
HETATM    2  C   UNL     1     -10.805  11.805  68.876  1.00  0.00    -0.265 C  
ENDROOT
BRANCH   2   3
HETATM    3  C   UNL     1     -11.843  10.688  68.859  1.00  0.00    -0.216 C  
BRANCH   3   4
HETATM    4  C   UNL     1     -11.202   9.311  68.676  1.00  0.00     0.185 C  
HETATM    5  C   UNL     1      -9.678   9.337  68.908  1.00  0.00    -0.164 C  
HETATM    6  C   UNL     1      -9.250   9.844  70.306  1.00  0.00    -0.123 C  
HETATM    7  C   UNL     1      -9.037   7.956  68.634  1.00  0.00    -0.136 C  
HETATM    8  C   UNL     1      -9.652   8.955  71.474  1.00  0.00    -0.362 C  
BRANCH   7   9
HETATM    9  N   UNL     1      -9.155   7.445  67.262  1.00  0.00    -0.122 NA 
HETATM   10  C   UNL     1      -9.886   8.337  66.364  1.00  0.00    -0.213 C  
HETATM   11  N   UNL     1      -9.174   9.604  66.185  1.00  0.00    -0.163 NA 
HETATM   12  C   UNL     1      -7.882   9.344  65.503  1.00  0.00    -0.103 C  
HETATM   13  H1  UNL     1      -5.331   7.134  65.742  1.00  0.00     0.000 HD 
HETATM   14  C   UNL     1      -6.970   8.305  66.215  1.00  0.00    -0.066 C  
HETATM   15  H2  UNL     1      -5.392   8.581  64.867  1.00  0.00     0.000 HD 
HETATM   16  C   UNL     1      -6.195   8.949  67.376  1.00  0.00    -0.055 C  
HETATM   17  N   UNL     1      -5.929   7.815  65.275  1.00  0.00    -0.038 NA 
HETATM   18  C   UNL     1      -7.851   7.104  66.666  1.00  0.00    -0.109 C  
BRANCH  11  19
HETATM   19  C   UNL     1      -9.950  10.544  65.344  1.00  0.00    -0.289 C  
HETATM   20  C   UNL     1      -8.351  10.501  63.302  1.00  0.00    -0.134 C  
HETATM   21  C   UNL     1      -9.191  11.364  64.266  1.00  0.00     0.005 C  
HETATM   22  C   UNL     1     -10.183  12.277  63.499  1.00  0.00    -0.410 C  
HETATM   23  C   UNL     1      -9.127   9.620  62.332  1.00  0.00    -0.290 C  
BRANCH  22  24
HETATM   24  C   UNL     1     -10.959  13.284  64.367  1.00  0.00    -0.413 C  
BRANCH  24  25
HETATM   25  C   UNL     1     -12.412  12.883  64.628  1.00  0.00    -0.499 C  
HETATM   26  C   UNL     1     -12.896  11.848  63.623  1.00  0.00    -0.429 C  
ENDBRANCH  24  25
ENDBRANCH  22  24
ENDBRANCH  11  19
ENDBRANCH   7   9
ENDBRANCH   3   4
ENDBRANCH   2   3
TORSDOF 6
ENDMDL
MODEL      220
REMARK 921   NORMALIZED FREE ENERGY PREDICTED BY IDOCK:   -1.27 KCAL/MOL
REMARK 922        TOTAL FREE ENERGY PREDICTED BY IDOCK:   -2.51 KCAL/MOL
REMARK 923 INTER-LIGAND FREE ENERGY PREDICTED BY IDOCK:   -3.57 KCAL/MOL
REMARK 924 INTRA-LIGAND FREE ENERGY PREDICTED BY IDOCK:    1.06 KCAL/MOL
REMARK 927      BINDING AFFINITY PREDICTED BY RF-SCORE:    0.00 PKD
ROOT
HETATM    1  C   UNL     1      -9.375   3.999  67.962  1.00  0.00    -0.220 C  
HETATM    2  C   UNL     1      -9.452   3.972  69.482  1.00  0.00    -0.257 C  
ENDROOT
BRANCH   2   3
HETATM    3  C   UNL     1     -10.342   5.100  69.992  1.00  0.00    -0.347 C  
BRANCH   3   4
HETATM    4  C   UNL     1      -9.529   6.227  70.634  1.00  0.00    -0.182 C  
HETATM    5  C   UNL     1     -10.125   7.619  70.346  1.00  0.00    -0.190 C  
HETATM    6  C   UNL     1     -11.587   7.802  70.820  1.00  0.00    -0.270 C  
HETATM    7  C   UNL     1      -9.242   8.747  70.930  1.00  0.00    -0.212 C  
HETATM    8  C   UNL     1     -11.796   7.762  72.326  1.00  0.00    -0.378 C  
BRANCH   7   9
HETATM    9  N   UNL     1      -7.881   8.852  70.391  1.00  0.00    -0.089 NA 
HETATM   10  C   UNL     1      -7.599   7.901  69.318  1.00  0.00    -0.097 C  
HETATM   11  N   UNL     1      -8.439   8.164  68.147  1.00  0.00    -0.126 NA 
HETATM   12  C   UNL     1      -8.090   9.493  67.587  1.00  0.00    -0.110 C  
HETATM   13  H1  UNL     1      -7.504  12.618  68.745  1.00  0.00     0.000 HD 
HETATM   14  C   UNL     1      -8.186  10.670  68.599  1.00  0.00    -0.135 C  
HETATM   15  H2  UNL     1      -7.753  12.117  67.149  1.00  0.00     0.000 HD 
HETATM   16  C   UNL     1      -9.638  11.150  68.757  1.00  0.00    -0.180 C  
HETATM   17  N   UNL     1      -7.441  11.846  68.081  1.00  0.00    -0.092 NA 
HETATM   18  C   UNL     1      -7.547  10.215  69.943  1.00  0.00    -0.166 C  
BRANCH  11  19
HETATM   19  C   UNL     1      -8.219   7.154  67.088  1.00  0.00    -0.118 C  
HETATM   20  C   UNL     1      -5.628   7.152  67.214  1.00  0.00    -0.024 C  
HETATM   21  C   UNL     1      -6.877   7.185  66.309  1.00  0.00    -0.057 C  
HETATM   22  C   UNL     1      -6.848   6.047  65.255  1.00  0.00    -0.051 C  
HETATM   23  C   UNL     1      -5.365   5.849  67.957  1.00  0.00    -0.004 C  
BRANCH  22  24
HETATM   24  C   UNL     1      -7.977   6.087  64.209  1.00  0.00    -0.121 C  
BRANCH  24  25
HETATM   25  C   UNL     1      -8.235   4.743  63.527  1.00  0.00    -0.107 C  
HETATM   26  C   UNL     1      -6.978   4.201  62.862  1.00  0.00    -0.039 C  
ENDBRANCH  24  25
ENDBRANCH  22  24
ENDBRANCH  11  19
ENDBRANCH   7   9
ENDBRANCH   3   4
ENDBRANCH   2   3
TORSDOF 6
ENDMDL
MODEL      221
REMARK 921   NORMALIZED FREE ENERGY PREDICTED BY IDOCK:   -1.21 KCAL/MOL
REMARK 922        TOTAL FREE ENERGY PREDICTED BY IDOCK:   -2.42 KCAL/MOL
REMARK 923 INTER-LIGAND FREE ENERGY PREDICTED BY IDOCK:   -3.41 KCAL/MOL
REMARK 924 INTRA-LIGAND FREE ENERGY PREDICTED BY IDOCK:    0.98 KCAL/MOL
REMARK 927      BINDING AFFINITY PREDICTED BY RF-SCORE:    0.00 PKD
ROOT
HETATM    1  C   UNL     1      -5.127   8.361  62.839  1.00  0.00    -0.063 C  
HETATM    2  C   UNL     1      -5.127   9.699  63.565  1.00  0.00    -0.066 C  
ENDROOT
BRANCH   2   3
HETATM    3  C   UNL     1      -6.539  10.066  64.009  1.00  0.00    -0.130 C  
BRANCH   3   4
HETATM    4  C   UNL     1      -6.855   9.539  65.410  1.00  0.00    -0.086 C  
HETATM    5  C   UNL     1      -8.232   8.851  65.482  1.00  0.00    -0.130 C  
HETATM    6  C   UNL     1      -8.405   7.658  64.509  1.00  0.00     0.021 C  
HETATM    7  C   UNL     1      -8.570   8.403  66.923  1.00  0.00    -0.125 C  
HETATM    8  C   UNL     1      -7.522   6.452  64.793  1.00  0.00    -0.087 C  
BRANCH   7   9
HETATM    9  N   UNL     1      -8.681   9.469  67.926  1.00  0.00    -0.120 NA 
HETATM   10  C   UNL     1      -9.247   9.023  69.198  1.00  0.00    -0.144 C  
HETATM   11  N   UNL     1      -8.371   8.047  69.850  1.00  0.00    -0.120 NA 
HETATM   12  C   UNL     1      -7.090   8.705  70.206  1.00  0.00    -0.042 C  
HETATM   13  H1  UNL     1      -4.856  10.784  68.743  1.00  0.00     0.000 HD 
HETATM   14  C   UNL     1      -6.355   9.383  69.015  1.00  0.00    -0.042 C  
HETATM   15  H2  UNL     1      -4.687   9.896  70.173  1.00  0.00     0.000 HD 
HETATM   16  C   UNL     1      -5.564   8.353  68.191  1.00  0.00    -0.035 C  
HETATM   17  N   UNL     1      -5.338  10.339  69.524  1.00  0.00    -0.038 NA 
HETATM   18  C   UNL     1      -7.404  10.161  68.169  1.00  0.00    -0.082 C  
BRANCH  11  19
HETATM   19  C   UNL     1      -8.976   7.528  71.097  1.00  0.00    -0.142 C  
HETATM   20  C   UNL     1     -10.713   9.432  71.396  1.00  0.00    -0.407 C  
HETATM   21  C   UNL     1      -9.647   8.540  72.065  1.00  0.00    -0.371 C  
HETATM   22  C   UNL     1     -10.218   7.794  73.299  1.00  0.00    -0.367 C  
HETATM   23  C   UNL     1     -11.996   8.739  70.957  1.00  0.00    -0.291 C  
BRANCH  22  24
HETATM   24  C   UNL     1      -9.191   6.995  74.122  1.00  0.00    -0.267 C  
BRANCH  24  25
HETATM   25  C   UNL     1      -9.595   5.541  74.370  1.00  0.00    -0.169 C  
HETATM   26  C   UNL     1      -8.633   4.571  73.700  1.00  0.00    -0.103 C  
ENDBRANCH  24  25
ENDBRANCH  22  24
ENDBRANCH  11  19
ENDBRANCH   7   9
ENDBRANCH   3   4
ENDBRANCH   2   3
TORSDOF 6
ENDMDL
MODEL      222
REMARK 921   NORMALIZED FREE ENERGY PREDICTED BY IDOCK:   -1.20 KCAL/MOL
REMARK 922        TOTAL FREE ENERGY PREDICTED BY IDOCK:   -2.41 KCAL/MOL
REMARK 923 INTER-LIGAND FREE ENERGY PREDICTED BY IDOCK:   -3.09 KCAL/MOL
REMARK 924 INTRA-LIGAND FREE ENERGY PREDICTED BY IDOCK:    0.69 KCAL/MOL
REMARK 927      BINDING AFFINITY PREDICTED BY RF-SCORE:    0.00 PKD
ROOT
HETATM    1  C   UNL     1     -10.541  12.549  68.334  1.00  0.00    -0.256 C  
HETATM    2  C   UNL     1     -10.138  11.305  69.113  1.00  0.00    -0.093 C  
ENDROOT
BRANCH   2   3
HETATM    3  C   UNL     1      -9.998  10.110  68.177  1.00  0.00    -0.170 C  
BRANCH   3   4
HETATM    4  C   UNL     1      -8.760  10.222  67.284  1.00  0.00    -0.125 C  
HETATM    5  C   UNL     1      -8.978   9.588  65.896  1.00  0.00    -0.210 C  
HETATM    6  C   UNL     1     -10.159  10.188  65.095  1.00  0.00    -0.329 C  
HETATM    7  C   UNL     1      -7.690   9.634  65.041  1.00  0.00    -0.119 C  
HETATM    8  C   UNL     1      -9.988  11.639  64.669  1.00  0.00    -0.291 C  
BRANCH   7   9
HETATM    9  N   UNL     1      -6.536   8.893  65.565  1.00  0.00    -0.066 NA 
HETATM   10  C   UNL     1      -6.831   8.119  66.770  1.00  0.00    -0.069 C  
HETATM   11  N   UNL     1      -7.804   7.060  66.490  1.00  0.00    -0.104 NA 
HETATM   12  C   UNL     1      -7.205   6.088  65.544  1.00  0.00    -0.074 C  
HETATM   13  H1  UNL     1      -5.414   6.170  62.673  1.00  0.00     0.000 HD 
HETATM   14  C   UNL     1      -6.683   6.709  64.217  1.00  0.00    -0.041 C  
HETATM   15  H2  UNL     1      -6.185   4.849  63.396  1.00  0.00     0.000 HD 
HETATM   16  C   UNL     1      -7.830   6.930  63.218  1.00  0.00    -0.104 C  
HETATM   17  N   UNL     1      -5.757   5.763  63.544  1.00  0.00    -0.017 NA 
HETATM   18  C   UNL     1      -5.912   8.017  64.557  1.00  0.00    -0.052 C  
BRANCH  11  19
HETATM   19  C   UNL     1      -8.172   6.327  67.722  1.00  0.00    -0.118 C  
HETATM   20  C   UNL     1      -6.054   4.833  67.820  1.00  0.00    -0.027 C  
HETATM   21  C   UNL     1      -7.591   4.903  67.931  1.00  0.00    -0.083 C  
HETATM   22  C   UNL     1      -8.094   4.318  69.277  1.00  0.00    -0.066 C  
HETATM   23  C   UNL     1      -5.263   5.506  68.934  1.00  0.00     0.000 C  
BRANCH  22  24
HETATM   24  C   UNL     1      -9.622   4.206  69.419  1.00  0.00    -0.265 C  
BRANCH  24  25
HETATM   25  C   UNL     1     -10.156   4.704  70.763  1.00  0.00    -0.264 C  
HETATM   26  C   UNL     1      -9.134   5.568  71.486  1.00  0.00    -0.153 C  
ENDBRANCH  24  25
ENDBRANCH  22  24
ENDBRANCH  11  19
ENDBRANCH   7   9
ENDBRANCH   3   4
ENDBRANCH   2   3
TORSDOF 6
ENDMDL
MODEL      223
REMARK 921   NORMALIZED FREE ENERGY PREDICTED BY IDOCK:   -1.15 KCAL/MOL
REMARK 922        TOTAL FREE ENERGY PREDICTED BY IDOCK:   -2.35 KCAL/MOL
REMARK 923 INTER-LIGAND FREE ENERGY PREDICTED BY IDOCK:   -4.90 KCAL/MOL
REMARK 924 INTRA-LIGAND FREE ENERGY PREDICTED BY IDOCK:    2.56 KCAL/MOL
REMARK 927      BINDING AFFINITY PREDICTED BY RF-SCORE:    0.00 PKD
ROOT
HETATM    1  C   UNL     1      -8.832  10.597  65.375  1.00  0.00    -0.204 C  
HETATM    2  C   UNL     1      -7.687  11.306  66.084  1.00  0.00     0.004 C  
ENDROOT
BRANCH   2   3
HETATM    3  C   UNL     1      -8.149  11.852  67.431  1.00  0.00    -0.165 C  
BRANCH   3   4
HETATM    4  C   UNL     1      -9.301  12.849  67.281  1.00  0.00    -0.212 C  
HETATM    5  C   UNL     1      -9.403  13.813  68.480  1.00  0.00    -0.144 C  
HETATM    6  C   UNL     1      -8.125  14.647  68.743  1.00  0.00    -0.152 C  
HETATM    7  C   UNL     1     -10.624  14.754  68.351  1.00  0.00    -0.242 C  
HETATM    8  C   UNL     1      -7.768  15.654  67.659  1.00  0.00    -0.176 C  
BRANCH   7   9
HETATM    9  N   UNL     1     -11.942  14.109  68.333  1.00  0.00    -0.349 NA 
HETATM   10  C   UNL     1     -11.884  12.651  68.420  1.00  0.00    -0.301 C  
HETATM   11  N   UNL     1     -11.325  12.221  69.703  1.00  0.00    -0.189 NA 
HETATM   12  C   UNL     1     -12.238  12.638  70.796  1.00  0.00    -0.240 C  
HETATM   13  H1  UNL     1     -13.982  15.400  71.680  1.00  0.00     0.000 HD 
HETATM   14  C   UNL     1     -12.563  14.158  70.827  1.00  0.00    -0.362 C  
HETATM   15  H2  UNL     1     -13.671  14.013  72.597  1.00  0.00     0.000 HD 
HETATM   16  C   UNL     1     -11.436  14.954  71.506  1.00  0.00    -0.307 C  
HETATM   17  N   UNL     1     -13.769  14.402  71.660  1.00  0.00    -0.385 NA 
HETATM   18  C   UNL     1     -12.848  14.630  69.372  1.00  0.00     0.429 C  
BRANCH  11  19
HETATM   19  C   UNL     1     -11.185  10.749  69.765  1.00  0.00    -0.297 C  
HETATM   20  C   UNL     1     -12.758  10.389  71.796  1.00  0.00    -0.525 C  
HETATM   21  C   UNL     1     -11.408  10.046  71.131  1.00  0.00    -0.397 C  
HETATM   22  C   UNL     1     -11.220   8.514  70.976  1.00  0.00    -0.312 C  
HETATM   23  C   UNL     1     -14.006   9.841  71.115  1.00  0.00     0.082 C  
BRANCH  22  24
HETATM   24  C   UNL     1      -9.840   8.068  70.460  1.00  0.00    -0.184 C  
BRANCH  24  25
HETATM   25  C   UNL     1      -9.359   8.843  69.232  1.00  0.00    -0.149 C  
HETATM   26  C   UNL     1      -8.461   7.990  68.348  1.00  0.00    -0.127 C  
ENDBRANCH  24  25
ENDBRANCH  22  24
ENDBRANCH  11  19
ENDBRANCH   7   9
ENDBRANCH   3   4
ENDBRANCH   2   3
TORSDOF 6
ENDMDL
MODEL      224
REMARK 921   NORMALIZED FREE ENERGY PREDICTED BY IDOCK:   -1.08 KCAL/MOL
REMARK 922        TOTAL FREE ENERGY PREDICTED BY IDOCK:   -2.24 KCAL/MOL
REMARK 923 INTER-LIGAND FREE ENERGY PREDICTED BY IDOCK:   -4.55 KCAL/MOL
REMARK 924 INTRA-LIGAND FREE ENERGY PREDICTED BY IDOCK:    2.30 KCAL/MOL
REMARK 927      BINDING AFFINITY PREDICTED BY RF-SCORE:    0.00 PKD
ROOT
HETATM    1  C   UNL     1      -9.658   3.676  69.700  1.00  0.00    -0.211 C  
HETATM    2  C   UNL     1      -8.953   4.260  68.484  1.00  0.00    -0.154 C  
ENDROOT
BRANCH   2   3
HETATM    3  C   UNL     1      -9.964   4.898  67.537  1.00  0.00    -0.202 C  
BRANCH   3   4
HETATM    4  C   UNL     1      -9.282   5.684  66.414  1.00  0.00    -0.160 C  
HETATM    5  C   UNL     1      -7.916   6.254  66.843  1.00  0.00    -0.109 C  
HETATM    6  C   UNL     1      -6.898   5.191  67.321  1.00  0.00    -0.060 C  
HETATM    7  C   UNL     1      -7.284   7.117  65.725  1.00  0.00    -0.073 C  
HETATM    8  C   UNL     1      -6.423   4.215  66.255  1.00  0.00    -0.037 C  
BRANCH   7   9
HETATM    9  N   UNL     1      -8.032   8.316  65.328  1.00  0.00    -0.119 NA 
HETATM   10  C   UNL     1      -9.163   8.619  66.202  1.00  0.00    -0.213 C  
HETATM   11  N   UNL     1      -8.710   8.947  67.556  1.00  0.00    -0.123 NA 
HETATM   12  C   UNL     1      -7.910  10.196  67.511  1.00  0.00    -0.102 C  
HETATM   13  H1  UNL     1      -5.447  11.520  65.605  1.00  0.00     0.000 HD 
HETATM   14  C   UNL     1      -6.705  10.162  66.528  1.00  0.00    -0.085 C  
HETATM   15  H2  UNL     1      -6.018  12.053  67.106  1.00  0.00     0.000 HD 
HETATM   16  C   UNL     1      -5.498   9.445  67.154  1.00  0.00    -0.040 C  
HETATM   17  N   UNL     1      -6.237  11.544  66.250  1.00  0.00    -0.035 NA 
HETATM   18  C   UNL     1      -7.176   9.507  65.197  1.00  0.00    -0.108 C  
BRANCH  11  19
HETATM   19  C   UNL     1      -9.853   9.173  68.467  1.00  0.00    -0.164 C  
HETATM   20  C   UNL     1     -10.199  11.679  67.891  1.00  0.00    -0.203 C  
HETATM   21  C   UNL     1     -10.096  10.611  69.000  1.00  0.00    -0.226 C  
HETATM   22  C   UNL     1     -11.338  10.630  69.930  1.00  0.00    -0.386 C  
HETATM   23  C   UNL     1     -11.435  11.615  67.004  1.00  0.00    -0.336 C  
BRANCH  22  24
HETATM   24  C   UNL     1     -11.259   9.702  71.156  1.00  0.00    -0.454 C  
BRANCH  24  25
HETATM   25  C   UNL     1     -12.539   9.674  71.992  1.00  0.00    -0.443 C  
HETATM   26  C   UNL     1     -13.268  11.009  71.947  1.00  0.00    -0.503 C  
ENDBRANCH  24  25
ENDBRANCH  22  24
ENDBRANCH  11  19
ENDBRANCH   7   9
ENDBRANCH   3   4
ENDBRANCH   2   3
TORSDOF 6
ENDMDL
MODEL      225
REMARK 921   NORMALIZED FREE ENERGY PREDICTED BY IDOCK:   -1.03 KCAL/MOL
REMARK 922        TOTAL FREE ENERGY PREDICTED BY IDOCK:   -2.18 KCAL/MOL
REMARK 923 INTER-LIGAND FREE ENERGY PREDICTED BY IDOCK:   -3.57 KCAL/MOL
REMARK 924 INTRA-LIGAND FREE ENERGY PREDICTED BY IDOCK:    1.39 KCAL/MOL
REMARK 927      BINDING AFFINITY PREDICTED BY RF-SCORE:    0.00 PKD
ROOT
HETATM    1  C   UNL     1      -9.679  13.191  67.686  1.00  0.00    -0.213 C  
HETATM    2  C   UNL     1     -10.996  12.804  68.344  1.00  0.00    -0.281 C  
ENDROOT
BRANCH   2   3
HETATM    3  C   UNL     1     -10.820  11.551  69.194  1.00  0.00    -0.241 C  
BRANCH   3   4
HETATM    4  C   UNL     1      -9.503  10.833  68.893  1.00  0.00    -0.190 C  
HETATM    5  C   UNL     1      -9.717   9.366  68.471  1.00  0.00    -0.160 C  
HETATM    6  C   UNL     1     -10.618   9.182  67.225  1.00  0.00    -0.303 C  
HETATM    7  C   UNL     1      -8.372   8.633  68.255  1.00  0.00    -0.127 C  
HETATM    8  C   UNL     1     -10.049   9.723  65.921  1.00  0.00    -0.314 C  
BRANCH   7   9
HETATM    9  N   UNL     1      -7.501   8.514  69.431  1.00  0.00    -0.086 NA 
HETATM   10  C   UNL     1      -8.186   8.014  70.621  1.00  0.00    -0.114 C  
HETATM   11  N   UNL     1      -8.658   6.642  70.420  1.00  0.00    -0.141 NA 
HETATM   12  C   UNL     1      -7.488   5.747  70.242  1.00  0.00    -0.081 C  
HETATM   13  H1  UNL     1      -4.579   5.748  68.514  1.00  0.00     0.000 HD 
HETATM   14  C   UNL     1      -6.520   6.161  69.098  1.00  0.00    -0.043 C  
HETATM   15  H2  UNL     1      -5.318   4.464  69.330  1.00  0.00     0.000 HD 
HETATM   16  C   UNL     1      -7.047   5.697  67.730  1.00  0.00    -0.071 C  
HETATM   17  N   UNL     1      -5.213   5.476  69.265  1.00  0.00    -0.003 NA 
HETATM   18  C   UNL     1      -6.301   7.700  69.173  1.00  0.00    -0.036 C  
BRANCH  11  19
HETATM   19  C   UNL     1      -9.425   6.159  71.590  1.00  0.00    -0.148 C  
HETATM   20  C   UNL     1      -9.030   3.629  71.178  1.00  0.00    -0.159 C  
HETATM   21  C   UNL     1     -10.045   4.737  71.526  1.00  0.00    -0.260 C  
HETATM   22  C   UNL     1     -10.799   4.427  72.846  1.00  0.00    -0.257 C  
HETATM   23  C   UNL     1      -7.983   3.312  72.237  1.00  0.00    -0.059 C  
BRANCH  22  24
HETATM   24  C   UNL     1     -11.938   5.400  73.200  1.00  0.00     0.147 C  
BRANCH  24  25
HETATM   25  C   UNL     1     -11.635   6.858  72.853  1.00  0.00    -0.042 C  
HETATM   26  C   UNL     1     -12.467   7.338  71.672  1.00  0.00    -0.394 C  
ENDBRANCH  24  25
ENDBRANCH  22  24
ENDBRANCH  11  19
ENDBRANCH   7   9
ENDBRANCH   3   4
ENDBRANCH   2   3
TORSDOF 6
ENDMDL
MODEL      226
REMARK 921   NORMALIZED FREE ENERGY PREDICTED BY IDOCK:   -0.95 KCAL/MOL
REMARK 922        TOTAL FREE ENERGY PREDICTED BY IDOCK:   -2.07 KCAL/MOL
REMARK 923 INTER-LIGAND FREE ENERGY PREDICTED BY IDOCK:   -2.67 KCAL/MOL
REMARK 924 INTRA-LIGAND FREE ENERGY PREDICTED BY IDOCK:    0.60 KCAL/MOL
REMARK 927      BINDING AFFINITY PREDICTED BY RF-SCORE:    0.00 PKD
ROOT
HETATM    1  C   UNL     1      -5.142  11.344  69.430  1.00  0.00    -0.044 C  
HETATM    2  C   UNL     1      -6.217  12.314  68.961  1.00  0.00    -0.082 C  
ENDROOT
BRANCH   2   3
HETATM    3  C   UNL     1      -7.605  11.741  69.222  1.00  0.00     0.166 C  
BRANCH   3   4
HETATM    4  C   UNL     1      -7.820  10.407  68.504  1.00  0.00    -0.107 C  
HETATM    5  C   UNL     1      -9.097   9.684  68.977  1.00  0.00    -0.148 C  
HETATM    6  C   UNL     1     -10.400  10.500  68.797  1.00  0.00    -0.208 C  
HETATM    7  C   UNL     1      -9.250   8.300  68.304  1.00  0.00    -0.134 C  
HETATM    8  C   UNL     1     -10.804  10.775  67.356  1.00  0.00    -0.345 C  
BRANCH   7   9
HETATM    9  N   UNL     1      -8.193   7.321  68.584  1.00  0.00    -0.124 NA 
HETATM   10  C   UNL     1      -8.065   6.983  70.001  1.00  0.00    -0.128 C  
HETATM   11  N   UNL     1      -9.272   6.315  70.493  1.00  0.00    -0.157 NA 
HETATM   12  C   UNL     1      -9.427   5.014  69.798  1.00  0.00    -0.150 C  
HETATM   13  H1  UNL     1      -9.212   3.829  66.635  1.00  0.00     0.000 HD 
HETATM   14  C   UNL     1      -9.452   5.105  68.246  1.00  0.00    -0.128 C  
HETATM   15  H2  UNL     1      -9.841   3.063  68.006  1.00  0.00     0.000 HD 
HETATM   16  C   UNL     1     -10.846   5.510  67.736  1.00  0.00    -0.078 C  
HETATM   17  N   UNL     1      -9.194   3.768  67.653  1.00  0.00    -0.159 NA 
HETATM   18  C   UNL     1      -8.332   6.086  67.792  1.00  0.00    -0.112 C  
BRANCH  11  19
HETATM   19  C   UNL     1      -9.184   6.045  71.946  1.00  0.00    -0.150 C  
HETATM   20  C   UNL     1      -6.713   6.779  72.233  1.00  0.00    -0.059 C  
HETATM   21  C   UNL     1      -7.792   5.723  72.551  1.00  0.00    -0.102 C  
HETATM   22  C   UNL     1      -7.920   5.478  74.077  1.00  0.00    -0.107 C  
HETATM   23  C   UNL     1      -6.879   8.138  72.901  1.00  0.00    -0.111 C  
BRANCH  22  24
HETATM   24  C   UNL     1      -8.864   4.334  74.486  1.00  0.00    -0.102 C  
BRANCH  24  25
HETATM   25  C   UNL     1      -8.256   2.941  74.317  1.00  0.00    -0.069 C  
HETATM   26  C   UNL     1      -6.777   3.014  73.967  1.00  0.00    -0.034 C  
ENDBRANCH  24  25
ENDBRANCH  22  24
ENDBRANCH  11  19
ENDBRANCH   7   9
ENDBRANCH   3   4
ENDBRANCH   2   3
TORSDOF 6
ENDMDL
MODEL      227
REMARK 921   NORMALIZED FREE ENERGY PREDICTED BY IDOCK:   -0.89 KCAL/MOL
REMARK 922        TOTAL FREE ENERGY PREDICTED BY IDOCK:   -1.99 KCAL/MOL
REMARK 923 INTER-LIGAND FREE ENERGY PREDICTED BY IDOCK:   -3.00 KCAL/MOL
REMARK 924 INTRA-LIGAND FREE ENERGY PREDICTED BY IDOCK:    1.00 KCAL/MOL
REMARK 927      BINDING AFFINITY PREDICTED BY RF-SCORE:    0.00 PKD
ROOT
HETATM    1  C   UNL     1     -10.849   5.734  67.629  1.00  0.00    -0.264 C  
HETATM    2  C   UNL     1     -10.684   6.053  69.108  1.00  0.00    -0.399 C  
ENDROOT
BRANCH   2   3
HETATM    3  C   UNL     1     -11.283   7.418  69.430  1.00  0.00     0.034 C  
BRANCH   3   4
HETATM    4  C   UNL     1     -10.222   8.415  69.899  1.00  0.00    -0.201 C  
HETATM    5  C   UNL     1     -10.346   9.780  69.194  1.00  0.00    -0.225 C  
HETATM    6  C   UNL     1     -11.718  10.475  69.376  1.00  0.00    -0.295 C  
HETATM    7  C   UNL     1      -9.212  10.744  69.617  1.00  0.00     0.273 C  
HETATM    8  C   UNL     1     -12.045  10.911  70.797  1.00  0.00    -0.469 C  
BRANCH   7   9
HETATM    9  N   UNL     1      -7.845  10.325  69.286  1.00  0.00    -0.128 NA 
HETATM   10  C   UNL     1      -7.706   9.790  67.932  1.00  0.00    -0.087 C  
HETATM   11  N   UNL     1      -7.987  10.819  66.928  1.00  0.00    -0.127 NA 
HETATM   12  C   UNL     1      -6.965  11.889  67.029  1.00  0.00    -0.116 C  
HETATM   13  H1  UNL     1      -5.456  13.685  69.468  1.00  0.00     0.000 HD 
HETATM   14  C   UNL     1      -6.830  12.530  68.439  1.00  0.00    -0.085 C  
HETATM   15  H2  UNL     1      -5.435  13.953  67.798  1.00  0.00     0.000 HD 
HETATM   16  C   UNL     1      -7.920  13.589  68.674  1.00  0.00    -0.073 C  
HETATM   17  N   UNL     1      -5.544  13.265  68.543  1.00  0.00    -0.078 NA 
HETATM   18  C   UNL     1      -6.852  11.391  69.500  1.00  0.00    -0.097 C  
BRANCH  11  19
HETATM   19  C   UNL     1      -7.931  10.265  65.557  1.00  0.00    -0.151 C  
HETATM   20  C   UNL     1      -6.059   8.530  66.018  1.00  0.00    -0.048 C  
HETATM   21  C   UNL     1      -6.600   9.626  65.077  1.00  0.00    -0.091 C  
HETATM   22  C   UNL     1      -6.756   9.105  63.624  1.00  0.00    -0.090 C  
HETATM   23  C   UNL     1      -6.858   7.235  66.080  1.00  0.00    -0.057 C  
BRANCH  22  24
HETATM   24  C   UNL     1      -7.148  10.167  62.581  1.00  0.00    -0.133 C  
BRANCH  24  25
HETATM   25  C   UNL     1      -8.523  10.792  62.822  1.00  0.00    -0.199 C  
HETATM   26  C   UNL     1      -9.644   9.792  62.577  1.00  0.00     0.110 C  
ENDBRANCH  24  25
ENDBRANCH  22  24
ENDBRANCH  11  19
ENDBRANCH   7   9
ENDBRANCH   3   4
ENDBRANCH   2   3
TORSDOF 6
ENDMDL
MODEL      228
REMARK 921   NORMALIZED FREE ENERGY PREDICTED BY IDOCK:   -0.85 KCAL/MOL
REMARK 922        TOTAL FREE ENERGY PREDICTED BY IDOCK:   -1.94 KCAL/MOL
REMARK 923 INTER-LIGAND FREE ENERGY PREDICTED BY IDOCK:   -2.12 KCAL/MOL
REMARK 924 INTRA-LIGAND FREE ENERGY PREDICTED BY IDOCK:    0.18 KCAL/MOL
REMARK 927      BINDING AFFINITY PREDICTED BY RF-SCORE:    0.00 PKD
ROOT
HETATM    1  C   UNL     1      -5.125   8.359  62.832  1.00  0.00    -0.063 C  
HETATM    2  C   UNL     1      -5.143   9.699  63.554  1.00  0.00    -0.066 C  
ENDROOT
BRANCH   2   3
HETATM    3  C   UNL     1      -6.557  10.041  64.010  1.00  0.00    -0.130 C  
BRANCH   3   4
HETATM    4  C   UNL     1      -6.853   9.506  65.413  1.00  0.00    -0.086 C  
HETATM    5  C   UNL     1      -8.211   8.782  65.491  1.00  0.00    -0.133 C  
HETATM    6  C   UNL     1      -8.356   7.584  64.521  1.00  0.00     0.041 C  
HETATM    7  C   UNL     1      -8.531   8.326  66.934  1.00  0.00    -0.118 C  
HETATM    8  C   UNL     1      -7.440   6.402  64.801  1.00  0.00    -0.087 C  
BRANCH   7   9
HETATM    9  N   UNL     1      -8.666   9.390  67.937  1.00  0.00    -0.120 NA 
HETATM   10  C   UNL     1      -9.135   8.916  69.238  1.00  0.00    -0.145 C  
HETATM   11  N   UNL     1      -8.161   8.008  69.849  1.00  0.00    -0.117 NA 
HETATM   12  C   UNL     1      -6.913   8.757  70.137  1.00  0.00    -0.044 C  
HETATM   13  H1  UNL     1      -4.906  10.974  68.555  1.00  0.00     0.000 HD 
HETATM   14  C   UNL     1      -6.288   9.475  68.908  1.00  0.00    -0.043 C  
HETATM   15  H2  UNL     1      -4.605  10.112  69.978  1.00  0.00     0.000 HD 
HETATM   16  C   UNL     1      -5.469   8.497  68.050  1.00  0.00    -0.035 C  
HETATM   17  N   UNL     1      -5.316  10.503  69.361  1.00  0.00    -0.038 NA 
HETATM   18  C   UNL     1      -7.430  10.171  68.112  1.00  0.00    -0.083 C  
BRANCH  11  19
HETATM   19  C   UNL     1      -8.666   7.458  71.127  1.00  0.00    -0.137 C  
HETATM   20  C   UNL     1      -6.773   5.717  71.467  1.00  0.00    -0.058 C  
HETATM   21  C   UNL     1      -8.290   5.998  71.499  1.00  0.00    -0.127 C  
HETATM   22  C   UNL     1      -8.912   5.623  72.870  1.00  0.00    -0.123 C  
HETATM   23  C   UNL     1      -5.937   6.390  72.547  1.00  0.00    -0.038 C  
BRANCH  22  24
HETATM   24  C   UNL     1     -10.445   5.727  72.949  1.00  0.00    -0.244 C  
BRANCH  24  25
HETATM   25  C   UNL     1     -11.173   4.446  72.540  1.00  0.00     0.123 C  
HETATM   26  C   UNL     1     -10.354   3.207  72.870  1.00  0.00    -0.248 C  
ENDBRANCH  24  25
ENDBRANCH  22  24
ENDBRANCH  11  19
ENDBRANCH   7   9
ENDBRANCH   3   4
ENDBRANCH   2   3
TORSDOF 6
ENDMDL
MODEL      229
REMARK 921   NORMALIZED FREE ENERGY PREDICTED BY IDOCK:   -0.74 KCAL/MOL
REMARK 922        TOTAL FREE ENERGY PREDICTED BY IDOCK:   -1.78 KCAL/MOL
REMARK 923 INTER-LIGAND FREE ENERGY PREDICTED BY IDOCK:   -3.26 KCAL/MOL
REMARK 924 INTRA-LIGAND FREE ENERGY PREDICTED BY IDOCK:    1.48 KCAL/MOL
REMARK 927      BINDING AFFINITY PREDICTED BY RF-SCORE:    0.00 PKD
ROOT
HETATM    1  C   UNL     1     -12.234   6.709  69.900  1.00  0.00     0.298 C  
HETATM    2  C   UNL     1     -11.057   5.752  70.029  1.00  0.00    -0.329 C  
ENDROOT
BRANCH   2   3
HETATM    3  C   UNL     1     -10.556   5.333  68.651  1.00  0.00    -0.096 C  
BRANCH   3   4
HETATM    4  C   UNL     1      -9.109   5.768  68.410  1.00  0.00    -0.118 C  
HETATM    5  C   UNL     1      -8.416   6.244  69.702  1.00  0.00    -0.129 C  
HETATM    6  C   UNL     1      -8.379   5.191  70.836  1.00  0.00    -0.114 C  
HETATM    7  C   UNL     1      -6.985   6.761  69.423  1.00  0.00    -0.067 C  
HETATM    8  C   UNL     1      -7.534   3.957  70.555  1.00  0.00    -0.041 C  
BRANCH   7   9
HETATM    9  N   UNL     1      -6.876   7.929  68.541  1.00  0.00    -0.065 NA 
HETATM   10  C   UNL     1      -8.137   8.645  68.356  1.00  0.00    -0.118 C  
HETATM   11  N   UNL     1      -8.601   9.227  69.617  1.00  0.00    -0.138 NA 
HETATM   12  C   UNL     1      -7.633  10.258  70.063  1.00  0.00    -0.103 C  
HETATM   13  H1  UNL     1      -4.275  10.583  70.338  1.00  0.00     0.000 HD 
HETATM   14  C   UNL     1      -6.168   9.756  70.205  1.00  0.00    -0.070 C  
HETATM   15  H2  UNL     1      -5.485  11.579  70.976  1.00  0.00     0.000 HD 
HETATM   16  C   UNL     1      -5.958   9.023  71.540  1.00  0.00    -0.064 C  
HETATM   17  N   UNL     1      -5.236  10.912  70.245  1.00  0.00    -0.057 NA 
HETATM   18  C   UNL     1      -5.829   8.874  68.968  1.00  0.00    -0.040 C  
BRANCH  11  19
HETATM   19  C   UNL     1      -9.919   9.882  69.456  1.00  0.00    -0.222 C  
HETATM   20  C   UNL     1      -9.732  10.295  66.902  1.00  0.00    -0.229 C  
HETATM   21  C   UNL     1     -10.106  10.878  68.280  1.00  0.00    -0.189 C  
HETATM   22  C   UNL     1     -11.550  11.444  68.289  1.00  0.00    -0.376 C  
HETATM   23  C   UNL     1     -10.650   9.211  66.354  1.00  0.00    -0.002 C  
BRANCH  22  24
HETATM   24  C   UNL     1     -11.962  12.183  69.575  1.00  0.00    -0.338 C  
BRANCH  24  25
HETATM   25  C   UNL     1     -12.070  13.699  69.409  1.00  0.00    -0.364 C  
HETATM   26  C   UNL     1     -11.264  14.191  68.216  1.00  0.00    -0.295 C  
ENDBRANCH  24  25
ENDBRANCH  22  24
ENDBRANCH  11  19
ENDBRANCH   7   9
ENDBRANCH   3   4
ENDBRANCH   2   3
TORSDOF 6
ENDMDL
MODEL      230
REMARK 921   NORMALIZED FREE ENERGY PREDICTED BY IDOCK:   -0.64 KCAL/MOL
REMARK 922        TOTAL FREE ENERGY PREDICTED BY IDOCK:   -1.65 KCAL/MOL
REMARK 923 INTER-LIGAND FREE ENERGY PREDICTED BY IDOCK:   -3.03 KCAL/MOL
REMARK 924 INTRA-LIGAND FREE ENERGY PREDICTED BY IDOCK:    1.38 KCAL/MOL
REMARK 927      BINDING AFFINITY PREDICTED BY RF-SCORE:    0.00 PKD
ROOT
HETATM    1  C   UNL     1      -6.849  10.964  65.580  1.00  0.00     0.054 C  
HETATM    2  C   UNL     1      -6.101  10.244  66.694  1.00  0.00    -0.064 C  
ENDROOT
BRANCH   2   3
HETATM    3  C   UNL     1      -5.199  11.216  67.446  1.00  0.00    -0.043 C  
BRANCH   3   4
HETATM    4  C   UNL     1      -6.002  12.273  68.207  1.00  0.00    -0.054 C  
HETATM    5  C   UNL     1      -7.442  11.813  68.507  1.00  0.00    -0.110 C  
HETATM    6  C   UNL     1      -7.539  10.505  69.330  1.00  0.00    -0.145 C  
HETATM    7  C   UNL     1      -8.263  12.927  69.199  1.00  0.00     0.565 C  
HETATM    8  C   UNL     1      -7.015  10.591  70.756  1.00  0.00     0.579 C  
BRANCH   7   9
HETATM    9  N   UNL     1      -8.465  14.160  68.427  1.00  0.00    -0.167 NA 
HETATM   10  C   UNL     1      -8.747  13.927  67.012  1.00  0.00    -0.200 C  
HETATM   11  N   UNL     1     -10.017  13.218  66.838  1.00  0.00    -0.245 NA 
HETATM   12  C   UNL     1     -11.125  14.079  67.317  1.00  0.00    -0.302 C  
HETATM   13  H1  UNL     1     -11.785  16.050  69.987  1.00  0.00     0.000 HD 
HETATM   14  C   UNL     1     -10.977  14.574  68.783  1.00  0.00    -0.250 C  
HETATM   15  H2  UNL     1     -12.851  15.507  68.791  1.00  0.00     0.000 HD 
HETATM   16  C   UNL     1     -11.424  13.493  69.782  1.00  0.00    -0.246 C  
HETATM   17  N   UNL     1     -11.883  15.726  69.025  1.00  0.00    -0.392 NA 
HETATM   18  C   UNL     1      -9.505  15.030  69.002  1.00  0.00    -0.210 C  
BRANCH  11  19
HETATM   19  C   UNL     1     -10.268  12.904  65.413  1.00  0.00    -0.287 C  
HETATM   20  C   UNL     1     -12.120  14.683  65.043  1.00  0.00    -0.349 C  
HETATM   21  C   UNL     1     -11.670  13.223  64.827  1.00  0.00    -0.390 C  
HETATM   22  C   UNL     1     -11.720  12.825  63.328  1.00  0.00    -0.444 C  
HETATM   23  C   UNL     1     -11.362  15.747  64.262  1.00  0.00    -0.189 C  
BRANCH  22  24
HETATM   24  C   UNL     1     -11.433  11.343  63.028  1.00  0.00     0.261 C  
BRANCH  24  25
HETATM   25  C   UNL     1      -9.987  11.066  62.613  1.00  0.00    -0.101 C  
HETATM   26  C   UNL     1      -9.352   9.988  63.479  1.00  0.00    -0.301 C  
ENDBRANCH  24  25
ENDBRANCH  22  24
ENDBRANCH  11  19
ENDBRANCH   7   9
ENDBRANCH   3   4
ENDBRANCH   2   3
TORSDOF 6
ENDMDL
MODEL      231
REMARK 921   NORMALIZED FREE ENERGY PREDICTED BY IDOCK:   -0.52 KCAL/MOL
REMARK 922        TOTAL FREE ENERGY PREDICTED BY IDOCK:   -1.49 KCAL/MOL
REMARK 923 INTER-LIGAND FREE ENERGY PREDICTED BY IDOCK:   -2.27 KCAL/MOL
REMARK 924 INTRA-LIGAND FREE ENERGY PREDICTED BY IDOCK:    0.78 KCAL/MOL
REMARK 927      BINDING AFFINITY PREDICTED BY RF-SCORE:    0.00 PKD
ROOT
HETATM    1  C   UNL     1      -8.615  10.685  69.368  1.00  0.00    -0.046 C  
HETATM    2  C   UNL     1      -7.777   9.885  70.355  1.00  0.00    -0.094 C  
ENDROOT
BRANCH   2   3
HETATM    3  C   UNL     1      -8.303   8.458  70.468  1.00  0.00    -0.126 C  
BRANCH   3   4
HETATM    4  C   UNL     1      -8.329   7.747  69.113  1.00  0.00    -0.134 C  
HETATM    5  C   UNL     1      -7.985   6.249  69.229  1.00  0.00    -0.109 C  
HETATM    6  C   UNL     1      -8.918   5.447  70.169  1.00  0.00    -0.157 C  
HETATM    7  C   UNL     1      -7.932   5.568  67.841  1.00  0.00    -0.097 C  
HETATM    8  C   UNL     1     -10.362   5.324  69.706  1.00  0.00    -0.369 C  
BRANCH   7   9
HETATM    9  N   UNL     1      -6.913   6.070  66.910  1.00  0.00    -0.067 NA 
HETATM   10  C   UNL     1      -6.669   5.183  65.774  1.00  0.00    -0.053 C  
HETATM   11  N   UNL     1      -7.860   5.069  64.929  1.00  0.00    -0.087 NA 
HETATM   12  C   UNL     1      -8.160   6.393  64.330  1.00  0.00    -0.076 C  
HETATM   13  H1  UNL     1      -8.328   9.617  65.345  1.00  0.00     0.000 HD 
HETATM   14  C   UNL     1      -8.332   7.547  65.357  1.00  0.00    -0.124 C  
HETATM   15  H2  UNL     1      -8.865   8.942  63.890  1.00  0.00     0.000 HD 
HETATM   16  C   UNL     1      -9.742   7.539  65.972  1.00  0.00     0.128 C  
HETATM   17  N   UNL     1      -8.215   8.859  64.671  1.00  0.00    -0.155 NA 
HETATM   18  C   UNL     1      -7.204   7.429  66.423  1.00  0.00    -0.079 C  
BRANCH  11  19
HETATM   19  C   UNL     1      -7.647   4.108  63.824  1.00  0.00    -0.070 C  
HETATM   20  C   UNL     1     -10.074   3.195  63.755  1.00  0.00    -0.177 C  
HETATM   21  C   UNL     1      -8.568   2.861  63.747  1.00  0.00    -0.086 C  
HETATM   22  C   UNL     1      -8.182   1.992  62.521  1.00  0.00    -0.064 C  
HETATM   23  C   UNL     1     -10.620   3.888  62.514  1.00  0.00    -0.200 C  
BRANCH  22  24
HETATM   24  C   UNL     1      -6.730   1.482  62.504  1.00  0.00    -0.013 C  
BRANCH  24  25
HETATM   25  C   UNL     1      -5.786   2.275  63.409  1.00  0.00    -0.009 C  
HETATM   26  C   UNL     1      -5.424   1.493  64.663  1.00  0.00    -0.005 C  
ENDBRANCH  24  25
ENDBRANCH  22  24
ENDBRANCH  11  19
ENDBRANCH   7   9
ENDBRANCH   3   4
ENDBRANCH   2   3
TORSDOF 6
ENDMDL
MODEL      232
REMARK 921   NORMALIZED FREE ENERGY PREDICTED BY IDOCK:   -0.16 KCAL/MOL
REMARK 922        TOTAL FREE ENERGY PREDICTED BY IDOCK:   -1.00 KCAL/MOL
REMARK 923 INTER-LIGAND FREE ENERGY PREDICTED BY IDOCK:   -3.50 KCAL/MOL
REMARK 924 INTRA-LIGAND FREE ENERGY PREDICTED BY IDOCK:    2.49 KCAL/MOL
REMARK 927      BINDING AFFINITY PREDICTED BY RF-SCORE:    0.00 PKD
ROOT
HETATM    1  C   UNL     1     -12.224  10.031  69.492  1.00  0.00     0.272 C  
HETATM    2  C   UNL     1     -11.825  11.426  69.032  1.00  0.00    -0.415 C  
ENDROOT
BRANCH   2   3
HETATM    3  C   UNL     1     -10.365  11.444  68.589  1.00  0.00    -0.219 C  
BRANCH   3   4
HETATM    4  C   UNL     1      -9.851  12.868  68.366  1.00  0.00    -0.197 C  
HETATM    5  C   UNL     1     -10.077  13.354  66.920  1.00  0.00    -0.255 C  
HETATM    6  C   UNL     1     -11.556  13.339  66.462  1.00  0.00    -0.392 C  
HETATM    7  C   UNL     1      -9.474  14.760  66.691  1.00  0.00    -0.273 C  
HETATM    8  C   UNL     1     -12.474  14.314  67.185  1.00  0.00     0.020 C  
BRANCH   7   9
HETATM    9  N   UNL     1      -8.020  14.877  66.856  1.00  0.00    -0.124 NA 
HETATM   10  C   UNL     1      -7.504  16.219  66.590  1.00  0.00    -0.203 C  
HETATM   11  N   UNL     1      -8.025  17.185  67.560  1.00  0.00    -0.174 NA 
HETATM   12  C   UNL     1      -7.520  16.838  68.911  1.00  0.00    -0.240 C  
HETATM   13  H1  UNL     1      -7.166  14.060  70.810  1.00  0.00     0.000 HD 
HETATM   14  C   UNL     1      -7.834  15.386  69.369  1.00  0.00    -0.232 C  
HETATM   15  H2  UNL     1      -7.027  15.679  71.278  1.00  0.00     0.000 HD 
HETATM   16  C   UNL     1      -9.270  15.272  69.908  1.00  0.00     0.062 C  
HETATM   17  N   UNL     1      -6.959  15.012  70.509  1.00  0.00     0.183 NA 
HETATM   18  C   UNL     1      -7.555  14.423  68.178  1.00  0.00    -0.128 C  
BRANCH  11  19
HETATM   19  C   UNL     1      -7.575  18.560  67.246  1.00  0.00    -0.222 C  
HETATM   20  C   UNL     1      -5.277  17.896  66.245  1.00  0.00    -0.217 C  
HETATM   21  C   UNL     1      -6.049  18.839  67.190  1.00  0.00    -0.172 C  
HETATM   22  C   UNL     1      -5.795  20.330  66.844  1.00  0.00    -0.201 C  
HETATM   23  C   UNL     1      -5.537  18.070  64.754  1.00  0.00     0.175 C  
BRANCH  22  24
HETATM   24  C   UNL     1      -6.404  21.348  67.825  1.00  0.00    -0.237 C  
BRANCH  24  25
HETATM   25  C   UNL     1      -5.777  21.313  69.220  1.00  0.00     0.088 C  
HETATM   26  C   UNL     1      -6.200  20.073  69.993  1.00  0.00    -0.395 C  
ENDBRANCH  24  25
ENDBRANCH  22  24
ENDBRANCH  11  19
ENDBRANCH   7   9
ENDBRANCH   3   4
ENDBRANCH   2   3
TORSDOF 6
ENDMDL
MODEL      233
REMARK 921   NORMALIZED FREE ENERGY PREDICTED BY IDOCK:    0.07 KCAL/MOL
REMARK 922        TOTAL FREE ENERGY PREDICTED BY IDOCK:   -0.69 KCAL/MOL
REMARK 923 INTER-LIGAND FREE ENERGY PREDICTED BY IDOCK:   -2.84 KCAL/MOL
REMARK 924 INTRA-LIGAND FREE ENERGY PREDICTED BY IDOCK:    2.14 KCAL/MOL
REMARK 927      BINDING AFFINITY PREDICTED BY RF-SCORE:    0.00 PKD
ROOT
HETATM    1  C   UNL     1      -5.465  12.688  67.777  1.00  0.00    -0.116 C  
HETATM    2  C   UNL     1      -6.843  12.089  67.534  1.00  0.00    -0.128 C  
ENDROOT
BRANCH   2   3
HETATM    3  C   UNL     1      -7.123  10.971  68.533  1.00  0.00    -0.078 C  
BRANCH   3   4
HETATM    4  C   UNL     1      -6.305   9.713  68.231  1.00  0.00    -0.056 C  
HETATM    5  C   UNL     1      -7.062   8.724  67.323  1.00  0.00    -0.079 C  
HETATM    6  C   UNL     1      -7.494   9.310  65.957  1.00  0.00    -0.095 C  
HETATM    7  C   UNL     1      -6.255   7.423  67.101  1.00  0.00    -0.051 C  
HETATM    8  C   UNL     1      -6.357   9.676  65.014  1.00  0.00    -0.089 C  
BRANCH   7   9
HETATM    9  N   UNL     1      -5.972   6.622  68.299  1.00  0.00    -0.020 NA 
HETATM   10  C   UNL     1      -6.552   7.171  69.523  1.00  0.00    -0.044 C  
HETATM   11  N   UNL     1      -8.015   7.166  69.461  1.00  0.00    -0.125 NA 
HETATM   12  C   UNL     1      -8.495   5.763  69.401  1.00  0.00    -0.112 C  
HETATM   13  H1  UNL     1      -7.713   2.923  67.735  1.00  0.00     0.000 HD 
HETATM   14  C   UNL     1      -7.900   4.922  68.236  1.00  0.00    -0.082 C  
HETATM   15  H2  UNL     1      -9.085   3.252  68.669  1.00  0.00     0.000 HD 
HETATM   16  C   UNL     1      -8.637   5.201  66.916  1.00  0.00    -0.105 C  
HETATM   17  N   UNL     1      -8.104   3.475  68.499  1.00  0.00    -0.069 NA 
HETATM   18  C   UNL     1      -6.373   5.212  68.151  1.00  0.00    -0.036 C  
BRANCH  11  19
HETATM   19  C   UNL     1      -8.608   7.797  70.661  1.00  0.00    -0.127 C  
HETATM   20  C   UNL     1      -7.639   6.119  72.386  1.00  0.00    -0.099 C  
HETATM   21  C   UNL     1      -8.876   6.906  71.904  1.00  0.00    -0.126 C  
HETATM   22  C   UNL     1      -9.491   7.758  73.045  1.00  0.00    -0.311 C  
HETATM   23  C   UNL     1      -6.513   6.938  73.002  1.00  0.00    -0.062 C  
BRANCH  22  24
HETATM   24  C   UNL     1     -10.816   8.463  72.702  1.00  0.00    -0.308 C  
BRANCH  24  25
HETATM   25  C   UNL     1     -11.143   8.470  71.208  1.00  0.00    -0.320 C  
HETATM   26  C   UNL     1     -12.331   7.574  70.891  1.00  0.00    -0.198 C  
ENDBRANCH  24  25
ENDBRANCH  22  24
ENDBRANCH  11  19
ENDBRANCH   7   9
ENDBRANCH   3   4
ENDBRANCH   2   3
TORSDOF 6
ENDMDL
MODEL      234
REMARK 921   NORMALIZED FREE ENERGY PREDICTED BY IDOCK:    0.48 KCAL/MOL
REMARK 922        TOTAL FREE ENERGY PREDICTED BY IDOCK:   -0.14 KCAL/MOL
REMARK 923 INTER-LIGAND FREE ENERGY PREDICTED BY IDOCK:   -1.65 KCAL/MOL
REMARK 924 INTRA-LIGAND FREE ENERGY PREDICTED BY IDOCK:    1.51 KCAL/MOL
REMARK 927      BINDING AFFINITY PREDICTED BY RF-SCORE:    0.00 PKD
ROOT
HETATM    1  C   UNL     1     -11.962  12.232  69.735  1.00  0.00    -0.365 C  
HETATM    2  C   UNL     1     -10.695  11.599  70.293  1.00  0.00     1.115 C  
ENDROOT
BRANCH   2   3
HETATM    3  C   UNL     1     -10.899  10.105  70.516  1.00  0.00    -0.340 C  
BRANCH   3   4
HETATM    4  C   UNL     1     -10.317   9.269  69.374  1.00  0.00    -0.223 C  
HETATM    5  C   UNL     1      -9.685   7.954  69.871  1.00  0.00    -0.176 C  
HETATM    6  C   UNL     1     -10.655   7.029  70.647  1.00  0.00    -0.246 C  
HETATM    7  C   UNL     1      -9.027   7.166  68.714  1.00  0.00    -0.128 C  
HETATM    8  C   UNL     1     -11.799   6.449  69.829  1.00  0.00    -0.071 C  
BRANCH   7   9
HETATM    9  N   UNL     1      -7.911   7.829  68.028  1.00  0.00    -0.120 NA 
HETATM   10  C   UNL     1      -7.247   6.987  67.035  1.00  0.00    -0.081 C  
HETATM   11  N   UNL     1      -8.157   6.652  65.937  1.00  0.00    -0.119 NA 
HETATM   12  C   UNL     1      -8.521   7.893  65.210  1.00  0.00    -0.104 C  
HETATM   13  H1  UNL     1      -9.478  11.047  65.974  1.00  0.00     0.000 HD 
HETATM   14  C   UNL     1      -9.134   9.011  66.100  1.00  0.00    -0.199 C  
HETATM   15  H2  UNL     1      -9.519  10.270  64.472  1.00  0.00     0.000 HD 
HETATM   16  C   UNL     1     -10.629   8.758  66.358  1.00  0.00     0.163 C  
HETATM   17  N   UNL     1      -9.076  10.314  65.390  1.00  0.00    -0.173 NA 
HETATM   18  C   UNL     1      -8.300   9.109  67.410  1.00  0.00    -0.115 C  
BRANCH  11  19
HETATM   19  C   UNL     1      -7.518   5.731  64.970  1.00  0.00    -0.079 C  
HETATM   20  C   UNL     1      -8.608   3.556  65.871  1.00  0.00    -0.116 C  
HETATM   21  C   UNL     1      -7.317   4.249  65.389  1.00  0.00    -0.073 C  
HETATM   22  C   UNL     1      -6.640   3.460  64.238  1.00  0.00    -0.035 C  
HETATM   23  C   UNL     1      -9.670   3.291  64.812  1.00  0.00    -0.131 C  
BRANCH  22  24
HETATM   24  C   UNL     1      -5.266   3.992  63.792  1.00  0.00    -0.008 C  
BRANCH  24  25
HETATM   25  C   UNL     1      -5.143   5.515  63.857  1.00  0.00    -0.010 C  
HETATM   26  C   UNL     1      -5.268   6.147  62.478  1.00  0.00    -0.021 C  
ENDBRANCH  24  25
ENDBRANCH  22  24
ENDBRANCH  11  19
ENDBRANCH   7   9
ENDBRANCH   3   4
ENDBRANCH   2   3
TORSDOF 6
ENDMDL
MODEL      235
REMARK 921   NORMALIZED FREE ENERGY PREDICTED BY IDOCK:    0.76 KCAL/MOL
REMARK 922        TOTAL FREE ENERGY PREDICTED BY IDOCK:    0.23 KCAL/MOL
REMARK 923 INTER-LIGAND FREE ENERGY PREDICTED BY IDOCK:   -2.34 KCAL/MOL
REMARK 924 INTRA-LIGAND FREE ENERGY PREDICTED BY IDOCK:    2.58 KCAL/MOL
REMARK 927      BINDING AFFINITY PREDICTED BY RF-SCORE:    0.00 PKD
ROOT
HETATM    1  C   UNL     1     -10.330  12.154  68.826  1.00  0.00    -0.168 C  
HETATM    2  C   UNL     1     -10.160  10.931  69.717  1.00  0.00     0.165 C  
ENDROOT
BRANCH   2   3
HETATM    3  C   UNL     1      -9.859   9.696  68.875  1.00  0.00    -0.179 C  
BRANCH   3   4
HETATM    4  C   UNL     1      -8.375   9.592  68.518  1.00  0.00    -0.118 C  
HETATM    5  C   UNL     1      -8.150   9.320  67.017  1.00  0.00    -0.112 C  
HETATM    6  C   UNL     1      -8.760  10.386  66.074  1.00  0.00    -0.163 C  
HETATM    7  C   UNL     1      -6.649   9.132  66.692  1.00  0.00    -0.068 C  
HETATM    8  C   UNL     1      -8.134  11.770  66.161  1.00  0.00     0.206 C  
BRANCH   7   9
HETATM    9  N   UNL     1      -5.982   7.995  67.337  1.00  0.00    -0.048 NA 
HETATM   10  C   UNL     1      -6.743   7.418  68.443  1.00  0.00    -0.054 C  
HETATM   11  N   UNL     1      -8.002   6.837  67.970  1.00  0.00    -0.113 NA 
HETATM   12  C   UNL     1      -7.703   5.696  67.070  1.00  0.00    -0.101 C  
HETATM   13  H1  UNL     1      -5.610   5.024  64.497  1.00  0.00     0.000 HD 
HETATM   14  C   UNL     1      -6.779   6.042  65.868  1.00  0.00    -0.052 C  
HETATM   15  H2  UNL     1      -6.944   4.131  65.029  1.00  0.00     0.000 HD 
HETATM   16  C   UNL     1      -7.574   6.697  64.726  1.00  0.00    -0.103 C  
HETATM   17  N   UNL     1      -6.215   4.796  65.286  1.00  0.00    -0.033 NA 
HETATM   18  C   UNL     1      -5.613   6.933  66.385  1.00  0.00    -0.022 C  
BRANCH  11  19
HETATM   19  C   UNL     1      -8.816   6.325  69.095  1.00  0.00    -0.128 C  
HETATM   20  C   UNL     1     -10.222   4.647  67.703  1.00  0.00    -0.048 C  
HETATM   21  C   UNL     1     -10.224   5.750  68.782  1.00  0.00    -0.255 C  
HETATM   22  C   UNL     1     -10.903   5.268  70.091  1.00  0.00    -0.093 C  
HETATM   23  C   UNL     1      -9.578   3.323  68.091  1.00  0.00    -0.147 C  
BRANCH  22  24
HETATM   24  C   UNL     1     -11.087   6.346  71.175  1.00  0.00    -0.344 C  
BRANCH  24  25
HETATM   25  C   UNL     1      -9.974   6.363  72.224  1.00  0.00    -0.178 C  
HETATM   26  C   UNL     1      -9.962   5.086  73.049  1.00  0.00    -0.189 C  
ENDBRANCH  24  25
ENDBRANCH  22  24
ENDBRANCH  11  19
ENDBRANCH   7   9
ENDBRANCH   3   4
ENDBRANCH   2   3
TORSDOF 6
ENDMDL
MODEL      236
REMARK 921   NORMALIZED FREE ENERGY PREDICTED BY IDOCK:    0.96 KCAL/MOL
REMARK 922        TOTAL FREE ENERGY PREDICTED BY IDOCK:    0.51 KCAL/MOL
REMARK 923 INTER-LIGAND FREE ENERGY PREDICTED BY IDOCK:   -1.39 KCAL/MOL
REMARK 924 INTRA-LIGAND FREE ENERGY PREDICTED BY IDOCK:    1.90 KCAL/MOL
REMARK 927      BINDING AFFINITY PREDICTED BY RF-SCORE:    0.00 PKD
ROOT
HETATM    1  C   UNL     1      -8.465  10.384  64.756  1.00  0.00    -0.176 C  
HETATM    2  C   UNL     1      -7.268  10.382  65.696  1.00  0.00    -0.146 C  
ENDROOT
BRANCH   2   3
HETATM    3  C   UNL     1      -7.729  10.444  67.148  1.00  0.00    -0.100 C  
BRANCH   3   4
HETATM    4  C   UNL     1      -9.242  10.256  67.278  1.00  0.00    -0.157 C  
HETATM    5  C   UNL     1      -9.814  10.953  68.528  1.00  0.00    -0.188 C  
HETATM    6  C   UNL     1      -9.550  12.477  68.591  1.00  0.00    -0.029 C  
HETATM    7  C   UNL     1     -11.328  10.679  68.689  1.00  0.00    -0.281 C  
HETATM    8  C   UNL     1     -10.244  13.305  67.519  1.00  0.00    -0.222 C  
BRANCH   7   9
HETATM    9  N   UNL     1     -11.717   9.277  68.886  1.00  0.00     0.716 NA 
HETATM   10  C   UNL     1     -10.686   8.465  69.529  1.00  0.00    -0.175 C  
HETATM   11  N   UNL     1     -10.425   8.930  70.893  1.00  0.00    -0.218 NA 
HETATM   12  C   UNL     1     -11.643   8.729  71.716  1.00  0.00    -0.346 C  
HETATM   13  H1  UNL     1     -14.973   9.255  71.422  1.00  0.00     0.000 HD 
HETATM   14  C   UNL     1     -12.927   9.400  71.151  1.00  0.00    -0.238 C  
HETATM   15  H2  UNL     1     -14.087   8.869  72.810  1.00  0.00     0.000 HD 
HETATM   16  C   UNL     1     -12.972  10.897  71.500  1.00  0.00    -0.556 C  
HETATM   17  N   UNL     1     -14.131   8.814  71.793  1.00  0.00    -0.411 NA 
HETATM   18  C   UNL     1     -12.987   9.133  69.619  1.00  0.00     2.584 C  
BRANCH  11  19
HETATM   19  C   UNL     1      -9.323   8.167  71.521  1.00  0.00    -0.160 C  
HETATM   20  C   UNL     1     -10.774   6.964  73.303  1.00  0.00    -0.349 C  
HETATM   21  C   UNL     1      -9.475   7.742  73.006  1.00  0.00    -0.311 C  
HETATM   22  C   UNL     1      -8.220   6.954  73.464  1.00  0.00    -0.121 C  
HETATM   23  C   UNL     1     -10.874   5.564  72.714  1.00  0.00    -0.308 C  
BRANCH  22  24
HETATM   24  C   UNL     1      -6.886   7.712  73.347  1.00  0.00    -0.085 C  
BRANCH  24  25
HETATM   25  C   UNL     1      -6.822   8.671  72.157  1.00  0.00    -0.069 C  
HETATM   26  C   UNL     1      -5.403   8.817  71.630  1.00  0.00    -0.041 C  
ENDBRANCH  24  25
ENDBRANCH  22  24
ENDBRANCH  11  19
ENDBRANCH   7   9
ENDBRANCH   3   4
ENDBRANCH   2   3
TORSDOF 6
ENDMDL
MODEL      237
REMARK 921   NORMALIZED FREE ENERGY PREDICTED BY IDOCK:    0.97 KCAL/MOL
REMARK 922        TOTAL FREE ENERGY PREDICTED BY IDOCK:    0.52 KCAL/MOL
REMARK 923 INTER-LIGAND FREE ENERGY PREDICTED BY IDOCK:   -2.17 KCAL/MOL
REMARK 924 INTRA-LIGAND FREE ENERGY PREDICTED BY IDOCK:    2.68 KCAL/MOL
REMARK 927      BINDING AFFINITY PREDICTED BY RF-SCORE:    0.00 PKD
ROOT
HETATM    1  C   UNL     1     -10.808  12.255  64.686  1.00  0.00    -0.349 C  
HETATM    2  C   UNL     1      -9.434  12.404  65.323  1.00  0.00     0.098 C  
ENDROOT
BRANCH   2   3
HETATM    3  C   UNL     1      -8.671  11.085  65.263  1.00  0.00    -0.099 C  
BRANCH   3   4
HETATM    4  C   UNL     1      -8.570  10.417  66.637  1.00  0.00    -0.128 C  
HETATM    5  C   UNL     1      -9.898   9.766  67.072  1.00  0.00    -0.245 C  
HETATM    6  C   UNL     1     -10.436   8.692  66.095  1.00  0.00     0.460 C  
HETATM    7  C   UNL     1      -9.800   9.173  68.497  1.00  0.00    -0.164 C  
HETATM    8  C   UNL     1      -9.585   7.436  65.971  1.00  0.00     0.070 C  
BRANCH   7   9
HETATM    9  N   UNL     1      -9.529  10.126  69.580  1.00  0.00    -0.221 NA 
HETATM   10  C   UNL     1      -9.268  11.487  69.114  1.00  0.00     0.252 C  
HETATM   11  N   UNL     1     -10.450  12.055  68.462  1.00  0.00    -0.225 NA 
HETATM   12  C   UNL     1     -11.539  12.191  69.461  1.00  0.00    -0.315 C  
HETATM   13  H1  UNL     1     -12.926  10.321  71.916  1.00  0.00     0.000 HD 
HETATM   14  C   UNL     1     -11.909  10.875  70.202  1.00  0.00    -0.353 C  
HETATM   15  H2  UNL     1     -13.505  11.755  71.231  1.00  0.00     0.000 HD 
HETATM   16  C   UNL     1     -12.841   9.999  69.347  1.00  0.00     1.388 C  
HETATM   17  N   UNL     1     -12.683  11.184  71.431  1.00  0.00    -0.421 NA 
HETATM   18  C   UNL     1     -10.591  10.149  70.601  1.00  0.00    -0.102 C  
BRANCH  11  19
HETATM   19  C   UNL     1     -10.168  13.400  67.913  1.00  0.00    -0.241 C  
HETATM   20  C   UNL     1      -7.696  13.522  68.687  1.00  0.00    -0.093 C  
HETATM   21  C   UNL     1      -9.053  14.248  68.581  1.00  0.00    -0.160 C  
HETATM   22  C   UNL     1      -8.916  15.612  67.855  1.00  0.00    -0.180 C  
HETATM   23  C   UNL     1      -6.958  13.271  67.379  1.00  0.00    -0.105 C  
BRANCH  22  24
HETATM   24  C   UNL     1     -10.188  16.479  67.833  1.00  0.00    -0.273 C  
BRANCH  24  25
HETATM   25  C   UNL     1     -10.153  17.653  68.812  1.00  0.00    -0.377 C  
HETATM   26  C   UNL     1     -10.493  18.967  68.124  1.00  0.00    -0.387 C  
ENDBRANCH  24  25
ENDBRANCH  22  24
ENDBRANCH  11  19
ENDBRANCH   7   9
ENDBRANCH   3   4
ENDBRANCH   2   3
TORSDOF 6
ENDMDL
MODEL      238
REMARK 921   NORMALIZED FREE ENERGY PREDICTED BY IDOCK:    1.04 KCAL/MOL
REMARK 922        TOTAL FREE ENERGY PREDICTED BY IDOCK:    0.62 KCAL/MOL
REMARK 923 INTER-LIGAND FREE ENERGY PREDICTED BY IDOCK:   -6.09 KCAL/MOL
REMARK 924 INTRA-LIGAND FREE ENERGY PREDICTED BY IDOCK:    6.71 KCAL/MOL
REMARK 927      BINDING AFFINITY PREDICTED BY RF-SCORE:    0.00 PKD
ROOT
HETATM    1  C   UNL     1     -12.084  12.036  70.035  1.00  0.00    -0.355 C  
HETATM    2  C   UNL     1     -11.953  10.547  69.747  1.00  0.00    -0.309 C  
ENDROOT
BRANCH   2   3
HETATM    3  C   UNL     1     -10.546  10.219  69.259  1.00  0.00    -0.254 C  
BRANCH   3   4
HETATM    4  C   UNL     1     -10.496  10.018  67.743  1.00  0.00    -0.282 C  
HETATM    5  C   UNL     1      -9.407   9.013  67.319  1.00  0.00    -0.172 C  
HETATM    6  C   UNL     1      -9.553   7.606  67.948  1.00  0.00    -0.164 C  
HETATM    7  C   UNL     1      -9.314   8.890  65.780  1.00  0.00    -0.219 C  
HETATM    8  C   UNL     1     -10.782   6.821  67.514  1.00  0.00    -0.381 C  
BRANCH   7   9
HETATM    9  N   UNL     1      -8.940  10.109  65.052  1.00  0.00    -0.179 NA 
HETATM   10  C   UNL     1      -9.690  11.294  65.465  1.00  0.00    -0.229 C  
HETATM   11  N   UNL     1      -9.401  11.640  66.859  1.00  0.00    -0.184 NA 
HETATM   12  C   UNL     1      -7.974  12.025  66.979  1.00  0.00    -0.150 C  
HETATM   13  H1  UNL     1      -4.976  10.876  65.907  1.00  0.00     0.000 HD 
HETATM   14  C   UNL     1      -6.967  10.957  66.466  1.00  0.00    -0.139 C  
HETATM   15  H2  UNL     1      -5.294  12.057  67.077  1.00  0.00     0.000 HD 
HETATM   16  C   UNL     1      -6.731   9.863  67.521  1.00  0.00    -0.073 C  
HETATM   17  N   UNL     1      -5.636  11.578  66.244  1.00  0.00    -0.247 NA 
HETATM   18  C   UNL     1      -7.495  10.392  65.115  1.00  0.00    -0.093 C  
BRANCH  11  19
HETATM   19  C   UNL     1     -10.220  12.788  67.310  1.00  0.00    -0.232 C  
HETATM   20  C   UNL     1     -11.102  13.461  64.965  1.00  0.00    -0.332 C  
HETATM   21  C   UNL     1     -10.495  13.936  66.302  1.00  0.00    -0.287 C  
HETATM   22  C   UNL     1     -11.370  15.030  66.969  1.00  0.00    -0.319 C  
HETATM   23  C   UNL     1     -12.530  12.934  65.019  1.00  0.00    -0.553 C  
BRANCH  22  24
HETATM   24  C   UNL     1     -10.771  15.674  68.233  1.00  0.00    -0.283 C  
BRANCH  24  25
HETATM   25  C   UNL     1     -10.758  17.203  68.199  1.00  0.00    -0.366 C  
HETATM   26  C   UNL     1      -9.340  17.752  68.263  1.00  0.00    -0.288 C  
ENDBRANCH  24  25
ENDBRANCH  22  24
ENDBRANCH  11  19
ENDBRANCH   7   9
ENDBRANCH   3   4
ENDBRANCH   2   3
TORSDOF 6
ENDMDL
MODEL      239
REMARK 921   NORMALIZED FREE ENERGY PREDICTED BY IDOCK:    2.00 KCAL/MOL
REMARK 922        TOTAL FREE ENERGY PREDICTED BY IDOCK:    1.92 KCAL/MOL
REMARK 923 INTER-LIGAND FREE ENERGY PREDICTED BY IDOCK:   -1.90 KCAL/MOL
REMARK 924 INTRA-LIGAND FREE ENERGY PREDICTED BY IDOCK:    3.81 KCAL/MOL
REMARK 927      BINDING AFFINITY PREDICTED BY RF-SCORE:    0.00 PKD
ROOT
HETATM    1  C   UNL     1     -10.540   3.815  64.759  1.00  0.00    -0.064 C  
HETATM    2  C   UNL     1      -9.809   4.101  66.063  1.00  0.00    -0.206 C  
ENDROOT
BRANCH   2   3
HETATM    3  C   UNL     1      -8.572   4.955  65.805  1.00  0.00    -0.128 C  
BRANCH   3   4
HETATM    4  C   UNL     1      -7.466   4.688  66.829  1.00  0.00    -0.086 C  
HETATM    5  C   UNL     1      -7.670   3.357  67.580  1.00  0.00    -0.077 C  
HETATM    6  C   UNL     1      -7.740   2.109  66.666  1.00  0.00    -0.070 C  
HETATM    7  C   UNL     1      -6.592   3.147  68.669  1.00  0.00    -0.040 C  
HETATM    8  C   UNL     1      -6.454   1.770  65.925  1.00  0.00    -0.024 C  
BRANCH   7   9
HETATM    9  N   UNL     1      -6.562   4.137  69.753  1.00  0.00    -0.033 NA 
HETATM   10  C   UNL     1      -7.233   5.392  69.421  1.00  0.00    -0.065 C  
HETATM   11  N   UNL     1      -8.667   5.182  69.205  1.00  0.00    -0.095 NA 
HETATM   12  C   UNL     1      -9.289   4.735  70.475  1.00  0.00    -0.154 C  
HETATM   13  H1  UNL     1      -8.620   2.518  72.943  1.00  0.00     0.000 HD 
HETATM   14  C   UNL     1      -8.644   3.468  71.105  1.00  0.00    -0.072 C  
HETATM   15  H2  UNL     1     -10.057   3.360  72.646  1.00  0.00     0.000 HD 
HETATM   16  C   UNL     1      -9.164   2.186  70.432  1.00  0.00    -0.186 C  
HETATM   17  N   UNL     1      -9.043   3.349  72.531  1.00  0.00    -0.091 NA 
HETATM   18  C   UNL     1      -7.097   3.611  71.021  1.00  0.00    -0.033 C  
BRANCH  11  19
HETATM   19  C   UNL     1      -9.338   6.433  68.787  1.00  0.00    -0.125 C  
HETATM   20  C   UNL     1     -11.459   6.133  70.250  1.00  0.00    -0.357 C  
HETATM   21  C   UNL     1     -10.887   6.497  68.864  1.00  0.00    -0.354 C  
HETATM   22  C   UNL     1     -11.385   7.887  68.388  1.00  0.00     0.750 C  
HETATM   23  C   UNL     1     -11.190   7.124  71.374  1.00  0.00    -0.278 C  
BRANCH  22  24
HETATM   24  C   UNL     1     -10.989   8.274  66.951  1.00  0.00     0.266 C  
BRANCH  24  25
HETATM   25  C   UNL     1     -10.774   9.775  66.752  1.00  0.00    -0.143 C  
HETATM   26  C   UNL     1     -10.507  10.482  68.073  1.00  0.00    -0.232 C  
ENDBRANCH  24  25
ENDBRANCH  22  24
ENDBRANCH  11  19
ENDBRANCH   7   9
ENDBRANCH   3   4
ENDBRANCH   2   3
TORSDOF 6
ENDMDL
MODEL      240
REMARK 921   NORMALIZED FREE ENERGY PREDICTED BY IDOCK:    2.09 KCAL/MOL
REMARK 922        TOTAL FREE ENERGY PREDICTED BY IDOCK:    2.03 KCAL/MOL
REMARK 923 INTER-LIGAND FREE ENERGY PREDICTED BY IDOCK:   -1.58 KCAL/MOL
REMARK 924 INTRA-LIGAND FREE ENERGY PREDICTED BY IDOCK:    3.61 KCAL/MOL
REMARK 927      BINDING AFFINITY PREDICTED BY RF-SCORE:    0.00 PKD
ROOT
HETATM    1  C   UNL     1     -12.282  13.349  66.710  1.00  0.00    -0.367 C  
HETATM    2  C   UNL     1     -11.592  13.412  68.065  1.00  0.00    -0.369 C  
ENDROOT
BRANCH   2   3
HETATM    3  C   UNL     1     -10.638  12.234  68.234  1.00  0.00    -0.243 C  
BRANCH   3   4
HETATM    4  C   UNL     1      -9.174  12.678  68.248  1.00  0.00    -0.184 C  
HETATM    5  C   UNL     1      -8.440  12.323  66.940  1.00  0.00    -0.159 C  
HETATM    6  C   UNL     1      -9.074  12.928  65.663  1.00  0.00     0.456 C  
HETATM    7  C   UNL     1      -6.941  12.701  67.007  1.00  0.00     0.099 C  
HETATM    8  C   UNL     1      -9.019  14.445  65.563  1.00  0.00     1.071 C  
BRANCH   7   9
HETATM    9  N   UNL     1      -6.143  12.014  68.030  1.00  0.00    -0.053 NA 
HETATM   10  C   UNL     1      -6.931  11.526  69.160  1.00  0.00    -0.113 C  
HETATM   11  N   UNL     1      -7.880  10.494  68.733  1.00  0.00    -0.108 NA 
HETATM   12  C   UNL     1      -7.126   9.312  68.247  1.00  0.00    -0.076 C  
HETATM   13  H1  UNL     1      -4.468   8.691  66.247  1.00  0.00     0.000 HD 
HETATM   14  C   UNL     1      -6.106   9.613  67.114  1.00  0.00    -0.063 C  
HETATM   15  H2  UNL     1      -5.605   7.596  66.857  1.00  0.00     0.000 HD 
HETATM   16  C   UNL     1      -6.803   9.694  65.746  1.00  0.00    -0.093 C  
HETATM   17  N   UNL     1      -5.137   8.493  66.991  1.00  0.00    -0.031 NA 
HETATM   18  C   UNL     1      -5.333  10.913  67.480  1.00  0.00    -0.040 C  
BRANCH  11  19
HETATM   19  C   UNL     1      -8.739  10.054  69.856  1.00  0.00    -0.142 C  
HETATM   20  C   UNL     1      -9.306   7.713  68.893  1.00  0.00    -0.145 C  
HETATM   21  C   UNL     1      -9.836   8.994  69.570  1.00  0.00    -0.181 C  
HETATM   22  C   UNL     1     -10.615   8.672  70.872  1.00  0.00    -0.265 C  
HETATM   23  C   UNL     1      -8.419   6.815  69.746  1.00  0.00    -0.133 C  
BRANCH  22  24
HETATM   24  C   UNL     1     -11.311   9.873  71.539  1.00  0.00    -0.246 C  
BRANCH  24  25
HETATM   25  C   UNL     1     -12.500  10.416  70.746  1.00  0.00    -0.461 C  
HETATM   26  C   UNL     1     -13.646   9.416  70.698  1.00  0.00     0.268 C  
ENDBRANCH  24  25
ENDBRANCH  22  24
ENDBRANCH  11  19
ENDBRANCH   7   9
ENDBRANCH   3   4
ENDBRANCH   2   3
TORSDOF 6
ENDMDL
MODEL      241
REMARK 921   NORMALIZED FREE ENERGY PREDICTED BY IDOCK:    2.37 KCAL/MOL
REMARK 922        TOTAL FREE ENERGY PREDICTED BY IDOCK:    2.41 KCAL/MOL
REMARK 923 INTER-LIGAND FREE ENERGY PREDICTED BY IDOCK:   -4.81 KCAL/MOL
REMARK 924 INTRA-LIGAND FREE ENERGY PREDICTED BY IDOCK:    7.22 KCAL/MOL
REMARK 927      BINDING AFFINITY PREDICTED BY RF-SCORE:    0.00 PKD
ROOT
HETATM    1  C   UNL     1     -12.090  12.015  70.054  1.00  0.00    -0.355 C  
HETATM    2  C   UNL     1     -11.952  10.538  69.715  1.00  0.00    -0.309 C  
ENDROOT
BRANCH   2   3
HETATM    3  C   UNL     1     -10.482  10.161  69.558  1.00  0.00    -0.263 C  
BRANCH   3   4
HETATM    4  C   UNL     1      -9.996  10.336  68.118  1.00  0.00    -0.168 C  
HETATM    5  C   UNL     1      -8.941   9.285  67.722  1.00  0.00    -0.131 C  
HETATM    6  C   UNL     1      -9.416   7.817  67.855  1.00  0.00    -0.158 C  
HETATM    7  C   UNL     1      -8.399   9.531  66.294  1.00  0.00    -0.115 C  
HETATM    8  C   UNL     1     -10.531   7.404  66.905  1.00  0.00    -0.379 C  
BRANCH   7   9
HETATM    9  N   UNL     1      -7.697  10.801  66.076  1.00  0.00    -0.154 NA 
HETATM   10  C   UNL     1      -8.500  11.980  66.396  1.00  0.00     0.008 C  
HETATM   11  N   UNL     1      -8.826  12.024  67.824  1.00  0.00    -0.158 NA 
HETATM   12  C   UNL     1      -7.574  12.186  68.603  1.00  0.00    -0.097 C  
HETATM   13  H1  UNL     1      -4.459  10.865  68.635  1.00  0.00     0.000 HD 
HETATM   14  C   UNL     1      -6.491  11.106  68.326  1.00  0.00    -0.057 C  
HETATM   15  H2  UNL     1      -5.199  11.843  69.800  1.00  0.00     0.000 HD 
HETATM   16  C   UNL     1      -6.779   9.816  69.113  1.00  0.00    -0.053 C  
HETATM   17  N   UNL     1      -5.169  11.574  68.816  1.00  0.00    -0.046 NA 
HETATM   18  C   UNL     1      -6.410  10.873  66.790  1.00  0.00    -0.097 C  
BRANCH  11  19
HETATM   19  C   UNL     1      -9.710  13.168  68.140  1.00  0.00    -0.228 C  
HETATM   20  C   UNL     1      -7.842  14.966  68.233  1.00  0.00    -0.122 C  
HETATM   21  C   UNL     1      -9.103  14.377  68.901  1.00  0.00    -0.069 C  
HETATM   22  C   UNL     1     -10.189  15.461  69.126  1.00  0.00    -0.239 C  
HETATM   23  C   UNL     1      -8.052  15.685  66.907  1.00  0.00    -0.290 C  
BRANCH  22  24
HETATM   24  C   UNL     1     -11.424  15.003  69.922  1.00  0.00    -0.320 C  
BRANCH  24  25
HETATM   25  C   UNL     1     -11.805  15.943  71.067  1.00  0.00    -0.468 C  
HETATM   26  C   UNL     1     -11.730  15.242  72.416  1.00  0.00    -0.538 C  
ENDBRANCH  24  25
ENDBRANCH  22  24
ENDBRANCH  11  19
ENDBRANCH   7   9
ENDBRANCH   3   4
ENDBRANCH   2   3
TORSDOF 6
ENDMDL
MODEL      242
REMARK 921   NORMALIZED FREE ENERGY PREDICTED BY IDOCK:    2.75 KCAL/MOL
REMARK 922        TOTAL FREE ENERGY PREDICTED BY IDOCK:    2.92 KCAL/MOL
REMARK 923 INTER-LIGAND FREE ENERGY PREDICTED BY IDOCK:   -2.76 KCAL/MOL
REMARK 924 INTRA-LIGAND FREE ENERGY PREDICTED BY IDOCK:    5.69 KCAL/MOL
REMARK 927      BINDING AFFINITY PREDICTED BY RF-SCORE:    0.00 PKD
ROOT
HETATM    1  C   UNL     1     -10.465   4.293  65.577  1.00  0.00    -0.177 C  
HETATM    2  C   UNL     1      -9.876   4.997  66.791  1.00  0.00    -0.212 C  
ENDROOT
BRANCH   2   3
HETATM    3  C   UNL     1      -8.846   6.035  66.358  1.00  0.00    -0.137 C  
BRANCH   3   4
HETATM    4  C   UNL     1      -7.441   5.692  66.858  1.00  0.00    -0.088 C  
HETATM    5  C   UNL     1      -7.131   4.186  66.749  1.00  0.00    -0.064 C  
HETATM    6  C   UNL     1      -7.246   3.609  65.317  1.00  0.00    -0.067 C  
HETATM    7  C   UNL     1      -5.741   3.847  67.338  1.00  0.00    -0.022 C  
HETATM    8  C   UNL     1      -6.225   4.134  64.317  1.00  0.00    -0.026 C  
BRANCH   7   9
HETATM    9  N   UNL     1      -5.558   4.120  68.769  1.00  0.00    -0.013 NA 
HETATM   10  C   UNL     1      -6.373   5.227  69.266  1.00  0.00    -0.034 C  
HETATM   11  N   UNL     1      -7.801   4.914  69.169  1.00  0.00    -0.071 NA 
HETATM   12  C   UNL     1      -8.110   3.774  70.066  1.00  0.00    -0.053 C  
HETATM   13  H1  UNL     1      -6.781   0.755  70.822  1.00  0.00     0.000 HD 
HETATM   14  C   UNL     1      -7.257   2.499  69.814  1.00  0.00    -0.043 C  
HETATM   15  H2  UNL     1      -8.306   1.365  71.228  1.00  0.00     0.000 HD 
HETATM   16  C   UNL     1      -7.812   1.683  68.634  1.00  0.00    -0.049 C  
HETATM   17  N   UNL     1      -7.341   1.592  70.987  1.00  0.00    -0.032 NA 
HETATM   18  C   UNL     1      -5.776   2.930  69.610  1.00  0.00    -0.018 C  
BRANCH  11  19
HETATM   19  C   UNL     1      -8.634   6.063  69.591  1.00  0.00    -0.126 C  
HETATM   20  C   UNL     1     -10.258   4.711  71.096  1.00  0.00    -0.199 C  
HETATM   21  C   UNL     1     -10.106   5.791  70.004  1.00  0.00    -0.279 C  
HETATM   22  C   UNL     1     -10.796   7.119  70.413  1.00  0.00    -0.269 C  
HETATM   23  C   UNL     1      -9.756   5.079  72.486  1.00  0.00    -0.190 C  
BRANCH  22  24
HETATM   24  C   UNL     1     -10.827   8.208  69.326  1.00  0.00    -0.064 C  
BRANCH  24  25
HETATM   25  C   UNL     1     -10.072   9.483  69.707  1.00  0.00    -0.238 C  
HETATM   26  C   UNL     1      -8.936   9.192  70.677  1.00  0.00    -0.292 C  
ENDBRANCH  24  25
ENDBRANCH  22  24
ENDBRANCH  11  19
ENDBRANCH   7   9
ENDBRANCH   3   4
ENDBRANCH   2   3
TORSDOF 6
ENDMDL
MODEL      243
REMARK 921   NORMALIZED FREE ENERGY PREDICTED BY IDOCK:    2.91 KCAL/MOL
REMARK 922        TOTAL FREE ENERGY PREDICTED BY IDOCK:    3.14 KCAL/MOL
REMARK 923 INTER-LIGAND FREE ENERGY PREDICTED BY IDOCK:   -1.23 KCAL/MOL
REMARK 924 INTRA-LIGAND FREE ENERGY PREDICTED BY IDOCK:    4.38 KCAL/MOL
REMARK 927      BINDING AFFINITY PREDICTED BY RF-SCORE:    0.00 PKD
ROOT
HETATM    1  C   UNL     1     -10.160  13.143  66.436  1.00  0.00    -0.281 C  
HETATM    2  C   UNL     1      -8.742  13.624  66.711  1.00  0.00    -0.101 C  
ENDROOT
BRANCH   2   3
HETATM    3  C   UNL     1      -7.754  12.469  66.588  1.00  0.00     0.306 C  
BRANCH   3   4
HETATM    4  C   UNL     1      -8.061  11.342  67.576  1.00  0.00    -0.127 C  
HETATM    5  C   UNL     1      -9.521  10.860  67.482  1.00  0.00    -0.168 C  
HETATM    6  C   UNL     1      -9.939  10.347  66.082  1.00  0.00    -0.290 C  
HETATM    7  C   UNL     1      -9.835   9.783  68.547  1.00  0.00    -0.156 C  
HETATM    8  C   UNL     1      -9.240   9.079  65.616  1.00  0.00    -0.288 C  
BRANCH   7   9
HETATM    9  N   UNL     1      -9.716  10.201  69.949  1.00  0.00    -0.200 NA 
HETATM   10  C   UNL     1     -10.018   9.140  70.907  1.00  0.00    -0.288 C  
HETATM   11  N   UNL     1      -9.049   8.046  70.806  1.00  0.00    -0.143 NA 
HETATM   12  C   UNL     1      -7.708   8.548  71.195  1.00  0.00    -0.103 C  
HETATM   13  H1  UNL     1      -5.776  11.257  70.579  1.00  0.00     0.000 HD 
HETATM   14  C   UNL     1      -7.217   9.785  70.390  1.00  0.00    -0.142 C  
HETATM   15  H2  UNL     1      -5.338   9.797  71.312  1.00  0.00     0.000 HD 
HETATM   16  C   UNL     1      -6.634   9.367  69.030  1.00  0.00    -0.046 C  
HETATM   17  N   UNL     1      -6.098  10.446  71.107  1.00  0.00    -0.330 NA 
HETATM   18  C   UNL     1      -8.400  10.788  70.261  1.00  0.00     1.405 C  
BRANCH  11  19
HETATM   19  C   UNL     1      -9.397   6.931  71.713  1.00  0.00    -0.145 C  
HETATM   20  C   UNL     1     -11.969   7.103  71.418  1.00  0.00    -0.364 C  
HETATM   21  C   UNL     1     -10.789   6.950  72.401  1.00  0.00    -0.267 C  
HETATM   22  C   UNL     1     -10.953   5.696  73.300  1.00  0.00    -0.316 C  
HETATM   23  C   UNL     1     -12.246   5.917  70.504  1.00  0.00     1.229 C  
BRANCH  22  24
HETATM   24  C   UNL     1      -9.903   5.541  74.415  1.00  0.00    -0.223 C  
BRANCH  24  25
HETATM   25  C   UNL     1      -8.530   5.093  73.911  1.00  0.00    -0.110 C  
HETATM   26  C   UNL     1      -7.494   6.199  74.049  1.00  0.00    -0.087 C  
ENDBRANCH  24  25
ENDBRANCH  22  24
ENDBRANCH  11  19
ENDBRANCH   7   9
ENDBRANCH   3   4
ENDBRANCH   2   3
TORSDOF 6
ENDMDL
MODEL      244
REMARK 921   NORMALIZED FREE ENERGY PREDICTED BY IDOCK:    3.02 KCAL/MOL
REMARK 922        TOTAL FREE ENERGY PREDICTED BY IDOCK:    3.29 KCAL/MOL
REMARK 923 INTER-LIGAND FREE ENERGY PREDICTED BY IDOCK:   -3.00 KCAL/MOL
REMARK 924 INTRA-LIGAND FREE ENERGY PREDICTED BY IDOCK:    6.29 KCAL/MOL
REMARK 927      BINDING AFFINITY PREDICTED BY RF-SCORE:    0.00 PKD
ROOT
HETATM    1  C   UNL     1     -10.463   5.098  68.422  1.00  0.00    -0.084 C  
HETATM    2  C   UNL     1      -9.148   5.695  68.903  1.00  0.00    -0.125 C  
ENDROOT
BRANCH   2   3
HETATM    3  C   UNL     1      -9.253   7.213  68.994  1.00  0.00    -0.135 C  
BRANCH   3   4
HETATM    4  C   UNL     1      -8.059   7.911  68.338  1.00  0.00    -0.123 C  
HETATM    5  C   UNL     1      -8.030   9.424  68.631  1.00  0.00    -0.092 C  
HETATM    6  C   UNL     1      -7.983   9.786  70.136  1.00  0.00    -0.201 C  
HETATM    7  C   UNL     1      -6.867  10.125  67.889  1.00  0.00    -0.075 C  
HETATM    8  C   UNL     1      -6.711   9.378  70.866  1.00  0.00    -0.097 C  
BRANCH   7   9
HETATM    9  N   UNL     1      -6.907  10.073  66.423  1.00  0.00    -0.089 NA 
HETATM   10  C   UNL     1      -7.109   8.728  65.887  1.00  0.00    -0.084 C  
HETATM   11  N   UNL     1      -8.420   8.200  66.272  1.00  0.00    -0.124 NA 
HETATM   12  C   UNL     1      -9.481   9.029  65.647  1.00  0.00    -0.203 C  
HETATM   13  H1  UNL     1     -10.152  12.316  65.208  1.00  0.00     0.000 HD 
HETATM   14  C   UNL     1      -9.393  10.548  65.968  1.00  0.00    -0.178 C  
HETATM   15  H2  UNL     1     -11.175  10.991  64.963  1.00  0.00     0.000 HD 
HETATM   16  C   UNL     1     -10.000  10.861  67.346  1.00  0.00    -0.215 C  
HETATM   17  N   UNL     1     -10.210  11.320  64.997  1.00  0.00    -0.267 NA 
HETATM   18  C   UNL     1      -7.906  10.990  65.845  1.00  0.00    -0.034 C  
BRANCH  11  19
HETATM   19  C   UNL     1      -8.598   6.807  65.805  1.00  0.00    -0.137 C  
HETATM   20  C   UNL     1      -6.089   6.153  65.866  1.00  0.00    -0.033 C  
HETATM   21  C   UNL     1      -7.413   6.119  65.075  1.00  0.00    -0.082 C  
HETATM   22  C   UNL     1      -7.804   4.672  64.676  1.00  0.00    -0.087 C  
HETATM   23  C   UNL     1      -6.032   5.300  67.127  1.00  0.00    -0.026 C  
BRANCH  22  24
HETATM   24  C   UNL     1      -9.032   4.550  63.755  1.00  0.00    -0.135 C  
BRANCH  24  25
HETATM   25  C   UNL     1     -10.018   3.462  64.183  1.00  0.00    -0.185 C  
HETATM   26  C   UNL     1     -10.885   3.004  63.019  1.00  0.00    -0.192 C  
ENDBRANCH  24  25
ENDBRANCH  22  24
ENDBRANCH  11  19
ENDBRANCH   7   9
ENDBRANCH   3   4
ENDBRANCH   2   3
TORSDOF 6
ENDMDL
MODEL      245
REMARK 921   NORMALIZED FREE ENERGY PREDICTED BY IDOCK:    3.03 KCAL/MOL
REMARK 922        TOTAL FREE ENERGY PREDICTED BY IDOCK:    3.31 KCAL/MOL
REMARK 923 INTER-LIGAND FREE ENERGY PREDICTED BY IDOCK:   -3.05 KCAL/MOL
REMARK 924 INTRA-LIGAND FREE ENERGY PREDICTED BY IDOCK:    6.36 KCAL/MOL
REMARK 927      BINDING AFFINITY PREDICTED BY RF-SCORE:    0.00 PKD
ROOT
HETATM    1  C   UNL     1     -11.869   6.747  69.642  1.00  0.00    -0.049 C  
HETATM    2  C   UNL     1     -10.610   6.304  68.910  1.00  0.00    -0.321 C  
ENDROOT
BRANCH   2   3
HETATM    3  C   UNL     1     -10.559   6.918  67.515  1.00  0.00    -0.351 C  
BRANCH   3   4
HETATM    4  C   UNL     1      -9.159   6.836  66.903  1.00  0.00    -0.148 C  
HETATM    5  C   UNL     1      -8.317   5.698  67.513  1.00  0.00    -0.100 C  
HETATM    6  C   UNL     1      -8.945   4.290  67.373  1.00  0.00    -0.134 C  
HETATM    7  C   UNL     1      -6.878   5.687  66.944  1.00  0.00    -0.063 C  
HETATM    8  C   UNL     1      -9.059   3.764  65.949  1.00  0.00    -0.150 C  
BRANCH   7   9
HETATM    9  N   UNL     1      -6.064   6.879  67.212  1.00  0.00    -0.034 NA 
HETATM   10  C   UNL     1      -6.783   8.137  67.019  1.00  0.00    -0.065 C  
HETATM   11  N   UNL     1      -7.884   8.267  67.976  1.00  0.00    -0.116 NA 
HETATM   12  C   UNL     1      -7.328   8.347  69.349  1.00  0.00    -0.070 C  
HETATM   13  H1  UNL     1      -4.981   6.752  71.192  1.00  0.00     0.000 HD 
HETATM   14  C   UNL     1      -6.401   7.163  69.745  1.00  0.00    -0.035 C  
HETATM   15  H2  UNL     1      -6.168   7.838  71.713  1.00  0.00     0.000 HD 
HETATM   16  C   UNL     1      -7.222   5.937  70.180  1.00  0.00    -0.072 C  
HETATM   17  N   UNL     1      -5.588   7.529  70.933  1.00  0.00    -0.030 NA 
HETATM   18  C   UNL     1      -5.449   6.863  68.551  1.00  0.00    -0.017 C  
BRANCH  11  19
HETATM   19  C   UNL     1      -8.669   9.498  67.732  1.00  0.00    -0.115 C  
HETATM   20  C   UNL     1      -7.947   9.823  65.262  1.00  0.00    -0.123 C  
HETATM   21  C   UNL     1      -8.172  10.482  66.639  1.00  0.00    -0.129 C  
HETATM   22  C   UNL     1      -9.133  11.696  66.541  1.00  0.00    -0.200 C  
HETATM   23  C   UNL     1      -9.194   9.359  64.521  1.00  0.00    -0.155 C  
BRANCH  22  24
HETATM   24  C   UNL     1      -9.302  12.510  67.836  1.00  0.00    -0.200 C  
BRANCH  24  25
HETATM   25  C   UNL     1      -9.303  14.024  67.618  1.00  0.00    -0.203 C  
HETATM   26  C   UNL     1      -8.612  14.755  68.760  1.00  0.00    -0.170 C  
ENDBRANCH  24  25
ENDBRANCH  22  24
ENDBRANCH  11  19
ENDBRANCH   7   9
ENDBRANCH   3   4
ENDBRANCH   2   3
TORSDOF 6
ENDMDL
MODEL      246
REMARK 921   NORMALIZED FREE ENERGY PREDICTED BY IDOCK:    3.13 KCAL/MOL
REMARK 922        TOTAL FREE ENERGY PREDICTED BY IDOCK:    3.44 KCAL/MOL
REMARK 923 INTER-LIGAND FREE ENERGY PREDICTED BY IDOCK:   -2.45 KCAL/MOL
REMARK 924 INTRA-LIGAND FREE ENERGY PREDICTED BY IDOCK:    5.89 KCAL/MOL
REMARK 927      BINDING AFFINITY PREDICTED BY RF-SCORE:    0.00 PKD
ROOT
HETATM    1  C   UNL     1     -11.755   7.316  69.279  1.00  0.00     0.497 C  
HETATM    2  C   UNL     1     -10.393   7.054  68.652  1.00  0.00    -0.200 C  
ENDROOT
BRANCH   2   3
HETATM    3  C   UNL     1     -10.382   7.498  67.194  1.00  0.00    -0.384 C  
BRANCH   3   4
HETATM    4  C   UNL     1      -9.202   6.904  66.422  1.00  0.00    -0.186 C  
HETATM    5  C   UNL     1      -8.894   5.454  66.843  1.00  0.00    -0.111 C  
HETATM    6  C   UNL     1     -10.077   4.470  66.668  1.00  0.00    -0.238 C  
HETATM    7  C   UNL     1      -7.645   4.903  66.115  1.00  0.00    -0.091 C  
HETATM    8  C   UNL     1     -10.506   4.214  65.231  1.00  0.00    -0.156 C  
BRANCH   7   9
HETATM    9  N   UNL     1      -6.380   5.599  66.378  1.00  0.00    -0.034 NA 
HETATM   10  C   UNL     1      -6.525   7.045  66.533  1.00  0.00    -0.051 C  
HETATM   11  N   UNL     1      -7.332   7.369  67.712  1.00  0.00    -0.090 NA 
HETATM   12  C   UNL     1      -6.615   6.920  68.931  1.00  0.00    -0.044 C  
HETATM   13  H1  UNL     1      -4.927   4.177  69.970  1.00  0.00     0.000 HD 
HETATM   14  C   UNL     1      -6.225   5.415  68.938  1.00  0.00    -0.033 C  
HETATM   15  H2  UNL     1      -5.470   5.490  70.889  1.00  0.00     0.000 HD 
HETATM   16  C   UNL     1      -7.417   4.534  69.349  1.00  0.00    -0.055 C  
HETATM   17  N   UNL     1      -5.183   5.165  69.966  1.00  0.00    -0.003 NA 
HETATM   18  C   UNL     1      -5.655   5.048  67.537  1.00  0.00    -0.013 C  
BRANCH  11  19
HETATM   19  C   UNL     1      -7.554   8.828  67.828  1.00  0.00    -0.097 C  
HETATM   20  C   UNL     1      -7.561   8.920  70.421  1.00  0.00    -0.088 C  
HETATM   21  C   UNL     1      -8.243   9.367  69.111  1.00  0.00    -0.112 C  
HETATM   22  C   UNL     1      -8.375  10.911  69.033  1.00  0.00    -0.118 C  
HETATM   23  C   UNL     1      -6.186   9.511  70.704  1.00  0.00    -0.077 C  
BRANCH  22  24
HETATM   24  C   UNL     1      -9.177  11.445  67.833  1.00  0.00    -0.164 C  
BRANCH  24  25
HETATM   25  C   UNL     1     -10.600  11.880  68.186  1.00  0.00    -0.233 C  
HETATM   26  C   UNL     1     -11.535  11.763  66.991  1.00  0.00    -0.368 C  
ENDBRANCH  24  25
ENDBRANCH  22  24
ENDBRANCH  11  19
ENDBRANCH   7   9
ENDBRANCH   3   4
ENDBRANCH   2   3
TORSDOF 6
ENDMDL
MODEL      247
REMARK 921   NORMALIZED FREE ENERGY PREDICTED BY IDOCK:    3.20 KCAL/MOL
REMARK 922        TOTAL FREE ENERGY PREDICTED BY IDOCK:    3.53 KCAL/MOL
REMARK 923 INTER-LIGAND FREE ENERGY PREDICTED BY IDOCK:   -2.38 KCAL/MOL
REMARK 924 INTRA-LIGAND FREE ENERGY PREDICTED BY IDOCK:    5.91 KCAL/MOL
REMARK 927      BINDING AFFINITY PREDICTED BY RF-SCORE:    0.00 PKD
ROOT
HETATM    1  C   UNL     1     -10.453   4.276  65.583  1.00  0.00    -0.153 C  
HETATM    2  C   UNL     1      -9.806   4.973  66.771  1.00  0.00    -0.212 C  
ENDROOT
BRANCH   2   3
HETATM    3  C   UNL     1      -8.767   5.984  66.297  1.00  0.00    -0.138 C  
BRANCH   3   4
HETATM    4  C   UNL     1      -7.347   5.577  66.693  1.00  0.00    -0.083 C  
HETATM    5  C   UNL     1      -7.101   4.064  66.526  1.00  0.00    -0.064 C  
HETATM    6  C   UNL     1      -7.330   3.532  65.090  1.00  0.00    -0.072 C  
HETATM    7  C   UNL     1      -5.689   3.660  67.014  1.00  0.00    -0.022 C  
HETATM    8  C   UNL     1      -6.358   4.048  64.039  1.00  0.00    -0.030 C  
BRANCH   7   9
HETATM    9  N   UNL     1      -5.404   3.885  68.436  1.00  0.00    -0.012 NA 
HETATM   10  C   UNL     1      -6.055   5.074  68.985  1.00  0.00    -0.029 C  
HETATM   11  N   UNL     1      -7.513   4.935  68.959  1.00  0.00    -0.060 NA 
HETATM   12  C   UNL     1      -7.911   3.825  69.859  1.00  0.00    -0.050 C  
HETATM   13  H1  UNL     1      -6.917   0.657  70.514  1.00  0.00     0.000 HD 
HETATM   14  C   UNL     1      -7.231   2.461  69.550  1.00  0.00    -0.043 C  
HETATM   15  H2  UNL     1      -8.335   1.438  71.005  1.00  0.00     0.000 HD 
HETATM   16  C   UNL     1      -7.937   1.737  68.392  1.00  0.00    -0.063 C  
HETATM   17  N   UNL     1      -7.363   1.552  70.717  1.00  0.00    -0.033 NA 
HETATM   18  C   UNL     1      -5.721   2.717  69.275  1.00  0.00    -0.022 C  
BRANCH  11  19
HETATM   19  C   UNL     1      -8.180   6.167  69.434  1.00  0.00    -0.113 C  
HETATM   20  C   UNL     1      -6.157   7.752  69.084  1.00  0.00    -0.035 C  
HETATM   21  C   UNL     1      -7.298   7.302  70.020  1.00  0.00    -0.083 C  
HETATM   22  C   UNL     1      -8.188   8.497  70.452  1.00  0.00    -0.114 C  
HETATM   23  C   UNL     1      -6.572   8.493  67.820  1.00  0.00    -0.062 C  
BRANCH  22  24
HETATM   24  C   UNL     1      -9.262   8.172  71.506  1.00  0.00    -0.209 C  
BRANCH  24  25
HETATM   25  C   UNL     1     -10.695   8.332  70.996  1.00  0.00    -0.256 C  
HETATM   26  C   UNL     1     -11.703   8.298  72.135  1.00  0.00    -0.429 C  
ENDBRANCH  24  25
ENDBRANCH  22  24
ENDBRANCH  11  19
ENDBRANCH   7   9
ENDBRANCH   3   4
ENDBRANCH   2   3
TORSDOF 6
ENDMDL
MODEL      248
REMARK 921   NORMALIZED FREE ENERGY PREDICTED BY IDOCK:    3.27 KCAL/MOL
REMARK 922        TOTAL FREE ENERGY PREDICTED BY IDOCK:    3.63 KCAL/MOL
REMARK 923 INTER-LIGAND FREE ENERGY PREDICTED BY IDOCK:   -1.49 KCAL/MOL
REMARK 924 INTRA-LIGAND FREE ENERGY PREDICTED BY IDOCK:    5.12 KCAL/MOL
REMARK 927      BINDING AFFINITY PREDICTED BY RF-SCORE:    0.00 PKD
ROOT
HETATM    1  C   UNL     1     -10.201  13.130  66.450  1.00  0.00    -0.286 C  
HETATM    2  C   UNL     1      -8.741  13.379  66.798  1.00  0.00    -0.093 C  
ENDROOT
BRANCH   2   3
HETATM    3  C   UNL     1      -7.970  12.064  66.840  1.00  0.00    -0.112 C  
BRANCH   3   4
HETATM    4  C   UNL     1      -8.584  11.070  67.828  1.00  0.00    -0.130 C  
HETATM    5  C   UNL     1     -10.123  11.029  67.741  1.00  0.00    -0.201 C  
HETATM    6  C   UNL     1     -10.677  10.664  66.342  1.00  0.00    -0.198 C  
HETATM    7  C   UNL     1     -10.728  10.085  68.806  1.00  0.00    -0.223 C  
HETATM    8  C   UNL     1     -10.376   9.250  65.869  1.00  0.00     0.126 C  
BRANCH   7   9
HETATM    9  N   UNL     1     -10.486  10.446  70.208  1.00  0.00    -0.155 NA 
HETATM   10  C   UNL     1     -10.818  11.834  70.523  1.00  0.00     1.733 C  
HETATM   11  N   UNL     1     -12.252  12.082  70.361  1.00  0.00    -0.325 NA 
HETATM   12  C   UNL     1     -13.001  11.271  71.353  1.00  0.00    -0.379 C  
HETATM   13  H1  UNL     1     -12.966   8.096  72.522  1.00  0.00     0.000 HD 
HETATM   14  C   UNL     1     -12.705   9.745  71.301  1.00  0.00    -0.369 C  
HETATM   15  H2  UNL     1     -14.143   9.289  72.752  1.00  0.00     0.000 HD 
HETATM   16  C   UNL     1     -13.506   9.062  70.180  1.00  0.00     1.666 C  
HETATM   17  N   UNL     1     -13.161   9.096  72.557  1.00  0.00    -0.420 NA 
HETATM   18  C   UNL     1     -11.168   9.547  71.156  1.00  0.00    -0.376 C  
BRANCH  11  19
HETATM   19  C   UNL     1     -12.583  13.505  70.597  1.00  0.00    -0.275 C  
HETATM   20  C   UNL     1     -10.519  14.493  69.376  1.00  0.00    -0.139 C  
HETATM   21  C   UNL     1     -11.422  14.535  70.626  1.00  0.00    -0.216 C  
HETATM   22  C   UNL     1     -11.981  15.959  70.880  1.00  0.00    -0.432 C  
HETATM   23  C   UNL     1     -11.144  14.978  68.074  1.00  0.00    -0.304 C  
BRANCH  22  24
HETATM   24  C   UNL     1     -12.772  16.134  72.190  1.00  0.00    -0.330 C  
BRANCH  24  25
HETATM   25  C   UNL     1     -14.142  15.454  72.180  1.00  0.00    -0.651 C  
HETATM   26  C   UNL     1     -14.161  14.219  73.068  1.00  0.00     0.596 C  
ENDBRANCH  24  25
ENDBRANCH  22  24
ENDBRANCH  11  19
ENDBRANCH   7   9
ENDBRANCH   3   4
ENDBRANCH   2   3
TORSDOF 6
ENDMDL
MODEL      249
REMARK 921   NORMALIZED FREE ENERGY PREDICTED BY IDOCK:    3.38 KCAL/MOL
REMARK 922        TOTAL FREE ENERGY PREDICTED BY IDOCK:    3.78 KCAL/MOL
REMARK 923 INTER-LIGAND FREE ENERGY PREDICTED BY IDOCK:    2.73 KCAL/MOL
REMARK 924 INTRA-LIGAND FREE ENERGY PREDICTED BY IDOCK:    1.05 KCAL/MOL
REMARK 927      BINDING AFFINITY PREDICTED BY RF-SCORE:    0.00 PKD
ROOT
HETATM    1  C   UNL     1      -6.395  19.676  64.889  1.00  0.00    -0.312 C  
HETATM    2  C   UNL     1      -7.647  18.845  64.644  1.00  0.00     2.701 C  
ENDROOT
BRANCH   2   3
HETATM    3  C   UNL     1      -8.278  18.427  65.967  1.00  0.00    -0.084 C  
BRANCH   3   4
HETATM    4  C   UNL     1      -8.601  16.931  66.002  1.00  0.00    -0.194 C  
HETATM    5  C   UNL     1     -10.050  16.654  66.447  1.00  0.00    -0.325 C  
HETATM    6  C   UNL     1     -11.132  17.321  65.562  1.00  0.00     0.266 C  
HETATM    7  C   UNL     1     -10.330  15.136  66.559  1.00  0.00    -0.282 C  
HETATM    8  C   UNL     1     -11.218  16.802  64.134  1.00  0.00     0.944 C  
BRANCH   7   9
HETATM    9  N   UNL     1      -9.535  14.401  67.549  1.00  0.00    -0.204 NA 
HETATM   10  C   UNL     1      -8.640  15.250  68.333  1.00  0.00    -0.160 C  
HETATM   11  N   UNL     1      -9.399  16.195  69.156  1.00  0.00    -0.240 NA 
HETATM   12  C   UNL     1     -10.192  15.441  70.157  1.00  0.00    -0.196 C  
HETATM   13  H1  UNL     1     -12.178  12.702  70.225  1.00  0.00     0.000 HD 
HETATM   14  C   UNL     1     -11.138  14.362  69.558  1.00  0.00    -0.231 C  
HETATM   15  H2  UNL     1     -11.977  13.886  71.416  1.00  0.00     0.000 HD 
HETATM   16  C   UNL     1     -12.443  14.992  69.043  1.00  0.00     0.072 C  
HETATM   17  N   UNL     1     -11.558  13.409  70.618  1.00  0.00     0.083 NA 
HETATM   18  C   UNL     1     -10.362  13.585  68.456  1.00  0.00    -0.240 C  
BRANCH  11  19
HETATM   19  C   UNL     1      -8.500  17.115  69.888  1.00  0.00     1.561 C  
HETATM   20  C   UNL     1      -9.182  19.270  68.617  1.00  0.00    -0.436 C  
HETATM   21  C   UNL     1      -8.029  18.409  69.172  1.00  0.00    -0.009 C  
HETATM   22  C   UNL     1      -7.104  19.228  70.109  1.00  0.00     0.354 C  
HETATM   23  C   UNL     1     -10.069  19.958  69.646  1.00  0.00     0.013 C  
BRANCH  22  24
HETATM   24  C   UNL     1      -5.839  18.496  70.594  1.00  0.00    -0.005 C  
BRANCH  24  25
HETATM   25  C   UNL     1      -5.218  17.575  69.543  1.00  0.00    -0.177 C  
HETATM   26  C   UNL     1      -5.173  18.237  68.174  1.00  0.00    -0.169 C  
ENDBRANCH  24  25
ENDBRANCH  22  24
ENDBRANCH  11  19
ENDBRANCH   7   9
ENDBRANCH   3   4
ENDBRANCH   2   3
TORSDOF 6
ENDMDL
MODEL      250
REMARK 921   NORMALIZED FREE ENERGY PREDICTED BY IDOCK:    3.49 KCAL/MOL
REMARK 922        TOTAL FREE ENERGY PREDICTED BY IDOCK:    3.92 KCAL/MOL
REMARK 923 INTER-LIGAND FREE ENERGY PREDICTED BY IDOCK:   -3.88 KCAL/MOL
REMARK 924 INTRA-LIGAND FREE ENERGY PREDICTED BY IDOCK:    7.81 KCAL/MOL
REMARK 927      BINDING AFFINITY PREDICTED BY RF-SCORE:    0.00 PKD
ROOT
HETATM    1  C   UNL     1     -10.523  16.362  70.028  1.00  0.00    -0.131 C  
HETATM    2  C   UNL     1      -9.715  15.151  69.584  1.00  0.00    -0.145 C  
ENDROOT
BRANCH   2   3
HETATM    3  C   UNL     1     -10.530  14.284  68.631  1.00  0.00    -0.249 C  
BRANCH   3   4
HETATM    4  C   UNL     1      -9.890  14.197  67.244  1.00  0.00    -0.238 C  
HETATM    5  C   UNL     1     -10.665  15.008  66.187  1.00  0.00    -0.328 C  
HETATM    6  C   UNL     1     -10.812  16.514  66.514  1.00  0.00    -0.046 C  
HETATM    7  C   UNL     1     -10.053  14.837  64.776  1.00  0.00    -0.029 C  
HETATM    8  C   UNL     1      -9.515  17.310  66.519  1.00  0.00    -0.286 C  
BRANCH   7   9
HETATM    9  N   UNL     1     -10.065  13.477  64.223  1.00  0.00    -0.234 NA 
HETATM   10  C   UNL     1      -9.534  12.467  65.136  1.00  0.00     0.164 C  
HETATM   11  N   UNL     1     -10.372  12.344  66.331  1.00  0.00    -0.231 NA 
HETATM   12  C   UNL     1     -11.711  11.843  65.936  1.00  0.00    -0.136 C  
HETATM   13  H1  UNL     1     -14.008  12.473  63.532  1.00  0.00     0.000 HD 
HETATM   14  C   UNL     1     -12.431  12.696  64.854  1.00  0.00    -0.494 C  
HETATM   15  H2  UNL     1     -14.185  11.556  64.942  1.00  0.00     0.000 HD 
HETATM   16  C   UNL     1     -13.108  13.928  65.477  1.00  0.00    -0.232 C  
HETATM   17  N   UNL     1     -13.535  11.913  64.242  1.00  0.00    -0.288 NA 
HETATM   18  C   UNL     1     -11.398  13.064  63.750  1.00  0.00    -0.383 C  
BRANCH  11  19
HETATM   19  C   UNL     1      -9.795  11.384  67.298  1.00  0.00    -0.189 C  
HETATM   20  C   UNL     1     -11.541  11.771  69.176  1.00  0.00    -0.372 C  
HETATM   21  C   UNL     1     -10.050  11.621  68.811  1.00  0.00    -0.169 C  
HETATM   22  C   UNL     1      -9.367  10.506  69.645  1.00  0.00    -0.010 C  
HETATM   23  C   UNL     1     -12.398  10.518  69.053  1.00  0.00     0.333 C  
BRANCH  22  24
HETATM   24  C   UNL     1      -7.844  10.381  69.459  1.00  0.00    -0.161 C  
BRANCH  24  25
HETATM   25  C   UNL     1      -7.115  11.725  69.418  1.00  0.00     0.025 C  
HETATM   26  C   UNL     1      -5.604  11.544  69.423  1.00  0.00    -0.056 C  
ENDBRANCH  24  25
ENDBRANCH  22  24
ENDBRANCH  11  19
ENDBRANCH   7   9
ENDBRANCH   3   4
ENDBRANCH   2   3
TORSDOF 6
ENDMDL
MODEL      251
REMARK 921   NORMALIZED FREE ENERGY PREDICTED BY IDOCK:    3.84 KCAL/MOL
REMARK 922        TOTAL FREE ENERGY PREDICTED BY IDOCK:    4.40 KCAL/MOL
REMARK 923 INTER-LIGAND FREE ENERGY PREDICTED BY IDOCK:   -4.84 KCAL/MOL
REMARK 924 INTRA-LIGAND FREE ENERGY PREDICTED BY IDOCK:    9.24 KCAL/MOL
REMARK 927      BINDING AFFINITY PREDICTED BY RF-SCORE:    0.00 PKD
ROOT
HETATM    1  C   UNL     1     -12.442  13.963  65.611  1.00  0.00    -0.538 C  
HETATM    2  C   UNL     1     -12.496  13.750  67.117  1.00  0.00    -0.086 C  
ENDROOT
BRANCH   2   3
HETATM    3  C   UNL     1     -11.536  12.641  67.534  1.00  0.00    -0.397 C  
BRANCH   3   4
HETATM    4  C   UNL     1     -10.445  13.152  68.479  1.00  0.00    -0.262 C  
HETATM    5  C   UNL     1     -10.685  14.609  68.919  1.00  0.00    -0.251 C  
HETATM    6  C   UNL     1     -12.037  14.850  69.633  1.00  0.00    -0.334 C  
HETATM    7  C   UNL     1      -9.528  15.135  69.802  1.00  0.00    -0.032 C  
HETATM    8  C   UNL     1     -12.194  14.165  70.983  1.00  0.00    -0.432 C  
BRANCH   7   9
HETATM    9  N   UNL     1      -8.204  15.194  69.171  1.00  0.00    -0.202 NA 
HETATM   10  C   UNL     1      -7.795  13.939  68.543  1.00  0.00    -0.139 C  
HETATM   11  N   UNL     1      -8.679  13.597  67.426  1.00  0.00    -0.202 NA 
HETATM   12  C   UNL     1      -8.539  14.624  66.364  1.00  0.00     0.138 C  
HETATM   13  H1  UNL     1      -8.413  17.999  66.151  1.00  0.00     0.000 HD 
HETATM   14  C   UNL     1      -8.798  16.083  66.833  1.00  0.00    -0.231 C  
HETATM   15  H2  UNL     1      -8.604  16.872  64.904  1.00  0.00     0.000 HD 
HETATM   16  C   UNL     1     -10.304  16.390  66.891  1.00  0.00    -0.300 C  
HETATM   17  N   UNL     1      -8.243  17.041  65.843  1.00  0.00    -0.492 NA 
HETATM   18  C   UNL     1      -8.083  16.295  68.199  1.00  0.00    -0.158 C  
BRANCH  11  19
HETATM   19  C   UNL     1      -8.323  12.286  66.839  1.00  0.00    -0.137 C  
HETATM   20  C   UNL     1     -10.205  12.241  65.054  1.00  0.00    -0.312 C  
HETATM   21  C   UNL     1      -9.442  11.462  66.146  1.00  0.00    -0.237 C  
HETATM   22  C   UNL     1      -8.860  10.132  65.599  1.00  0.00    -0.185 C  
HETATM   23  C   UNL     1      -9.426  12.570  63.788  1.00  0.00     0.554 C  
BRANCH  22  24
HETATM   24  C   UNL     1      -8.210   9.214  66.649  1.00  0.00    -0.115 C  
BRANCH  24  25
HETATM   25  C   UNL     1      -9.130   8.867  67.820  1.00  0.00    -0.143 C  
HETATM   26  C   UNL     1     -10.533   8.518  67.346  1.00  0.00    -0.351 C  
ENDBRANCH  24  25
ENDBRANCH  22  24
ENDBRANCH  11  19
ENDBRANCH   7   9
ENDBRANCH   3   4
ENDBRANCH   2   3
TORSDOF 6
ENDMDL
MODEL      252
REMARK 921   NORMALIZED FREE ENERGY PREDICTED BY IDOCK:    5.36 KCAL/MOL
REMARK 922        TOTAL FREE ENERGY PREDICTED BY IDOCK:    6.45 KCAL/MOL
REMARK 923 INTER-LIGAND FREE ENERGY PREDICTED BY IDOCK:   -1.65 KCAL/MOL
REMARK 924 INTRA-LIGAND FREE ENERGY PREDICTED BY IDOCK:    8.11 KCAL/MOL
REMARK 927      BINDING AFFINITY PREDICTED BY RF-SCORE:    0.00 PKD
ROOT
HETATM    1  C   UNL     1     -10.982   7.742  69.129  1.00  0.00     0.029 C  
HETATM    2  C   UNL     1      -9.624   7.415  68.526  1.00  0.00    -0.146 C  
ENDROOT
BRANCH   2   3
HETATM    3  C   UNL     1      -8.572   7.278  69.621  1.00  0.00    -0.137 C  
BRANCH   3   4
HETATM    4  C   UNL     1      -7.185   7.713  69.143  1.00  0.00    -0.080 C  
HETATM    5  C   UNL     1      -7.123   9.217  68.811  1.00  0.00    -0.073 C  
HETATM    6  C   UNL     1      -7.499  10.150  69.988  1.00  0.00    -0.171 C  
HETATM    7  C   UNL     1      -5.740   9.619  68.248  1.00  0.00    -0.040 C  
HETATM    8  C   UNL     1      -6.541  10.129  71.170  1.00  0.00     0.292 C  
BRANCH   7   9
HETATM    9  N   UNL     1      -5.344   8.986  66.984  1.00  0.00    -0.039 NA 
HETATM   10  C   UNL     1      -5.374   7.525  67.024  1.00  0.00    -0.026 C  
HETATM   11  N   UNL     1      -6.738   7.032  67.227  1.00  0.00    -0.064 NA 
HETATM   12  C   UNL     1      -7.569   7.404  66.056  1.00  0.00    -0.088 C  
HETATM   13  H1  UNL     1      -8.091  10.134  64.126  1.00  0.00     0.000 HD 
HETATM   14  C   UNL     1      -7.585   8.923  65.726  1.00  0.00    -0.090 C  
HETATM   15  H2  UNL     1      -8.991   8.703  64.190  1.00  0.00     0.000 HD 
HETATM   16  C   UNL     1      -8.573   9.678  66.630  1.00  0.00    -0.137 C  
HETATM   17  N   UNL     1      -8.080   9.137  64.342  1.00  0.00    -0.137 NA 
HETATM   18  C   UNL     1      -6.129   9.464  65.833  1.00  0.00    -0.056 C  
BRANCH  11  19
HETATM   19  C   UNL     1      -6.765   5.557  67.353  1.00  0.00    -0.059 C  
HETATM   20  C   UNL     1      -8.834   5.170  65.837  1.00  0.00    -0.142 C  
HETATM   21  C   UNL     1      -8.122   4.828  67.163  1.00  0.00    -0.102 C  
HETATM   22  C   UNL     1      -7.930   3.298  67.330  1.00  0.00    -0.077 C  
HETATM   23  C   UNL     1      -8.180   4.649  64.564  1.00  0.00    -0.111 C  
BRANCH  22  24
HETATM   24  C   UNL     1      -7.364   2.848  68.689  1.00  0.00    -0.049 C  
BRANCH  24  25
HETATM   25  C   UNL     1      -8.377   2.917  69.833  1.00  0.00    -0.077 C  
HETATM   26  C   UNL     1      -8.236   4.206  70.630  1.00  0.00    -0.074 C  
ENDBRANCH  24  25
ENDBRANCH  22  24
ENDBRANCH  11  19
ENDBRANCH   7   9
ENDBRANCH   3   4
ENDBRANCH   2   3
TORSDOF 6
ENDMDL
MODEL      253
REMARK 921   NORMALIZED FREE ENERGY PREDICTED BY IDOCK:    5.64 KCAL/MOL
REMARK 922        TOTAL FREE ENERGY PREDICTED BY IDOCK:    6.83 KCAL/MOL
REMARK 923 INTER-LIGAND FREE ENERGY PREDICTED BY IDOCK:   -1.80 KCAL/MOL
REMARK 924 INTRA-LIGAND FREE ENERGY PREDICTED BY IDOCK:    8.63 KCAL/MOL
REMARK 927      BINDING AFFINITY PREDICTED BY RF-SCORE:    0.00 PKD
ROOT
HETATM    1  C   UNL     1      -8.745  10.688  65.361  1.00  0.00    -0.195 C  
HETATM    2  C   UNL     1      -8.254   9.890  64.161  1.00  0.00    -0.159 C  
ENDROOT
BRANCH   2   3
HETATM    3  C   UNL     1      -8.706   8.438  64.265  1.00  0.00     0.150 C  
BRANCH   3   4
HETATM    4  C   UNL     1      -8.311   7.808  65.603  1.00  0.00    -0.143 C  
HETATM    5  C   UNL     1      -7.513   6.502  65.425  1.00  0.00    -0.080 C  
HETATM    6  C   UNL     1      -6.209   6.653  64.604  1.00  0.00    -0.038 C  
HETATM    7  C   UNL     1      -7.198   5.836  66.785  1.00  0.00    -0.074 C  
HETATM    8  C   UNL     1      -5.126   7.506  65.249  1.00  0.00    -0.028 C  
BRANCH   7   9
HETATM    9  N   UNL     1      -8.355   5.410  67.583  1.00  0.00    -0.100 NA 
HETATM   10  C   UNL     1      -9.084   6.517  68.199  1.00  0.00    -0.114 C  
HETATM   11  N   UNL     1      -9.685   7.383  67.182  1.00  0.00    -0.158 NA 
HETATM   12  C   UNL     1     -10.710   6.614  66.433  1.00  0.00     0.229 C  
HETATM   13  H1  UNL     1     -10.998   3.557  65.011  1.00  0.00     0.000 HD 
HETATM   14  C   UNL     1     -10.192   5.298  65.788  1.00  0.00     0.019 C  
HETATM   15  H2  UNL     1     -12.015   4.898  64.839  1.00  0.00     0.000 HD 
HETATM   16  C   UNL     1      -9.472   5.576  64.458  1.00  0.00     0.646 C  
HETATM   17  N   UNL     1     -11.338   4.421  65.434  1.00  0.00     0.250 NA 
HETATM   18  C   UNL     1      -9.292   4.564  66.824  1.00  0.00    -0.150 C  
BRANCH  11  19
HETATM   19  C   UNL     1     -10.354   8.552  67.795  1.00  0.00    -0.237 C  
HETATM   20  C   UNL     1      -8.218   9.606  68.823  1.00  0.00    -0.106 C  
HETATM   21  C   UNL     1      -9.693   9.208  69.038  1.00  0.00    -0.166 C  
HETATM   22  C   UNL     1     -10.546  10.412  69.518  1.00  0.00    -0.274 C  
HETATM   23  C   UNL     1      -7.961  10.760  67.863  1.00  0.00    -0.110 C  
BRANCH  22  24
HETATM   24  C   UNL     1     -11.999  10.079  69.903  1.00  0.00    -0.084 C  
BRANCH  24  25
HETATM   25  C   UNL     1     -12.413  10.619  71.273  1.00  0.00    -0.515 C  
HETATM   26  C   UNL     1     -13.636   9.893  71.815  1.00  0.00    -0.363 C  
ENDBRANCH  24  25
ENDBRANCH  22  24
ENDBRANCH  11  19
ENDBRANCH   7   9
ENDBRANCH   3   4
ENDBRANCH   2   3
TORSDOF 6
ENDMDL
MODEL      254
REMARK 921   NORMALIZED FREE ENERGY PREDICTED BY IDOCK:    6.94 KCAL/MOL
REMARK 922        TOTAL FREE ENERGY PREDICTED BY IDOCK:    8.58 KCAL/MOL
REMARK 923 INTER-LIGAND FREE ENERGY PREDICTED BY IDOCK:   -2.02 KCAL/MOL
REMARK 924 INTRA-LIGAND FREE ENERGY PREDICTED BY IDOCK:   10.60 KCAL/MOL
REMARK 927      BINDING AFFINITY PREDICTED BY RF-SCORE:    0.00 PKD
ROOT
HETATM    1  C   UNL     1      -9.563   5.179  70.025  1.00  0.00    -0.247 C  
HETATM    2  C   UNL     1      -8.645   5.959  70.956  1.00  0.00    -0.131 C  
ENDROOT
BRANCH   2   3
HETATM    3  C   UNL     1      -8.764   7.456  70.692  1.00  0.00    -0.142 C  
BRANCH   3   4
HETATM    4  C   UNL     1      -7.910   7.899  69.502  1.00  0.00    -0.110 C  
HETATM    5  C   UNL     1      -6.404   7.681  69.746  1.00  0.00    -0.031 C  
HETATM    6  C   UNL     1      -6.009   6.216  70.054  1.00  0.00    -0.025 C  
HETATM    7  C   UNL     1      -5.553   8.214  68.569  1.00  0.00    -0.033 C  
HETATM    8  C   UNL     1      -6.209   5.232  68.911  1.00  0.00    -0.030 C  
BRANCH   7   9
HETATM    9  N   UNL     1      -5.640   9.656  68.306  1.00  0.00    -0.040 NA 
HETATM   10  C   UNL     1      -6.907  10.069  67.706  1.00  0.00    -0.076 C  
HETATM   11  N   UNL     1      -8.025   9.833  68.623  1.00  0.00    -0.088 NA 
HETATM   12  C   UNL     1      -7.863  10.697  69.819  1.00  0.00     0.045 C  
HETATM   13  H1  UNL     1      -5.386  11.582  71.947  1.00  0.00     0.000 HD 
HETATM   14  C   UNL     1      -6.508  10.531  70.562  1.00  0.00    -0.067 C  
HETATM   15  H2  UNL     1      -7.051  11.836  72.106  1.00  0.00     0.000 HD 
HETATM   16  C   UNL     1      -6.528   9.303  71.487  1.00  0.00    -0.007 C  
HETATM   17  N   UNL     1      -6.275  11.691  71.460  1.00  0.00     0.819 NA 
HETATM   18  C   UNL     1      -5.370  10.473  69.502  1.00  0.00    -0.038 C  
BRANCH  11  19
HETATM   19  C   UNL     1      -9.321  10.170  67.992  1.00  0.00    -0.141 C  
HETATM   20  C   UNL     1      -8.349  10.921  65.707  1.00  0.00    -0.133 C  
HETATM   21  C   UNL     1      -9.332  11.229  66.856  1.00  0.00    -0.190 C  
HETATM   22  C   UNL     1     -10.778  11.429  66.332  1.00  0.00    -0.325 C  
HETATM   23  C   UNL     1      -8.687   9.724  64.829  1.00  0.00    -0.216 C  
BRANCH  22  24
HETATM   24  C   UNL     1     -11.804  11.888  67.385  1.00  0.00    -0.239 C  
BRANCH  24  25
HETATM   25  C   UNL     1     -11.173  12.377  68.689  1.00  0.00    -0.314 C  
HETATM   26  C   UNL     1     -10.573  13.767  68.535  1.00  0.00    -0.261 C  
ENDBRANCH  24  25
ENDBRANCH  22  24
ENDBRANCH  11  19
ENDBRANCH   7   9
ENDBRANCH   3   4
ENDBRANCH   2   3
TORSDOF 6
ENDMDL
MODEL      255
REMARK 921   NORMALIZED FREE ENERGY PREDICTED BY IDOCK:    8.29 KCAL/MOL
REMARK 922        TOTAL FREE ENERGY PREDICTED BY IDOCK:   10.41 KCAL/MOL
REMARK 923 INTER-LIGAND FREE ENERGY PREDICTED BY IDOCK:   -0.16 KCAL/MOL
REMARK 924 INTRA-LIGAND FREE ENERGY PREDICTED BY IDOCK:   10.57 KCAL/MOL
REMARK 927      BINDING AFFINITY PREDICTED BY RF-SCORE:    0.00 PKD
ROOT
HETATM    1  C   UNL     1      -8.018   8.902  64.065  1.00  0.00    -0.153 C  
HETATM    2  C   UNL     1      -8.252   8.217  62.726  1.00  0.00    -0.146 C  
ENDROOT
BRANCH   2   3
HETATM    3  C   UNL     1      -8.595   6.746  62.932  1.00  0.00     0.368 C  
BRANCH   3   4
HETATM    4  C   UNL     1      -8.030   6.203  64.246  1.00  0.00    -0.118 C  
HETATM    5  C   UNL     1      -7.595   4.728  64.133  1.00  0.00    -0.072 C  
HETATM    6  C   UNL     1      -6.528   4.456  63.044  1.00  0.00    -0.026 C  
HETATM    7  C   UNL     1      -7.107   4.173  65.492  1.00  0.00    -0.063 C  
HETATM    8  C   UNL     1      -5.165   5.087  63.293  1.00  0.00    -0.009 C  
BRANCH   7   9
HETATM    9  N   UNL     1      -8.099   4.143  66.574  1.00  0.00    -0.101 NA 
HETATM   10  C   UNL     1      -8.154   5.377  67.356  1.00  0.00    -0.101 C  
HETATM   11  N   UNL     1      -8.600   6.503  66.531  1.00  0.00    -0.119 NA 
HETATM   12  C   UNL     1      -9.996   6.260  66.092  1.00  0.00     0.121 C  
HETATM   13  H1  UNL     1     -11.809   3.701  64.823  1.00  0.00     0.000 HD 
HETATM   14  C   UNL     1     -10.217   4.917  65.341  1.00  0.00     0.009 C  
HETATM   15  H2  UNL     1     -12.225   5.337  64.921  1.00  0.00     0.000 HD 
HETATM   16  C   UNL     1      -9.803   5.031  63.865  1.00  0.00     0.672 C  
HETATM   17  N   UNL     1     -11.664   4.582  65.316  1.00  0.00     0.654 NA 
HETATM   18  C   UNL     1      -9.451   3.797  66.102  1.00  0.00    -0.175 C  
BRANCH  11  19
HETATM   19  C   UNL     1      -8.577   7.771  67.293  1.00  0.00    -0.128 C  
HETATM   20  C   UNL     1      -6.227   7.444  68.340  1.00  0.00    -0.036 C  
HETATM   21  C   UNL     1      -7.698   7.846  68.571  1.00  0.00    -0.114 C  
HETATM   22  C   UNL     1      -7.813   9.254  69.212  1.00  0.00    -0.085 C  
HETATM   23  C   UNL     1      -5.388   8.398  67.500  1.00  0.00    -0.034 C  
BRANCH  22  24
HETATM   24  C   UNL     1      -9.235   9.681  69.618  1.00  0.00    -0.225 C  
BRANCH  24  25
HETATM   25  C   UNL     1      -9.671  11.021  69.024  1.00  0.00    -0.151 C  
HETATM   26  C   UNL     1     -10.937  11.543  69.688  1.00  0.00    -0.129 C  
ENDBRANCH  24  25
ENDBRANCH  22  24
ENDBRANCH  11  19
ENDBRANCH   7   9
ENDBRANCH   3   4
ENDBRANCH   2   3
TORSDOF 6
ENDMDL
MODEL      256
REMARK 921   NORMALIZED FREE ENERGY PREDICTED BY IDOCK:    8.32 KCAL/MOL
REMARK 922        TOTAL FREE ENERGY PREDICTED BY IDOCK:   10.45 KCAL/MOL
REMARK 923 INTER-LIGAND FREE ENERGY PREDICTED BY IDOCK:    2.72 KCAL/MOL
REMARK 924 INTRA-LIGAND FREE ENERGY PREDICTED BY IDOCK:    7.73 KCAL/MOL
REMARK 927      BINDING AFFINITY PREDICTED BY RF-SCORE:    0.00 PKD
ROOT
HETATM    1  C   UNL     1     -11.170  18.587  64.678  1.00  0.00     3.076 C  
HETATM    2  C   UNL     1     -11.195  17.600  65.837  1.00  0.00     0.777 C  
ENDROOT
BRANCH   2   3
HETATM    3  C   UNL     1     -10.949  16.181  65.336  1.00  0.00    -0.235 C  
BRANCH   3   4
HETATM    4  C   UNL     1      -9.816  15.492  66.100  1.00  0.00    -0.342 C  
HETATM    5  C   UNL     1     -10.097  13.996  66.343  1.00  0.00    -0.299 C  
HETATM    6  C   UNL     1     -10.330  13.169  65.054  1.00  0.00    -0.346 C  
HETATM    7  C   UNL     1      -8.983  13.337  67.190  1.00  0.00    -0.229 C  
HETATM    8  C   UNL     1      -9.124  13.039  64.135  1.00  0.00     2.241 C  
BRANCH   7   9
HETATM    9  N   UNL     1      -8.804  13.864  68.549  1.00  0.00    -0.168 NA 
HETATM   10  C   UNL     1      -8.555  15.303  68.593  1.00  0.00    -0.173 C  
HETATM   11  N   UNL     1      -9.712  16.053  68.099  1.00  0.00    -0.216 NA 
HETATM   12  C   UNL     1     -10.861  15.831  69.011  1.00  0.00    -0.248 C  
HETATM   13  H1  UNL     1     -12.337  13.224  70.585  1.00  0.00     0.000 HD 
HETATM   14  C   UNL     1     -11.236  14.339  69.232  1.00  0.00    -0.273 C  
HETATM   15  H2  UNL     1     -12.915  14.803  70.394  1.00  0.00     0.000 HD 
HETATM   16  C   UNL     1     -12.091  13.803  68.072  1.00  0.00    -0.315 C  
HETATM   17  N   UNL     1     -12.090  14.204  70.440  1.00  0.00    -0.325 NA 
HETATM   18  C   UNL     1      -9.925  13.529  69.445  1.00  0.00     0.603 C  
BRANCH  11  19
HETATM   19  C   UNL     1      -9.436  17.507  68.062  1.00  0.00    -0.280 C  
HETATM   20  C   UNL     1      -6.920  17.314  67.463  1.00  0.00    -0.178 C  
HETATM   21  C   UNL     1      -7.988  17.988  68.348  1.00  0.00    -0.306 C  
HETATM   22  C   UNL     1      -7.915  19.535  68.255  1.00  0.00    -0.368 C  
HETATM   23  C   UNL     1      -6.934  17.684  65.986  1.00  0.00    -0.318 C  
BRANCH  22  24
HETATM   24  C   UNL     1      -8.843  20.299  69.218  1.00  0.00     0.662 C  
BRANCH  24  25
HETATM   25  C   UNL     1     -10.268  20.475  68.692  1.00  0.00     0.005 C  
HETATM   26  C   UNL     1     -10.283  20.766  67.199  1.00  0.00    -0.028 C  
ENDBRANCH  24  25
ENDBRANCH  22  24
ENDBRANCH  11  19
ENDBRANCH   7   9
ENDBRANCH   3   4
ENDBRANCH   2   3
TORSDOF 6
ENDMDL
MODEL      257
REMARK 921   NORMALIZED FREE ENERGY PREDICTED BY IDOCK:    8.57 KCAL/MOL
REMARK 922        TOTAL FREE ENERGY PREDICTED BY IDOCK:   10.78 KCAL/MOL
REMARK 923 INTER-LIGAND FREE ENERGY PREDICTED BY IDOCK:    0.11 KCAL/MOL
REMARK 924 INTRA-LIGAND FREE ENERGY PREDICTED BY IDOCK:   10.67 KCAL/MOL
REMARK 927      BINDING AFFINITY PREDICTED BY RF-SCORE:    0.00 PKD
ROOT
HETATM    1  C   UNL     1      -7.383   7.272  63.463  1.00  0.00    -0.082 C  
HETATM    2  C   UNL     1      -8.218   6.689  62.331  1.00  0.00    -0.052 C  
ENDROOT
BRANCH   2   3
HETATM    3  C   UNL     1      -8.754   5.314  62.717  1.00  0.00    -0.045 C  
BRANCH   3   4
HETATM    4  C   UNL     1      -8.058   4.755  63.960  1.00  0.00    -0.108 C  
HETATM    5  C   UNL     1      -7.531   3.323  63.744  1.00  0.00    -0.066 C  
HETATM    6  C   UNL     1      -6.528   3.179  62.573  1.00  0.00    -0.018 C  
HETATM    7  C   UNL     1      -6.909   2.744  65.037  1.00  0.00    -0.044 C  
HETATM    8  C   UNL     1      -5.199   3.896  62.759  1.00  0.00    -0.005 C  
BRANCH   7   9
HETATM    9  N   UNL     1      -7.816   2.593  66.182  1.00  0.00    -0.080 NA 
HETATM   10  C   UNL     1      -7.892   3.779  67.033  1.00  0.00    -0.084 C  
HETATM   11  N   UNL     1      -8.467   4.913  66.305  1.00  0.00    -0.111 NA 
HETATM   12  C   UNL     1      -9.873   4.601  65.950  1.00  0.00    -0.220 C  
HETATM   13  H1  UNL     1     -11.608   1.993  64.669  1.00  0.00     0.000 HD 
HETATM   14  C   UNL     1     -10.063   3.285  65.143  1.00  0.00     0.178 C  
HETATM   15  H2  UNL     1     -12.118   3.591  64.886  1.00  0.00     0.000 HD 
HETATM   16  C   UNL     1      -9.765   3.501  63.650  1.00  0.00    -0.149 C  
HETATM   17  N   UNL     1     -11.484   2.856  65.198  1.00  0.00     2.672 NA 
HETATM   18  C   UNL     1      -9.174   2.181  65.786  1.00  0.00    -0.001 C  
BRANCH  11  19
HETATM   19  C   UNL     1      -8.469   6.140  67.132  1.00  0.00    -0.104 C  
HETATM   20  C   UNL     1     -10.272   5.351  68.823  1.00  0.00    -0.252 C  
HETATM   21  C   UNL     1      -9.760   6.493  67.920  1.00  0.00    -0.126 C  
HETATM   22  C   UNL     1      -9.550   7.805  68.721  1.00  0.00    -0.154 C  
HETATM   23  C   UNL     1      -9.417   5.013  70.037  1.00  0.00    -0.231 C  
BRANCH  22  24
HETATM   24  C   UNL     1      -9.184   9.040  67.880  1.00  0.00    -0.151 C  
BRANCH  24  25
HETATM   25  C   UNL     1     -10.377   9.674  67.162  1.00  0.00    -0.319 C  
HETATM   26  C   UNL     1     -11.255  10.461  68.123  1.00  0.00    -0.333 C  
ENDBRANCH  24  25
ENDBRANCH  22  24
ENDBRANCH  11  19
ENDBRANCH   7   9
ENDBRANCH   3   4
ENDBRANCH   2   3
TORSDOF 6
ENDMDL
MODEL      258
REMARK 921   NORMALIZED FREE ENERGY PREDICTED BY IDOCK:    9.91 KCAL/MOL
REMARK 922        TOTAL FREE ENERGY PREDICTED BY IDOCK:   12.60 KCAL/MOL
REMARK 923 INTER-LIGAND FREE ENERGY PREDICTED BY IDOCK:    0.21 KCAL/MOL
REMARK 924 INTRA-LIGAND FREE ENERGY PREDICTED BY IDOCK:   12.39 KCAL/MOL
REMARK 927      BINDING AFFINITY PREDICTED BY RF-SCORE:    0.00 PKD
ROOT
HETATM    1  C   UNL     1     -11.103   7.753  68.914  1.00  0.00     0.211 C  
HETATM    2  C   UNL     1      -9.991   7.514  67.902  1.00  0.00    -0.203 C  
ENDROOT
BRANCH   2   3
HETATM    3  C   UNL     1      -8.635   7.477  68.598  1.00  0.00    -0.129 C  
BRANCH   3   4
HETATM    4  C   UNL     1      -7.510   7.979  67.690  1.00  0.00    -0.097 C  
HETATM    5  C   UNL     1      -7.242   9.487  67.865  1.00  0.00    -0.082 C  
HETATM    6  C   UNL     1      -6.870   9.910  69.307  1.00  0.00    -0.057 C  
HETATM    7  C   UNL     1      -6.163   9.992  66.878  1.00  0.00    -0.064 C  
HETATM    8  C   UNL     1      -5.543   9.372  69.823  1.00  0.00    -0.033 C  
BRANCH   7   9
HETATM    9  N   UNL     1      -6.484   9.876  65.450  1.00  0.00    -0.087 NA 
HETATM   10  C   UNL     1      -6.508   8.499  64.962  1.00  0.00    -0.060 C  
HETATM   11  N   UNL     1      -7.579   7.732  65.604  1.00  0.00    -0.081 NA 
HETATM   12  C   UNL     1      -8.890   8.304  65.211  1.00  0.00    -0.031 C  
HETATM   13  H1  UNL     1     -10.296  11.369  64.928  1.00  0.00     0.000 HD 
HETATM   14  C   UNL     1      -9.053   9.821  65.512  1.00  0.00    -0.196 C  
HETATM   15  H2  UNL     1     -11.053   9.857  64.892  1.00  0.00     0.000 HD 
HETATM   16  C   UNL     1      -9.424  10.058  66.985  1.00  0.00    -0.197 C  
HETATM   17  N   UNL     1     -10.189  10.375  64.730  1.00  0.00    -0.318 NA 
HETATM   18  C   UNL     1      -7.744  10.550  65.091  1.00  0.00    -0.062 C  
BRANCH  11  19
HETATM   19  C   UNL     1      -7.557   6.315  65.178  1.00  0.00    -0.092 C  
HETATM   20  C   UNL     1      -9.859   5.669  66.182  1.00  0.00    -0.114 C  
HETATM   21  C   UNL     1      -8.375   5.286  66.003  1.00  0.00    -0.118 C  
HETATM   22  C   UNL     1      -8.221   3.870  65.390  1.00  0.00    -0.101 C  
HETATM   23  C   UNL     1     -10.728   5.615  64.932  1.00  0.00     2.233 C  
BRANCH  22  24
HETATM   24  C   UNL     1      -6.778   3.338  65.312  1.00  0.00    -0.041 C  
BRANCH  24  25
HETATM   25  C   UNL     1      -5.963   3.575  66.584  1.00  0.00    -0.024 C  
HETATM   26  C   UNL     1      -6.844   4.038  67.735  1.00  0.00    -0.051 C  
ENDBRANCH  24  25
ENDBRANCH  22  24
ENDBRANCH  11  19
ENDBRANCH   7   9
ENDBRANCH   3   4
ENDBRANCH   2   3
TORSDOF 6
ENDMDL
MODEL      259
REMARK 921   NORMALIZED FREE ENERGY PREDICTED BY IDOCK:   33.04 KCAL/MOL
REMARK 922        TOTAL FREE ENERGY PREDICTED BY IDOCK:   43.84 KCAL/MOL
REMARK 923 INTER-LIGAND FREE ENERGY PREDICTED BY IDOCK:   39.68 KCAL/MOL
REMARK 924 INTRA-LIGAND FREE ENERGY PREDICTED BY IDOCK:    4.16 KCAL/MOL
REMARK 927      BINDING AFFINITY PREDICTED BY RF-SCORE:    0.00 PKD
ROOT
HETATM    1  C   UNL     1      -7.170  18.421  64.201  1.00  0.00     5.084 C  
HETATM    2  C   UNL     1      -8.271  17.370  64.176  1.00  0.00    10.700 C  
ENDROOT
BRANCH   2   3
HETATM    3  C   UNL     1      -8.600  16.908  65.592  1.00  0.00     0.487 C  
BRANCH   3   4
HETATM    4  C   UNL     1      -8.254  17.971  66.637  1.00  0.00    -0.285 C  
HETATM    5  C   UNL     1      -7.041  17.573  67.501  1.00  0.00    -0.184 C  
HETATM    6  C   UNL     1      -5.744  17.301  66.700  1.00  0.00    -0.235 C  
HETATM    7  C   UNL     1      -6.763  18.618  68.607  1.00  0.00    -0.266 C  
HETATM    8  C   UNL     1      -5.147  18.511  65.995  1.00  0.00    -0.181 C  
BRANCH   7   9
HETATM    9  N   UNL     1      -7.826  18.812  69.600  1.00  0.00     0.361 NA 
HETATM   10  C   UNL     1      -8.971  17.923  69.417  1.00  0.00     0.456 C  
HETATM   11  N   UNL     1      -8.588  16.523  69.613  1.00  0.00     0.297 NA 
HETATM   12  C   UNL     1      -8.168  16.327  71.022  1.00  0.00     4.723 C  
HETATM   13  H1  UNL     1      -6.226  17.911  73.296  1.00  0.00     0.000 HD 
HETATM   14  C   UNL     1      -7.030  17.273  71.499  1.00  0.00     5.415 C  
HETATM   15  H2  UNL     1      -6.879  16.352  73.373  1.00  0.00     0.000 HD 
HETATM   16  C   UNL     1      -5.653  16.758  71.048  1.00  0.00     0.201 C  
HETATM   17  N   UNL     1      -6.972  17.290  72.984  1.00  0.00     8.111 NA 
HETATM   18  C   UNL     1      -7.338  18.710  70.987  1.00  0.00     3.572 C  
BRANCH  11  19
HETATM   19  C   UNL     1      -9.722  15.611  69.346  1.00  0.00    -0.292 C  
HETATM   20  C   UNL     1      -8.298  13.592  68.556  1.00  0.00    -0.110 C  
HETATM   21  C   UNL     1      -9.529  14.485  68.295  1.00  0.00    -0.207 C  
HETATM   22  C   UNL     1     -10.827  13.646  68.171  1.00  0.00    -0.262 C  
HETATM   23  C   UNL     1      -8.369  12.679  69.773  1.00  0.00     2.186 C  
BRANCH  22  24
HETATM   24  C   UNL     1     -12.086  14.433  67.762  1.00  0.00    -0.304 C  
BRANCH  24  25
HETATM   25  C   UNL     1     -12.021  15.922  68.105  1.00  0.00     0.173 C  
HETATM   26  C   UNL     1     -11.203  16.697  67.084  1.00  0.00     0.239 C  
ENDBRANCH  24  25
ENDBRANCH  22  24
ENDBRANCH  11  19
ENDBRANCH   7   9
ENDBRANCH   3   4
ENDBRANCH   2   3
TORSDOF 6
ENDMDL
