MODEL        1
REMARK 921   NORMALIZED FREE ENERGY PREDICTED BY IDOCK:   -5.60 KCAL/MOL
REMARK 922        TOTAL FREE ENERGY PREDICTED BY IDOCK:  -15.34 KCAL/MOL
REMARK 923 INTER-LIGAND FREE ENERGY PREDICTED BY IDOCK:  -12.48 KCAL/MOL
REMARK 924 INTRA-LIGAND FREE ENERGY PREDICTED BY IDOCK:   -2.86 KCAL/MOL
REMARK 927      BINDING AFFINITY PREDICTED BY RF-SCORE:    0.00 PKD
ROOT
HETATM    1  C   UNL     1      -9.004  10.981  62.502  1.00  0.00    -0.326 C  
HETATM    2  O   UNL     1      -9.524  10.117  63.510  1.00  0.00    -0.283 OA 
ENDROOT
BRANCH   2   3
HETATM    3  C   UNL     1     -10.131  10.717  64.586  1.00  0.00    -0.349 A  
HETATM    4  C   UNL     1     -10.733  11.974  64.451  1.00  0.00    -0.369 A  
HETATM    5  C   UNL     1     -11.357  12.605  65.528  1.00  0.00    -0.356 A  
HETATM    6  C   UNL     1     -11.388  11.966  66.762  1.00  0.00    -0.393 A  
HETATM    7  C   UNL     1     -10.191  10.041  65.827  1.00  0.00    -0.200 A  
HETATM    8  C   UNL     1     -10.819  10.688  66.921  1.00  0.00    -0.205 A  
BRANCH   5   9
HETATM    9  C   UNL     1     -11.948  13.941  65.268  1.00  0.00    -0.375 C  
HETATM   10  O   UNL     1     -13.142  14.166  65.402  1.00  0.00    -0.743 OA 
BRANCH   9  11
HETATM   11  O   UNL     1     -11.020  14.831  64.837  1.00  0.00    -0.382 OA 
BRANCH  11  12
HETATM   12  C   UNL     1     -10.111  15.275  65.861  1.00  0.00    -0.334 C  
BRANCH  12  13
HETATM   13  C   UNL     1     -10.521  16.665  66.341  1.00  0.00    -0.266 C  
BRANCH  13  14
HETATM   14  C   UNL     1     -10.998  16.643  67.793  1.00  0.00    -0.234 C  
BRANCH  14  15
HETATM   15  N   UNL     1     -10.751  15.354  68.473  1.00  0.00    -0.248 NA 
HETATM   16  C   UNL     1      -9.700  15.479  69.493  1.00  0.00    -0.282 C  
BRANCH  15  17
HETATM   17  C   UNL     1     -12.029  14.871  69.061  1.00  0.00    -0.272 C  
BRANCH  17  18
HETATM   18  C   UNL     1     -12.295  15.373  70.500  1.00  0.00    -0.408 C  
BRANCH  18  19
HETATM   19  N   UNL     1     -12.786  14.362  71.465  1.00  0.00    -0.326 NA 
HETATM   20  C   UNL     1     -14.205  14.570  71.771  1.00  0.00    -0.510 C  
BRANCH  19  21
HETATM   21  C   UNL     1     -12.598  12.996  70.928  1.00  0.00    -0.280 C  
BRANCH  21  22
HETATM   22  C   UNL     1     -13.210  11.905  71.812  1.00  0.00    -0.426 C  
BRANCH  22  23
HETATM   23  C   UNL     1     -13.075  10.524  71.184  1.00  0.00    -0.358 C  
BRANCH  23  24
HETATM   24  O   UNL     1     -13.138   9.520  72.210  1.00  0.00    -0.415 OA 
BRANCH  24  25
HETATM   25  C   UNL     1     -13.091   8.234  71.778  1.00  0.00    -0.344 C  
HETATM   26  O   UNL     1     -14.046   7.487  71.639  1.00  0.00    -0.411 OA 
BRANCH  25  27
HETATM   27  C   UNL     1     -11.692   7.844  71.462  1.00  0.00    -0.317 A  
HETATM   28  C   UNL     1     -10.675   8.315  72.294  1.00  0.00    -0.399 A  
HETATM   29  C   UNL     1      -9.342   8.013  72.013  1.00  0.00    -0.178 A  
HETATM   30  C   UNL     1      -9.011   7.240  70.873  1.00  0.00    -0.150 A  
HETATM   31  C   UNL     1     -11.375   7.045  70.358  1.00  0.00    -0.354 A  
HETATM   32  C   UNL     1     -10.042   6.744  70.043  1.00  0.00    -0.184 A  
BRANCH  29  33
HETATM   33  O   UNL     1      -8.297   8.479  72.780  1.00  0.00    -0.335 OA 
HETATM   34  C   UNL     1      -8.326   8.138  74.163  1.00  0.00    -0.224 C  
ENDBRANCH  29  33
BRANCH  30  35
HETATM   35  O   UNL     1      -7.663   7.096  70.650  1.00  0.00    -0.091 OA 
HETATM   36  C   UNL     1      -7.009   8.043  69.816  1.00  0.00    -0.052 C  
ENDBRANCH  30  35
BRANCH  32  37
HETATM   37  O   UNL     1      -9.699   6.009  68.940  1.00  0.00    -0.127 OA 
HETATM   38  C   UNL     1      -9.409   4.626  69.110  1.00  0.00    -0.142 C  
ENDBRANCH  32  37
ENDBRANCH  25  27
ENDBRANCH  24  25
ENDBRANCH  23  24
ENDBRANCH  22  23
ENDBRANCH  21  22
ENDBRANCH  19  21
ENDBRANCH  18  19
ENDBRANCH  17  18
ENDBRANCH  15  17
ENDBRANCH  14  15
ENDBRANCH  13  14
ENDBRANCH  12  13
ENDBRANCH  11  12
ENDBRANCH   9  11
ENDBRANCH   5   9
BRANCH   8  39
HETATM   39  O   UNL     1     -10.975  10.238  68.212  1.00  0.00    -0.240 OA 
HETATM   40  C   UNL     1      -9.922  10.401  69.149  1.00  0.00    -0.223 C  
ENDBRANCH   8  39
BRANCH   7  41
HETATM   41  O   UNL     1      -9.674   8.798  66.080  1.00  0.00    -0.258 OA 
HETATM   42  C   UNL     1      -8.328   8.637  66.494  1.00  0.00    -0.108 C  
ENDBRANCH   7  41
ENDBRANCH   2   3
TORSDOF 21
ENDMDL
MODEL        2
REMARK 921   NORMALIZED FREE ENERGY PREDICTED BY IDOCK:   -5.60 KCAL/MOL
REMARK 922        TOTAL FREE ENERGY PREDICTED BY IDOCK:  -15.33 KCAL/MOL
REMARK 923 INTER-LIGAND FREE ENERGY PREDICTED BY IDOCK:  -12.86 KCAL/MOL
REMARK 924 INTRA-LIGAND FREE ENERGY PREDICTED BY IDOCK:   -2.47 KCAL/MOL
REMARK 927      BINDING AFFINITY PREDICTED BY RF-SCORE:    0.00 PKD
ROOT
HETATM    1  C   UNL     1      -9.780   6.572  67.638  1.00  0.00    -0.123 C  
HETATM    2  O   UNL     1     -10.581   5.609  68.319  1.00  0.00    -0.212 OA 
ENDROOT
BRANCH   2   3
HETATM    3  C   UNL     1     -10.816   5.832  69.654  1.00  0.00    -0.348 A  
HETATM    4  C   UNL     1     -11.769   6.774  70.058  1.00  0.00    -0.330 A  
HETATM    5  C   UNL     1     -12.027   7.019  71.408  1.00  0.00    -0.380 A  
HETATM    6  C   UNL     1     -11.326   6.304  72.372  1.00  0.00    -0.333 A  
HETATM    7  C   UNL     1     -10.125   5.071  70.626  1.00  0.00    -0.243 A  
HETATM    8  C   UNL     1     -10.384   5.327  71.996  1.00  0.00    -0.215 A  
BRANCH   5   9
HETATM    9  C   UNL     1     -13.048   8.051  71.716  1.00  0.00    -0.336 C  
HETATM   10  O   UNL     1     -14.243   7.861  71.544  1.00  0.00    -0.412 OA 
BRANCH   9  11
HETATM   11  O   UNL     1     -12.487   9.204  72.158  1.00  0.00    -0.368 OA 
BRANCH  11  12
HETATM   12  C   UNL     1     -13.278  10.378  71.900  1.00  0.00    -0.429 C  
BRANCH  12  13
HETATM   13  C   UNL     1     -12.435  11.409  71.155  1.00  0.00    -0.465 C  
BRANCH  13  14
HETATM   14  C   UNL     1     -12.227  11.018  69.692  1.00  0.00    -0.300 C  
BRANCH  14  15
HETATM   15  N   UNL     1     -10.823  11.137  69.245  1.00  0.00    -0.233 NA 
HETATM   16  C   UNL     1      -9.990  10.062  69.801  1.00  0.00    -0.241 C  
BRANCH  15  17
HETATM   17  C   UNL     1     -10.793  11.141  67.758  1.00  0.00    -0.239 C  
BRANCH  17  18
HETATM   18  C   UNL     1      -9.442  11.587  67.152  1.00  0.00    -0.177 C  
BRANCH  18  19
HETATM   19  N   UNL     1      -9.079  10.983  65.848  1.00  0.00    -0.193 NA 
HETATM   20  C   UNL     1      -8.264   9.778  66.033  1.00  0.00    -0.117 C  
BRANCH  19  21
HETATM   21  C   UNL     1     -10.295  10.637  65.079  1.00  0.00    -0.271 C  
BRANCH  21  22
HETATM   22  C   UNL     1     -10.335  11.274  63.686  1.00  0.00    -0.464 C  
BRANCH  22  23
HETATM   23  C   UNL     1     -11.423  12.335  63.580  1.00  0.00    -0.490 C  
BRANCH  23  24
HETATM   24  O   UNL     1     -10.998  13.528  64.259  1.00  0.00    -0.383 OA 
BRANCH  24  25
HETATM   25  C   UNL     1     -11.846  13.997  65.209  1.00  0.00    -0.359 C  
HETATM   26  O   UNL     1     -13.021  13.691  65.338  1.00  0.00    -0.683 OA 
BRANCH  25  27
HETATM   27  C   UNL     1     -11.140  14.940  66.116  1.00  0.00    -0.335 A  
HETATM   28  C   UNL     1     -11.337  14.802  67.490  1.00  0.00    -0.355 A  
HETATM   29  C   UNL     1     -10.731  15.691  68.379  1.00  0.00    -0.271 A  
HETATM   30  C   UNL     1      -9.925  16.748  67.891  1.00  0.00    -0.268 A  
HETATM   31  C   UNL     1     -10.311  15.956  65.629  1.00  0.00    -0.413 A  
HETATM   32  C   UNL     1      -9.707  16.875  66.500  1.00  0.00    -0.281 A  
BRANCH  29  33
HETATM   33  O   UNL     1     -10.918  15.622  69.741  1.00  0.00    -0.252 OA 
HETATM   34  C   UNL     1     -12.268  15.631  70.196  1.00  0.00    -0.361 C  
ENDBRANCH  29  33
BRANCH  30  35
HETATM   35  O   UNL     1      -9.468  17.613  68.856  1.00  0.00    -0.259 OA 
HETATM   36  C   UNL     1      -9.940  18.953  68.844  1.00  0.00    -0.378 C  
ENDBRANCH  30  35
BRANCH  32  37
HETATM   37  O   UNL     1      -8.934  17.912  66.049  1.00  0.00    -0.495 OA 
HETATM   38  C   UNL     1      -7.518  17.773  66.100  1.00  0.00    -0.287 C  
ENDBRANCH  32  37
ENDBRANCH  25  27
ENDBRANCH  24  25
ENDBRANCH  23  24
ENDBRANCH  22  23
ENDBRANCH  21  22
ENDBRANCH  19  21
ENDBRANCH  18  19
ENDBRANCH  17  18
ENDBRANCH  15  17
ENDBRANCH  14  15
ENDBRANCH  13  14
ENDBRANCH  12  13
ENDBRANCH  11  12
ENDBRANCH   9  11
ENDBRANCH   5   9
BRANCH   8  39
HETATM   39  O   UNL     1      -9.823   4.733  73.103  1.00  0.00    -0.142 OA 
HETATM   40  C   UNL     1     -10.602   4.546  74.275  1.00  0.00    -0.262 C  
ENDBRANCH   8  39
BRANCH   7  41
HETATM   41  O   UNL     1      -9.198   4.097  70.361  1.00  0.00    -0.100 OA 
HETATM   42  C   UNL     1      -7.833   4.424  70.162  1.00  0.00    -0.056 C  
ENDBRANCH   7  41
ENDBRANCH   2   3
TORSDOF 21
ENDMDL
MODEL        3
REMARK 921   NORMALIZED FREE ENERGY PREDICTED BY IDOCK:   -5.54 KCAL/MOL
REMARK 922        TOTAL FREE ENERGY PREDICTED BY IDOCK:  -15.19 KCAL/MOL
REMARK 923 INTER-LIGAND FREE ENERGY PREDICTED BY IDOCK:  -13.28 KCAL/MOL
REMARK 924 INTRA-LIGAND FREE ENERGY PREDICTED BY IDOCK:   -1.91 KCAL/MOL
REMARK 927      BINDING AFFINITY PREDICTED BY RF-SCORE:    0.00 PKD
ROOT
HETATM    1  C   UNL     1     -10.881   6.245  68.170  1.00  0.00    -0.320 C  
HETATM    2  O   UNL     1     -10.958   5.594  69.436  1.00  0.00    -0.320 OA 
ENDROOT
BRANCH   2   3
HETATM    3  C   UNL     1     -11.053   6.401  70.543  1.00  0.00    -0.328 A  
HETATM    4  C   UNL     1     -11.874   7.535  70.525  1.00  0.00    -0.144 A  
HETATM    5  C   UNL     1     -11.989   8.372  71.636  1.00  0.00    -0.357 A  
HETATM    6  C   UNL     1     -11.276   8.067  72.790  1.00  0.00    -0.448 A  
HETATM    7  C   UNL     1     -10.354   6.060  71.724  1.00  0.00    -0.215 A  
HETATM    8  C   UNL     1     -10.466   6.916  72.849  1.00  0.00    -0.244 A  
BRANCH   5   9
HETATM    9  C   UNL     1     -12.877   9.552  71.495  1.00  0.00    -0.377 C  
HETATM   10  O   UNL     1     -13.628   9.916  72.388  1.00  0.00    -0.378 OA 
BRANCH   9  11
HETATM   11  O   UNL     1     -12.774  10.122  70.269  1.00  0.00    -0.186 OA 
BRANCH  11  12
HETATM   12  C   UNL     1     -12.015  11.345  70.251  1.00  0.00    -0.373 C  
BRANCH  12  13
HETATM   13  C   UNL     1     -11.714  11.738  68.807  1.00  0.00    -0.389 C  
BRANCH  13  14
HETATM   14  C   UNL     1     -10.211  11.855  68.555  1.00  0.00    -0.215 C  
BRANCH  14  15
HETATM   15  N   UNL     1      -9.692  10.840  67.614  1.00  0.00    -0.164 NA 
HETATM   16  C   UNL     1     -10.656   9.749  67.418  1.00  0.00    -0.267 C  
BRANCH  15  17
HETATM   17  C   UNL     1      -9.355  11.510  66.329  1.00  0.00    -0.213 C  
BRANCH  17  18
HETATM   18  C   UNL     1     -10.152  10.984  65.112  1.00  0.00    -0.289 C  
BRANCH  18  19
HETATM   19  N   UNL     1     -10.068  11.796  63.875  1.00  0.00    -0.338 NA 
HETATM   20  C   UNL     1      -9.436  11.039  62.789  1.00  0.00    -0.334 C  
BRANCH  19  21
HETATM   21  C   UNL     1     -11.415  12.232  63.446  1.00  0.00    -0.430 C  
BRANCH  21  22
HETATM   22  C   UNL     1     -12.362  12.523  64.615  1.00  0.00    -0.547 C  
BRANCH  22  23
HETATM   23  C   UNL     1     -12.395  14.006  64.961  1.00  0.00    -0.441 C  
BRANCH  23  24
HETATM   24  O   UNL     1     -11.060  14.538  64.927  1.00  0.00    -0.357 OA 
BRANCH  24  25
HETATM   25  C   UNL     1     -10.967  15.892  64.942  1.00  0.00    -0.411 C  
HETATM   26  O   UNL     1     -11.539  16.660  64.187  1.00  0.00    -1.102 OA 
BRANCH  25  27
HETATM   27  C   UNL     1     -10.072  16.337  66.043  1.00  0.00    -0.377 A  
HETATM   28  C   UNL     1     -10.508  17.379  66.863  1.00  0.00    -0.279 A  
HETATM   29  C   UNL     1      -9.686  17.863  67.881  1.00  0.00    -0.288 A  
HETATM   30  C   UNL     1      -8.396  17.310  68.077  1.00  0.00    -0.228 A  
HETATM   31  C   UNL     1      -8.817  15.759  66.259  1.00  0.00    -0.378 A  
HETATM   32  C   UNL     1      -7.963  16.240  67.262  1.00  0.00    -0.167 A  
BRANCH  29  33
HETATM   33  O   UNL     1     -10.051  18.910  68.697  1.00  0.00    -0.388 OA 
HETATM   34  C   UNL     1     -10.265  20.165  68.058  1.00  0.00    -0.353 C  
ENDBRANCH  29  33
BRANCH  30  35
HETATM   35  O   UNL     1      -7.645  17.938  69.043  1.00  0.00    -0.243 OA 
HETATM   36  C   UNL     1      -6.681  18.897  68.634  1.00  0.00    -0.270 C  
ENDBRANCH  30  35
BRANCH  32  37
HETATM   37  O   UNL     1      -6.708  15.729  67.463  1.00  0.00    -0.160 OA 
HETATM   38  C   UNL     1      -6.582  14.345  67.770  1.00  0.00    -0.173 C  
ENDBRANCH  32  37
ENDBRANCH  25  27
ENDBRANCH  24  25
ENDBRANCH  23  24
ENDBRANCH  22  23
ENDBRANCH  21  22
ENDBRANCH  19  21
ENDBRANCH  18  19
ENDBRANCH  17  18
ENDBRANCH  15  17
ENDBRANCH  14  15
ENDBRANCH  13  14
ENDBRANCH  12  13
ENDBRANCH  11  12
ENDBRANCH   9  11
ENDBRANCH   5   9
BRANCH   8  39
HETATM   39  O   UNL     1      -9.869   6.798  74.082  1.00  0.00    -0.263 OA 
HETATM   40  C   UNL     1      -8.578   7.347  74.296  1.00  0.00    -0.218 C  
ENDBRANCH   8  39
BRANCH   7  41
HETATM   41  O   UNL     1      -9.549   4.963  71.882  1.00  0.00    -0.144 OA 
HETATM   42  C   UNL     1     -10.069   3.742  72.382  1.00  0.00    -0.167 C  
ENDBRANCH   7  41
ENDBRANCH   2   3
TORSDOF 21
ENDMDL
MODEL        4
REMARK 921   NORMALIZED FREE ENERGY PREDICTED BY IDOCK:   -5.44 KCAL/MOL
REMARK 922        TOTAL FREE ENERGY PREDICTED BY IDOCK:  -14.98 KCAL/MOL
REMARK 923 INTER-LIGAND FREE ENERGY PREDICTED BY IDOCK:  -12.34 KCAL/MOL
REMARK 924 INTRA-LIGAND FREE ENERGY PREDICTED BY IDOCK:   -2.64 KCAL/MOL
REMARK 927      BINDING AFFINITY PREDICTED BY RF-SCORE:    0.00 PKD
ROOT
HETATM    1  C   UNL     1     -12.938  15.035  73.433  1.00  0.00    -0.498 C  
HETATM    2  O   UNL     1     -13.757  14.433  72.433  1.00  0.00    -0.418 OA 
ENDROOT
BRANCH   2   3
HETATM    3  C   UNL     1     -13.200  13.404  71.713  1.00  0.00    -0.407 A  
HETATM    4  C   UNL     1     -13.391  12.076  72.112  1.00  0.00    -0.396 A  
HETATM    5  C   UNL     1     -12.837  11.012  71.398  1.00  0.00    -0.548 A  
HETATM    6  C   UNL     1     -12.085  11.279  70.260  1.00  0.00    -0.459 A  
HETATM    7  C   UNL     1     -12.470  13.685  70.535  1.00  0.00    -0.324 A  
HETATM    8  C   UNL     1     -11.902  12.602  69.816  1.00  0.00    -0.309 A  
BRANCH   5   9
HETATM    9  C   UNL     1     -13.095   9.649  71.924  1.00  0.00    -0.436 C  
HETATM   10  O   UNL     1     -14.084   9.380  72.591  1.00  0.00    -0.418 OA 
BRANCH   9  11
HETATM   11  O   UNL     1     -12.097   8.786  71.610  1.00  0.00    -0.298 OA 
BRANCH  11  12
HETATM   12  C   UNL     1     -12.549   7.463  71.267  1.00  0.00    -0.340 C  
BRANCH  12  13
HETATM   13  C   UNL     1     -11.410   6.689  70.609  1.00  0.00    -0.401 C  
BRANCH  13  14
HETATM   14  C   UNL     1     -10.662   7.545  69.586  1.00  0.00    -0.230 C  
BRANCH  14  15
HETATM   15  N   UNL     1      -9.247   7.782  69.940  1.00  0.00    -0.147 NA 
HETATM   16  C   UNL     1      -8.770   6.802  70.926  1.00  0.00    -0.142 C  
BRANCH  15  17
HETATM   17  C   UNL     1      -8.432   7.748  68.696  1.00  0.00    -0.129 C  
BRANCH  17  18
HETATM   18  C   UNL     1      -8.638   8.971  67.771  1.00  0.00    -0.121 C  
BRANCH  18  19
HETATM   19  N   UNL     1      -7.811   9.006  66.541  1.00  0.00    -0.099 NA 
HETATM   20  C   UNL     1      -8.264   8.003  65.572  1.00  0.00    -0.138 C  
BRANCH  19  21
HETATM   21  C   UNL     1      -7.865  10.346  65.916  1.00  0.00    -0.148 C  
BRANCH  21  22
HETATM   22  C   UNL     1      -8.132  11.475  66.918  1.00  0.00    -0.164 C  
BRANCH  22  23
HETATM   23  C   UNL     1      -6.861  12.240  67.260  1.00  0.00    -0.140 C  
BRANCH  23  24
HETATM   24  O   UNL     1      -7.063  13.642  67.013  1.00  0.00     0.011 OA 
BRANCH  24  25
HETATM   25  C   UNL     1      -7.481  14.371  68.079  1.00  0.00    -0.140 C  
HETATM   26  O   UNL     1      -7.216  14.151  69.249  1.00  0.00    -0.112 OA 
BRANCH  25  27
HETATM   27  C   UNL     1      -8.309  15.521  67.627  1.00  0.00    -0.167 A  
HETATM   28  C   UNL     1      -8.267  16.696  68.379  1.00  0.00    -0.206 A  
HETATM   29  C   UNL     1      -9.059  17.787  68.021  1.00  0.00    -0.269 A  
HETATM   30  C   UNL     1      -9.923  17.703  66.902  1.00  0.00    -0.323 A  
HETATM   31  C   UNL     1      -9.128  15.447  66.496  1.00  0.00    -0.334 A  
HETATM   32  C   UNL     1      -9.950  16.522  66.127  1.00  0.00    -0.343 A  
BRANCH  29  33
HETATM   33  O   UNL     1      -9.083  18.958  68.746  1.00  0.00    -0.345 OA 
HETATM   34  C   UNL     1      -7.856  19.677  68.828  1.00  0.00    -0.297 C  
ENDBRANCH  29  33
BRANCH  30  35
HETATM   35  O   UNL     1     -10.724  18.805  66.713  1.00  0.00    -0.401 OA 
HETATM   36  C   UNL     1     -10.269  19.831  65.841  1.00  0.00    -0.459 C  
ENDBRANCH  30  35
BRANCH  32  37
HETATM   37  O   UNL     1     -10.801  16.459  65.056  1.00  0.00    -0.591 OA 
HETATM   38  C   UNL     1     -11.428  15.216  64.762  1.00  0.00    -0.383 C  
ENDBRANCH  32  37
ENDBRANCH  25  27
ENDBRANCH  24  25
ENDBRANCH  23  24
ENDBRANCH  22  23
ENDBRANCH  21  22
ENDBRANCH  19  21
ENDBRANCH  18  19
ENDBRANCH  17  18
ENDBRANCH  15  17
ENDBRANCH  14  15
ENDBRANCH  13  14
ENDBRANCH  12  13
ENDBRANCH  11  12
ENDBRANCH   9  11
ENDBRANCH   5   9
BRANCH   8  39
HETATM   39  O   UNL     1     -11.143  12.635  68.670  1.00  0.00    -0.239 OA 
HETATM   40  C   UNL     1     -11.775  12.544  67.402  1.00  0.00    -0.366 C  
ENDBRANCH   8  39
BRANCH   7  41
HETATM   41  O   UNL     1     -12.242  14.933  70.020  1.00  0.00    -0.313 OA 
HETATM   42  C   UNL     1     -11.114  15.694  70.420  1.00  0.00    -0.352 C  
ENDBRANCH   7  41
ENDBRANCH   2   3
TORSDOF 21
ENDMDL
MODEL        5
REMARK 921   NORMALIZED FREE ENERGY PREDICTED BY IDOCK:   -5.43 KCAL/MOL
REMARK 922        TOTAL FREE ENERGY PREDICTED BY IDOCK:  -14.96 KCAL/MOL
REMARK 923 INTER-LIGAND FREE ENERGY PREDICTED BY IDOCK:  -11.61 KCAL/MOL
REMARK 924 INTRA-LIGAND FREE ENERGY PREDICTED BY IDOCK:   -3.36 KCAL/MOL
REMARK 927      BINDING AFFINITY PREDICTED BY RF-SCORE:    0.00 PKD
ROOT
HETATM    1  C   UNL     1     -12.814  15.728  71.763  1.00  0.00    -0.450 C  
HETATM    2  O   UNL     1     -11.758  16.100  70.879  1.00  0.00    -0.398 OA 
ENDROOT
BRANCH   2   3
HETATM    3  C   UNL     1     -11.606  15.344  69.743  1.00  0.00    -0.323 A  
HETATM    4  C   UNL     1     -11.825  13.961  69.777  1.00  0.00    -0.390 A  
HETATM    5  C   UNL     1     -11.678  13.170  68.637  1.00  0.00    -0.362 A  
HETATM    6  C   UNL     1     -11.314  13.771  67.438  1.00  0.00    -0.348 A  
HETATM    7  C   UNL     1     -11.274  15.971  68.520  1.00  0.00    -0.374 A  
HETATM    8  C   UNL     1     -11.118  15.163  67.365  1.00  0.00    -0.325 A  
BRANCH   5   9
HETATM    9  C   UNL     1     -11.922  11.715  68.798  1.00  0.00    -0.264 C  
HETATM   10  O   UNL     1     -12.123  10.976  67.845  1.00  0.00    -0.600 OA 
BRANCH   9  11
HETATM   11  O   UNL     1     -11.933  11.343  70.102  1.00  0.00    -0.324 OA 
BRANCH  11  12
HETATM   12  C   UNL     1     -13.032  10.486  70.459  1.00  0.00    -0.219 C  
BRANCH  12  13
HETATM   13  C   UNL     1     -12.981  10.186  71.955  1.00  0.00    -0.549 C  
BRANCH  13  14
HETATM   14  C   UNL     1     -12.781   8.695  72.225  1.00  0.00    -0.391 C  
BRANCH  14  15
HETATM   15  N   UNL     1     -11.576   8.136  71.576  1.00  0.00    -0.265 NA 
HETATM   16  C   UNL     1     -10.347   8.682  72.168  1.00  0.00    -0.333 C  
BRANCH  15  17
HETATM   17  C   UNL     1     -11.623   6.653  71.679  1.00  0.00    -0.304 C  
BRANCH  17  18
HETATM   18  C   UNL     1     -11.008   5.914  70.466  1.00  0.00    -0.292 C  
BRANCH  18  19
HETATM   19  N   UNL     1      -9.834   5.056  70.750  1.00  0.00    -0.194 NA 
HETATM   20  C   UNL     1      -9.918   4.474  72.094  1.00  0.00    -0.183 C  
BRANCH  19  21
HETATM   21  C   UNL     1      -9.730   3.968  69.753  1.00  0.00    -0.184 C  
BRANCH  21  22
HETATM   22  C   UNL     1      -8.820   4.312  68.569  1.00  0.00    -0.134 C  
BRANCH  22  23
HETATM   23  C   UNL     1      -9.617   4.558  67.295  1.00  0.00    -0.185 C  
BRANCH  23  24
HETATM   24  O   UNL     1      -9.326   5.873  66.792  1.00  0.00    -0.128 OA 
BRANCH  24  25
HETATM   25  C   UNL     1     -10.311   6.793  66.952  1.00  0.00    -0.254 C  
HETATM   26  O   UNL     1     -11.508   6.562  67.011  1.00  0.00    -0.223 OA 
BRANCH  25  27
HETATM   27  C   UNL     1      -9.732   8.156  67.074  1.00  0.00    -0.275 A  
HETATM   28  C   UNL     1      -9.246   8.555  68.320  1.00  0.00    -0.140 A  
HETATM   29  C   UNL     1      -8.734   9.840  68.496  1.00  0.00    -0.120 A  
HETATM   30  C   UNL     1      -8.718  10.755  67.415  1.00  0.00    -0.126 A  
HETATM   31  C   UNL     1      -9.680   9.040  65.991  1.00  0.00    -0.339 A  
HETATM   32  C   UNL     1      -9.189  10.345  66.147  1.00  0.00    -0.168 A  
BRANCH  29  33
HETATM   33  O   UNL     1      -8.274  10.297  69.711  1.00  0.00    -0.164 OA 
HETATM   34  C   UNL     1      -7.075   9.702  70.199  1.00  0.00    -0.116 C  
ENDBRANCH  29  33
BRANCH  30  35
HETATM   35  O   UNL     1      -8.284  12.018  67.739  1.00  0.00    -0.133 OA 
HETATM   36  C   UNL     1      -6.947  12.377  67.418  1.00  0.00    -0.149 C  
ENDBRANCH  30  35
BRANCH  32  37
HETATM   37  O   UNL     1      -9.175  11.249  65.118  1.00  0.00    -0.210 OA 
HETATM   38  C   UNL     1     -10.244  11.224  64.180  1.00  0.00    -0.335 C  
ENDBRANCH  32  37
ENDBRANCH  25  27
ENDBRANCH  24  25
ENDBRANCH  23  24
ENDBRANCH  22  23
ENDBRANCH  21  22
ENDBRANCH  19  21
ENDBRANCH  18  19
ENDBRANCH  17  18
ENDBRANCH  15  17
ENDBRANCH  14  15
ENDBRANCH  13  14
ENDBRANCH  12  13
ENDBRANCH  11  12
ENDBRANCH   9  11
ENDBRANCH   5   9
BRANCH   8  39
HETATM   39  O   UNL     1     -10.781  15.546  66.088  1.00  0.00    -0.310 OA 
HETATM   40  C   UNL     1     -11.348  14.871  64.975  1.00  0.00    -0.398 C  
ENDBRANCH   8  39
BRANCH   7  41
HETATM   41  O   UNL     1     -11.069  17.315  68.346  1.00  0.00    -0.254 OA 
HETATM   42  C   UNL     1      -9.798  17.896  68.581  1.00  0.00    -0.374 C  
ENDBRANCH   7  41
ENDBRANCH   2   3
TORSDOF 21
ENDMDL
MODEL        6
REMARK 921   NORMALIZED FREE ENERGY PREDICTED BY IDOCK:   -5.43 KCAL/MOL
REMARK 922        TOTAL FREE ENERGY PREDICTED BY IDOCK:  -14.96 KCAL/MOL
REMARK 923 INTER-LIGAND FREE ENERGY PREDICTED BY IDOCK:  -11.81 KCAL/MOL
REMARK 924 INTRA-LIGAND FREE ENERGY PREDICTED BY IDOCK:   -3.14 KCAL/MOL
REMARK 927      BINDING AFFINITY PREDICTED BY RF-SCORE:    0.00 PKD
ROOT
HETATM    1  C   UNL     1     -12.643  12.135  63.491  1.00  0.00    -0.506 C  
HETATM    2  O   UNL     1     -11.221  12.220  63.424  1.00  0.00    -0.438 OA 
ENDROOT
BRANCH   2   3
HETATM    3  C   UNL     1     -10.524  11.829  64.540  1.00  0.00    -0.304 A  
HETATM    4  C   UNL     1     -10.361  10.469  64.833  1.00  0.00    -0.307 A  
HETATM    5  C   UNL     1      -9.657  10.044  65.961  1.00  0.00    -0.279 A  
HETATM    6  C   UNL     1      -9.097  10.994  66.807  1.00  0.00    -0.172 A  
HETATM    7  C   UNL     1      -9.926  12.802  65.373  1.00  0.00    -0.199 A  
HETATM    8  C   UNL     1      -9.217  12.367  66.522  1.00  0.00    -0.215 A  
BRANCH   5   9
HETATM    9  C   UNL     1      -9.563   8.579  66.176  1.00  0.00    -0.206 C  
HETATM   10  O   UNL     1      -8.626   7.915  65.757  1.00  0.00    -0.141 OA 
BRANCH   9  11
HETATM   11  O   UNL     1     -10.640   8.093  66.841  1.00  0.00    -0.329 OA 
BRANCH  11  12
HETATM   12  C   UNL     1     -10.568   6.685  67.129  1.00  0.00    -0.331 C  
BRANCH  12  13
HETATM   13  C   UNL     1     -10.892   6.447  68.601  1.00  0.00    -0.379 C  
BRANCH  13  14
HETATM   14  C   UNL     1      -9.634   6.478  69.469  1.00  0.00    -0.145 C  
BRANCH  14  15
HETATM   15  N   UNL     1      -9.601   7.612  70.416  1.00  0.00    -0.168 NA 
HETATM   16  C   UNL     1      -8.951   8.788  69.821  1.00  0.00    -0.146 C  
BRANCH  15  17
HETATM   17  C   UNL     1     -10.992   7.915  70.847  1.00  0.00    -0.243 C  
BRANCH  17  18
HETATM   18  C   UNL     1     -11.206   9.371  71.322  1.00  0.00    -0.367 C  
BRANCH  18  19
HETATM   19  N   UNL     1     -12.508   9.987  70.976  1.00  0.00    -0.337 NA 
HETATM   20  C   UNL     1     -13.493   9.775  72.042  1.00  0.00    -0.407 C  
BRANCH  19  21
HETATM   21  C   UNL     1     -12.351  11.440  70.739  1.00  0.00    -0.386 C  
BRANCH  21  22
HETATM   22  C   UNL     1     -11.520  11.767  69.495  1.00  0.00    -0.363 C  
BRANCH  22  23
HETATM   23  C   UNL     1     -11.804  13.171  68.977  1.00  0.00    -0.313 C  
BRANCH  23  24
HETATM   24  O   UNL     1     -10.822  14.083  69.496  1.00  0.00    -0.165 OA 
BRANCH  24  25
HETATM   25  C   UNL     1     -11.223  15.374  69.613  1.00  0.00    -0.283 C  
HETATM   26  O   UNL     1     -12.319  15.755  69.992  1.00  0.00    -0.354 OA 
BRANCH  25  27
HETATM   27  C   UNL     1     -10.121  16.297  69.233  1.00  0.00    -0.267 A  
HETATM   28  C   UNL     1     -10.459  17.569  68.769  1.00  0.00    -0.318 A  
HETATM   29  C   UNL     1      -9.463  18.454  68.358  1.00  0.00    -0.332 A  
HETATM   30  C   UNL     1      -8.102  18.062  68.394  1.00  0.00    -0.298 A  
HETATM   31  C   UNL     1      -8.776  15.918  69.311  1.00  0.00    -0.250 A  
HETATM   32  C   UNL     1      -7.757  16.783  68.885  1.00  0.00    -0.242 A  
BRANCH  29  33
HETATM   33  O   UNL     1      -9.742  19.707  67.860  1.00  0.00    -0.337 OA 
HETATM   34  C   UNL     1     -10.473  19.755  66.639  1.00  0.00    -0.497 C  
ENDBRANCH  29  33
BRANCH  30  35
HETATM   35  O   UNL     1      -7.226  18.983  67.870  1.00  0.00    -0.230 OA 
HETATM   36  C   UNL     1      -6.460  19.774  68.768  1.00  0.00    -0.291 C  
ENDBRANCH  30  35
BRANCH  32  37
HETATM   37  O   UNL     1      -6.437  16.420  68.900  1.00  0.00    -0.136 OA 
HETATM   38  C   UNL     1      -5.908  15.739  67.768  1.00  0.00    -0.148 C  
ENDBRANCH  32  37
ENDBRANCH  25  27
ENDBRANCH  24  25
ENDBRANCH  23  24
ENDBRANCH  22  23
ENDBRANCH  21  22
ENDBRANCH  19  21
ENDBRANCH  18  19
ENDBRANCH  17  18
ENDBRANCH  15  17
ENDBRANCH  14  15
ENDBRANCH  13  14
ENDBRANCH  12  13
ENDBRANCH  11  12
ENDBRANCH   9  11
ENDBRANCH   5   9
BRANCH   8  39
HETATM   39  O   UNL     1      -8.579  13.125  67.476  1.00  0.00    -0.173 OA 
HETATM   40  C   UNL     1      -7.737  12.497  68.431  1.00  0.00    -0.136 C  
ENDBRANCH   8  39
BRANCH   7  41
HETATM   41  O   UNL     1      -9.980  14.157  65.178  1.00  0.00    -0.337 OA 
HETATM   42  C   UNL     1     -10.918  14.958  65.876  1.00  0.00    -0.338 C  
ENDBRANCH   7  41
ENDBRANCH   2   3
TORSDOF 21
ENDMDL
MODEL        7
REMARK 921   NORMALIZED FREE ENERGY PREDICTED BY IDOCK:   -5.43 KCAL/MOL
REMARK 922        TOTAL FREE ENERGY PREDICTED BY IDOCK:  -14.95 KCAL/MOL
REMARK 923 INTER-LIGAND FREE ENERGY PREDICTED BY IDOCK:  -11.56 KCAL/MOL
REMARK 924 INTRA-LIGAND FREE ENERGY PREDICTED BY IDOCK:   -3.39 KCAL/MOL
REMARK 927      BINDING AFFINITY PREDICTED BY RF-SCORE:    0.00 PKD
ROOT
HETATM    1  C   UNL     1     -10.642  16.389  69.576  1.00  0.00    -0.320 C  
HETATM    2  O   UNL     1     -11.760  15.733  68.982  1.00  0.00    -0.379 OA 
ENDROOT
BRANCH   2   3
HETATM    3  C   UNL     1     -11.842  14.373  69.154  1.00  0.00    -0.323 A  
HETATM    4  C   UNL     1     -11.350  13.504  68.172  1.00  0.00    -0.319 A  
HETATM    5  C   UNL     1     -11.420  12.118  68.322  1.00  0.00    -0.360 A  
HETATM    6  C   UNL     1     -11.986  11.589  69.477  1.00  0.00    -0.402 A  
HETATM    7  C   UNL     1     -12.384  13.846  70.349  1.00  0.00    -0.363 A  
HETATM    8  C   UNL     1     -12.461  12.438  70.495  1.00  0.00    -0.187 A  
BRANCH   5   9
HETATM    9  C   UNL     1     -10.880  11.297  67.210  1.00  0.00    -0.267 C  
HETATM   10  O   UNL     1     -10.319  11.793  66.243  1.00  0.00    -0.213 OA 
BRANCH   9  11
HETATM   11  O   UNL     1     -11.124   9.976  67.389  1.00  0.00    -0.257 OA 
BRANCH  11  12
HETATM   12  C   UNL     1     -10.226   9.110  66.672  1.00  0.00    -0.258 C  
BRANCH  12  13
HETATM   13  C   UNL     1     -10.641   7.656  66.881  1.00  0.00    -0.359 C  
BRANCH  13  14
HETATM   14  C   UNL     1     -10.021   7.069  68.150  1.00  0.00    -0.151 C  
BRANCH  14  15
HETATM   15  N   UNL     1     -10.643   7.569  69.394  1.00  0.00    -0.229 NA 
HETATM   16  C   UNL     1     -11.480   6.540  70.026  1.00  0.00    -0.412 C  
BRANCH  15  17
HETATM   17  C   UNL     1      -9.569   8.041  70.309  1.00  0.00    -0.171 C  
BRANCH  17  18
HETATM   18  C   UNL     1      -8.138   7.693  69.837  1.00  0.00    -0.124 C  
BRANCH  18  19
HETATM   19  N   UNL     1      -7.246   8.841  69.551  1.00  0.00    -0.058 NA 
HETATM   20  C   UNL     1      -6.483   8.623  68.318  1.00  0.00    -0.060 C  
BRANCH  19  21
HETATM   21  C   UNL     1      -8.030  10.090  69.424  1.00  0.00    -0.145 C  
BRANCH  21  22
HETATM   22  C   UNL     1      -7.540  11.004  68.297  1.00  0.00    -0.106 C  
BRANCH  22  23
HETATM   23  C   UNL     1      -7.094  12.363  68.824  1.00  0.00    -0.098 C  
BRANCH  23  24
HETATM   24  O   UNL     1      -7.686  13.404  68.029  1.00  0.00    -0.118 OA 
BRANCH  24  25
HETATM   25  C   UNL     1      -6.847  14.403  67.653  1.00  0.00    -0.182 C  
HETATM   26  O   UNL     1      -5.628  14.350  67.636  1.00  0.00    -0.311 OA 
BRANCH  25  27
HETATM   27  C   UNL     1      -7.623  15.598  67.228  1.00  0.00    -0.247 A  
HETATM   28  C   UNL     1      -7.255  16.839  67.750  1.00  0.00    -0.152 A  
HETATM   29  C   UNL     1      -7.980  17.984  67.416  1.00  0.00    -0.221 A  
HETATM   30  C   UNL     1      -9.103  17.891  66.559  1.00  0.00    -0.261 A  
HETATM   31  C   UNL     1      -8.705  15.506  66.346  1.00  0.00    -0.333 A  
HETATM   32  C   UNL     1      -9.463  16.638  66.011  1.00  0.00    -0.251 A  
BRANCH  29  33
HETATM   33  O   UNL     1      -7.683  19.227  67.929  1.00  0.00    -0.268 OA 
HETATM   34  C   UNL     1      -6.300  19.549  68.048  1.00  0.00    -0.218 C  
ENDBRANCH  29  33
BRANCH  30  35
HETATM   35  O   UNL     1      -9.792  19.068  66.387  1.00  0.00    -0.342 OA 
HETATM   36  C   UNL     1     -11.008  19.251  67.099  1.00  0.00    -0.336 C  
ENDBRANCH  30  35
BRANCH  32  37
HETATM   37  O   UNL     1     -10.559  16.569  65.194  1.00  0.00    -0.632 OA 
HETATM   38  C   UNL     1     -11.056  15.286  64.834  1.00  0.00    -0.424 C  
ENDBRANCH  32  37
ENDBRANCH  25  27
ENDBRANCH  24  25
ENDBRANCH  23  24
ENDBRANCH  22  23
ENDBRANCH  21  22
ENDBRANCH  19  21
ENDBRANCH  18  19
ENDBRANCH  17  18
ENDBRANCH  15  17
ENDBRANCH  14  15
ENDBRANCH  13  14
ENDBRANCH  12  13
ENDBRANCH  11  12
ENDBRANCH   9  11
ENDBRANCH   5   9
BRANCH   8  39
HETATM   39  O   UNL     1     -12.962  11.709  71.548  1.00  0.00    -0.424 OA 
HETATM   40  C   UNL     1     -12.935  10.291  71.502  1.00  0.00    -0.453 C  
ENDBRANCH   8  39
BRANCH   7  41
HETATM   41  O   UNL     1     -12.864  14.586  71.397  1.00  0.00    -0.300 OA 
HETATM   42  C   UNL     1     -14.231  14.959  71.461  1.00  0.00    -0.527 C  
ENDBRANCH   7  41
ENDBRANCH   2   3
TORSDOF 21
ENDMDL
MODEL        8
REMARK 921   NORMALIZED FREE ENERGY PREDICTED BY IDOCK:   -5.40 KCAL/MOL
REMARK 922        TOTAL FREE ENERGY PREDICTED BY IDOCK:  -14.89 KCAL/MOL
REMARK 923 INTER-LIGAND FREE ENERGY PREDICTED BY IDOCK:  -12.77 KCAL/MOL
REMARK 924 INTRA-LIGAND FREE ENERGY PREDICTED BY IDOCK:   -2.13 KCAL/MOL
REMARK 927      BINDING AFFINITY PREDICTED BY RF-SCORE:    0.00 PKD
ROOT
HETATM    1  C   UNL     1     -12.896  14.998  73.446  1.00  0.00    -0.528 C  
HETATM    2  O   UNL     1     -13.809  14.198  72.699  1.00  0.00    -0.598 OA 
ENDROOT
BRANCH   2   3
HETATM    3  C   UNL     1     -13.267  13.226  71.895  1.00  0.00    -0.431 A  
HETATM    4  C   UNL     1     -13.451  11.872  72.199  1.00  0.00    -0.300 A  
HETATM    5  C   UNL     1     -12.912  10.864  71.398  1.00  0.00    -0.527 A  
HETATM    6  C   UNL     1     -12.181  11.214  70.269  1.00  0.00    -0.436 A  
HETATM    7  C   UNL     1     -12.559  13.593  70.727  1.00  0.00    -0.325 A  
HETATM    8  C   UNL     1     -12.006  12.567  69.920  1.00  0.00    -0.301 A  
BRANCH   5   9
HETATM    9  C   UNL     1     -13.160   9.465  71.827  1.00  0.00    -0.409 C  
HETATM   10  O   UNL     1     -14.071   9.165  72.586  1.00  0.00    -0.512 OA 
BRANCH   9  11
HETATM   11  O   UNL     1     -12.245   8.606  71.314  1.00  0.00    -0.294 OA 
BRANCH  11  12
HETATM   12  C   UNL     1     -12.536   7.219  71.562  1.00  0.00    -0.379 C  
BRANCH  12  13
HETATM   13  C   UNL     1     -11.621   6.344  70.710  1.00  0.00    -0.402 C  
BRANCH  13  14
HETATM   14  C   UNL     1     -10.233   6.966  70.551  1.00  0.00    -0.192 C  
BRANCH  14  15
HETATM   15  N   UNL     1      -9.268   6.081  69.865  1.00  0.00    -0.147 NA 
HETATM   16  C   UNL     1      -9.753   4.695  69.816  1.00  0.00    -0.209 C  
BRANCH  15  17
HETATM   17  C   UNL     1      -9.010   6.621  68.503  1.00  0.00    -0.120 C  
BRANCH  17  18
HETATM   18  C   UNL     1      -8.335   8.013  68.491  1.00  0.00    -0.127 C  
BRANCH  18  19
HETATM   19  N   UNL     1      -8.337   8.729  67.194  1.00  0.00    -0.104 NA 
HETATM   20  C   UNL     1      -9.019   7.944  66.159  1.00  0.00    -0.175 C  
BRANCH  19  21
HETATM   21  C   UNL     1      -9.002  10.044  67.326  1.00  0.00    -0.135 C  
BRANCH  21  22
HETATM   22  C   UNL     1      -8.510  10.857  68.527  1.00  0.00    -0.147 C  
BRANCH  22  23
HETATM   23  C   UNL     1      -7.540  11.955  68.109  1.00  0.00    -0.121 C  
BRANCH  23  24
HETATM   24  O   UNL     1      -8.253  13.193  67.953  1.00  0.00    -0.137 OA 
BRANCH  24  25
HETATM   25  C   UNL     1      -7.515  14.244  67.514  1.00  0.00    -0.182 C  
HETATM   26  O   UNL     1      -6.319  14.232  67.273  1.00  0.00    -0.296 OA 
BRANCH  25  27
HETATM   27  C   UNL     1      -8.376  15.443  67.334  1.00  0.00    -0.204 A  
HETATM   28  C   UNL     1      -9.216  15.487  66.221  1.00  0.00    -0.364 A  
HETATM   29  C   UNL     1     -10.010  16.610  65.985  1.00  0.00    -0.324 A  
HETATM   30  C   UNL     1      -9.956  17.719  66.865  1.00  0.00    -0.332 A  
HETATM   31  C   UNL     1      -8.350  16.516  68.231  1.00  0.00    -0.190 A  
HETATM   32  C   UNL     1      -9.122  17.665  68.005  1.00  0.00    -0.267 A  
BRANCH  29  33
HETATM   33  O   UNL     1     -10.831  16.722  64.885  1.00  0.00    -0.707 OA 
HETATM   34  C   UNL     1     -11.535  15.545  64.498  1.00  0.00    -0.308 C  
ENDBRANCH  29  33
BRANCH  30  35
HETATM   35  O   UNL     1     -10.707  18.801  66.471  1.00  0.00    -0.382 OA 
HETATM   36  C   UNL     1     -10.049  19.882  65.824  1.00  0.00    -0.345 C  
ENDBRANCH  30  35
BRANCH  32  37
HETATM   37  O   UNL     1      -9.077  18.752  68.836  1.00  0.00    -0.301 OA 
HETATM   38  C   UNL     1      -7.867  19.498  68.910  1.00  0.00    -0.314 C  
ENDBRANCH  32  37
ENDBRANCH  25  27
ENDBRANCH  24  25
ENDBRANCH  23  24
ENDBRANCH  22  23
ENDBRANCH  21  22
ENDBRANCH  19  21
ENDBRANCH  18  19
ENDBRANCH  17  18
ENDBRANCH  15  17
ENDBRANCH  14  15
ENDBRANCH  13  14
ENDBRANCH  12  13
ENDBRANCH  11  12
ENDBRANCH   9  11
ENDBRANCH   5   9
BRANCH   8  39
HETATM   39  O   UNL     1     -11.269  12.685  68.765  1.00  0.00    -0.247 OA 
HETATM   40  C   UNL     1     -11.930  12.822  67.516  1.00  0.00    -0.281 C  
ENDBRANCH   8  39
BRANCH   7  41
HETATM   41  O   UNL     1     -12.340  14.876  70.301  1.00  0.00    -0.312 OA 
HETATM   42  C   UNL     1     -11.122  15.542  70.585  1.00  0.00    -0.352 C  
ENDBRANCH   7  41
ENDBRANCH   2   3
TORSDOF 21
ENDMDL
MODEL        9
REMARK 921   NORMALIZED FREE ENERGY PREDICTED BY IDOCK:   -5.39 KCAL/MOL
REMARK 922        TOTAL FREE ENERGY PREDICTED BY IDOCK:  -14.86 KCAL/MOL
REMARK 923 INTER-LIGAND FREE ENERGY PREDICTED BY IDOCK:  -12.52 KCAL/MOL
REMARK 924 INTRA-LIGAND FREE ENERGY PREDICTED BY IDOCK:   -2.34 KCAL/MOL
REMARK 927      BINDING AFFINITY PREDICTED BY RF-SCORE:    0.00 PKD
ROOT
HETATM    1  C   UNL     1      -8.798   6.494  68.359  1.00  0.00    -0.123 C  
HETATM    2  O   UNL     1      -9.922   5.660  68.632  1.00  0.00    -0.141 OA 
ENDROOT
BRANCH   2   3
HETATM    3  C   UNL     1     -10.451   5.728  69.897  1.00  0.00    -0.290 A  
HETATM    4  C   UNL     1     -11.433   6.678  70.204  1.00  0.00    -0.444 A  
HETATM    5  C   UNL     1     -11.988   6.768  71.481  1.00  0.00    -0.396 A  
HETATM    6  C   UNL     1     -11.560   5.888  72.469  1.00  0.00    -0.327 A  
HETATM    7  C   UNL     1     -10.037   4.803  70.884  1.00  0.00    -0.205 A  
HETATM    8  C   UNL     1     -10.597   4.902  72.183  1.00  0.00    -0.164 A  
BRANCH   5   9
HETATM    9  C   UNL     1     -13.010   7.823  71.693  1.00  0.00    -0.345 C  
HETATM   10  O   UNL     1     -14.190   7.655  71.419  1.00  0.00    -0.419 OA 
BRANCH   9  11
HETATM   11  O   UNL     1     -12.466   8.968  72.174  1.00  0.00    -0.364 OA 
BRANCH  11  12
HETATM   12  C   UNL     1     -13.159  10.163  71.769  1.00  0.00    -0.463 C  
BRANCH  12  13
HETATM   13  C   UNL     1     -12.523  10.716  70.497  1.00  0.00    -0.445 C  
BRANCH  13  14
HETATM   14  C   UNL     1     -12.286  12.224  70.594  1.00  0.00    -0.287 C  
BRANCH  14  15
HETATM   15  N   UNL     1     -12.107  12.876  69.279  1.00  0.00    -0.235 NA 
HETATM   16  C   UNL     1     -11.860  14.317  69.425  1.00  0.00    -0.326 C  
BRANCH  15  17
HETATM   17  C   UNL     1     -10.995  12.200  68.558  1.00  0.00    -0.238 C  
BRANCH  17  18
HETATM   18  C   UNL     1     -11.357  11.739  67.126  1.00  0.00    -0.322 C  
BRANCH  18  19
HETATM   19  N   UNL     1     -10.218  11.394  66.244  1.00  0.00    -0.225 NA 
HETATM   20  C   UNL     1      -9.953   9.952  66.262  1.00  0.00    -0.256 C  
BRANCH  19  21
HETATM   21  C   UNL     1     -10.488  11.822  64.853  1.00  0.00    -0.287 C  
BRANCH  21  22
HETATM   22  C   UNL     1     -11.937  12.264  64.623  1.00  0.00    -0.437 C  
BRANCH  22  23
HETATM   23  C   UNL     1     -12.014  13.660  64.017  1.00  0.00    -0.431 C  
BRANCH  23  24
HETATM   24  O   UNL     1     -12.036  14.640  65.069  1.00  0.00    -0.379 OA 
BRANCH  24  25
HETATM   25  C   UNL     1     -11.436  15.823  64.781  1.00  0.00    -0.255 C  
HETATM   26  O   UNL     1     -11.610  16.490  63.774  1.00  0.00    -1.109 OA 
BRANCH  25  27
HETATM   27  C   UNL     1     -10.531  16.228  65.888  1.00  0.00    -0.359 A  
HETATM   28  C   UNL     1      -9.804  15.232  66.541  1.00  0.00    -0.283 A  
HETATM   29  C   UNL     1      -8.976  15.557  67.616  1.00  0.00    -0.184 A  
HETATM   30  C   UNL     1      -8.880  16.898  68.061  1.00  0.00    -0.216 A  
HETATM   31  C   UNL     1     -10.408  17.561  66.296  1.00  0.00    -0.335 A  
HETATM   32  C   UNL     1      -9.598  17.911  67.386  1.00  0.00    -0.271 A  
BRANCH  29  33
HETATM   33  O   UNL     1      -8.263  14.610  68.317  1.00  0.00    -0.132 OA 
HETATM   34  C   UNL     1      -7.221  13.947  67.607  1.00  0.00    -0.174 C  
ENDBRANCH  29  33
BRANCH  30  35
HETATM   35  O   UNL     1      -8.112  17.074  69.188  1.00  0.00    -0.185 OA 
HETATM   36  C   UNL     1      -6.777  17.535  69.031  1.00  0.00    -0.247 C  
ENDBRANCH  30  35
BRANCH  32  37
HETATM   37  O   UNL     1      -9.499  19.199  67.841  1.00  0.00    -0.303 OA 
HETATM   38  C   UNL     1     -10.076  20.239  67.059  1.00  0.00    -0.427 C  
ENDBRANCH  32  37
ENDBRANCH  25  27
ENDBRANCH  24  25
ENDBRANCH  23  24
ENDBRANCH  22  23
ENDBRANCH  21  22
ENDBRANCH  19  21
ENDBRANCH  18  19
ENDBRANCH  17  18
ENDBRANCH  15  17
ENDBRANCH  14  15
ENDBRANCH  13  14
ENDBRANCH  12  13
ENDBRANCH  11  12
ENDBRANCH   9  11
ENDBRANCH   5   9
BRANCH   8  39
HETATM   39  O   UNL     1     -10.334   4.135  73.293  1.00  0.00    -0.144 OA 
HETATM   40  C   UNL     1     -11.223   3.090  73.657  1.00  0.00    -0.200 C  
ENDBRANCH   8  39
BRANCH   7  41
HETATM   41  O   UNL     1      -9.114   3.807  70.702  1.00  0.00    -0.090 OA 
HETATM   42  C   UNL     1      -7.738   4.031  70.959  1.00  0.00    -0.055 C  
ENDBRANCH   7  41
ENDBRANCH   2   3
TORSDOF 21
ENDMDL
MODEL       10
REMARK 921   NORMALIZED FREE ENERGY PREDICTED BY IDOCK:   -5.37 KCAL/MOL
REMARK 922        TOTAL FREE ENERGY PREDICTED BY IDOCK:  -14.83 KCAL/MOL
REMARK 923 INTER-LIGAND FREE ENERGY PREDICTED BY IDOCK:  -11.48 KCAL/MOL
REMARK 924 INTRA-LIGAND FREE ENERGY PREDICTED BY IDOCK:   -3.35 KCAL/MOL
REMARK 927      BINDING AFFINITY PREDICTED BY RF-SCORE:    0.00 PKD
ROOT
HETATM    1  C   UNL     1     -10.102  14.756  65.431  1.00  0.00    -0.374 C  
HETATM    2  O   UNL     1     -11.368  15.027  66.026  1.00  0.00    -0.338 OA 
ENDROOT
BRANCH   2   3
HETATM    3  C   UNL     1     -11.509  14.710  67.355  1.00  0.00    -0.369 A  
HETATM    4  C   UNL     1     -11.725  13.383  67.748  1.00  0.00    -0.394 A  
HETATM    5  C   UNL     1     -11.870  13.034  69.091  1.00  0.00    -0.360 A  
HETATM    6  C   UNL     1     -11.790  14.026  70.062  1.00  0.00    -0.388 A  
HETATM    7  C   UNL     1     -11.386  15.721  68.336  1.00  0.00    -0.372 A  
HETATM    8  C   UNL     1     -11.541  15.364  69.700  1.00  0.00    -0.331 A  
BRANCH   5   9
HETATM    9  C   UNL     1     -12.111  11.600  69.387  1.00  0.00    -0.263 C  
HETATM   10  O   UNL     1     -12.125  10.745  68.512  1.00  0.00    -0.493 OA 
BRANCH   9  11
HETATM   11  O   UNL     1     -12.346  11.385  70.705  1.00  0.00    -0.353 OA 
BRANCH  11  12
HETATM   12  C   UNL     1     -12.649  10.017  71.033  1.00  0.00    -0.367 C  
BRANCH  12  13
HETATM   13  C   UNL     1     -11.399   9.335  71.583  1.00  0.00    -0.467 C  
BRANCH  13  14
HETATM   14  C   UNL     1     -11.751   8.121  72.443  1.00  0.00    -0.399 C  
BRANCH  14  15
HETATM   15  N   UNL     1     -10.672   7.112  72.506  1.00  0.00    -0.235 NA 
HETATM   16  C   UNL     1     -10.237   6.878  73.889  1.00  0.00    -0.367 C  
BRANCH  15  17
HETATM   17  C   UNL     1     -11.152   5.860  71.862  1.00  0.00    -0.268 C  
BRANCH  17  18
HETATM   18  C   UNL     1     -10.363   5.458  70.593  1.00  0.00    -0.262 C  
BRANCH  18  19
HETATM   19  N   UNL     1      -8.954   5.051  70.801  1.00  0.00    -0.130 NA 
HETATM   20  C   UNL     1      -8.854   3.988  71.807  1.00  0.00    -0.112 C  
BRANCH  19  21
HETATM   21  C   UNL     1      -8.355   4.579  69.533  1.00  0.00    -0.073 C  
BRANCH  21  22
HETATM   22  C   UNL     1      -9.354   3.863  68.618  1.00  0.00    -0.227 C  
BRANCH  22  23
HETATM   23  C   UNL     1      -9.278   4.376  67.186  1.00  0.00    -0.142 C  
BRANCH  23  24
HETATM   24  O   UNL     1      -8.945   5.774  67.193  1.00  0.00    -0.114 OA 
BRANCH  24  25
HETATM   25  C   UNL     1      -9.991   6.628  67.061  1.00  0.00    -0.169 C  
HETATM   26  O   UNL     1     -11.147   6.317  66.820  1.00  0.00    -0.343 OA 
BRANCH  25  27
HETATM   27  C   UNL     1      -9.547   8.030  67.276  1.00  0.00    -0.210 A  
HETATM   28  C   UNL     1      -8.960   8.352  68.500  1.00  0.00    -0.136 A  
HETATM   29  C   UNL     1      -8.567   9.664  68.766  1.00  0.00    -0.125 A  
HETATM   30  C   UNL     1      -8.778  10.681  67.803  1.00  0.00    -0.129 A  
HETATM   31  C   UNL     1      -9.719   9.020  66.303  1.00  0.00    -0.345 A  
HETATM   32  C   UNL     1      -9.352  10.351  66.554  1.00  0.00    -0.163 A  
BRANCH  29  33
HETATM   33  O   UNL     1      -8.014  10.045  69.969  1.00  0.00    -0.175 OA 
HETATM   34  C   UNL     1      -7.800   9.009  70.923  1.00  0.00    -0.146 C  
ENDBRANCH  29  33
BRANCH  30  35
HETATM   35  O   UNL     1      -8.441  11.946  68.221  1.00  0.00    -0.152 OA 
HETATM   36  C   UNL     1      -7.199  12.491  67.800  1.00  0.00    -0.125 C  
ENDBRANCH  30  35
BRANCH  32  37
HETATM   37  O   UNL     1      -9.557  11.351  65.641  1.00  0.00    -0.219 OA 
HETATM   38  C   UNL     1     -10.173  11.021  64.402  1.00  0.00    -0.346 C  
ENDBRANCH  32  37
ENDBRANCH  25  27
ENDBRANCH  24  25
ENDBRANCH  23  24
ENDBRANCH  22  23
ENDBRANCH  21  22
ENDBRANCH  19  21
ENDBRANCH  18  19
ENDBRANCH  17  18
ENDBRANCH  15  17
ENDBRANCH  14  15
ENDBRANCH  13  14
ENDBRANCH  12  13
ENDBRANCH  11  12
ENDBRANCH   9  11
ENDBRANCH   5   9
BRANCH   8  39
HETATM   39  O   UNL     1     -11.485  16.172  70.811  1.00  0.00    -0.393 OA 
HETATM   40  C   UNL     1     -12.298  15.881  71.938  1.00  0.00    -0.471 C  
ENDBRANCH   8  39
BRANCH   7  41
HETATM   41  O   UNL     1     -11.140  17.045  68.086  1.00  0.00    -0.334 OA 
HETATM   42  C   UNL     1      -9.813  17.540  68.015  1.00  0.00    -0.299 C  
ENDBRANCH   7  41
ENDBRANCH   2   3
TORSDOF 21
ENDMDL
MODEL       11
REMARK 921   NORMALIZED FREE ENERGY PREDICTED BY IDOCK:   -5.37 KCAL/MOL
REMARK 922        TOTAL FREE ENERGY PREDICTED BY IDOCK:  -14.82 KCAL/MOL
REMARK 923 INTER-LIGAND FREE ENERGY PREDICTED BY IDOCK:  -11.64 KCAL/MOL
REMARK 924 INTRA-LIGAND FREE ENERGY PREDICTED BY IDOCK:   -3.18 KCAL/MOL
REMARK 927      BINDING AFFINITY PREDICTED BY RF-SCORE:    0.00 PKD
ROOT
HETATM    1  C   UNL     1      -7.895  10.033  63.836  1.00  0.00    -0.150 C  
HETATM    2  O   UNL     1      -9.254   9.857  64.230  1.00  0.00    -0.245 OA 
ENDROOT
BRANCH   2   3
HETATM    3  C   UNL     1      -9.659  10.514  65.366  1.00  0.00    -0.237 A  
HETATM    4  C   UNL     1      -8.907  10.424  66.543  1.00  0.00    -0.150 A  
HETATM    5  C   UNL     1      -9.295  11.082  67.711  1.00  0.00    -0.162 A  
HETATM    6  C   UNL     1     -10.453  11.852  67.701  1.00  0.00    -0.232 A  
HETATM    7  C   UNL     1     -10.817  11.326  65.334  1.00  0.00    -0.188 A  
HETATM    8  C   UNL     1     -11.213  11.987  66.524  1.00  0.00    -0.334 A  
BRANCH   5   9
HETATM    9  C   UNL     1      -8.427  10.901  68.901  1.00  0.00    -0.141 C  
HETATM   10  O   UNL     1      -7.432  11.586  69.095  1.00  0.00    -0.100 OA 
BRANCH   9  11
HETATM   11  O   UNL     1      -8.850   9.882  69.688  1.00  0.00    -0.182 OA 
BRANCH  11  12
HETATM   12  C   UNL     1      -7.787   9.139  70.311  1.00  0.00    -0.125 C  
BRANCH  12  13
HETATM   13  C   UNL     1      -8.349   8.305  71.458  1.00  0.00    -0.174 C  
BRANCH  13  14
HETATM   14  C   UNL     1      -9.220   7.156  70.948  1.00  0.00    -0.152 C  
BRANCH  14  15
HETATM   15  N   UNL     1     -10.526   7.059  71.634  1.00  0.00    -0.200 NA 
HETATM   16  C   UNL     1     -10.427   7.486  73.037  1.00  0.00    -0.342 C  
BRANCH  15  17
HETATM   17  C   UNL     1     -11.521   7.871  70.883  1.00  0.00    -0.281 C  
BRANCH  17  18
HETATM   18  C   UNL     1     -11.791   9.266  71.495  1.00  0.00    -0.374 C  
BRANCH  18  19
HETATM   19  N   UNL     1     -13.200   9.727  71.475  1.00  0.00    -0.387 NA 
HETATM   20  C   UNL     1     -14.018   8.966  72.425  1.00  0.00    -0.448 C  
BRANCH  19  21
HETATM   21  C   UNL     1     -13.281  11.167  71.805  1.00  0.00    -0.381 C  
BRANCH  21  22
HETATM   22  C   UNL     1     -12.474  12.056  70.854  1.00  0.00    -0.384 C  
BRANCH  22  23
HETATM   23  C   UNL     1     -12.780  13.534  71.063  1.00  0.00    -0.322 C  
BRANCH  23  24
HETATM   24  O   UNL     1     -12.241  14.296  69.970  1.00  0.00    -0.323 OA 
BRANCH  24  25
HETATM   25  C   UNL     1     -11.462  15.351  70.317  1.00  0.00    -0.316 C  
HETATM   26  O   UNL     1     -11.444  15.904  71.405  1.00  0.00    -0.390 OA 
BRANCH  25  27
HETATM   27  C   UNL     1     -10.588  15.747  69.181  1.00  0.00    -0.242 A  
HETATM   28  C   UNL     1     -10.926  16.893  68.461  1.00  0.00    -0.290 A  
HETATM   29  C   UNL     1     -10.163  17.281  67.359  1.00  0.00    -0.325 A  
HETATM   30  C   UNL     1      -9.050  16.503  66.955  1.00  0.00    -0.220 A  
HETATM   31  C   UNL     1      -9.465  14.998  68.813  1.00  0.00    -0.210 A  
HETATM   32  C   UNL     1      -8.693  15.355  67.697  1.00  0.00    -0.167 A  
BRANCH  29  33
HETATM   33  O   UNL     1     -10.471  18.382  66.593  1.00  0.00    -0.384 OA 
HETATM   34  C   UNL     1     -10.573  19.625  67.283  1.00  0.00    -0.472 C  
ENDBRANCH  29  33
BRANCH  30  35
HETATM   35  O   UNL     1      -8.442  16.932  65.799  1.00  0.00    -0.492 OA 
HETATM   36  C   UNL     1      -7.267  17.724  65.906  1.00  0.00    -0.225 C  
ENDBRANCH  30  35
BRANCH  32  37
HETATM   37  O   UNL     1      -7.621  14.612  67.282  1.00  0.00    -0.193 OA 
HETATM   38  C   UNL     1      -6.394  14.739  67.992  1.00  0.00    -0.154 C  
ENDBRANCH  32  37
ENDBRANCH  25  27
ENDBRANCH  24  25
ENDBRANCH  23  24
ENDBRANCH  22  23
ENDBRANCH  21  22
ENDBRANCH  19  21
ENDBRANCH  18  19
ENDBRANCH  17  18
ENDBRANCH  15  17
ENDBRANCH  14  15
ENDBRANCH  13  14
ENDBRANCH  12  13
ENDBRANCH  11  12
ENDBRANCH   9  11
ENDBRANCH   5   9
BRANCH   8  39
HETATM   39  O   UNL     1     -12.302  12.802  66.733  1.00  0.00    -0.431 OA 
HETATM   40  C   UNL     1     -12.190  14.200  66.516  1.00  0.00    -0.433 C  
ENDBRANCH   8  39
BRANCH   7  41
HETATM   41  O   UNL     1     -11.617  11.526  64.241  1.00  0.00    -0.265 OA 
HETATM   42  C   UNL     1     -11.360  12.583  63.332  1.00  0.00    -0.422 C  
ENDBRANCH   7  41
ENDBRANCH   2   3
TORSDOF 21
ENDMDL
MODEL       12
REMARK 921   NORMALIZED FREE ENERGY PREDICTED BY IDOCK:   -5.36 KCAL/MOL
REMARK 922        TOTAL FREE ENERGY PREDICTED BY IDOCK:  -14.79 KCAL/MOL
REMARK 923 INTER-LIGAND FREE ENERGY PREDICTED BY IDOCK:  -11.54 KCAL/MOL
REMARK 924 INTRA-LIGAND FREE ENERGY PREDICTED BY IDOCK:   -3.25 KCAL/MOL
REMARK 927      BINDING AFFINITY PREDICTED BY RF-SCORE:    0.00 PKD
ROOT
HETATM    1  C   UNL     1     -12.252  15.293  64.853  1.00  0.00     0.037 C  
HETATM    2  O   UNL     1     -10.866  15.091  64.588  1.00  0.00    -0.373 OA 
ENDROOT
BRANCH   2   3
HETATM    3  C   UNL     1     -10.301  13.942  65.085  1.00  0.00    -0.383 A  
HETATM    4  C   UNL     1      -9.542  13.977  66.261  1.00  0.00    -0.284 A  
HETATM    5  C   UNL     1      -8.958  12.824  66.788  1.00  0.00    -0.188 A  
HETATM    6  C   UNL     1      -9.142  11.612  66.133  1.00  0.00    -0.209 A  
HETATM    7  C   UNL     1     -10.527  12.708  64.432  1.00  0.00    -0.373 A  
HETATM    8  C   UNL     1      -9.926  11.540  64.966  1.00  0.00    -0.263 A  
BRANCH   5   9
HETATM    9  C   UNL     1      -8.164  12.986  68.031  1.00  0.00    -0.161 C  
HETATM   10  O   UNL     1      -7.878  12.041  68.752  1.00  0.00    -0.113 OA 
BRANCH   9  11
HETATM   11  O   UNL     1      -7.850  14.283  68.268  1.00  0.00    -0.123 OA 
BRANCH  11  12
HETATM   12  C   UNL     1      -6.446  14.519  68.480  1.00  0.00    -0.094 C  
BRANCH  12  13
HETATM   13  C   UNL     1      -5.985  15.681  67.605  1.00  0.00    -0.159 C  
BRANCH  13  14
HETATM   14  C   UNL     1      -7.152  16.585  67.206  1.00  0.00    -0.171 C  
BRANCH  14  15
HETATM   15  N   UNL     1      -6.946  18.004  67.570  1.00  0.00    -0.190 NA 
HETATM   16  C   UNL     1      -6.774  18.843  66.376  1.00  0.00    -0.205 C  
BRANCH  15  17
HETATM   17  C   UNL     1      -8.098  18.456  68.396  1.00  0.00    -0.308 C  
BRANCH  17  18
HETATM   18  C   UNL     1      -9.110  17.337  68.737  1.00  0.00    -0.232 C  
BRANCH  18  19
HETATM   19  N   UNL     1     -10.524  17.606  68.385  1.00  0.00    -0.372 NA 
HETATM   20  C   UNL     1     -10.620  18.409  67.162  1.00  0.00    -0.383 C  
BRANCH  19  21
HETATM   21  C   UNL     1     -11.264  16.338  68.196  1.00  0.00    -0.298 C  
BRANCH  21  22
HETATM   22  C   UNL     1     -11.165  15.391  69.396  1.00  0.00    -0.300 C  
BRANCH  22  23
HETATM   23  C   UNL     1     -12.238  14.310  69.354  1.00  0.00    -0.278 C  
BRANCH  23  24
HETATM   24  O   UNL     1     -11.687  13.067  69.819  1.00  0.00    -0.300 OA 
BRANCH  24  25
HETATM   25  C   UNL     1     -11.860  12.003  68.994  1.00  0.00    -0.315 C  
HETATM   26  O   UNL     1     -12.148  12.052  67.809  1.00  0.00    -0.537 OA 
BRANCH  25  27
HETATM   27  C   UNL     1     -11.624  10.733  69.729  1.00  0.00    -0.393 A  
HETATM   28  C   UNL     1     -12.452  10.438  70.813  1.00  0.00    -0.461 A  
HETATM   29  C   UNL     1     -12.242   9.280  71.563  1.00  0.00    -0.362 A  
HETATM   30  C   UNL     1     -11.177   8.405  71.238  1.00  0.00    -0.259 A  
HETATM   31  C   UNL     1     -10.597   9.851  69.377  1.00  0.00    -0.250 A  
HETATM   32  C   UNL     1     -10.352   8.690  70.126  1.00  0.00    -0.207 A  
BRANCH  29  33
HETATM   33  O   UNL     1     -13.007   8.958  72.661  1.00  0.00    -0.407 OA 
HETATM   34  C   UNL     1     -14.332   8.505  72.400  1.00  0.00    -0.320 C  
ENDBRANCH  29  33
BRANCH  30  35
HETATM   35  O   UNL     1     -11.013   7.354  72.109  1.00  0.00    -0.228 OA 
HETATM   36  C   UNL     1     -10.242   7.563  73.284  1.00  0.00    -0.343 C  
ENDBRANCH  30  35
BRANCH  32  37
HETATM   37  O   UNL     1      -9.322   7.836  69.837  1.00  0.00    -0.157 OA 
HETATM   38  C   UNL     1      -8.248   8.317  69.036  1.00  0.00    -0.119 C  
ENDBRANCH  32  37
ENDBRANCH  25  27
ENDBRANCH  24  25
ENDBRANCH  23  24
ENDBRANCH  22  23
ENDBRANCH  21  22
ENDBRANCH  19  21
ENDBRANCH  18  19
ENDBRANCH  17  18
ENDBRANCH  15  17
ENDBRANCH  14  15
ENDBRANCH  13  14
ENDBRANCH  12  13
ENDBRANCH  11  12
ENDBRANCH   9  11
ENDBRANCH   5   9
BRANCH   8  39
HETATM   39  O   UNL     1      -9.988  10.249  64.494  1.00  0.00    -0.339 OA 
HETATM   40  C   UNL     1      -9.220   9.231  65.118  1.00  0.00    -0.200 C  
ENDBRANCH   8  39
BRANCH   7  41
HETATM   41  O   UNL     1     -11.276  12.534  63.299  1.00  0.00    -0.452 OA 
HETATM   42  C   UNL     1     -12.611  12.061  63.372  1.00  0.00    -0.469 C  
ENDBRANCH   7  41
ENDBRANCH   2   3
TORSDOF 21
ENDMDL
MODEL       13
REMARK 921   NORMALIZED FREE ENERGY PREDICTED BY IDOCK:   -5.34 KCAL/MOL
REMARK 922        TOTAL FREE ENERGY PREDICTED BY IDOCK:  -14.76 KCAL/MOL
REMARK 923 INTER-LIGAND FREE ENERGY PREDICTED BY IDOCK:  -12.00 KCAL/MOL
REMARK 924 INTRA-LIGAND FREE ENERGY PREDICTED BY IDOCK:   -2.76 KCAL/MOL
REMARK 927      BINDING AFFINITY PREDICTED BY RF-SCORE:    0.00 PKD
ROOT
HETATM    1  C   UNL     1     -11.906  12.647  69.125  1.00  0.00    -0.297 C  
HETATM    2  O   UNL     1     -12.362  13.854  68.518  1.00  0.00    -0.272 OA 
ENDROOT
BRANCH   2   3
HETATM    3  C   UNL     1     -11.776  14.209  67.328  1.00  0.00    -0.392 A  
HETATM    4  C   UNL     1     -11.986  13.439  66.178  1.00  0.00    -0.460 A  
HETATM    5  C   UNL     1     -11.403  13.778  64.956  1.00  0.00    -0.334 A  
HETATM    6  C   UNL     1     -10.601  14.911  64.879  1.00  0.00    -0.417 A  
HETATM    7  C   UNL     1     -10.994  15.384  67.253  1.00  0.00    -0.317 A  
HETATM    8  C   UNL     1     -10.396  15.721  66.012  1.00  0.00    -0.340 A  
BRANCH   5   9
HETATM    9  C   UNL     1     -11.686  12.880  63.809  1.00  0.00    -0.492 C  
HETATM   10  O   UNL     1     -12.807  12.753  63.338  1.00  0.00    -0.667 OA 
BRANCH   9  11
HETATM   11  O   UNL     1     -10.578  12.213  63.401  1.00  0.00    -0.436 OA 
BRANCH  11  12
HETATM   12  C   UNL     1     -10.497  10.858  63.880  1.00  0.00    -0.289 C  
BRANCH  12  13
HETATM   13  C   UNL     1      -9.193  10.666  64.650  1.00  0.00    -0.262 C  
BRANCH  13  14
HETATM   14  C   UNL     1      -9.403  10.804  66.158  1.00  0.00    -0.183 C  
BRANCH  14  15
HETATM   15  N   UNL     1      -8.173  11.173  66.891  1.00  0.00    -0.143 NA 
HETATM   16  C   UNL     1      -8.436  12.223  67.884  1.00  0.00    -0.165 C  
BRANCH  15  17
HETATM   17  C   UNL     1      -7.609   9.950  67.522  1.00  0.00    -0.091 C  
BRANCH  17  18
HETATM   18  C   UNL     1      -7.785   9.891  69.058  1.00  0.00    -0.089 C  
BRANCH  18  19
HETATM   19  N   UNL     1      -8.793   8.930  69.564  1.00  0.00    -0.141 NA 
HETATM   20  C   UNL     1      -8.364   8.334  70.833  1.00  0.00    -0.130 C  
BRANCH  19  21
HETATM   21  C   UNL     1     -10.099   9.599  69.757  1.00  0.00    -0.233 C  
BRANCH  21  22
HETATM   22  C   UNL     1     -10.536   9.670  71.223  1.00  0.00    -0.269 C  
BRANCH  22  23
HETATM   23  C   UNL     1     -12.052   9.729  71.361  1.00  0.00    -0.400 C  
BRANCH  23  24
HETATM   24  O   UNL     1     -12.494   8.698  72.260  1.00  0.00    -0.367 OA 
BRANCH  24  25
HETATM   25  C   UNL     1     -13.012   7.590  71.672  1.00  0.00    -0.358 C  
HETATM   26  O   UNL     1     -14.185   7.408  71.390  1.00  0.00    -0.433 OA 
BRANCH  25  27
HETATM   27  C   UNL     1     -11.937   6.604  71.386  1.00  0.00    -0.405 A  
HETATM   28  C   UNL     1     -11.326   5.967  72.467  1.00  0.00    -0.352 A  
HETATM   29  C   UNL     1     -10.282   5.067  72.252  1.00  0.00    -0.201 A  
HETATM   30  C   UNL     1      -9.824   4.807  70.937  1.00  0.00    -0.209 A  
HETATM   31  C   UNL     1     -11.519   6.320  70.082  1.00  0.00    -0.452 A  
HETATM   32  C   UNL     1     -10.457   5.435  69.840  1.00  0.00    -0.308 A  
BRANCH  29  33
HETATM   33  O   UNL     1      -9.621   4.436  73.282  1.00  0.00    -0.121 OA 
HETATM   34  C   UNL     1      -8.898   5.275  74.178  1.00  0.00    -0.119 C  
ENDBRANCH  29  33
BRANCH  30  35
HETATM   35  O   UNL     1      -8.727   3.982  70.865  1.00  0.00    -0.074 OA 
HETATM   36  C   UNL     1      -7.444   4.572  70.711  1.00  0.00    -0.052 C  
ENDBRANCH  30  35
BRANCH  32  37
HETATM   37  O   UNL     1      -9.992   5.178  68.579  1.00  0.00    -0.155 OA 
HETATM   38  C   UNL     1     -10.639   5.805  67.477  1.00  0.00    -0.253 C  
ENDBRANCH  32  37
ENDBRANCH  25  27
ENDBRANCH  24  25
ENDBRANCH  23  24
ENDBRANCH  22  23
ENDBRANCH  21  22
ENDBRANCH  19  21
ENDBRANCH  18  19
ENDBRANCH  17  18
ENDBRANCH  15  17
ENDBRANCH  14  15
ENDBRANCH  13  14
ENDBRANCH  12  13
ENDBRANCH  11  12
ENDBRANCH   9  11
ENDBRANCH   5   9
BRANCH   8  39
HETATM   39  O   UNL     1      -9.588  16.792  65.710  1.00  0.00    -0.506 OA 
HETATM   40  C   UNL     1      -8.236  16.801  66.141  1.00  0.00    -0.264 C  
ENDBRANCH   8  39
BRANCH   7  41
HETATM   41  O   UNL     1     -10.742  16.239  68.293  1.00  0.00    -0.292 OA 
HETATM   42  C   UNL     1      -9.729  15.954  69.243  1.00  0.00    -0.263 C  
ENDBRANCH   7  41
ENDBRANCH   2   3
TORSDOF 21
ENDMDL
MODEL       14
REMARK 921   NORMALIZED FREE ENERGY PREDICTED BY IDOCK:   -5.32 KCAL/MOL
REMARK 922        TOTAL FREE ENERGY PREDICTED BY IDOCK:  -14.71 KCAL/MOL
REMARK 923 INTER-LIGAND FREE ENERGY PREDICTED BY IDOCK:  -11.99 KCAL/MOL
REMARK 924 INTRA-LIGAND FREE ENERGY PREDICTED BY IDOCK:   -2.72 KCAL/MOL
REMARK 927      BINDING AFFINITY PREDICTED BY RF-SCORE:    0.00 PKD
ROOT
HETATM    1  C   UNL     1     -12.348  14.969  69.922  1.00  0.00    -0.275 C  
HETATM    2  O   UNL     1     -11.325  14.320  69.170  1.00  0.00    -0.249 OA 
ENDROOT
BRANCH   2   3
HETATM    3  C   UNL     1     -11.216  14.665  67.846  1.00  0.00    -0.304 A  
HETATM    4  C   UNL     1     -11.734  13.827  66.850  1.00  0.00    -0.424 A  
HETATM    5  C   UNL     1     -11.637  14.155  65.497  1.00  0.00    -0.337 A  
HETATM    6  C   UNL     1     -11.019  15.346  65.131  1.00  0.00    -0.430 A  
HETATM    7  C   UNL     1     -10.621  15.897  67.487  1.00  0.00    -0.315 A  
HETATM    8  C   UNL     1     -10.518  16.223  66.111  1.00  0.00    -0.322 A  
BRANCH   5   9
HETATM    9  C   UNL     1     -12.208  13.184  64.532  1.00  0.00    -0.406 C  
HETATM   10  O   UNL     1     -13.268  12.607  64.733  1.00  0.00    -0.846 OA 
BRANCH   9  11
HETATM   11  O   UNL     1     -11.401  13.000  63.458  1.00  0.00    -0.406 OA 
BRANCH  11  12
HETATM   12  C   UNL     1     -10.208  12.246  63.741  1.00  0.00    -0.402 C  
BRANCH  12  13
HETATM   13  C   UNL     1     -10.590  10.867  64.272  1.00  0.00    -0.336 C  
BRANCH  13  14
HETATM   14  C   UNL     1      -9.415  10.190  64.979  1.00  0.00    -0.271 C  
BRANCH  14  15
HETATM   15  N   UNL     1      -9.681   9.888  66.402  1.00  0.00    -0.198 NA 
HETATM   16  C   UNL     1     -10.154   8.508  66.577  1.00  0.00    -0.258 C  
BRANCH  15  17
HETATM   17  C   UNL     1      -8.442  10.146  67.184  1.00  0.00    -0.125 C  
BRANCH  17  18
HETATM   18  C   UNL     1      -7.485  11.172  66.532  1.00  0.00    -0.131 C  
BRANCH  18  19
HETATM   19  N   UNL     1      -7.079  12.318  67.380  1.00  0.00    -0.141 NA 
HETATM   20  C   UNL     1      -8.189  12.765  68.229  1.00  0.00    -0.159 C  
BRANCH  19  21
HETATM   21  C   UNL     1      -5.928  11.951  68.235  1.00  0.00    -0.050 C  
BRANCH  21  22
HETATM   22  C   UNL     1      -6.244  11.997  69.733  1.00  0.00    -0.136 C  
BRANCH  22  23
HETATM   23  C   UNL     1      -5.693  10.780  70.465  1.00  0.00    -0.120 C  
BRANCH  23  24
HETATM   24  O   UNL     1      -6.748  10.150  71.212  1.00  0.00    -0.308 OA 
BRANCH  24  25
HETATM   25  C   UNL     1      -7.349   9.096  70.605  1.00  0.00    -0.111 C  
HETATM   26  O   UNL     1      -6.834   8.345  69.793  1.00  0.00    -0.042 OA 
BRANCH  25  27
HETATM   27  C   UNL     1      -8.749   8.952  71.082  1.00  0.00    -0.280 A  
HETATM   28  C   UNL     1      -9.736   9.724  70.467  1.00  0.00    -0.195 A  
HETATM   29  C   UNL     1     -11.057   9.657  70.910  1.00  0.00    -0.352 A  
HETATM   30  C   UNL     1     -11.403   8.818  71.997  1.00  0.00    -0.371 A  
HETATM   31  C   UNL     1      -9.091   8.089  72.129  1.00  0.00    -0.227 A  
HETATM   32  C   UNL     1     -10.409   8.019  72.606  1.00  0.00    -0.329 A  
BRANCH  29  33
HETATM   33  O   UNL     1     -12.064  10.421  70.362  1.00  0.00    -0.282 OA 
HETATM   34  C   UNL     1     -11.812  10.968  69.071  1.00  0.00    -0.329 C  
ENDBRANCH  29  33
BRANCH  30  35
HETATM   35  O   UNL     1     -12.713   8.915  72.403  1.00  0.00    -0.388 OA 
HETATM   36  C   UNL     1     -13.667   8.033  71.829  1.00  0.00    -0.359 C  
ENDBRANCH  30  35
BRANCH  32  37
HETATM   37  O   UNL     1     -10.762   7.223  73.663  1.00  0.00    -0.378 OA 
HETATM   38  C   UNL     1     -10.247   5.898  73.715  1.00  0.00    -0.241 C  
ENDBRANCH  32  37
ENDBRANCH  25  27
ENDBRANCH  24  25
ENDBRANCH  23  24
ENDBRANCH  22  23
ENDBRANCH  21  22
ENDBRANCH  19  21
ENDBRANCH  18  19
ENDBRANCH  17  18
ENDBRANCH  15  17
ENDBRANCH  14  15
ENDBRANCH  13  14
ENDBRANCH  12  13
ENDBRANCH  11  12
ENDBRANCH   9  11
ENDBRANCH   5   9
BRANCH   8  39
HETATM   39  O   UNL     1      -9.965  17.342  65.532  1.00  0.00    -0.555 OA 
HETATM   40  C   UNL     1     -10.632  18.591  65.630  1.00  0.00    -0.111 C  
ENDBRANCH   8  39
BRANCH   7  41
HETATM   41  O   UNL     1     -10.111  16.818  68.363  1.00  0.00    -0.257 OA 
HETATM   42  C   UNL     1      -8.780  16.713  68.839  1.00  0.00    -0.238 C  
ENDBRANCH   7  41
ENDBRANCH   2   3
TORSDOF 21
ENDMDL
MODEL       15
REMARK 921   NORMALIZED FREE ENERGY PREDICTED BY IDOCK:   -5.31 KCAL/MOL
REMARK 922        TOTAL FREE ENERGY PREDICTED BY IDOCK:  -14.69 KCAL/MOL
REMARK 923 INTER-LIGAND FREE ENERGY PREDICTED BY IDOCK:  -11.69 KCAL/MOL
REMARK 924 INTRA-LIGAND FREE ENERGY PREDICTED BY IDOCK:   -3.01 KCAL/MOL
REMARK 927      BINDING AFFINITY PREDICTED BY RF-SCORE:    0.00 PKD
ROOT
HETATM    1  C   UNL     1     -11.660  11.702  68.052  1.00  0.00    -0.313 C  
HETATM    2  O   UNL     1     -10.242  11.664  68.191  1.00  0.00    -0.184 OA 
ENDROOT
BRANCH   2   3
HETATM    3  C   UNL     1      -9.733  10.773  69.103  1.00  0.00    -0.163 A  
HETATM    4  C   UNL     1     -10.591   9.961  69.856  1.00  0.00    -0.312 A  
HETATM    5  C   UNL     1     -10.100   9.046  70.789  1.00  0.00    -0.303 A  
HETATM    6  C   UNL     1      -8.726   8.934  70.968  1.00  0.00    -0.276 A  
HETATM    7  C   UNL     1      -8.333  10.638  69.250  1.00  0.00    -0.103 A  
HETATM    8  C   UNL     1      -7.837   9.713  70.204  1.00  0.00    -0.174 A  
BRANCH   5   9
HETATM    9  C   UNL     1     -11.105   8.252  71.537  1.00  0.00    -0.259 C  
HETATM   10  O   UNL     1     -11.934   8.770  72.272  1.00  0.00    -0.365 OA 
BRANCH   9  11
HETATM   11  O   UNL     1     -10.952   6.920  71.334  1.00  0.00    -0.233 OA 
BRANCH  11  12
HETATM   12  C   UNL     1     -11.615   6.425  70.156  1.00  0.00    -0.381 C  
BRANCH  12  13
HETATM   13  C   UNL     1     -10.578   5.874  69.181  1.00  0.00    -0.369 C  
BRANCH  13  14
HETATM   14  C   UNL     1     -10.663   6.562  67.818  1.00  0.00    -0.296 C  
BRANCH  14  15
HETATM   15  N   UNL     1      -9.569   7.527  67.578  1.00  0.00    -0.137 NA 
HETATM   16  C   UNL     1      -8.288   6.842  67.359  1.00  0.00    -0.122 C  
BRANCH  15  17
HETATM   17  C   UNL     1      -9.936   8.386  66.421  1.00  0.00    -0.221 C  
BRANCH  17  18
HETATM   18  C   UNL     1      -8.892   8.391  65.279  1.00  0.00    -0.069 C  
BRANCH  18  19
HETATM   19  N   UNL     1      -8.795   9.639  64.487  1.00  0.00    -0.209 NA 
HETATM   20  C   UNL     1      -8.657   9.347  63.056  1.00  0.00    -0.221 C  
BRANCH  19  21
HETATM   21  C   UNL     1      -9.991  10.485  64.699  1.00  0.00    -0.347 C  
BRANCH  21  22
HETATM   22  C   UNL     1     -10.431  11.243  63.443  1.00  0.00    -0.424 C  
BRANCH  22  23
HETATM   23  C   UNL     1     -11.507  12.276  63.753  1.00  0.00    -0.466 C  
BRANCH  23  24
HETATM   24  O   UNL     1     -10.976  13.269  64.646  1.00  0.00    -0.331 OA 
BRANCH  24  25
HETATM   25  C   UNL     1     -11.895  14.050  65.268  1.00  0.00    -0.359 C  
HETATM   26  O   UNL     1     -13.108  13.950  65.170  1.00  0.00    -0.773 OA 
BRANCH  25  27
HETATM   27  C   UNL     1     -11.222  15.059  66.128  1.00  0.00    -0.307 A  
HETATM   28  C   UNL     1     -11.580  15.117  67.475  1.00  0.00    -0.268 A  
HETATM   29  C   UNL     1     -11.009  16.076  68.313  1.00  0.00    -0.335 A  
HETATM   30  C   UNL     1     -10.075  17.007  67.797  1.00  0.00    -0.302 A  
HETATM   31  C   UNL     1     -10.268  15.948  65.621  1.00  0.00    -0.406 A  
HETATM   32  C   UNL     1      -9.695  16.935  66.437  1.00  0.00    -0.284 A  
BRANCH  29  33
HETATM   33  O   UNL     1     -11.350  16.200  69.641  1.00  0.00    -0.326 OA 
HETATM   34  C   UNL     1     -11.623  14.990  70.341  1.00  0.00    -0.287 C  
ENDBRANCH  29  33
BRANCH  30  35
HETATM   35  O   UNL     1      -9.661  17.962  68.695  1.00  0.00    -0.315 OA 
HETATM   36  C   UNL     1     -10.189  19.275  68.578  1.00  0.00    -0.383 C  
ENDBRANCH  30  35
BRANCH  32  37
HETATM   37  O   UNL     1      -8.798  17.851  65.957  1.00  0.00    -0.492 OA 
HETATM   38  C   UNL     1      -7.414  17.640  66.206  1.00  0.00    -0.305 C  
ENDBRANCH  32  37
ENDBRANCH  25  27
ENDBRANCH  24  25
ENDBRANCH  23  24
ENDBRANCH  22  23
ENDBRANCH  21  22
ENDBRANCH  19  21
ENDBRANCH  18  19
ENDBRANCH  17  18
ENDBRANCH  15  17
ENDBRANCH  14  15
ENDBRANCH  13  14
ENDBRANCH  12  13
ENDBRANCH  11  12
ENDBRANCH   9  11
ENDBRANCH   5   9
BRANCH   8  39
HETATM   39  O   UNL     1      -6.531   9.432  70.530  1.00  0.00    -0.059 OA 
HETATM   40  C   UNL     1      -6.002   8.140  70.274  1.00  0.00    -0.028 C  
ENDBRANCH   8  39
BRANCH   7  41
HETATM   41  O   UNL     1      -7.389  11.344  68.551  1.00  0.00    -0.091 OA 
HETATM   42  C   UNL     1      -6.982  10.935  67.256  1.00  0.00    -0.089 C  
ENDBRANCH   7  41
ENDBRANCH   2   3
TORSDOF 21
ENDMDL
MODEL       16
REMARK 921   NORMALIZED FREE ENERGY PREDICTED BY IDOCK:   -5.30 KCAL/MOL
REMARK 922        TOTAL FREE ENERGY PREDICTED BY IDOCK:  -14.66 KCAL/MOL
REMARK 923 INTER-LIGAND FREE ENERGY PREDICTED BY IDOCK:  -11.97 KCAL/MOL
REMARK 924 INTRA-LIGAND FREE ENERGY PREDICTED BY IDOCK:   -2.69 KCAL/MOL
REMARK 927      BINDING AFFINITY PREDICTED BY RF-SCORE:    0.00 PKD
ROOT
HETATM    1  C   UNL     1     -12.518  12.096  63.350  1.00  0.00    -0.512 C  
HETATM    2  O   UNL     1     -11.122  12.363  63.467  1.00  0.00    -0.435 OA 
ENDROOT
BRANCH   2   3
HETATM    3  C   UNL     1     -10.499  11.910  64.604  1.00  0.00    -0.295 A  
HETATM    4  C   UNL     1     -10.400  10.537  64.859  1.00  0.00    -0.307 A  
HETATM    5  C   UNL     1      -9.771  10.050  66.006  1.00  0.00    -0.301 A  
HETATM    6  C   UNL     1      -9.223  10.951  66.912  1.00  0.00    -0.175 A  
HETATM    7  C   UNL     1      -9.911  12.834  65.500  1.00  0.00    -0.221 A  
HETATM    8  C   UNL     1      -9.280  12.336  66.668  1.00  0.00    -0.208 A  
BRANCH   5   9
HETATM    9  C   UNL     1      -9.739   8.577  66.176  1.00  0.00    -0.189 C  
HETATM   10  O   UNL     1      -8.873   7.877  65.670  1.00  0.00    -0.155 OA 
BRANCH   9  11
HETATM   11  O   UNL     1     -10.790   8.127  66.907  1.00  0.00    -0.250 OA 
BRANCH  11  12
HETATM   12  C   UNL     1     -10.796   6.703  67.113  1.00  0.00    -0.401 C  
BRANCH  12  13
HETATM   13  C   UNL     1     -11.087   6.400  68.581  1.00  0.00    -0.393 C  
BRANCH  13  14
HETATM   14  C   UNL     1      -9.813   6.429  69.426  1.00  0.00    -0.149 C  
BRANCH  14  15
HETATM   15  N   UNL     1      -9.792   7.523  70.420  1.00  0.00    -0.183 NA 
HETATM   16  C   UNL     1      -9.033   8.680  69.928  1.00  0.00    -0.149 C  
BRANCH  15  17
HETATM   17  C   UNL     1     -11.195   7.889  70.756  1.00  0.00    -0.266 C  
BRANCH  17  18
HETATM   18  C   UNL     1     -11.418   9.404  70.977  1.00  0.00    -0.334 C  
BRANCH  18  19
HETATM   19  N   UNL     1     -12.827   9.849  71.078  1.00  0.00    -0.341 NA 
HETATM   20  C   UNL     1     -13.536   9.123  72.136  1.00  0.00    -0.474 C  
BRANCH  19  21
HETATM   21  C   UNL     1     -12.896  11.302  71.353  1.00  0.00    -0.410 C  
BRANCH  21  22
HETATM   22  C   UNL     1     -12.098  12.149  70.357  1.00  0.00    -0.395 C  
BRANCH  22  23
HETATM   23  C   UNL     1     -12.449  13.628  70.463  1.00  0.00    -0.324 C  
BRANCH  23  24
HETATM   24  O   UNL     1     -11.482  14.404  69.735  1.00  0.00    -0.262 OA 
BRANCH  24  25
HETATM   25  C   UNL     1     -11.272  15.662  70.198  1.00  0.00    -0.336 C  
HETATM   26  O   UNL     1     -11.827  16.179  71.154  1.00  0.00    -0.422 OA 
BRANCH  25  27
HETATM   27  C   UNL     1     -10.233  16.347  69.385  1.00  0.00    -0.273 A  
HETATM   28  C   UNL     1      -8.964  15.771  69.320  1.00  0.00    -0.266 A  
HETATM   29  C   UNL     1      -7.943  16.399  68.606  1.00  0.00    -0.220 A  
HETATM   30  C   UNL     1      -8.184  17.634  67.957  1.00  0.00    -0.242 A  
HETATM   31  C   UNL     1     -10.490  17.545  68.709  1.00  0.00    -0.318 A  
HETATM   32  C   UNL     1      -9.475  18.207  68.002  1.00  0.00    -0.285 A  
BRANCH  29  33
HETATM   33  O   UNL     1      -6.664  15.893  68.538  1.00  0.00    -0.118 OA 
HETATM   34  C   UNL     1      -6.057  15.537  69.777  1.00  0.00    -0.153 C  
ENDBRANCH  29  33
BRANCH  30  35
HETATM   35  O   UNL     1      -7.075  18.200  67.373  1.00  0.00    -0.194 OA 
HETATM   36  C   UNL     1      -6.876  18.017  65.978  1.00  0.00    -0.297 C  
ENDBRANCH  30  35
BRANCH  32  37
HETATM   37  O   UNL     1      -9.683  19.407  67.376  1.00  0.00    -0.308 OA 
HETATM   38  C   UNL     1     -10.649  19.469  66.333  1.00  0.00    -0.472 C  
ENDBRANCH  32  37
ENDBRANCH  25  27
ENDBRANCH  24  25
ENDBRANCH  23  24
ENDBRANCH  22  23
ENDBRANCH  21  22
ENDBRANCH  19  21
ENDBRANCH  18  19
ENDBRANCH  17  18
ENDBRANCH  15  17
ENDBRANCH  14  15
ENDBRANCH  13  14
ENDBRANCH  12  13
ENDBRANCH  11  12
ENDBRANCH   9  11
ENDBRANCH   5   9
BRANCH   8  39
HETATM   39  O   UNL     1      -8.666  13.039  67.679  1.00  0.00    -0.166 OA 
HETATM   40  C   UNL     1      -7.591  12.453  68.395  1.00  0.00    -0.129 C  
ENDBRANCH   8  39
BRANCH   7  41
HETATM   41  O   UNL     1      -9.907  14.195  65.348  1.00  0.00    -0.292 OA 
HETATM   42  C   UNL     1     -11.045  14.971  65.687  1.00  0.00    -0.349 C  
ENDBRANCH   7  41
ENDBRANCH   2   3
TORSDOF 21
ENDMDL
MODEL       17
REMARK 921   NORMALIZED FREE ENERGY PREDICTED BY IDOCK:   -5.28 KCAL/MOL
REMARK 922        TOTAL FREE ENERGY PREDICTED BY IDOCK:  -14.61 KCAL/MOL
REMARK 923 INTER-LIGAND FREE ENERGY PREDICTED BY IDOCK:  -11.47 KCAL/MOL
REMARK 924 INTRA-LIGAND FREE ENERGY PREDICTED BY IDOCK:   -3.14 KCAL/MOL
REMARK 927      BINDING AFFINITY PREDICTED BY RF-SCORE:    0.00 PKD
ROOT
HETATM    1  C   UNL     1     -12.126  14.462  64.734  1.00  0.00    -0.452 C  
HETATM    2  O   UNL     1     -11.264  15.176  65.617  1.00  0.00    -0.336 OA 
ENDROOT
BRANCH   2   3
HETATM    3  C   UNL     1     -11.381  14.896  66.957  1.00  0.00    -0.342 A  
HETATM    4  C   UNL     1     -11.611  13.584  67.389  1.00  0.00    -0.392 A  
HETATM    5  C   UNL     1     -11.733  13.271  68.744  1.00  0.00    -0.366 A  
HETATM    6  C   UNL     1     -11.616  14.287  69.685  1.00  0.00    -0.351 A  
HETATM    7  C   UNL     1     -11.222  15.930  67.908  1.00  0.00    -0.297 A  
HETATM    8  C   UNL     1     -11.354  15.611  69.283  1.00  0.00    -0.345 A  
BRANCH   5   9
HETATM    9  C   UNL     1     -11.989  11.850  69.081  1.00  0.00    -0.276 C  
HETATM   10  O   UNL     1     -12.091  10.982  68.226  1.00  0.00    -0.604 OA 
BRANCH   9  11
HETATM   11  O   UNL     1     -12.132  11.663  70.417  1.00  0.00    -0.355 OA 
BRANCH  11  12
HETATM   12  C   UNL     1     -11.912  10.307  70.847  1.00  0.00    -0.375 C  
BRANCH  12  13
HETATM   13  C   UNL     1     -13.092   9.842  71.695  1.00  0.00    -0.538 C  
BRANCH  13  14
HETATM   14  C   UNL     1     -12.953   8.374  72.101  1.00  0.00    -0.337 C  
BRANCH  14  15
HETATM   15  N   UNL     1     -11.607   7.820  71.846  1.00  0.00    -0.274 NA 
HETATM   16  C   UNL     1     -10.865   7.619  73.098  1.00  0.00    -0.382 C  
BRANCH  15  17
HETATM   17  C   UNL     1     -11.750   6.550  71.084  1.00  0.00    -0.335 C  
BRANCH  17  18
HETATM   18  C   UNL     1     -10.706   6.366  69.958  1.00  0.00    -0.259 C  
BRANCH  18  19
HETATM   19  N   UNL     1      -9.449   5.678  70.337  1.00  0.00    -0.162 NA 
HETATM   20  C   UNL     1      -9.707   4.599  71.295  1.00  0.00    -0.182 C  
BRANCH  19  21
HETATM   21  C   UNL     1      -8.780   5.120  69.141  1.00  0.00    -0.092 C  
BRANCH  21  22
HETATM   22  C   UNL     1      -9.719   4.310  68.241  1.00  0.00    -0.162 C  
BRANCH  22  23
HETATM   23  C   UNL     1      -9.520   4.644  66.768  1.00  0.00    -0.162 C  
BRANCH  23  24
HETATM   24  O   UNL     1      -9.876   6.017  66.535  1.00  0.00    -0.160 OA 
BRANCH  24  25
HETATM   25  C   UNL     1      -8.962   6.753  65.852  1.00  0.00    -0.070 C  
HETATM   26  O   UNL     1      -8.264   6.358  64.932  1.00  0.00    -0.140 OA 
BRANCH  25  27
HETATM   27  C   UNL     1      -8.933   8.148  66.365  1.00  0.00    -0.207 A  
HETATM   28  C   UNL     1      -9.307   9.175  65.497  1.00  0.00    -0.287 A  
HETATM   29  C   UNL     1      -9.253  10.504  65.916  1.00  0.00    -0.179 A  
HETATM   30  C   UNL     1      -8.802  10.821  67.221  1.00  0.00    -0.133 A  
HETATM   31  C   UNL     1      -8.527   8.451  67.669  1.00  0.00    -0.130 A  
HETATM   32  C   UNL     1      -8.444   9.781  68.109  1.00  0.00    -0.114 A  
BRANCH  29  33
HETATM   33  O   UNL     1      -9.578  11.557  65.092  1.00  0.00    -0.233 OA 
HETATM   34  C   UNL     1     -10.359  11.244  63.942  1.00  0.00    -0.381 C  
ENDBRANCH  29  33
BRANCH  30  35
HETATM   35  O   UNL     1      -8.699  12.167  67.480  1.00  0.00    -0.158 OA 
HETATM   36  C   UNL     1      -7.413  12.769  67.433  1.00  0.00    -0.145 C  
ENDBRANCH  30  35
BRANCH  32  37
HETATM   37  O   UNL     1      -8.001  10.111  69.361  1.00  0.00    -0.125 OA 
HETATM   38  C   UNL     1      -8.357   9.267  70.450  1.00  0.00    -0.199 C  
ENDBRANCH  32  37
ENDBRANCH  25  27
ENDBRANCH  24  25
ENDBRANCH  23  24
ENDBRANCH  22  23
ENDBRANCH  21  22
ENDBRANCH  19  21
ENDBRANCH  18  19
ENDBRANCH  17  18
ENDBRANCH  15  17
ENDBRANCH  14  15
ENDBRANCH  13  14
ENDBRANCH  12  13
ENDBRANCH  11  12
ENDBRANCH   9  11
ENDBRANCH   5   9
BRANCH   8  39
HETATM   39  O   UNL     1     -11.262  16.446  70.372  1.00  0.00    -0.378 OA 
HETATM   40  C   UNL     1     -11.709  16.002  71.643  1.00  0.00    -0.506 C  
ENDBRANCH   8  39
BRANCH   7  41
HETATM   41  O   UNL     1     -10.960  17.243  67.618  1.00  0.00    -0.286 OA 
HETATM   42  C   UNL     1      -9.628  17.716  67.516  1.00  0.00    -0.267 C  
ENDBRANCH   7  41
ENDBRANCH   2   3
TORSDOF 21
ENDMDL
MODEL       18
REMARK 921   NORMALIZED FREE ENERGY PREDICTED BY IDOCK:   -5.25 KCAL/MOL
REMARK 922        TOTAL FREE ENERGY PREDICTED BY IDOCK:  -14.57 KCAL/MOL
REMARK 923 INTER-LIGAND FREE ENERGY PREDICTED BY IDOCK:  -11.53 KCAL/MOL
REMARK 924 INTRA-LIGAND FREE ENERGY PREDICTED BY IDOCK:   -3.04 KCAL/MOL
REMARK 927      BINDING AFFINITY PREDICTED BY RF-SCORE:    0.00 PKD
ROOT
HETATM    1  C   UNL     1     -11.340   5.295  73.324  1.00  0.00    -0.251 C  
HETATM    2  O   UNL     1     -10.334   6.273  73.582  1.00  0.00    -0.228 OA 
ENDROOT
BRANCH   2   3
HETATM    3  C   UNL     1     -10.282   7.347  72.729  1.00  0.00    -0.238 A  
HETATM    4  C   UNL     1     -11.414   8.145  72.523  1.00  0.00    -0.470 A  
HETATM    5  C   UNL     1     -11.388   9.243  71.662  1.00  0.00    -0.467 A  
HETATM    6  C   UNL     1     -10.206   9.556  70.999  1.00  0.00    -0.332 A  
HETATM    7  C   UNL     1      -9.065   7.680  72.090  1.00  0.00    -0.140 A  
HETATM    8  C   UNL     1      -9.043   8.792  71.210  1.00  0.00    -0.234 A  
BRANCH   5   9
HETATM    9  C   UNL     1     -12.652  10.005  71.512  1.00  0.00    -0.425 C  
HETATM   10  O   UNL     1     -13.610   9.837  72.254  1.00  0.00    -0.425 OA 
BRANCH   9  11
HETATM   11  O   UNL     1     -12.613  10.850  70.452  1.00  0.00    -0.320 OA 
BRANCH  11  12
HETATM   12  C   UNL     1     -12.474  12.237  70.810  1.00  0.00    -0.265 C  
BRANCH  12  13
HETATM   13  C   UNL     1     -11.728  12.978  69.704  1.00  0.00    -0.364 C  
BRANCH  13  14
HETATM   14  C   UNL     1     -12.119  14.455  69.651  1.00  0.00    -0.334 C  
BRANCH  14  15
HETATM   15  N   UNL     1     -11.958  15.058  68.311  1.00  0.00    -0.252 NA 
HETATM   16  C   UNL     1     -10.985  16.158  68.331  1.00  0.00    -0.341 C  
BRANCH  15  17
HETATM   17  C   UNL     1     -11.561  13.991  67.353  1.00  0.00    -0.368 C  
BRANCH  17  18
HETATM   18  C   UNL     1     -12.486  13.871  66.119  1.00  0.00    -0.436 C  
BRANCH  18  19
HETATM   19  N   UNL     1     -11.893  14.255  64.817  1.00  0.00    -0.406 NA 
HETATM   20  C   UNL     1     -10.474  14.595  64.963  1.00  0.00    -0.421 C  
BRANCH  19  21
HETATM   21  C   UNL     1     -12.032  13.154  63.837  1.00  0.00    -0.488 C  
BRANCH  21  22
HETATM   22  C   UNL     1     -10.715  12.427  63.548  1.00  0.00    -0.473 C  
BRANCH  22  23
HETATM   23  C   UNL     1     -10.716  11.010  64.109  1.00  0.00    -0.274 C  
BRANCH  23  24
HETATM   24  O   UNL     1      -9.937  10.970  65.316  1.00  0.00    -0.234 OA 
BRANCH  24  25
HETATM   25  C   UNL     1     -10.506  10.319  66.361  1.00  0.00    -0.163 C  
HETATM   26  O   UNL     1     -11.330  10.781  67.133  1.00  0.00    -0.372 OA 
BRANCH  25  27
HETATM   27  C   UNL     1     -10.005   8.921  66.437  1.00  0.00    -0.354 A  
HETATM   28  C   UNL     1     -10.751   7.994  67.165  1.00  0.00    -0.285 A  
HETATM   29  C   UNL     1     -10.299   6.681  67.303  1.00  0.00    -0.232 A  
HETATM   30  C   UNL     1      -9.071   6.286  66.718  1.00  0.00    -0.135 A  
HETATM   31  C   UNL     1      -8.813   8.526  65.820  1.00  0.00    -0.229 A  
HETATM   32  C   UNL     1      -8.326   7.218  65.960  1.00  0.00    -0.140 A  
BRANCH  29  33
HETATM   33  O   UNL     1     -10.977   5.735  68.038  1.00  0.00    -0.230 OA 
HETATM   34  C   UNL     1     -11.124   6.001  69.430  1.00  0.00    -0.375 C  
ENDBRANCH  29  33
BRANCH  30  35
HETATM   35  O   UNL     1      -8.686   4.998  67.008  1.00  0.00    -0.106 OA 
HETATM   36  C   UNL     1      -8.957   3.980  66.055  1.00  0.00    -0.129 C  
ENDBRANCH  30  35
BRANCH  32  37
HETATM   37  O   UNL     1      -7.137   6.817  65.413  1.00  0.00    -0.060 OA 
HETATM   38  C   UNL     1      -5.929   7.287  66.000  1.00  0.00    -0.037 C  
ENDBRANCH  32  37
ENDBRANCH  25  27
ENDBRANCH  24  25
ENDBRANCH  23  24
ENDBRANCH  22  23
ENDBRANCH  21  22
ENDBRANCH  19  21
ENDBRANCH  18  19
ENDBRANCH  17  18
ENDBRANCH  15  17
ENDBRANCH  14  15
ENDBRANCH  13  14
ENDBRANCH  12  13
ENDBRANCH  11  12
ENDBRANCH   9  11
ENDBRANCH   5   9
BRANCH   8  39
HETATM   39  O   UNL     1      -7.992   9.283  70.472  1.00  0.00    -0.135 OA 
HETATM   40  C   UNL     1      -8.235  10.216  69.431  1.00  0.00    -0.166 C  
ENDBRANCH   8  39
BRANCH   7  41
HETATM   41  O   UNL     1      -7.882   7.005  72.235  1.00  0.00    -0.091 OA 
HETATM   42  C   UNL     1      -7.583   5.875  71.432  1.00  0.00    -0.098 C  
ENDBRANCH   7  41
ENDBRANCH   2   3
TORSDOF 21
ENDMDL
MODEL       19
REMARK 921   NORMALIZED FREE ENERGY PREDICTED BY IDOCK:   -5.24 KCAL/MOL
REMARK 922        TOTAL FREE ENERGY PREDICTED BY IDOCK:  -14.52 KCAL/MOL
REMARK 923 INTER-LIGAND FREE ENERGY PREDICTED BY IDOCK:  -11.82 KCAL/MOL
REMARK 924 INTRA-LIGAND FREE ENERGY PREDICTED BY IDOCK:   -2.70 KCAL/MOL
REMARK 927      BINDING AFFINITY PREDICTED BY RF-SCORE:    0.00 PKD
ROOT
HETATM    1  C   UNL     1     -10.481  18.355  65.982  1.00  0.00    -0.374 C  
HETATM    2  O   UNL     1      -9.820  17.100  65.831  1.00  0.00    -0.486 OA 
ENDROOT
BRANCH   2   3
HETATM    3  C   UNL     1     -10.580  15.973  66.020  1.00  0.00    -0.316 A  
HETATM    4  C   UNL     1     -10.965  15.186  64.928  1.00  0.00    -0.434 A  
HETATM    5  C   UNL     1     -11.738  14.035  65.092  1.00  0.00    -0.353 A  
HETATM    6  C   UNL     1     -12.126  13.658  66.373  1.00  0.00    -0.478 A  
HETATM    7  C   UNL     1     -10.937  15.577  67.330  1.00  0.00    -0.306 A  
HETATM    8  C   UNL     1     -11.728  14.412  67.494  1.00  0.00    -0.387 A  
BRANCH   5   9
HETATM    9  C   UNL     1     -12.097  13.290  63.861  1.00  0.00    -0.468 C  
HETATM   10  O   UNL     1     -12.672  13.819  62.920  1.00  0.00    -0.558 OA 
BRANCH   9  11
HETATM   11  O   UNL     1     -11.751  11.981  63.940  1.00  0.00    -0.397 OA 
BRANCH  11  12
HETATM   12  C   UNL     1     -10.442  11.687  63.418  1.00  0.00    -0.426 C  
BRANCH  12  13
HETATM   13  C   UNL     1      -9.844  10.505  64.175  1.00  0.00    -0.401 C  
BRANCH  13  14
HETATM   14  C   UNL     1     -10.310  10.473  65.631  1.00  0.00    -0.204 C  
BRANCH  14  15
HETATM   15  N   UNL     1     -10.037   9.187  66.307  1.00  0.00    -0.280 NA 
HETATM   16  C   UNL     1      -8.607   8.853  66.268  1.00  0.00    -0.133 C  
BRANCH  15  17
HETATM   17  C   UNL     1     -10.544   9.265  67.704  1.00  0.00    -0.261 C  
BRANCH  17  18
HETATM   18  C   UNL     1      -9.452   9.564  68.758  1.00  0.00    -0.147 C  
BRANCH  18  19
HETATM   19  N   UNL     1      -9.624   8.917  70.080  1.00  0.00    -0.171 NA 
HETATM   20  C   UNL     1      -8.404   9.028  70.886  1.00  0.00    -0.197 C  
BRANCH  19  21
HETATM   21  C   UNL     1     -10.752   9.529  70.816  1.00  0.00    -0.321 C  
BRANCH  21  22
HETATM   22  C   UNL     1     -11.149   8.753  72.076  1.00  0.00    -0.441 C  
BRANCH  22  23
HETATM   23  C   UNL     1     -12.534   8.131  71.946  1.00  0.00    -0.332 C  
BRANCH  23  24
HETATM   24  O   UNL     1     -12.449   6.932  71.158  1.00  0.00    -0.378 OA 
BRANCH  24  25
HETATM   25  C   UNL     1     -11.613   5.975  71.634  1.00  0.00    -0.199 C  
HETATM   26  O   UNL     1     -11.667   5.456  72.738  1.00  0.00    -0.295 OA 
BRANCH  25  27
HETATM   27  C   UNL     1     -10.605   5.609  70.605  1.00  0.00    -0.347 A  
HETATM   28  C   UNL     1      -9.409   5.031  71.032  1.00  0.00    -0.203 A  
HETATM   29  C   UNL     1      -8.413   4.711  70.109  1.00  0.00    -0.074 A  
HETATM   30  C   UNL     1      -8.605   4.985  68.732  1.00  0.00    -0.086 A  
HETATM   31  C   UNL     1     -10.817   5.842  69.242  1.00  0.00    -0.414 A  
HETATM   32  C   UNL     1      -9.825   5.549  68.295  1.00  0.00    -0.144 A  
BRANCH  29  33
HETATM   33  O   UNL     1      -7.202   4.172  70.479  1.00  0.00    -0.040 OA 
HETATM   34  C   UNL     1      -6.469   4.883  71.472  1.00  0.00    -0.030 C  
ENDBRANCH  29  33
BRANCH  30  35
HETATM   35  O   UNL     1      -7.515   4.717  67.938  1.00  0.00    -0.076 OA 
HETATM   36  C   UNL     1      -6.612   5.775  67.647  1.00  0.00    -0.053 C  
ENDBRANCH  30  35
BRANCH  32  37
HETATM   37  O   UNL     1      -9.984   5.815  66.962  1.00  0.00    -0.136 OA 
HETATM   38  C   UNL     1     -10.535   4.802  66.129  1.00  0.00    -0.290 C  
ENDBRANCH  32  37
ENDBRANCH  25  27
ENDBRANCH  24  25
ENDBRANCH  23  24
ENDBRANCH  22  23
ENDBRANCH  21  22
ENDBRANCH  19  21
ENDBRANCH  18  19
ENDBRANCH  17  18
ENDBRANCH  15  17
ENDBRANCH  14  15
ENDBRANCH  13  14
ENDBRANCH  12  13
ENDBRANCH  11  12
ENDBRANCH   9  11
ENDBRANCH   5   9
BRANCH   8  39
HETATM   39  O   UNL     1     -12.207  13.854  68.656  1.00  0.00    -0.345 OA 
HETATM   40  C   UNL     1     -11.755  12.572  69.063  1.00  0.00    -0.318 C  
ENDBRANCH   8  39
BRANCH   7  41
HETATM   41  O   UNL     1     -10.595  16.237  68.481  1.00  0.00    -0.262 OA 
HETATM   42  C   UNL     1      -9.425  15.889  69.201  1.00  0.00    -0.260 C  
ENDBRANCH   7  41
ENDBRANCH   2   3
TORSDOF 21
ENDMDL
MODEL       20
REMARK 921   NORMALIZED FREE ENERGY PREDICTED BY IDOCK:   -5.23 KCAL/MOL
REMARK 922        TOTAL FREE ENERGY PREDICTED BY IDOCK:  -14.50 KCAL/MOL
REMARK 923 INTER-LIGAND FREE ENERGY PREDICTED BY IDOCK:  -11.03 KCAL/MOL
REMARK 924 INTRA-LIGAND FREE ENERGY PREDICTED BY IDOCK:   -3.47 KCAL/MOL
REMARK 927      BINDING AFFINITY PREDICTED BY RF-SCORE:    0.00 PKD
ROOT
HETATM    1  C   UNL     1     -12.979  15.137  73.366  1.00  0.00    -0.518 C  
HETATM    2  O   UNL     1     -13.760  14.528  72.339  1.00  0.00    -0.411 OA 
ENDROOT
BRANCH   2   3
HETATM    3  C   UNL     1     -13.136  13.578  71.569  1.00  0.00    -0.344 A  
HETATM    4  C   UNL     1     -13.230  12.221  71.903  1.00  0.00    -0.481 A  
HETATM    5  C   UNL     1     -12.607  11.235  71.137  1.00  0.00    -0.501 A  
HETATM    6  C   UNL     1     -11.882  11.610  70.011  1.00  0.00    -0.435 A  
HETATM    7  C   UNL     1     -12.434  13.966  70.404  1.00  0.00    -0.334 A  
HETATM    8  C   UNL     1     -11.796  12.963  69.632  1.00  0.00    -0.320 A  
BRANCH   5   9
HETATM    9  C   UNL     1     -12.763   9.833  71.596  1.00  0.00    -0.422 C  
HETATM   10  O   UNL     1     -13.749   9.453  72.211  1.00  0.00    -0.451 OA 
BRANCH   9  11
HETATM   11  O   UNL     1     -11.683   9.074  71.287  1.00  0.00    -0.277 OA 
BRANCH  11  12
HETATM   12  C   UNL     1     -11.117   8.373  72.410  1.00  0.00    -0.361 C  
BRANCH  12  13
HETATM   13  C   UNL     1      -9.601   8.546  72.408  1.00  0.00    -0.356 C  
BRANCH  13  14
HETATM   14  C   UNL     1      -8.936   7.713  73.504  1.00  0.00    -0.241 C  
BRANCH  14  15
HETATM   15  N   UNL     1      -7.619   7.169  73.112  1.00  0.00    -0.075 NA 
HETATM   16  C   UNL     1      -6.522   8.006  73.616  1.00  0.00    -0.099 C  
BRANCH  15  17
HETATM   17  C   UNL     1      -7.513   5.771  73.608  1.00  0.00    -0.090 C  
BRANCH  17  18
HETATM   18  C   UNL     1      -7.909   4.697  72.566  1.00  0.00    -0.088 C  
BRANCH  18  19
HETATM   19  N   UNL     1      -9.256   4.101  72.721  1.00  0.00    -0.114 NA 
HETATM   20  C   UNL     1      -9.697   4.149  74.119  1.00  0.00    -0.116 C  
BRANCH  19  21
HETATM   21  C   UNL     1     -10.241   4.811  71.875  1.00  0.00    -0.193 C  
BRANCH  21  22
HETATM   22  C   UNL     1      -9.679   5.238  70.515  1.00  0.00    -0.254 C  
BRANCH  22  23
HETATM   23  C   UNL     1     -10.779   5.400  69.474  1.00  0.00    -0.179 C  
BRANCH  23  24
HETATM   24  O   UNL     1     -10.915   6.789  69.130  1.00  0.00    -0.249 OA 
BRANCH  24  25
HETATM   25  C   UNL     1     -10.737   7.090  67.819  1.00  0.00    -0.231 C  
HETATM   26  O   UNL     1     -11.125   6.427  66.871  1.00  0.00    -0.384 OA 
BRANCH  25  27
HETATM   27  C   UNL     1     -10.009   8.378  67.677  1.00  0.00    -0.246 A  
HETATM   28  C   UNL     1     -10.044   9.019  66.438  1.00  0.00    -0.351 A  
HETATM   29  C   UNL     1      -9.339  10.207  66.242  1.00  0.00    -0.172 A  
HETATM   30  C   UNL     1      -8.571  10.761  67.294  1.00  0.00    -0.130 A  
HETATM   31  C   UNL     1      -9.287   8.943  68.734  1.00  0.00    -0.137 A  
HETATM   32  C   UNL     1      -8.553  10.125  68.556  1.00  0.00    -0.118 A  
BRANCH  29  33
HETATM   33  O   UNL     1      -9.311  10.863  65.031  1.00  0.00    -0.210 OA 
HETATM   34  C   UNL     1      -9.315  10.043  63.866  1.00  0.00    -0.263 C  
ENDBRANCH  29  33
BRANCH  30  35
HETATM   35  O   UNL     1      -7.844  11.876  66.948  1.00  0.00    -0.160 OA 
HETATM   36  C   UNL     1      -6.429  11.768  66.883  1.00  0.00    -0.121 C  
ENDBRANCH  30  35
BRANCH  32  37
HETATM   37  O   UNL     1      -7.795  10.673  69.557  1.00  0.00    -0.144 OA 
HETATM   38  C   UNL     1      -6.912   9.823  70.279  1.00  0.00    -0.135 C  
ENDBRANCH  32  37
ENDBRANCH  25  27
ENDBRANCH  24  25
ENDBRANCH  23  24
ENDBRANCH  22  23
ENDBRANCH  21  22
ENDBRANCH  19  21
ENDBRANCH  18  19
ENDBRANCH  17  18
ENDBRANCH  15  17
ENDBRANCH  14  15
ENDBRANCH  13  14
ENDBRANCH  12  13
ENDBRANCH  11  12
ENDBRANCH   9  11
ENDBRANCH   5   9
BRANCH   8  39
HETATM   39  O   UNL     1     -11.049  13.106  68.486  1.00  0.00    -0.241 OA 
HETATM   40  C   UNL     1     -11.654  12.905  67.218  1.00  0.00    -0.360 C  
ENDBRANCH   8  39
BRANCH   7  41
HETATM   41  O   UNL     1     -12.299  15.252  69.950  1.00  0.00    -0.327 OA 
HETATM   42  C   UNL     1     -11.215  16.064  70.369  1.00  0.00    -0.387 C  
ENDBRANCH   7  41
ENDBRANCH   2   3
TORSDOF 21
ENDMDL
MODEL       21
REMARK 921   NORMALIZED FREE ENERGY PREDICTED BY IDOCK:   -5.22 KCAL/MOL
REMARK 922        TOTAL FREE ENERGY PREDICTED BY IDOCK:  -14.50 KCAL/MOL
REMARK 923 INTER-LIGAND FREE ENERGY PREDICTED BY IDOCK:  -11.98 KCAL/MOL
REMARK 924 INTRA-LIGAND FREE ENERGY PREDICTED BY IDOCK:   -2.52 KCAL/MOL
REMARK 927      BINDING AFFINITY PREDICTED BY RF-SCORE:    0.00 PKD
ROOT
HETATM    1  C   UNL     1     -10.601  18.208  65.832  1.00  0.00    -0.234 C  
HETATM    2  O   UNL     1      -9.862  16.988  65.856  1.00  0.00    -0.470 OA 
ENDROOT
BRANCH   2   3
HETATM    3  C   UNL     1     -10.584  15.830  66.007  1.00  0.00    -0.326 A  
HETATM    4  C   UNL     1     -10.953  15.074  64.887  1.00  0.00    -0.427 A  
HETATM    5  C   UNL     1     -11.686  13.893  65.013  1.00  0.00    -0.365 A  
HETATM    6  C   UNL     1     -12.051  13.454  66.280  1.00  0.00    -0.475 A  
HETATM    7  C   UNL     1     -10.917  15.372  67.303  1.00  0.00    -0.317 A  
HETATM    8  C   UNL     1     -11.668  14.176  67.426  1.00  0.00    -0.391 A  
BRANCH   5   9
HETATM    9  C   UNL     1     -12.032  13.184  63.756  1.00  0.00    -0.508 C  
HETATM   10  O   UNL     1     -12.652  13.723  62.850  1.00  0.00    -0.611 OA 
BRANCH   9  11
HETATM   11  O   UNL     1     -11.617  11.893  63.770  1.00  0.00    -0.417 OA 
BRANCH  11  12
HETATM   12  C   UNL     1     -10.325  11.685  63.171  1.00  0.00    -0.334 C  
BRANCH  12  13
HETATM   13  C   UNL     1      -9.548  10.649  63.979  1.00  0.00    -0.351 C  
BRANCH  13  14
HETATM   14  C   UNL     1     -10.189  10.402  65.345  1.00  0.00    -0.259 C  
BRANCH  14  15
HETATM   15  N   UNL     1      -9.898   9.062  65.897  1.00  0.00    -0.255 NA 
HETATM   16  C   UNL     1      -8.582   8.577  65.459  1.00  0.00    -0.180 C  
BRANCH  15  17
HETATM   17  C   UNL     1      -9.992   9.127  67.380  1.00  0.00    -0.206 C  
BRANCH  17  18
HETATM   18  C   UNL     1      -8.623   9.149  68.101  1.00  0.00    -0.129 C  
BRANCH  18  19
HETATM   19  N   UNL     1      -8.579   8.516  69.440  1.00  0.00    -0.127 NA 
HETATM   20  C   UNL     1      -7.206   8.158  69.810  1.00  0.00    -0.064 C  
BRANCH  19  21
HETATM   21  C   UNL     1      -9.138   9.426  70.465  1.00  0.00    -0.256 C  
BRANCH  21  22
HETATM   22  C   UNL     1      -9.306   8.766  71.838  1.00  0.00    -0.343 C  
BRANCH  22  23
HETATM   23  C   UNL     1     -10.771   8.680  72.249  1.00  0.00    -0.313 C  
BRANCH  23  24
HETATM   24  O   UNL     1     -11.579   8.401  71.094  1.00  0.00    -0.272 OA 
BRANCH  24  25
HETATM   25  C   UNL     1     -12.191   7.190  71.085  1.00  0.00    -0.365 C  
HETATM   26  O   UNL     1     -13.361   6.973  71.357  1.00  0.00    -0.354 OA 
BRANCH  25  27
HETATM   27  C   UNL     1     -11.236   6.129  70.668  1.00  0.00    -0.387 A  
HETATM   28  C   UNL     1     -10.900   6.043  69.316  1.00  0.00    -0.428 A  
HETATM   29  C   UNL     1     -10.043   5.037  68.868  1.00  0.00    -0.144 A  
HETATM   30  C   UNL     1      -9.521   4.088  69.781  1.00  0.00    -0.195 A  
HETATM   31  C   UNL     1     -10.691   5.221  71.581  1.00  0.00    -0.227 A  
HETATM   32  C   UNL     1      -9.843   4.188  71.153  1.00  0.00    -0.174 A  
BRANCH  29  33
HETATM   33  O   UNL     1      -9.705   4.885  67.542  1.00  0.00    -0.147 OA 
HETATM   34  C   UNL     1     -10.590   5.470  66.592  1.00  0.00    -0.299 C  
ENDBRANCH  29  33
BRANCH  30  35
HETATM   35  O   UNL     1      -8.772   3.090  69.204  1.00  0.00    -0.068 OA 
HETATM   36  C   UNL     1      -9.330   1.786  69.121  1.00  0.00    -0.121 C  
ENDBRANCH  30  35
BRANCH  32  37
HETATM   37  O   UNL     1      -9.337   3.252  72.016  1.00  0.00    -0.107 OA 
HETATM   38  C   UNL     1     -10.202   2.705  73.004  1.00  0.00    -0.142 C  
ENDBRANCH  32  37
ENDBRANCH  25  27
ENDBRANCH  24  25
ENDBRANCH  23  24
ENDBRANCH  22  23
ENDBRANCH  21  22
ENDBRANCH  19  21
ENDBRANCH  18  19
ENDBRANCH  17  18
ENDBRANCH  15  17
ENDBRANCH  14  15
ENDBRANCH  13  14
ENDBRANCH  12  13
ENDBRANCH  11  12
ENDBRANCH   9  11
ENDBRANCH   5   9
BRANCH   8  39
HETATM   39  O   UNL     1     -12.118  13.558  68.570  1.00  0.00    -0.359 OA 
HETATM   40  C   UNL     1     -11.722  12.226  68.856  1.00  0.00    -0.328 C  
ENDBRANCH   8  39
BRANCH   7  41
HETATM   41  O   UNL     1     -10.586  15.998  68.475  1.00  0.00    -0.245 OA 
HETATM   42  C   UNL     1      -9.345  15.745  69.113  1.00  0.00    -0.258 C  
ENDBRANCH   7  41
ENDBRANCH   2   3
TORSDOF 21
ENDMDL
MODEL       22
REMARK 921   NORMALIZED FREE ENERGY PREDICTED BY IDOCK:   -5.20 KCAL/MOL
REMARK 922        TOTAL FREE ENERGY PREDICTED BY IDOCK:  -14.45 KCAL/MOL
REMARK 923 INTER-LIGAND FREE ENERGY PREDICTED BY IDOCK:  -10.87 KCAL/MOL
REMARK 924 INTRA-LIGAND FREE ENERGY PREDICTED BY IDOCK:   -3.58 KCAL/MOL
REMARK 927      BINDING AFFINITY PREDICTED BY RF-SCORE:    0.00 PKD
ROOT
HETATM    1  C   UNL     1      -9.008   9.149  64.979  1.00  0.00    -0.171 C  
HETATM    2  O   UNL     1     -10.173   9.905  65.303  1.00  0.00    -0.269 OA 
ENDROOT
BRANCH   2   3
HETATM    3  C   UNL     1      -9.976  11.200  65.714  1.00  0.00    -0.245 A  
HETATM    4  C   UNL     1      -8.798  11.562  66.379  1.00  0.00    -0.193 A  
HETATM    5  C   UNL     1      -8.572  12.871  66.806  1.00  0.00    -0.071 A  
HETATM    6  C   UNL     1      -9.538  13.840  66.557  1.00  0.00    -0.295 A  
HETATM    7  C   UNL     1     -10.947  12.186  65.421  1.00  0.00    -0.302 A  
HETATM    8  C   UNL     1     -10.718  13.514  65.863  1.00  0.00    -0.277 A  
BRANCH   5   9
HETATM    9  C   UNL     1      -7.295  13.133  67.513  1.00  0.00    -0.148 C  
HETATM   10  O   UNL     1      -6.220  12.724  67.095  1.00  0.00    -0.263 OA 
BRANCH   9  11
HETATM   11  O   UNL     1      -7.483  13.824  68.664  1.00  0.00    -0.113 OA 
BRANCH  11  12
HETATM   12  C   UNL     1      -6.899  15.139  68.663  1.00  0.00    -0.105 C  
BRANCH  12  13
HETATM   13  C   UNL     1      -7.984  16.181  68.920  1.00  0.00    -0.223 C  
BRANCH  13  14
HETATM   14  C   UNL     1      -9.217  15.561  69.579  1.00  0.00    -0.265 C  
BRANCH  14  15
HETATM   15  N   UNL     1     -10.420  16.417  69.498  1.00  0.00    -0.299 NA 
HETATM   16  C   UNL     1     -10.590  16.975  68.150  1.00  0.00    -0.369 C  
BRANCH  15  17
HETATM   17  C   UNL     1     -11.603  15.617  69.913  1.00  0.00    -0.347 C  
BRANCH  17  18
HETATM   18  C   UNL     1     -11.986  15.778  71.404  1.00  0.00    -0.441 C  
BRANCH  18  19
HETATM   19  N   UNL     1     -12.897  14.751  71.960  1.00  0.00    -0.312 NA 
HETATM   20  C   UNL     1     -14.290  15.209  71.929  1.00  0.00    -0.596 C  
BRANCH  19  21
HETATM   21  C   UNL     1     -12.783  13.487  71.199  1.00  0.00    -0.344 C  
BRANCH  21  22
HETATM   22  C   UNL     1     -13.292  12.265  71.969  1.00  0.00    -0.491 C  
BRANCH  22  23
HETATM   23  C   UNL     1     -12.849  10.960  71.319  1.00  0.00    -0.433 C  
BRANCH  23  24
HETATM   24  O   UNL     1     -11.618  11.172  70.608  1.00  0.00    -0.286 OA 
BRANCH  24  25
HETATM   25  C   UNL     1     -11.599  10.734  69.324  1.00  0.00    -0.305 C  
HETATM   26  O   UNL     1     -12.355  11.086  68.433  1.00  0.00    -0.528 OA 
BRANCH  25  27
HETATM   27  C   UNL     1     -10.494   9.759  69.125  1.00  0.00    -0.232 A  
HETATM   28  C   UNL     1      -9.186  10.194  69.343  1.00  0.00    -0.229 A  
HETATM   29  C   UNL     1      -8.113   9.330  69.127  1.00  0.00    -0.106 A  
HETATM   30  C   UNL     1      -8.343   8.010  68.668  1.00  0.00    -0.127 A  
HETATM   31  C   UNL     1     -10.730   8.443  68.712  1.00  0.00    -0.086 A  
HETATM   32  C   UNL     1      -9.668   7.561  68.468  1.00  0.00    -0.156 A  
BRANCH  29  33
HETATM   33  O   UNL     1      -6.802   9.717  69.294  1.00  0.00    -0.048 OA 
HETATM   34  C   UNL     1      -6.432  10.154  70.598  1.00  0.00    -0.084 C  
ENDBRANCH  29  33
BRANCH  30  35
HETATM   35  O   UNL     1      -7.203   7.291  68.397  1.00  0.00    -0.085 OA 
HETATM   36  C   UNL     1      -6.856   7.057  67.039  1.00  0.00    -0.068 C  
ENDBRANCH  30  35
BRANCH  32  37
HETATM   37  O   UNL     1      -9.866   6.285  68.013  1.00  0.00    -0.120 OA 
HETATM   38  C   UNL     1     -10.543   6.105  66.774  1.00  0.00    -0.283 C  
ENDBRANCH  32  37
ENDBRANCH  25  27
ENDBRANCH  24  25
ENDBRANCH  23  24
ENDBRANCH  22  23
ENDBRANCH  21  22
ENDBRANCH  19  21
ENDBRANCH  18  19
ENDBRANCH  17  18
ENDBRANCH  15  17
ENDBRANCH  14  15
ENDBRANCH  13  14
ENDBRANCH  12  13
ENDBRANCH  11  12
ENDBRANCH   9  11
ENDBRANCH   5   9
BRANCH   8  39
HETATM   39  O   UNL     1     -11.522  14.620  65.713  1.00  0.00    -0.342 OA 
HETATM   40  C   UNL     1     -11.240  15.566  64.694  1.00  0.00    -0.371 C  
ENDBRANCH   8  39
BRANCH   7  41
HETATM   41  O   UNL     1     -12.120  11.970  64.748  1.00  0.00    -0.312 OA 
HETATM   42  C   UNL     1     -12.190  12.109  63.339  1.00  0.00    -0.530 C  
ENDBRANCH   7  41
ENDBRANCH   2   3
TORSDOF 21
ENDMDL
MODEL       23
REMARK 921   NORMALIZED FREE ENERGY PREDICTED BY IDOCK:   -5.20 KCAL/MOL
REMARK 922        TOTAL FREE ENERGY PREDICTED BY IDOCK:  -14.44 KCAL/MOL
REMARK 923 INTER-LIGAND FREE ENERGY PREDICTED BY IDOCK:  -12.46 KCAL/MOL
REMARK 924 INTRA-LIGAND FREE ENERGY PREDICTED BY IDOCK:   -1.98 KCAL/MOL
REMARK 927      BINDING AFFINITY PREDICTED BY RF-SCORE:    0.00 PKD
ROOT
HETATM    1  C   UNL     1     -10.947   6.347  67.941  1.00  0.00    -0.325 C  
HETATM    2  O   UNL     1     -10.346   5.688  69.054  1.00  0.00    -0.202 OA 
ENDROOT
BRANCH   2   3
HETATM    3  C   UNL     1     -10.573   6.234  70.293  1.00  0.00    -0.248 A  
HETATM    4  C   UNL     1     -11.684   7.057  70.513  1.00  0.00    -0.359 A  
HETATM    5  C   UNL     1     -11.938   7.624  71.762  1.00  0.00    -0.333 A  
HETATM    6  C   UNL     1     -11.070   7.358  72.815  1.00  0.00    -0.394 A  
HETATM    7  C   UNL     1      -9.706   5.925  71.367  1.00  0.00    -0.166 A  
HETATM    8  C   UNL     1      -9.962   6.509  72.634  1.00  0.00    -0.171 A  
BRANCH   5   9
HETATM    9  C   UNL     1     -13.137   8.491  71.872  1.00  0.00    -0.362 C  
HETATM   10  O   UNL     1     -14.274   8.042  71.840  1.00  0.00    -0.396 OA 
BRANCH   9  11
HETATM   11  O   UNL     1     -12.808   9.803  71.965  1.00  0.00    -0.395 OA 
BRANCH  11  12
HETATM   12  C   UNL     1     -13.092  10.566  70.777  1.00  0.00    -0.257 C  
BRANCH  12  13
HETATM   13  C   UNL     1     -11.797  11.154  70.226  1.00  0.00    -0.455 C  
BRANCH  13  14
HETATM   14  C   UNL     1     -11.125  10.208  69.230  1.00  0.00    -0.225 C  
BRANCH  14  15
HETATM   15  N   UNL     1     -10.519  10.904  68.075  1.00  0.00    -0.182 NA 
HETATM   16  C   UNL     1      -9.738  12.072  68.503  1.00  0.00    -0.161 C  
BRANCH  15  17
HETATM   17  C   UNL     1      -9.684   9.933  67.318  1.00  0.00    -0.171 C  
BRANCH  17  18
HETATM   18  C   UNL     1      -8.426  10.554  66.665  1.00  0.00    -0.129 C  
BRANCH  18  19
HETATM   19  N   UNL     1      -8.463  10.708  65.192  1.00  0.00    -0.169 NA 
HETATM   20  C   UNL     1      -7.596   9.724  64.536  1.00  0.00    -0.134 C  
BRANCH  19  21
HETATM   21  C   UNL     1      -9.846  10.554  64.687  1.00  0.00    -0.340 C  
BRANCH  21  22
HETATM   22  C   UNL     1     -10.082  11.243  63.339  1.00  0.00    -0.445 C  
BRANCH  22  23
HETATM   23  C   UNL     1     -11.162  12.313  63.432  1.00  0.00    -0.420 C  
BRANCH  23  24
HETATM   24  O   UNL     1     -10.772  13.307  64.395  1.00  0.00    -0.382 OA 
BRANCH  24  25
HETATM   25  C   UNL     1     -11.769  13.781  65.185  1.00  0.00    -0.343 C  
HETATM   26  O   UNL     1     -12.923  13.383  65.203  1.00  0.00    -0.710 OA 
BRANCH  25  27
HETATM   27  C   UNL     1     -11.261  14.863  66.069  1.00  0.00    -0.327 A  
HETATM   28  C   UNL     1     -10.274  15.712  65.566  1.00  0.00    -0.414 A  
HETATM   29  C   UNL     1      -9.733  16.714  66.372  1.00  0.00    -0.286 A  
HETATM   30  C   UNL     1     -10.170  16.865  67.711  1.00  0.00    -0.308 A  
HETATM   31  C   UNL     1     -11.727  15.034  67.376  1.00  0.00    -0.255 A  
HETATM   32  C   UNL     1     -11.185  16.020  68.214  1.00  0.00    -0.350 A  
BRANCH  29  33
HETATM   33  O   UNL     1      -8.734  17.558  65.939  1.00  0.00    -0.525 OA 
HETATM   34  C   UNL     1      -7.403  17.198  66.296  1.00  0.00    -0.291 C  
ENDBRANCH  29  33
BRANCH  30  35
HETATM   35  O   UNL     1      -9.491  17.820  68.431  1.00  0.00    -0.277 OA 
HETATM   36  C   UNL     1     -10.135  19.061  68.684  1.00  0.00    -0.382 C  
ENDBRANCH  30  35
BRANCH  32  37
HETATM   37  O   UNL     1     -11.584  16.176  69.514  1.00  0.00    -0.316 OA 
HETATM   38  C   UNL     1     -10.837  15.525  70.535  1.00  0.00    -0.328 C  
ENDBRANCH  32  37
ENDBRANCH  25  27
ENDBRANCH  24  25
ENDBRANCH  23  24
ENDBRANCH  22  23
ENDBRANCH  21  22
ENDBRANCH  19  21
ENDBRANCH  18  19
ENDBRANCH  17  18
ENDBRANCH  15  17
ENDBRANCH  14  15
ENDBRANCH  13  14
ENDBRANCH  12  13
ENDBRANCH  11  12
ENDBRANCH   9  11
ENDBRANCH   5   9
BRANCH   8  39
HETATM   39  O   UNL     1      -9.251   6.371  73.803  1.00  0.00    -0.127 OA 
HETATM   40  C   UNL     1      -8.557   7.485  74.343  1.00  0.00    -0.198 C  
ENDBRANCH   8  39
BRANCH   7  41
HETATM   41  O   UNL     1      -8.609   5.108  71.293  1.00  0.00    -0.123 OA 
HETATM   42  C   UNL     1      -7.388   5.573  70.741  1.00  0.00    -0.083 C  
ENDBRANCH   7  41
ENDBRANCH   2   3
TORSDOF 21
ENDMDL
MODEL       24
REMARK 921   NORMALIZED FREE ENERGY PREDICTED BY IDOCK:   -5.19 KCAL/MOL
REMARK 922        TOTAL FREE ENERGY PREDICTED BY IDOCK:  -14.42 KCAL/MOL
REMARK 923 INTER-LIGAND FREE ENERGY PREDICTED BY IDOCK:  -11.79 KCAL/MOL
REMARK 924 INTRA-LIGAND FREE ENERGY PREDICTED BY IDOCK:   -2.64 KCAL/MOL
REMARK 927      BINDING AFFINITY PREDICTED BY RF-SCORE:    0.00 PKD
ROOT
HETATM    1  C   UNL     1     -11.383   5.421  72.788  1.00  0.00    -0.296 C  
HETATM    2  O   UNL     1     -12.238   6.202  71.955  1.00  0.00    -0.312 OA 
ENDROOT
BRANCH   2   3
HETATM    3  C   UNL     1     -11.646   6.860  70.905  1.00  0.00    -0.337 A  
HETATM    4  C   UNL     1     -11.278   6.161  69.748  1.00  0.00    -0.494 A  
HETATM    5  C   UNL     1     -10.677   6.805  68.666  1.00  0.00    -0.279 A  
HETATM    6  C   UNL     1     -10.445   8.174  68.737  1.00  0.00    -0.198 A  
HETATM    7  C   UNL     1     -11.450   8.259  70.971  1.00  0.00    -0.275 A  
HETATM    8  C   UNL     1     -10.832   8.909  69.873  1.00  0.00    -0.211 A  
BRANCH   5   9
HETATM    9  C   UNL     1     -10.318   5.960  67.501  1.00  0.00    -0.215 C  
HETATM   10  O   UNL     1     -10.904   6.037  66.431  1.00  0.00    -0.190 OA 
BRANCH   9  11
HETATM   11  O   UNL     1      -9.316   5.093  67.792  1.00  0.00    -0.115 OA 
BRANCH  11  12
HETATM   12  C   UNL     1      -7.996   5.625  67.571  1.00  0.00    -0.102 C  
BRANCH  12  13
HETATM   13  C   UNL     1      -7.583   5.379  66.122  1.00  0.00    -0.087 C  
BRANCH  13  14
HETATM   14  C   UNL     1      -7.439   6.688  65.346  1.00  0.00    -0.080 C  
BRANCH  14  15
HETATM   15  N   UNL     1      -7.423   7.886  66.212  1.00  0.00    -0.078 NA 
HETATM   16  C   UNL     1      -6.110   8.544  66.193  1.00  0.00    -0.052 C  
BRANCH  15  17
HETATM   17  C   UNL     1      -8.504   8.809  65.770  1.00  0.00    -0.148 C  
BRANCH  17  18
HETATM   18  C   UNL     1      -8.454   9.170  64.267  1.00  0.00    -0.187 C  
BRANCH  18  19
HETATM   19  N   UNL     1      -8.862  10.549  63.912  1.00  0.00    -0.188 NA 
HETATM   20  C   UNL     1      -8.730  10.785  62.471  1.00  0.00    -0.279 C  
BRANCH  19  21
HETATM   21  C   UNL     1     -10.262  10.800  64.321  1.00  0.00    -0.354 C  
BRANCH  21  22
HETATM   22  C   UNL     1     -11.022  11.717  63.358  1.00  0.00    -0.458 C  
BRANCH  22  23
HETATM   23  C   UNL     1     -12.414  12.053  63.877  1.00  0.00    -0.436 C  
BRANCH  23  24
HETATM   24  O   UNL     1     -12.310  12.985  64.966  1.00  0.00    -0.422 OA 
BRANCH  24  25
HETATM   25  C   UNL     1     -12.125  14.282  64.613  1.00  0.00    -0.463 C  
HETATM   26  O   UNL     1     -12.834  14.931  63.861  1.00  0.00    -0.697 OA 
BRANCH  25  27
HETATM   27  C   UNL     1     -10.927  14.840  65.294  1.00  0.00    -0.382 A  
HETATM   28  C   UNL     1     -10.112  13.963  66.011  1.00  0.00    -0.324 A  
HETATM   29  C   UNL     1      -9.001  14.444  66.705  1.00  0.00    -0.233 A  
HETATM   30  C   UNL     1      -8.704  15.829  66.700  1.00  0.00    -0.288 A  
HETATM   31  C   UNL     1     -10.614  16.202  65.249  1.00  0.00    -0.390 A  
HETATM   32  C   UNL     1      -9.515  16.715  65.955  1.00  0.00    -0.251 A  
BRANCH  29  33
HETATM   33  O   UNL     1      -8.184  13.630  67.456  1.00  0.00    -0.160 OA 
HETATM   34  C   UNL     1      -8.105  12.266  67.052  1.00  0.00    -0.141 C  
ENDBRANCH  29  33
BRANCH  30  35
HETATM   35  O   UNL     1      -7.646  16.191  67.500  1.00  0.00    -0.129 OA 
HETATM   36  C   UNL     1      -7.923  16.795  68.756  1.00  0.00    -0.250 C  
ENDBRANCH  30  35
BRANCH  32  37
HETATM   37  O   UNL     1      -9.216  18.051  65.973  1.00  0.00    -0.508 OA 
HETATM   38  C   UNL     1     -10.259  18.975  66.259  1.00  0.00    -0.446 C  
ENDBRANCH  32  37
ENDBRANCH  25  27
ENDBRANCH  24  25
ENDBRANCH  23  24
ENDBRANCH  22  23
ENDBRANCH  21  22
ENDBRANCH  19  21
ENDBRANCH  18  19
ENDBRANCH  17  18
ENDBRANCH  15  17
ENDBRANCH  14  15
ENDBRANCH  13  14
ENDBRANCH  12  13
ENDBRANCH  11  12
ENDBRANCH   9  11
ENDBRANCH   5   9
BRANCH   8  39
HETATM   39  O   UNL     1     -10.525  10.241  69.725  1.00  0.00    -0.241 OA 
HETATM   40  C   UNL     1     -11.431  11.106  69.058  1.00  0.00    -0.296 C  
ENDBRANCH   8  39
BRANCH   7  41
HETATM   41  O   UNL     1     -11.797   9.060  72.027  1.00  0.00    -0.358 OA 
HETATM   42  C   UNL     1     -13.109   9.584  72.145  1.00  0.00    -0.436 C  
ENDBRANCH   7  41
ENDBRANCH   2   3
TORSDOF 21
ENDMDL
MODEL       25
REMARK 921   NORMALIZED FREE ENERGY PREDICTED BY IDOCK:   -5.19 KCAL/MOL
REMARK 922        TOTAL FREE ENERGY PREDICTED BY IDOCK:  -14.41 KCAL/MOL
REMARK 923 INTER-LIGAND FREE ENERGY PREDICTED BY IDOCK:  -11.71 KCAL/MOL
REMARK 924 INTRA-LIGAND FREE ENERGY PREDICTED BY IDOCK:   -2.70 KCAL/MOL
REMARK 927      BINDING AFFINITY PREDICTED BY RF-SCORE:    0.00 PKD
ROOT
HETATM    1  C   UNL     1     -12.097  14.964  69.942  1.00  0.00    -0.332 C  
HETATM    2  O   UNL     1     -10.967  14.601  69.154  1.00  0.00    -0.245 OA 
ENDROOT
BRANCH   2   3
HETATM    3  C   UNL     1     -11.013  14.921  67.819  1.00  0.00    -0.293 A  
HETATM    4  C   UNL     1     -11.533  14.012  66.890  1.00  0.00    -0.373 A  
HETATM    5  C   UNL     1     -11.593  14.313  65.528  1.00  0.00    -0.338 A  
HETATM    6  C   UNL     1     -11.133  15.548  65.087  1.00  0.00    -0.382 A  
HETATM    7  C   UNL     1     -10.579  16.195  67.386  1.00  0.00    -0.311 A  
HETATM    8  C   UNL     1     -10.634  16.495  66.001  1.00  0.00    -0.253 A  
BRANCH   5   9
HETATM    9  C   UNL     1     -12.150  13.266  64.637  1.00  0.00    -0.408 C  
HETATM   10  O   UNL     1     -13.198  12.687  64.882  1.00  0.00    -0.819 OA 
BRANCH   9  11
HETATM   11  O   UNL     1     -11.342  13.021  63.575  1.00  0.00    -0.406 OA 
BRANCH  11  12
HETATM   12  C   UNL     1     -10.143  12.296  63.904  1.00  0.00    -0.347 C  
BRANCH  12  13
HETATM   13  C   UNL     1     -10.473  10.816  64.082  1.00  0.00    -0.309 C  
BRANCH  13  14
HETATM   14  C   UNL     1      -9.304  10.047  64.698  1.00  0.00    -0.279 C  
BRANCH  14  15
HETATM   15  N   UNL     1      -9.417   9.878  66.162  1.00  0.00    -0.186 NA 
HETATM   16  C   UNL     1     -10.151   8.652  66.505  1.00  0.00    -0.269 C  
BRANCH  15  17
HETATM   17  C   UNL     1      -8.051   9.881  66.750  1.00  0.00    -0.117 C  
BRANCH  17  18
HETATM   18  C   UNL     1      -7.100  10.938  66.138  1.00  0.00    -0.097 C  
BRANCH  18  19
HETATM   19  N   UNL     1      -6.734  12.074  67.016  1.00  0.00    -0.131 NA 
HETATM   20  C   UNL     1      -7.926  12.683  67.616  1.00  0.00    -0.169 C  
BRANCH  19  21
HETATM   21  C   UNL     1      -5.821  11.628  68.092  1.00  0.00    -0.046 C  
BRANCH  21  22
HETATM   22  C   UNL     1      -6.453  11.677  69.486  1.00  0.00    -0.122 C  
BRANCH  22  23
HETATM   23  C   UNL     1      -5.667  10.847  70.493  1.00  0.00    -0.129 C  
BRANCH  23  24
HETATM   24  O   UNL     1      -6.579  10.106  71.322  1.00  0.00    -0.326 OA 
BRANCH  24  25
HETATM   25  C   UNL     1      -7.106   8.989  70.761  1.00  0.00    -0.092 C  
HETATM   26  O   UNL     1      -6.486   8.122  70.167  1.00  0.00    -0.036 OA 
BRANCH  25  27
HETATM   27  C   UNL     1      -8.574   8.938  70.986  1.00  0.00    -0.255 A  
HETATM   28  C   UNL     1      -9.043   8.259  72.112  1.00  0.00    -0.279 A  
HETATM   29  C   UNL     1     -10.414   8.145  72.343  1.00  0.00    -0.319 A  
HETATM   30  C   UNL     1     -11.339   8.705  71.429  1.00  0.00    -0.284 A  
HETATM   31  C   UNL     1      -9.482   9.531  70.102  1.00  0.00    -0.287 A  
HETATM   32  C   UNL     1     -10.866   9.414  70.301  1.00  0.00    -0.258 A  
BRANCH  29  33
HETATM   33  O   UNL     1     -10.932   7.457  73.418  1.00  0.00    -0.378 OA 
HETATM   34  C   UNL     1     -10.062   6.522  74.049  1.00  0.00    -0.326 C  
ENDBRANCH  29  33
BRANCH  30  35
HETATM   35  O   UNL     1     -12.658   8.441  71.714  1.00  0.00    -0.313 OA 
HETATM   36  C   UNL     1     -13.441   9.466  72.309  1.00  0.00    -0.465 C  
ENDBRANCH  30  35
BRANCH  32  37
HETATM   37  O   UNL     1     -11.778   9.937  69.425  1.00  0.00    -0.042 OA 
HETATM   38  C   UNL     1     -12.078  11.326  69.509  1.00  0.00    -0.317 C  
ENDBRANCH  32  37
ENDBRANCH  25  27
ENDBRANCH  24  25
ENDBRANCH  23  24
ENDBRANCH  22  23
ENDBRANCH  21  22
ENDBRANCH  19  21
ENDBRANCH  18  19
ENDBRANCH  17  18
ENDBRANCH  15  17
ENDBRANCH  14  15
ENDBRANCH  13  14
ENDBRANCH  12  13
ENDBRANCH  11  12
ENDBRANCH   9  11
ENDBRANCH   5   9
BRANCH   8  39
HETATM   39  O   UNL     1     -10.251  17.648  65.356  1.00  0.00    -0.576 OA 
HETATM   40  C   UNL     1     -10.767  18.900  65.780  1.00  0.00    -0.243 C  
ENDBRANCH   8  39
BRANCH   7  41
HETATM   41  O   UNL     1     -10.086  17.184  68.196  1.00  0.00    -0.280 OA 
HETATM   42  C   UNL     1      -8.712  17.224  68.546  1.00  0.00    -0.273 C  
ENDBRANCH   7  41
ENDBRANCH   2   3
TORSDOF 21
ENDMDL
MODEL       26
REMARK 921   NORMALIZED FREE ENERGY PREDICTED BY IDOCK:   -5.18 KCAL/MOL
REMARK 922        TOTAL FREE ENERGY PREDICTED BY IDOCK:  -14.41 KCAL/MOL
REMARK 923 INTER-LIGAND FREE ENERGY PREDICTED BY IDOCK:  -10.99 KCAL/MOL
REMARK 924 INTRA-LIGAND FREE ENERGY PREDICTED BY IDOCK:   -3.42 KCAL/MOL
REMARK 927      BINDING AFFINITY PREDICTED BY RF-SCORE:    0.00 PKD
ROOT
HETATM    1  C   UNL     1     -10.157   8.858  66.333  1.00  0.00    -0.263 C  
HETATM    2  O   UNL     1     -10.314   9.868  65.339  1.00  0.00    -0.207 OA 
ENDROOT
BRANCH   2   3
HETATM    3  C   UNL     1     -10.124  11.167  65.741  1.00  0.00    -0.249 A  
HETATM    4  C   UNL     1      -8.935  11.547  66.375  1.00  0.00    -0.200 A  
HETATM    5  C   UNL     1      -8.716  12.860  66.792  1.00  0.00    -0.112 A  
HETATM    6  C   UNL     1      -9.701  13.815  66.565  1.00  0.00    -0.301 A  
HETATM    7  C   UNL     1     -11.115  12.139  65.470  1.00  0.00    -0.316 A  
HETATM    8  C   UNL     1     -10.894  13.471  65.902  1.00  0.00    -0.275 A  
BRANCH   5   9
HETATM    9  C   UNL     1      -7.424  13.141  67.466  1.00  0.00    -0.160 C  
HETATM   10  O   UNL     1      -6.356  12.743  67.025  1.00  0.00    -0.219 OA 
BRANCH   9  11
HETATM   11  O   UNL     1      -7.593  13.837  68.617  1.00  0.00    -0.128 OA 
BRANCH  11  12
HETATM   12  C   UNL     1      -6.952  15.126  68.624  1.00  0.00    -0.113 C  
BRANCH  12  13
HETATM   13  C   UNL     1      -7.991  16.212  68.892  1.00  0.00    -0.223 C  
BRANCH  13  14
HETATM   14  C   UNL     1      -9.286  15.627  69.457  1.00  0.00    -0.259 C  
BRANCH  14  15
HETATM   15  N   UNL     1     -10.343  16.639  69.670  1.00  0.00    -0.241 NA 
HETATM   16  C   UNL     1     -10.686  17.327  68.418  1.00  0.00    -0.332 C  
BRANCH  15  17
HETATM   17  C   UNL     1     -11.528  15.971  70.271  1.00  0.00    -0.359 C  
BRANCH  17  18
HETATM   18  C   UNL     1     -11.329  15.530  71.741  1.00  0.00    -0.384 C  
BRANCH  18  19
HETATM   19  N   UNL     1     -12.483  14.860  72.384  1.00  0.00    -0.337 NA 
HETATM   20  C   UNL     1     -13.484  15.838  72.823  1.00  0.00    -0.574 C  
BRANCH  19  21
HETATM   21  C   UNL     1     -13.115  13.901  71.451  1.00  0.00    -0.340 C  
BRANCH  21  22
HETATM   22  C   UNL     1     -13.638  12.636  72.140  1.00  0.00    -0.510 C  
BRANCH  22  23
HETATM   23  C   UNL     1     -12.930  11.384  71.638  1.00  0.00    -0.418 C  
BRANCH  23  24
HETATM   24  O   UNL     1     -11.864  11.758  70.750  1.00  0.00    -0.242 OA 
BRANCH  24  25
HETATM   25  C   UNL     1     -11.760  11.021  69.615  1.00  0.00    -0.329 C  
HETATM   26  O   UNL     1     -12.487  11.098  68.638  1.00  0.00    -0.463 OA 
BRANCH  25  27
HETATM   27  C   UNL     1     -10.600  10.096  69.703  1.00  0.00    -0.286 A  
HETATM   28  C   UNL     1     -10.838   8.778  70.095  1.00  0.00    -0.241 A  
HETATM   29  C   UNL     1      -9.777   7.883  70.235  1.00  0.00    -0.183 A  
HETATM   30  C   UNL     1      -8.448   8.312  69.997  1.00  0.00    -0.123 A  
HETATM   31  C   UNL     1      -9.294  10.514  69.425  1.00  0.00    -0.139 A  
HETATM   32  C   UNL     1      -8.207   9.640  69.579  1.00  0.00    -0.136 A  
BRANCH  29  33
HETATM   33  O   UNL     1      -9.951   6.582  70.651  1.00  0.00    -0.183 OA 
HETATM   34  C   UNL     1     -10.871   5.795  69.899  1.00  0.00    -0.347 C  
ENDBRANCH  29  33
BRANCH  30  35
HETATM   35  O   UNL     1      -7.485   7.369  70.266  1.00  0.00    -0.079 OA 
HETATM   36  C   UNL     1      -6.874   7.371  71.549  1.00  0.00    -0.054 C  
ENDBRANCH  30  35
BRANCH  32  37
HETATM   37  O   UNL     1      -6.914  10.037  69.365  1.00  0.00    -0.055 OA 
HETATM   38  C   UNL     1      -6.317  10.929  70.298  1.00  0.00    -0.135 C  
ENDBRANCH  32  37
ENDBRANCH  25  27
ENDBRANCH  24  25
ENDBRANCH  23  24
ENDBRANCH  22  23
ENDBRANCH  21  22
ENDBRANCH  19  21
ENDBRANCH  18  19
ENDBRANCH  17  18
ENDBRANCH  15  17
ENDBRANCH  14  15
ENDBRANCH  13  14
ENDBRANCH  12  13
ENDBRANCH  11  12
ENDBRANCH   9  11
ENDBRANCH   5   9
BRANCH   8  39
HETATM   39  O   UNL     1     -11.716  14.566  65.770  1.00  0.00    -0.358 OA 
HETATM   40  C   UNL     1     -11.459  15.524  64.755  1.00  0.00    -0.313 C  
ENDBRANCH   8  39
BRANCH   7  41
HETATM   41  O   UNL     1     -12.303  11.905  64.828  1.00  0.00    -0.279 OA 
HETATM   42  C   UNL     1     -12.406  12.025  63.419  1.00  0.00    -0.523 C  
ENDBRANCH   7  41
ENDBRANCH   2   3
TORSDOF 21
ENDMDL
MODEL       27
REMARK 921   NORMALIZED FREE ENERGY PREDICTED BY IDOCK:   -5.18 KCAL/MOL
REMARK 922        TOTAL FREE ENERGY PREDICTED BY IDOCK:  -14.40 KCAL/MOL
REMARK 923 INTER-LIGAND FREE ENERGY PREDICTED BY IDOCK:  -11.21 KCAL/MOL
REMARK 924 INTRA-LIGAND FREE ENERGY PREDICTED BY IDOCK:   -3.19 KCAL/MOL
REMARK 927      BINDING AFFINITY PREDICTED BY RF-SCORE:    0.00 PKD
ROOT
HETATM    1  C   UNL     1     -12.216  13.388  63.351  1.00  0.00    -0.349 C  
HETATM    2  O   UNL     1     -11.046  12.574  63.299  1.00  0.00    -0.438 OA 
ENDROOT
BRANCH   2   3
HETATM    3  C   UNL     1     -10.801  11.773  64.387  1.00  0.00    -0.334 A  
HETATM    4  C   UNL     1     -11.335  12.097  65.641  1.00  0.00    -0.395 A  
HETATM    5  C   UNL     1     -11.102  11.299  66.762  1.00  0.00    -0.314 A  
HETATM    6  C   UNL     1     -10.329  10.152  66.628  1.00  0.00    -0.274 A  
HETATM    7  C   UNL     1     -10.046  10.587  64.232  1.00  0.00    -0.310 A  
HETATM    8  C   UNL     1      -9.805   9.783  65.375  1.00  0.00    -0.295 A  
BRANCH   5   9
HETATM    9  C   UNL     1     -11.706  11.751  68.040  1.00  0.00    -0.293 C  
HETATM   10  O   UNL     1     -12.135  10.966  68.874  1.00  0.00    -0.463 OA 
BRANCH   9  11
HETATM   11  O   UNL     1     -11.754  13.103  68.130  1.00  0.00    -0.315 OA 
BRANCH  11  12
HETATM   12  C   UNL     1     -11.916  13.598  69.471  1.00  0.00    -0.341 C  
BRANCH  12  13
HETATM   13  C   UNL     1     -11.796  15.119  69.473  1.00  0.00    -0.358 C  
BRANCH  13  14
HETATM   14  C   UNL     1     -10.490  15.583  68.827  1.00  0.00    -0.234 C  
BRANCH  14  15
HETATM   15  N   UNL     1     -10.694  16.461  67.655  1.00  0.00    -0.326 NA 
HETATM   16  C   UNL     1     -10.593  17.879  68.024  1.00  0.00    -0.356 C  
BRANCH  15  17
HETATM   17  C   UNL     1      -9.703  16.095  66.607  1.00  0.00    -0.244 C  
BRANCH  17  18
HETATM   18  C   UNL     1      -8.970  14.758  66.867  1.00  0.00    -0.253 C  
BRANCH  18  19
HETATM   19  N   UNL     1      -7.507  14.846  67.086  1.00  0.00    -0.155 NA 
HETATM   20  C   UNL     1      -7.126  16.177  67.571  1.00  0.00    -0.163 C  
BRANCH  19  21
HETATM   21  C   UNL     1      -7.065  13.827  68.063  1.00  0.00    -0.133 C  
BRANCH  21  22
HETATM   22  C   UNL     1      -8.095  12.716  68.293  1.00  0.00    -0.161 C  
BRANCH  22  23
HETATM   23  C   UNL     1      -7.433  11.404  68.692  1.00  0.00    -0.119 C  
BRANCH  23  24
HETATM   24  O   UNL     1      -8.408  10.537  69.296  1.00  0.00    -0.155 OA 
BRANCH  24  25
HETATM   25  C   UNL     1      -7.961   9.779  70.328  1.00  0.00    -0.162 C  
HETATM   26  O   UNL     1      -6.899   9.917  70.915  1.00  0.00    -0.289 OA 
BRANCH  25  27
HETATM   27  C   UNL     1      -8.965   8.742  70.684  1.00  0.00    -0.219 A  
HETATM   28  C   UNL     1     -10.073   9.132  71.438  1.00  0.00    -0.392 A  
HETATM   29  C   UNL     1     -11.020   8.188  71.834  1.00  0.00    -0.275 A  
HETATM   30  C   UNL     1     -10.855   6.825  71.487  1.00  0.00    -0.234 A  
HETATM   31  C   UNL     1      -8.819   7.405  70.301  1.00  0.00    -0.147 A  
HETATM   32  C   UNL     1      -9.746   6.432  70.704  1.00  0.00    -0.179 A  
BRANCH  29  33
HETATM   33  O   UNL     1     -12.113   8.511  72.607  1.00  0.00    -0.378 OA 
HETATM   34  C   UNL     1     -13.089   9.354  72.003  1.00  0.00    -0.433 C  
ENDBRANCH  29  33
BRANCH  30  35
HETATM   35  O   UNL     1     -11.800   5.979  72.020  1.00  0.00    -0.303 OA 
HETATM   36  C   UNL     1     -11.406   5.094  73.060  1.00  0.00    -0.309 C  
ENDBRANCH  30  35
BRANCH  32  37
HETATM   37  O   UNL     1      -9.600   5.108  70.390  1.00  0.00    -0.163 OA 
HETATM   38  C   UNL     1      -9.464   4.748  69.020  1.00  0.00    -0.148 C  
ENDBRANCH  32  37
ENDBRANCH  25  27
ENDBRANCH  24  25
ENDBRANCH  23  24
ENDBRANCH  22  23
ENDBRANCH  21  22
ENDBRANCH  19  21
ENDBRANCH  18  19
ENDBRANCH  17  18
ENDBRANCH  15  17
ENDBRANCH  14  15
ENDBRANCH  13  14
ENDBRANCH  12  13
ENDBRANCH  11  12
ENDBRANCH   9  11
ENDBRANCH   5   9
BRANCH   8  39
HETATM   39  O   UNL     1      -9.089   8.613  65.466  1.00  0.00    -0.193 OA 
HETATM   40  C   UNL     1      -8.602   8.179  66.727  1.00  0.00    -0.132 C  
ENDBRANCH   8  39
BRANCH   7  41
HETATM   41  O   UNL     1      -9.501  10.141  63.057  1.00  0.00    -0.298 OA 
HETATM   42  C   UNL     1      -8.224  10.584  62.630  1.00  0.00    -0.174 C  
ENDBRANCH   7  41
ENDBRANCH   2   3
TORSDOF 21
ENDMDL
MODEL       28
REMARK 921   NORMALIZED FREE ENERGY PREDICTED BY IDOCK:   -5.17 KCAL/MOL
REMARK 922        TOTAL FREE ENERGY PREDICTED BY IDOCK:  -14.37 KCAL/MOL
REMARK 923 INTER-LIGAND FREE ENERGY PREDICTED BY IDOCK:  -11.84 KCAL/MOL
REMARK 924 INTRA-LIGAND FREE ENERGY PREDICTED BY IDOCK:   -2.52 KCAL/MOL
REMARK 927      BINDING AFFINITY PREDICTED BY RF-SCORE:    0.00 PKD
ROOT
HETATM    1  C   UNL     1     -11.474  10.541  69.730  1.00  0.00    -0.294 C  
HETATM    2  O   UNL     1     -11.894  11.861  70.069  1.00  0.00    -0.323 OA 
ENDROOT
BRANCH   2   3
HETATM    3  C   UNL     1     -11.850  12.801  69.069  1.00  0.00    -0.297 A  
HETATM    4  C   UNL     1     -12.001  12.419  67.730  1.00  0.00    -0.252 A  
HETATM    5  C   UNL     1     -11.961  13.354  66.695  1.00  0.00    -0.452 A  
HETATM    6  C   UNL     1     -11.774  14.697  67.002  1.00  0.00    -0.379 A  
HETATM    7  C   UNL     1     -11.699  14.168  69.395  1.00  0.00    -0.313 A  
HETATM    8  C   UNL     1     -11.651  15.115  68.341  1.00  0.00    -0.337 A  
BRANCH   5   9
HETATM    9  C   UNL     1     -12.118  12.830  65.316  1.00  0.00    -0.457 C  
HETATM   10  O   UNL     1     -13.183  12.403  64.895  1.00  0.00    -0.714 OA 
BRANCH   9  11
HETATM   11  O   UNL     1     -10.949  12.851  64.629  1.00  0.00    -0.301 OA 
BRANCH  11  12
HETATM   12  C   UNL     1     -10.989  12.139  63.378  1.00  0.00    -0.412 C  
BRANCH  12  13
HETATM   13  C   UNL     1      -9.619  11.532  63.091  1.00  0.00    -0.381 C  
BRANCH  13  14
HETATM   14  C   UNL     1      -9.473  10.144  63.716  1.00  0.00    -0.275 C  
BRANCH  14  15
HETATM   15  N   UNL     1      -9.006  10.177  65.119  1.00  0.00    -0.177 NA 
HETATM   16  C   UNL     1     -10.065   9.757  66.046  1.00  0.00    -0.251 C  
BRANCH  15  17
HETATM   17  C   UNL     1      -7.799   9.317  65.240  1.00  0.00    -0.105 C  
BRANCH  17  18
HETATM   18  C   UNL     1      -8.105   7.802  65.307  1.00  0.00    -0.133 C  
BRANCH  18  19
HETATM   19  N   UNL     1      -7.258   7.003  66.224  1.00  0.00    -0.073 NA 
HETATM   20  C   UNL     1      -7.444   7.425  67.616  1.00  0.00    -0.097 C  
BRANCH  19  21
HETATM   21  C   UNL     1      -7.575   5.563  66.104  1.00  0.00    -0.091 C  
BRANCH  21  22
HETATM   22  C   UNL     1      -8.736   5.272  65.148  1.00  0.00    -0.146 C  
BRANCH  22  23
HETATM   23  C   UNL     1      -9.885   4.561  65.851  1.00  0.00    -0.226 C  
BRANCH  23  24
HETATM   24  O   UNL     1      -9.863   4.883  67.252  1.00  0.00    -0.162 OA 
BRANCH  24  25
HETATM   25  C   UNL     1     -10.728   5.851  67.646  1.00  0.00    -0.270 C  
HETATM   26  O   UNL     1     -11.374   6.580  66.910  1.00  0.00    -0.330 OA 
BRANCH  25  27
HETATM   27  C   UNL     1     -10.811   5.901  69.129  1.00  0.00    -0.406 A  
HETATM   28  C   UNL     1      -9.980   5.054  69.862  1.00  0.00    -0.322 A  
HETATM   29  C   UNL     1     -10.052   5.031  71.256  1.00  0.00    -0.206 A  
HETATM   30  C   UNL     1     -10.982   5.857  71.933  1.00  0.00    -0.266 A  
HETATM   31  C   UNL     1     -11.702   6.750  69.794  1.00  0.00    -0.222 A  
HETATM   32  C   UNL     1     -11.809   6.732  71.193  1.00  0.00    -0.360 A  
BRANCH  29  33
HETATM   33  O   UNL     1      -9.281   4.191  72.026  1.00  0.00    -0.117 OA 
HETATM   34  C   UNL     1      -9.502   2.794  71.856  1.00  0.00    -0.130 C  
ENDBRANCH  29  33
BRANCH  30  35
HETATM   35  O   UNL     1     -11.027   5.671  73.295  1.00  0.00    -0.265 OA 
HETATM   36  C   UNL     1     -10.328   6.587  74.127  1.00  0.00    -0.329 C  
ENDBRANCH  30  35
BRANCH  32  37
HETATM   37  O   UNL     1     -12.708   7.513  71.868  1.00  0.00    -0.316 OA 
HETATM   38  C   UNL     1     -14.085   7.416  71.521  1.00  0.00    -0.409 C  
ENDBRANCH  32  37
ENDBRANCH  25  27
ENDBRANCH  24  25
ENDBRANCH  23  24
ENDBRANCH  22  23
ENDBRANCH  21  22
ENDBRANCH  19  21
ENDBRANCH  18  19
ENDBRANCH  17  18
ENDBRANCH  15  17
ENDBRANCH  14  15
ENDBRANCH  13  14
ENDBRANCH  12  13
ENDBRANCH  11  12
ENDBRANCH   9  11
ENDBRANCH   5   9
BRANCH   8  39
HETATM   39  O   UNL     1     -11.491  16.479  68.417  1.00  0.00    -0.301 OA 
HETATM   40  C   UNL     1     -10.194  17.045  68.318  1.00  0.00    -0.326 C  
ENDBRANCH   8  39
BRANCH   7  41
HETATM   41  O   UNL     1     -11.578  14.674  70.663  1.00  0.00    -0.278 OA 
HETATM   42  C   UNL     1     -12.720  15.074  71.401  1.00  0.00    -0.341 C  
ENDBRANCH   7  41
ENDBRANCH   2   3
TORSDOF 21
ENDMDL
MODEL       29
REMARK 921   NORMALIZED FREE ENERGY PREDICTED BY IDOCK:   -5.16 KCAL/MOL
REMARK 922        TOTAL FREE ENERGY PREDICTED BY IDOCK:  -14.35 KCAL/MOL
REMARK 923 INTER-LIGAND FREE ENERGY PREDICTED BY IDOCK:  -11.47 KCAL/MOL
REMARK 924 INTRA-LIGAND FREE ENERGY PREDICTED BY IDOCK:   -2.87 KCAL/MOL
REMARK 927      BINDING AFFINITY PREDICTED BY RF-SCORE:    0.00 PKD
ROOT
HETATM    1  C   UNL     1      -8.020   8.993  67.094  1.00  0.00    -0.102 C  
HETATM    2  O   UNL     1      -8.310   9.704  65.893  1.00  0.00    -0.117 OA 
ENDROOT
BRANCH   2   3
HETATM    3  C   UNL     1      -8.772  10.990  66.031  1.00  0.00    -0.188 A  
HETATM    4  C   UNL     1      -8.198  11.852  66.974  1.00  0.00    -0.170 A  
HETATM    5  C   UNL     1      -8.647  13.163  67.134  1.00  0.00    -0.194 A  
HETATM    6  C   UNL     1      -9.684  13.627  66.331  1.00  0.00    -0.300 A  
HETATM    7  C   UNL     1      -9.800  11.463  65.183  1.00  0.00    -0.260 A  
HETATM    8  C   UNL     1     -10.259  12.794  65.353  1.00  0.00    -0.283 A  
BRANCH   5   9
HETATM    9  C   UNL     1      -7.973  13.978  68.174  1.00  0.00    -0.149 C  
HETATM   10  O   UNL     1      -7.396  13.475  69.128  1.00  0.00    -0.049 OA 
BRANCH   9  11
HETATM   11  O   UNL     1      -8.118  15.308  67.951  1.00  0.00    -0.129 OA 
BRANCH  11  12
HETATM   12  C   UNL     1      -7.000  15.916  67.279  1.00  0.00    -0.206 C  
BRANCH  12  13
HETATM   13  C   UNL     1      -7.507  16.956  66.284  1.00  0.00    -0.282 C  
BRANCH  13  14
HETATM   14  C   UNL     1      -8.944  17.378  66.590  1.00  0.00    -0.252 C  
BRANCH  14  15
HETATM   15  N   UNL     1      -9.035  18.506  67.541  1.00  0.00    -0.274 NA 
HETATM   16  C   UNL     1      -9.200  19.787  66.840  1.00  0.00    -0.360 C  
BRANCH  15  17
HETATM   17  C   UNL     1     -10.158  18.248  68.482  1.00  0.00    -0.398 C  
BRANCH  17  18
HETATM   18  C   UNL     1     -10.961  16.962  68.172  1.00  0.00    -0.290 C  
BRANCH  18  19
HETATM   19  N   UNL     1     -10.902  15.892  69.195  1.00  0.00    -0.248 NA 
HETATM   20  C   UNL     1     -10.946  16.453  70.549  1.00  0.00    -0.150 C  
BRANCH  19  21
HETATM   21  C   UNL     1     -12.026  14.945  69.023  1.00  0.00    -0.272 C  
BRANCH  21  22
HETATM   22  C   UNL     1     -12.541  14.365  70.344  1.00  0.00    -0.405 C  
BRANCH  22  23
HETATM   23  C   UNL     1     -12.233  12.878  70.468  1.00  0.00    -0.314 C  
BRANCH  23  24
HETATM   24  O   UNL     1     -11.420  12.462  69.358  1.00  0.00    -0.272 OA 
BRANCH  24  25
HETATM   25  C   UNL     1     -11.619  11.190  68.930  1.00  0.00    -0.317 C  
HETATM   26  O   UNL     1     -11.980  10.856  67.813  1.00  0.00    -0.553 OA 
BRANCH  25  27
HETATM   27  C   UNL     1     -11.312  10.222  70.016  1.00  0.00    -0.370 A  
HETATM   28  C   UNL     1     -12.380   9.609  70.671  1.00  0.00    -0.201 A  
HETATM   29  C   UNL     1     -12.144   8.727  71.726  1.00  0.00    -0.350 A  
HETATM   30  C   UNL     1     -10.819   8.462  72.150  1.00  0.00    -0.337 A  
HETATM   31  C   UNL     1      -9.998   9.932  70.401  1.00  0.00    -0.222 A  
HETATM   32  C   UNL     1      -9.735   9.065  71.472  1.00  0.00    -0.295 A  
BRANCH  29  33
HETATM   33  O   UNL     1     -13.161   8.121  72.430  1.00  0.00    -0.225 OA 
HETATM   34  C   UNL     1     -14.299   7.717  71.675  1.00  0.00    -0.477 C  
ENDBRANCH  29  33
BRANCH  30  35
HETATM   35  O   UNL     1     -10.722   7.657  73.260  1.00  0.00    -0.386 OA 
HETATM   36  C   UNL     1     -10.886   6.256  73.097  1.00  0.00    -0.254 C  
ENDBRANCH  30  35
BRANCH  32  37
HETATM   37  O   UNL     1      -8.463   8.803  71.905  1.00  0.00    -0.293 OA 
HETATM   38  C   UNL     1      -7.388   8.965  70.987  1.00  0.00    -0.106 C  
ENDBRANCH  32  37
ENDBRANCH  25  27
ENDBRANCH  24  25
ENDBRANCH  23  24
ENDBRANCH  22  23
ENDBRANCH  21  22
ENDBRANCH  19  21
ENDBRANCH  18  19
ENDBRANCH  17  18
ENDBRANCH  15  17
ENDBRANCH  14  15
ENDBRANCH  13  14
ENDBRANCH  12  13
ENDBRANCH  11  12
ENDBRANCH   9  11
ENDBRANCH   5   9
BRANCH   8  39
HETATM   39  O   UNL     1     -11.251  13.455  64.666  1.00  0.00    -0.330 OA 
HETATM   40  C   UNL     1     -12.433  13.854  65.342  1.00  0.00    -0.501 C  
ENDBRANCH   8  39
BRANCH   7  41
HETATM   41  O   UNL     1     -10.417  10.735  64.200  1.00  0.00    -0.364 OA 
HETATM   42  C   UNL     1      -9.829  10.594  62.918  1.00  0.00    -0.229 C  
ENDBRANCH   7  41
ENDBRANCH   2   3
TORSDOF 21
ENDMDL
MODEL       30
REMARK 921   NORMALIZED FREE ENERGY PREDICTED BY IDOCK:   -5.12 KCAL/MOL
REMARK 922        TOTAL FREE ENERGY PREDICTED BY IDOCK:  -14.27 KCAL/MOL
REMARK 923 INTER-LIGAND FREE ENERGY PREDICTED BY IDOCK:  -11.64 KCAL/MOL
REMARK 924 INTRA-LIGAND FREE ENERGY PREDICTED BY IDOCK:   -2.63 KCAL/MOL
REMARK 927      BINDING AFFINITY PREDICTED BY RF-SCORE:    0.00 PKD
ROOT
HETATM    1  C   UNL     1     -11.881  12.741  69.299  1.00  0.00    -0.303 C  
HETATM    2  O   UNL     1     -12.398  13.931  68.708  1.00  0.00    -0.288 OA 
ENDROOT
BRANCH   2   3
HETATM    3  C   UNL     1     -11.867  14.302  67.497  1.00  0.00    -0.395 A  
HETATM    4  C   UNL     1     -12.198  13.597  66.333  1.00  0.00    -0.472 A  
HETATM    5  C   UNL     1     -11.673  13.953  65.089  1.00  0.00    -0.357 A  
HETATM    6  C   UNL     1     -10.808  15.038  65.005  1.00  0.00    -0.439 A  
HETATM    7  C   UNL     1     -11.019  15.431  67.416  1.00  0.00    -0.312 A  
HETATM    8  C   UNL     1     -10.482  15.786  66.153  1.00  0.00    -0.317 A  
BRANCH   5   9
HETATM    9  C   UNL     1     -12.083  13.124  63.929  1.00  0.00    -0.470 C  
HETATM   10  O   UNL     1     -12.623  13.603  62.941  1.00  0.00    -0.621 OA 
BRANCH   9  11
HETATM   11  O   UNL     1     -11.825  11.808  64.129  1.00  0.00    -0.327 OA 
BRANCH  11  12
HETATM   12  C   UNL     1     -10.498  11.405  63.745  1.00  0.00    -0.399 C  
BRANCH  12  13
HETATM   13  C   UNL     1      -9.787  10.782  64.943  1.00  0.00    -0.350 C  
BRANCH  13  14
HETATM   14  C   UNL     1      -8.908   9.602  64.527  1.00  0.00    -0.223 C  
BRANCH  14  15
HETATM   15  N   UNL     1      -9.021   8.438  65.431  1.00  0.00    -0.110 NA 
HETATM   16  C   UNL     1      -7.806   7.613  65.398  1.00  0.00    -0.115 C  
BRANCH  15  17
HETATM   17  C   UNL     1      -9.315   8.927  66.805  1.00  0.00    -0.175 C  
BRANCH  17  18
HETATM   18  C   UNL     1      -8.363   8.373  67.892  1.00  0.00    -0.131 C  
BRANCH  18  19
HETATM   19  N   UNL     1      -8.084   9.272  69.036  1.00  0.00    -0.104 NA 
HETATM   20  C   UNL     1      -7.273  10.420  68.619  1.00  0.00    -0.082 C  
BRANCH  19  21
HETATM   21  C   UNL     1      -9.347   9.759  69.635  1.00  0.00    -0.219 C  
BRANCH  21  22
HETATM   22  C   UNL     1      -9.601   9.215  71.045  1.00  0.00    -0.350 C  
BRANCH  22  23
HETATM   23  C   UNL     1     -11.050   9.407  71.473  1.00  0.00    -0.376 C  
BRANCH  23  24
HETATM   24  O   UNL     1     -11.911   8.640  70.616  1.00  0.00    -0.229 OA 
BRANCH  24  25
HETATM   25  C   UNL     1     -12.337   7.455  71.120  1.00  0.00    -0.314 C  
HETATM   26  O   UNL     1     -13.356   7.273  71.767  1.00  0.00    -0.350 OA 
BRANCH  25  27
HETATM   27  C   UNL     1     -11.391   6.366  70.758  1.00  0.00    -0.411 A  
HETATM   28  C   UNL     1     -11.073   6.195  69.410  1.00  0.00    -0.479 A  
HETATM   29  C   UNL     1     -10.225   5.160  69.014  1.00  0.00    -0.171 A  
HETATM   30  C   UNL     1      -9.696   4.266  69.977  1.00  0.00    -0.217 A  
HETATM   31  C   UNL     1     -10.838   5.514  71.718  1.00  0.00    -0.277 A  
HETATM   32  C   UNL     1      -9.999   4.452  71.345  1.00  0.00    -0.178 A  
BRANCH  29  33
HETATM   33  O   UNL     1      -9.905   4.924  67.696  1.00  0.00    -0.158 OA 
HETATM   34  C   UNL     1     -10.785   5.479  66.722  1.00  0.00    -0.253 C  
ENDBRANCH  29  33
BRANCH  30  35
HETATM   35  O   UNL     1      -8.958   3.231  69.453  1.00  0.00    -0.089 OA 
HETATM   36  C   UNL     1      -7.540   3.319  69.502  1.00  0.00    -0.047 C  
ENDBRANCH  30  35
BRANCH  32  37
HETATM   37  O   UNL     1      -9.485   3.570  72.257  1.00  0.00    -0.109 OA 
HETATM   38  C   UNL     1     -10.352   3.050  73.258  1.00  0.00    -0.152 C  
ENDBRANCH  32  37
ENDBRANCH  25  27
ENDBRANCH  24  25
ENDBRANCH  23  24
ENDBRANCH  22  23
ENDBRANCH  21  22
ENDBRANCH  19  21
ENDBRANCH  18  19
ENDBRANCH  17  18
ENDBRANCH  15  17
ENDBRANCH  14  15
ENDBRANCH  13  14
ENDBRANCH  12  13
ENDBRANCH  11  12
ENDBRANCH   9  11
ENDBRANCH   5   9
BRANCH   8  39
HETATM   39  O   UNL     1      -9.629  16.819  65.841  1.00  0.00    -0.458 OA 
HETATM   40  C   UNL     1      -8.251  16.718  66.163  1.00  0.00    -0.264 C  
ENDBRANCH   8  39
BRANCH   7  41
HETATM   41  O   UNL     1     -10.649  16.223  68.471  1.00  0.00    -0.262 OA 
HETATM   42  C   UNL     1      -9.613  15.827  69.353  1.00  0.00    -0.284 C  
ENDBRANCH   7  41
ENDBRANCH   2   3
TORSDOF 21
ENDMDL
MODEL       31
REMARK 921   NORMALIZED FREE ENERGY PREDICTED BY IDOCK:   -5.12 KCAL/MOL
REMARK 922        TOTAL FREE ENERGY PREDICTED BY IDOCK:  -14.26 KCAL/MOL
REMARK 923 INTER-LIGAND FREE ENERGY PREDICTED BY IDOCK:  -10.86 KCAL/MOL
REMARK 924 INTRA-LIGAND FREE ENERGY PREDICTED BY IDOCK:   -3.41 KCAL/MOL
REMARK 927      BINDING AFFINITY PREDICTED BY RF-SCORE:    0.00 PKD
ROOT
HETATM    1  C   UNL     1     -12.138  13.517  63.519  1.00  0.00    -0.364 C  
HETATM    2  O   UNL     1     -11.078  12.563  63.524  1.00  0.00    -0.444 OA 
ENDROOT
BRANCH   2   3
HETATM    3  C   UNL     1     -10.904  11.837  64.676  1.00  0.00    -0.307 A  
HETATM    4  C   UNL     1     -11.444  12.288  65.886  1.00  0.00    -0.428 A  
HETATM    5  C   UNL     1     -11.282  11.569  67.072  1.00  0.00    -0.365 A  
HETATM    6  C   UNL     1     -10.574  10.373  67.047  1.00  0.00    -0.305 A  
HETATM    7  C   UNL     1     -10.216  10.602  64.632  1.00  0.00    -0.334 A  
HETATM    8  C   UNL     1     -10.047   9.878  65.839  1.00  0.00    -0.245 A  
BRANCH   5   9
HETATM    9  C   UNL     1     -11.886  12.152  68.295  1.00  0.00    -0.301 C  
HETATM   10  O   UNL     1     -12.376  11.461  69.177  1.00  0.00    -0.356 OA 
BRANCH   9  11
HETATM   11  O   UNL     1     -11.859  13.508  68.278  1.00  0.00    -0.337 OA 
BRANCH  11  12
HETATM   12  C   UNL     1     -11.676  14.109  69.573  1.00  0.00    -0.312 C  
BRANCH  12  13
HETATM   13  C   UNL     1     -11.810  15.624  69.457  1.00  0.00    -0.387 C  
BRANCH  13  14
HETATM   14  C   UNL     1     -10.568  16.255  68.828  1.00  0.00    -0.298 C  
BRANCH  14  15
HETATM   15  N   UNL     1     -10.866  17.081  67.639  1.00  0.00    -0.297 NA 
HETATM   16  C   UNL     1     -10.479  18.482  67.849  1.00  0.00    -0.384 C  
BRANCH  15  17
HETATM   17  C   UNL     1     -10.172  16.491  66.462  1.00  0.00    -0.300 C  
BRANCH  17  18
HETATM   18  C   UNL     1      -9.388  15.194  66.773  1.00  0.00    -0.247 C  
BRANCH  18  19
HETATM   19  N   UNL     1      -7.916  15.270  66.627  1.00  0.00    -0.080 NA 
HETATM   20  C   UNL     1      -7.448  16.658  66.699  1.00  0.00    -0.276 C  
BRANCH  19  21
HETATM   21  C   UNL     1      -7.246  14.475  67.680  1.00  0.00    -0.187 C  
BRANCH  21  22
HETATM   22  C   UNL     1      -8.099  13.312  68.199  1.00  0.00    -0.159 C  
BRANCH  22  23
HETATM   23  C   UNL     1      -7.264  12.061  68.440  1.00  0.00    -0.092 C  
BRANCH  23  24
HETATM   24  O   UNL     1      -8.120  10.985  68.858  1.00  0.00    -0.142 OA 
BRANCH  24  25
HETATM   25  C   UNL     1      -7.701  10.291  69.946  1.00  0.00    -0.126 C  
HETATM   26  O   UNL     1      -6.681  10.500  70.583  1.00  0.00    -0.333 OA 
BRANCH  25  27
HETATM   27  C   UNL     1      -8.680   9.226  70.290  1.00  0.00    -0.246 A  
HETATM   28  C   UNL     1      -8.228   7.906  70.329  1.00  0.00    -0.124 A  
HETATM   29  C   UNL     1      -9.118   6.867  70.604  1.00  0.00    -0.155 A  
HETATM   30  C   UNL     1     -10.488   7.144  70.828  1.00  0.00    -0.212 A  
HETATM   31  C   UNL     1     -10.024   9.510  70.554  1.00  0.00    -0.335 A  
HETATM   32  C   UNL     1     -10.943   8.482  70.812  1.00  0.00    -0.247 A  
BRANCH  29  33
HETATM   33  O   UNL     1      -8.733   5.545  70.621  1.00  0.00    -0.125 OA 
HETATM   34  C   UNL     1      -8.119   5.049  69.435  1.00  0.00    -0.079 C  
ENDBRANCH  29  33
BRANCH  30  35
HETATM   35  O   UNL     1     -11.279   6.031  70.988  1.00  0.00    -0.297 OA 
HETATM   36  C   UNL     1     -11.573   5.593  72.307  1.00  0.00    -0.181 C  
ENDBRANCH  30  35
BRANCH  32  37
HETATM   37  O   UNL     1     -12.274   8.726  71.020  1.00  0.00    -0.277 OA 
HETATM   38  C   UNL     1     -12.705   9.049  72.337  1.00  0.00    -0.363 C  
ENDBRANCH  32  37
ENDBRANCH  25  27
ENDBRANCH  24  25
ENDBRANCH  23  24
ENDBRANCH  22  23
ENDBRANCH  21  22
ENDBRANCH  19  21
ENDBRANCH  18  19
ENDBRANCH  17  18
ENDBRANCH  15  17
ENDBRANCH  14  15
ENDBRANCH  13  14
ENDBRANCH  12  13
ENDBRANCH  11  12
ENDBRANCH   9  11
ENDBRANCH   5   9
BRANCH   8  39
HETATM   39  O   UNL     1      -9.402   8.679  66.039  1.00  0.00    -0.212 OA 
HETATM   40  C   UNL     1      -9.862   7.789  67.044  1.00  0.00    -0.219 C  
ENDBRANCH   8  39
BRANCH   7  41
HETATM   41  O   UNL     1      -9.673  10.035  63.509  1.00  0.00    -0.210 OA 
HETATM   42  C   UNL     1      -8.347  10.334  63.108  1.00  0.00    -0.167 C  
ENDBRANCH   7  41
ENDBRANCH   2   3
TORSDOF 21
ENDMDL
MODEL       32
REMARK 921   NORMALIZED FREE ENERGY PREDICTED BY IDOCK:   -5.10 KCAL/MOL
REMARK 922        TOTAL FREE ENERGY PREDICTED BY IDOCK:  -14.22 KCAL/MOL
REMARK 923 INTER-LIGAND FREE ENERGY PREDICTED BY IDOCK:  -11.35 KCAL/MOL
REMARK 924 INTRA-LIGAND FREE ENERGY PREDICTED BY IDOCK:   -2.86 KCAL/MOL
REMARK 927      BINDING AFFINITY PREDICTED BY RF-SCORE:    0.00 PKD
ROOT
HETATM    1  C   UNL     1      -9.286  10.679  63.674  1.00  0.00    -0.284 C  
HETATM    2  O   UNL     1      -9.288  11.114  65.032  1.00  0.00    -0.220 OA 
ENDROOT
BRANCH   2   3
HETATM    3  C   UNL     1      -8.920  10.190  65.979  1.00  0.00    -0.151 A  
HETATM    4  C   UNL     1      -9.363   8.865  65.886  1.00  0.00    -0.301 A  
HETATM    5  C   UNL     1      -9.004   7.906  66.834  1.00  0.00    -0.157 A  
HETATM    6  C   UNL     1      -8.180   8.274  67.891  1.00  0.00    -0.128 A  
HETATM    7  C   UNL     1      -8.051  10.566  67.029  1.00  0.00    -0.118 A  
HETATM    8  C   UNL     1      -7.693   9.591  67.995  1.00  0.00    -0.087 A  
BRANCH   5   9
HETATM    9  C   UNL     1      -9.546   6.538  66.639  1.00  0.00    -0.160 C  
HETATM   10  O   UNL     1      -9.022   5.728  65.887  1.00  0.00    -0.154 OA 
BRANCH   9  11
HETATM   11  O   UNL     1     -10.682   6.336  67.350  1.00  0.00    -0.249 OA 
BRANCH  11  12
HETATM   12  C   UNL     1     -10.486   5.612  68.579  1.00  0.00    -0.203 C  
BRANCH  12  13
HETATM   13  C   UNL     1     -11.349   6.226  69.677  1.00  0.00    -0.492 C  
BRANCH  13  14
HETATM   14  C   UNL     1     -10.501   6.750  70.836  1.00  0.00    -0.213 C  
BRANCH  14  15
HETATM   15  N   UNL     1     -11.282   7.014  72.063  1.00  0.00    -0.246 NA 
HETATM   16  C   UNL     1     -10.768   6.243  73.203  1.00  0.00    -0.261 C  
BRANCH  15  17
HETATM   17  C   UNL     1     -11.261   8.476  72.337  1.00  0.00    -0.329 C  
BRANCH  17  18
HETATM   18  C   UNL     1     -12.197   9.305  71.425  1.00  0.00    -0.349 C  
BRANCH  18  19
HETATM   19  N   UNL     1     -11.615  10.534  70.835  1.00  0.00    -0.332 NA 
HETATM   20  C   UNL     1     -10.994  10.253  69.537  1.00  0.00    -0.258 C  
BRANCH  19  21
HETATM   21  C   UNL     1     -12.655  11.572  70.664  1.00  0.00    -0.248 C  
BRANCH  21  22
HETATM   22  C   UNL     1     -13.305  12.005  71.982  1.00  0.00    -0.447 C  
BRANCH  22  23
HETATM   23  C   UNL     1     -13.193  13.509  72.201  1.00  0.00    -0.458 C  
BRANCH  23  24
HETATM   24  O   UNL     1     -13.059  14.171  70.932  1.00  0.00    -0.334 OA 
BRANCH  24  25
HETATM   25  C   UNL     1     -12.127  15.157  70.881  1.00  0.00    -0.334 C  
HETATM   26  O   UNL     1     -11.666  15.761  71.836  1.00  0.00    -0.400 OA 
BRANCH  25  27
HETATM   27  C   UNL     1     -11.708  15.401  69.476  1.00  0.00    -0.364 A  
HETATM   28  C   UNL     1     -12.007  14.427  68.522  1.00  0.00    -0.333 A  
HETATM   29  C   UNL     1     -11.596  14.590  67.199  1.00  0.00    -0.388 A  
HETATM   30  C   UNL     1     -10.858  15.738  66.819  1.00  0.00    -0.254 A  
HETATM   31  C   UNL     1     -11.018  16.558  69.098  1.00  0.00    -0.303 A  
HETATM   32  C   UNL     1     -10.575  16.736  67.778  1.00  0.00    -0.341 A  
BRANCH  29  33
HETATM   33  O   UNL     1     -11.832  13.645  66.226  1.00  0.00    -0.352 OA 
HETATM   34  C   UNL     1     -11.863  12.287  66.655  1.00  0.00    -0.289 C  
ENDBRANCH  29  33
BRANCH  30  35
HETATM   35  O   UNL     1     -10.425  15.734  65.514  1.00  0.00    -0.353 OA 
HETATM   36  C   UNL     1     -11.265  16.306  64.520  1.00  0.00    -0.207 C  
ENDBRANCH  30  35
BRANCH  32  37
HETATM   37  O   UNL     1      -9.852  17.832  67.391  1.00  0.00    -0.292 OA 
HETATM   38  C   UNL     1     -10.556  19.003  66.996  1.00  0.00    -0.461 C  
ENDBRANCH  32  37
ENDBRANCH  25  27
ENDBRANCH  24  25
ENDBRANCH  23  24
ENDBRANCH  22  23
ENDBRANCH  21  22
ENDBRANCH  19  21
ENDBRANCH  18  19
ENDBRANCH  17  18
ENDBRANCH  15  17
ENDBRANCH  14  15
ENDBRANCH  13  14
ENDBRANCH  12  13
ENDBRANCH  11  12
ENDBRANCH   9  11
ENDBRANCH   5   9
BRANCH   8  39
HETATM   39  O   UNL     1      -6.888   9.732  69.101  1.00  0.00    -0.052 OA 
HETATM   40  C   UNL     1      -7.428   9.532  70.398  1.00  0.00    -0.151 C  
ENDBRANCH   8  39
BRANCH   7  41
HETATM   41  O   UNL     1      -7.520  11.816  67.212  1.00  0.00    -0.133 OA 
HETATM   42  C   UNL     1      -8.207  12.796  67.971  1.00  0.00    -0.168 C  
ENDBRANCH   7  41
ENDBRANCH   2   3
TORSDOF 21
ENDMDL
MODEL       33
REMARK 921   NORMALIZED FREE ENERGY PREDICTED BY IDOCK:   -5.09 KCAL/MOL
REMARK 922        TOTAL FREE ENERGY PREDICTED BY IDOCK:  -14.19 KCAL/MOL
REMARK 923 INTER-LIGAND FREE ENERGY PREDICTED BY IDOCK:  -12.22 KCAL/MOL
REMARK 924 INTRA-LIGAND FREE ENERGY PREDICTED BY IDOCK:   -1.96 KCAL/MOL
REMARK 927      BINDING AFFINITY PREDICTED BY RF-SCORE:    0.00 PKD
ROOT
HETATM    1  C   UNL     1     -10.961   6.372  67.141  1.00  0.00    -0.399 C  
HETATM    2  O   UNL     1     -10.285   5.402  67.936  1.00  0.00    -0.170 OA 
ENDROOT
BRANCH   2   3
HETATM    3  C   UNL     1     -10.507   5.447  69.290  1.00  0.00    -0.239 A  
HETATM    4  C   UNL     1     -11.432   6.350  69.827  1.00  0.00    -0.468 A  
HETATM    5  C   UNL     1     -11.678   6.416  71.199  1.00  0.00    -0.359 A  
HETATM    6  C   UNL     1     -10.993   5.558  72.052  1.00  0.00    -0.276 A  
HETATM    7  C   UNL     1      -9.834   4.543  70.144  1.00  0.00    -0.226 A  
HETATM    8  C   UNL     1     -10.080   4.617  71.539  1.00  0.00    -0.185 A  
BRANCH   5   9
HETATM    9  C   UNL     1     -12.669   7.423  71.653  1.00  0.00    -0.365 C  
HETATM   10  O   UNL     1     -13.874   7.260  71.525  1.00  0.00    -0.393 OA 
BRANCH   9  11
HETATM   11  O   UNL     1     -12.072   8.525  72.170  1.00  0.00    -0.336 OA 
BRANCH  11  12
HETATM   12  C   UNL     1     -12.272   9.721  71.394  1.00  0.00    -0.397 C  
BRANCH  12  13
HETATM   13  C   UNL     1     -11.073   9.940  70.475  1.00  0.00    -0.398 C  
BRANCH  13  14
HETATM   14  C   UNL     1      -9.797   9.332  71.058  1.00  0.00    -0.285 C  
BRANCH  14  15
HETATM   15  N   UNL     1      -8.579   9.684  70.298  1.00  0.00    -0.214 NA 
HETATM   16  C   UNL     1      -7.653   8.547  70.212  1.00  0.00    -0.075 C  
BRANCH  15  17
HETATM   17  C   UNL     1      -8.980  10.168  68.950  1.00  0.00    -0.155 C  
BRANCH  17  18
HETATM   18  C   UNL     1      -8.640   9.191  67.799  1.00  0.00    -0.121 C  
BRANCH  18  19
HETATM   19  N   UNL     1      -8.443   9.798  66.463  1.00  0.00    -0.123 NA 
HETATM   20  C   UNL     1      -7.260   9.242  65.799  1.00  0.00    -0.090 C  
BRANCH  19  21
HETATM   21  C   UNL     1      -9.631   9.575  65.609  1.00  0.00    -0.277 C  
BRANCH  21  22
HETATM   22  C   UNL     1     -10.406  10.859  65.296  1.00  0.00    -0.334 C  
BRANCH  22  23
HETATM   23  C   UNL     1     -10.369  11.195  63.811  1.00  0.00    -0.386 C  
BRANCH  23  24
HETATM   24  O   UNL     1     -10.449  12.620  63.639  1.00  0.00    -0.414 OA 
BRANCH  24  25
HETATM   25  C   UNL     1     -11.642  13.184  63.957  1.00  0.00    -0.428 C  
HETATM   26  O   UNL     1     -12.706  12.979  63.396  1.00  0.00    -0.694 OA 
BRANCH  25  27
HETATM   27  C   UNL     1     -11.491  14.094  65.123  1.00  0.00    -0.336 A  
HETATM   28  C   UNL     1     -10.755  15.268  64.950  1.00  0.00    -0.423 A  
HETATM   29  C   UNL     1     -10.548  16.132  66.025  1.00  0.00    -0.295 A  
HETATM   30  C   UNL     1     -11.069  15.815  67.304  1.00  0.00    -0.211 A  
HETATM   31  C   UNL     1     -12.045  13.797  66.373  1.00  0.00    -0.483 A  
HETATM   32  C   UNL     1     -11.834  14.639  67.475  1.00  0.00    -0.347 A  
BRANCH  29  33
HETATM   33  O   UNL     1      -9.802  17.284  65.919  1.00  0.00    -0.494 OA 
HETATM   34  C   UNL     1     -10.529  18.492  65.715  1.00  0.00    -0.247 C  
ENDBRANCH  29  33
BRANCH  30  35
HETATM   35  O   UNL     1     -10.713  16.692  68.301  1.00  0.00    -0.321 OA 
HETATM   36  C   UNL     1      -9.538  16.422  69.052  1.00  0.00    -0.264 C  
ENDBRANCH  30  35
BRANCH  32  37
HETATM   37  O   UNL     1     -12.318  14.347  68.722  1.00  0.00    -0.217 OA 
HETATM   38  C   UNL     1     -11.696  13.304  69.463  1.00  0.00    -0.322 C  
ENDBRANCH  32  37
ENDBRANCH  25  27
ENDBRANCH  24  25
ENDBRANCH  23  24
ENDBRANCH  22  23
ENDBRANCH  21  22
ENDBRANCH  19  21
ENDBRANCH  18  19
ENDBRANCH  17  18
ENDBRANCH  15  17
ENDBRANCH  14  15
ENDBRANCH  13  14
ENDBRANCH  12  13
ENDBRANCH  11  12
ENDBRANCH   9  11
ENDBRANCH   5   9
BRANCH   8  39
HETATM   39  O   UNL     1      -9.531   3.863  72.550  1.00  0.00    -0.116 OA 
HETATM   40  C   UNL     1     -10.327   3.488  73.663  1.00  0.00    -0.156 C  
ENDBRANCH   8  39
BRANCH   7  41
HETATM   41  O   UNL     1      -8.935   3.590  69.743  1.00  0.00    -0.085 OA 
HETATM   42  C   UNL     1      -9.365   2.290  69.377  1.00  0.00    -0.098 C  
ENDBRANCH   7  41
ENDBRANCH   2   3
TORSDOF 21
ENDMDL
MODEL       34
REMARK 921   NORMALIZED FREE ENERGY PREDICTED BY IDOCK:   -5.06 KCAL/MOL
REMARK 922        TOTAL FREE ENERGY PREDICTED BY IDOCK:  -14.12 KCAL/MOL
REMARK 923 INTER-LIGAND FREE ENERGY PREDICTED BY IDOCK:  -11.69 KCAL/MOL
REMARK 924 INTRA-LIGAND FREE ENERGY PREDICTED BY IDOCK:   -2.43 KCAL/MOL
REMARK 927      BINDING AFFINITY PREDICTED BY RF-SCORE:    0.00 PKD
ROOT
HETATM    1  C   UNL     1     -10.354   4.810  66.415  1.00  0.00    -0.273 C  
HETATM    2  O   UNL     1     -10.040   4.587  67.788  1.00  0.00    -0.102 OA 
ENDROOT
BRANCH   2   3
HETATM    3  C   UNL     1      -9.898   5.700  68.580  1.00  0.00    -0.143 A  
HETATM    4  C   UNL     1     -10.880   6.029  69.523  1.00  0.00    -0.439 A  
HETATM    5  C   UNL     1     -10.760   7.154  70.340  1.00  0.00    -0.255 A  
HETATM    6  C   UNL     1      -9.635   7.962  70.219  1.00  0.00    -0.171 A  
HETATM    7  C   UNL     1      -8.732   6.493  68.476  1.00  0.00    -0.122 A  
HETATM    8  C   UNL     1      -8.617   7.640  69.303  1.00  0.00    -0.136 A  
BRANCH   5   9
HETATM    9  C   UNL     1     -11.870   7.409  71.291  1.00  0.00    -0.301 C  
HETATM   10  O   UNL     1     -12.943   6.828  71.217  1.00  0.00    -0.301 OA 
BRANCH   9  11
HETATM   11  O   UNL     1     -11.554   8.372  72.193  1.00  0.00    -0.322 OA 
BRANCH  11  12
HETATM   12  C   UNL     1     -12.535   9.419  72.303  1.00  0.00    -0.268 C  
BRANCH  12  13
HETATM   13  C   UNL     1     -12.422  10.354  71.102  1.00  0.00    -0.509 C  
BRANCH  13  14
HETATM   14  C   UNL     1     -12.930  11.758  71.430  1.00  0.00    -0.306 C  
BRANCH  14  15
HETATM   15  N   UNL     1     -12.667  12.743  70.359  1.00  0.00    -0.012 NA 
HETATM   16  C   UNL     1     -12.402  14.078  70.912  1.00  0.00    -0.372 C  
BRANCH  15  17
HETATM   17  C   UNL     1     -11.530  12.257  69.533  1.00  0.00    -0.249 C  
BRANCH  17  18
HETATM   18  C   UNL     1     -11.583  12.710  68.054  1.00  0.00    -0.343 C  
BRANCH  18  19
HETATM   19  N   UNL     1     -10.810  11.891  67.091  1.00  0.00    -0.242 NA 
HETATM   20  C   UNL     1     -10.874  10.467  67.439  1.00  0.00    -0.291 C  
BRANCH  19  21
HETATM   21  C   UNL     1     -11.323  12.081  65.716  1.00  0.00    -0.331 C  
BRANCH  21  22
HETATM   22  C   UNL     1     -12.379  13.185  65.608  1.00  0.00    -0.519 C  
BRANCH  22  23
HETATM   23  C   UNL     1     -12.140  14.081  64.399  1.00  0.00    -0.458 C  
BRANCH  23  24
HETATM   24  O   UNL     1     -10.874  14.747  64.537  1.00  0.00    -0.324 OA 
BRANCH  24  25
HETATM   25  C   UNL     1     -10.935  16.059  64.876  1.00  0.00    -0.384 C  
HETATM   26  O   UNL     1     -11.611  16.913  64.326  1.00  0.00    -1.032 OA 
BRANCH  25  27
HETATM   27  C   UNL     1     -10.068  16.332  66.053  1.00  0.00    -0.377 A  
HETATM   28  C   UNL     1      -9.085  15.395  66.376  1.00  0.00    -0.350 A  
HETATM   29  C   UNL     1      -8.276  15.584  67.496  1.00  0.00    -0.163 A  
HETATM   30  C   UNL     1      -8.457  16.720  68.322  1.00  0.00    -0.222 A  
HETATM   31  C   UNL     1     -10.223  17.478  66.840  1.00  0.00    -0.329 A  
HETATM   32  C   UNL     1      -9.436  17.681  67.983  1.00  0.00    -0.282 A  
BRANCH  29  33
HETATM   33  O   UNL     1      -7.315  14.675  67.881  1.00  0.00    -0.121 OA 
HETATM   34  C   UNL     1      -7.702  13.304  67.876  1.00  0.00    -0.152 C  
ENDBRANCH  29  33
BRANCH  30  35
HETATM   35  O   UNL     1      -7.669  16.741  69.448  1.00  0.00    -0.157 OA 
HETATM   36  C   UNL     1      -6.492  17.537  69.435  1.00  0.00    -0.230 C  
ENDBRANCH  30  35
BRANCH  32  37
HETATM   37  O   UNL     1      -9.602  18.766  68.802  1.00  0.00    -0.358 OA 
HETATM   38  C   UNL     1     -10.278  19.907  68.286  1.00  0.00    -0.434 C  
ENDBRANCH  32  37
ENDBRANCH  25  27
ENDBRANCH  24  25
ENDBRANCH  23  24
ENDBRANCH  22  23
ENDBRANCH  21  22
ENDBRANCH  19  21
ENDBRANCH  18  19
ENDBRANCH  17  18
ENDBRANCH  15  17
ENDBRANCH  14  15
ENDBRANCH  13  14
ENDBRANCH  12  13
ENDBRANCH  11  12
ENDBRANCH   9  11
ENDBRANCH   5   9
BRANCH   8  39
HETATM   39  O   UNL     1      -7.595   8.559  69.360  1.00  0.00    -0.086 OA 
HETATM   40  C   UNL     1      -7.326   9.386  68.238  1.00  0.00    -0.078 C  
ENDBRANCH   8  39
BRANCH   7  41
HETATM   41  O   UNL     1      -7.686   6.260  67.623  1.00  0.00    -0.095 OA 
HETATM   42  C   UNL     1      -6.622   5.399  67.991  1.00  0.00    -0.049 C  
ENDBRANCH   7  41
ENDBRANCH   2   3
TORSDOF 21
ENDMDL
MODEL       35
REMARK 921   NORMALIZED FREE ENERGY PREDICTED BY IDOCK:   -5.05 KCAL/MOL
REMARK 922        TOTAL FREE ENERGY PREDICTED BY IDOCK:  -14.11 KCAL/MOL
REMARK 923 INTER-LIGAND FREE ENERGY PREDICTED BY IDOCK:  -10.73 KCAL/MOL
REMARK 924 INTRA-LIGAND FREE ENERGY PREDICTED BY IDOCK:   -3.38 KCAL/MOL
REMARK 927      BINDING AFFINITY PREDICTED BY RF-SCORE:    0.00 PKD
ROOT
HETATM    1  C   UNL     1     -12.285  14.635  65.915  1.00  0.00    -0.156 C  
HETATM    2  O   UNL     1     -11.026  14.528  65.255  1.00  0.00    -0.320 OA 
ENDROOT
BRANCH   2   3
HETATM    3  C   UNL     1     -10.307  13.378  65.474  1.00  0.00    -0.295 A  
HETATM    4  C   UNL     1      -9.466  13.270  66.588  1.00  0.00    -0.262 A  
HETATM    5  C   UNL     1      -8.725  12.113  66.835  1.00  0.00    -0.194 A  
HETATM    6  C   UNL     1      -8.832  11.041  65.957  1.00  0.00    -0.199 A  
HETATM    7  C   UNL     1     -10.453  12.279  64.596  1.00  0.00    -0.303 A  
HETATM    8  C   UNL     1      -9.693  11.108  64.845  1.00  0.00    -0.251 A  
BRANCH   5   9
HETATM    9  C   UNL     1      -7.857  12.119  68.038  1.00  0.00    -0.145 C  
HETATM   10  O   UNL     1      -7.972  11.293  68.932  1.00  0.00    -0.141 OA 
BRANCH   9  11
HETATM   11  O   UNL     1      -6.983  13.155  68.028  1.00  0.00    -0.087 OA 
BRANCH  11  12
HETATM   12  C   UNL     1      -5.830  12.960  68.868  1.00  0.00    -0.075 C  
BRANCH  12  13
HETATM   13  C   UNL     1      -5.644  14.176  69.771  1.00  0.00    -0.101 C  
BRANCH  13  14
HETATM   14  C   UNL     1      -5.731  15.483  68.983  1.00  0.00    -0.103 C  
BRANCH  14  15
HETATM   15  N   UNL     1      -6.571  16.508  69.638  1.00  0.00    -0.211 NA 
HETATM   16  C   UNL     1      -5.781  17.689  70.012  1.00  0.00    -0.246 C  
BRANCH  15  17
HETATM   17  C   UNL     1      -7.689  16.864  68.723  1.00  0.00    -0.247 C  
BRANCH  17  18
HETATM   18  C   UNL     1      -9.013  16.123  69.024  1.00  0.00    -0.247 C  
BRANCH  18  19
HETATM   19  N   UNL     1     -10.252  16.929  68.920  1.00  0.00    -0.296 NA 
HETATM   20  C   UNL     1     -10.372  17.545  67.595  1.00  0.00    -0.360 C  
BRANCH  19  21
HETATM   21  C   UNL     1     -11.443  16.090  69.176  1.00  0.00    -0.347 C  
BRANCH  21  22
HETATM   22  C   UNL     1     -11.100  14.649  69.570  1.00  0.00    -0.294 C  
BRANCH  22  23
HETATM   23  C   UNL     1     -12.350  13.824  69.847  1.00  0.00    -0.275 C  
BRANCH  23  24
HETATM   24  O   UNL     1     -11.973  12.481  70.192  1.00  0.00    -0.347 OA 
BRANCH  24  25
HETATM   25  C   UNL     1     -11.902  11.607  69.156  1.00  0.00    -0.326 C  
HETATM   26  O   UNL     1     -12.270  11.818  68.011  1.00  0.00    -0.518 OA 
BRANCH  25  27
HETATM   27  C   UNL     1     -11.280  10.330  69.596  1.00  0.00    -0.322 A  
HETATM   28  C   UNL     1     -10.745   9.489  68.619  1.00  0.00    -0.218 A  
HETATM   29  C   UNL     1     -10.191   8.260  68.977  1.00  0.00    -0.217 A  
HETATM   30  C   UNL     1     -10.183   7.851  70.333  1.00  0.00    -0.197 A  
HETATM   31  C   UNL     1     -11.237   9.951  70.941  1.00  0.00    -0.433 A  
HETATM   32  C   UNL     1     -10.705   8.711  71.326  1.00  0.00    -0.254 A  
BRANCH  29  33
HETATM   33  O   UNL     1      -9.681   7.377  68.052  1.00  0.00    -0.140 OA 
HETATM   34  C   UNL     1     -10.388   7.271  66.820  1.00  0.00    -0.241 C  
ENDBRANCH  29  33
BRANCH  30  35
HETATM   35  O   UNL     1      -9.703   6.580  70.545  1.00  0.00    -0.171 OA 
HETATM   36  C   UNL     1     -10.636   5.517  70.677  1.00  0.00    -0.259 C  
ENDBRANCH  30  35
BRANCH  32  37
HETATM   37  O   UNL     1     -10.697   8.291  72.629  1.00  0.00    -0.343 OA 
HETATM   38  C   UNL     1      -9.442   8.069  73.262  1.00  0.00    -0.266 C  
ENDBRANCH  32  37
ENDBRANCH  25  27
ENDBRANCH  24  25
ENDBRANCH  23  24
ENDBRANCH  22  23
ENDBRANCH  21  22
ENDBRANCH  19  21
ENDBRANCH  18  19
ENDBRANCH  17  18
ENDBRANCH  15  17
ENDBRANCH  14  15
ENDBRANCH  13  14
ENDBRANCH  12  13
ENDBRANCH  11  12
ENDBRANCH   9  11
ENDBRANCH   5   9
BRANCH   8  39
HETATM   39  O   UNL     1      -9.657   9.938  64.124  1.00  0.00    -0.264 OA 
HETATM   40  C   UNL     1      -8.430   9.243  63.967  1.00  0.00    -0.193 C  
ENDBRANCH   8  39
BRANCH   7  41
HETATM   41  O   UNL     1     -11.267  12.245  63.495  1.00  0.00    -0.425 OA 
HETATM   42  C   UNL     1     -12.647  11.944  63.617  1.00  0.00    -0.439 C  
ENDBRANCH   7  41
ENDBRANCH   2   3
TORSDOF 21
ENDMDL
MODEL       36
REMARK 921   NORMALIZED FREE ENERGY PREDICTED BY IDOCK:   -5.05 KCAL/MOL
REMARK 922        TOTAL FREE ENERGY PREDICTED BY IDOCK:  -14.10 KCAL/MOL
REMARK 923 INTER-LIGAND FREE ENERGY PREDICTED BY IDOCK:  -10.99 KCAL/MOL
REMARK 924 INTRA-LIGAND FREE ENERGY PREDICTED BY IDOCK:   -3.11 KCAL/MOL
REMARK 927      BINDING AFFINITY PREDICTED BY RF-SCORE:    0.00 PKD
ROOT
HETATM    1  C   UNL     1     -12.996  15.344  73.465  1.00  0.00    -0.528 C  
HETATM    2  O   UNL     1     -13.802  14.730  72.462  1.00  0.00    -0.448 OA 
ENDROOT
BRANCH   2   3
HETATM    3  C   UNL     1     -13.220  13.726  71.728  1.00  0.00    -0.386 A  
HETATM    4  C   UNL     1     -13.355  12.390  72.125  1.00  0.00    -0.508 A  
HETATM    5  C   UNL     1     -12.774  11.349  71.398  1.00  0.00    -0.489 A  
HETATM    6  C   UNL     1     -12.052  11.648  70.248  1.00  0.00    -0.443 A  
HETATM    7  C   UNL     1     -12.521  14.037  70.539  1.00  0.00    -0.359 A  
HETATM    8  C   UNL     1     -11.926  12.979  69.807  1.00  0.00    -0.308 A  
BRANCH   5   9
HETATM    9  C   UNL     1     -12.972   9.976  71.923  1.00  0.00    -0.447 C  
HETATM   10  O   UNL     1     -14.036   9.602  72.395  1.00  0.00    -0.265 OA 
BRANCH   9  11
HETATM   11  O   UNL     1     -11.838   9.236  71.848  1.00  0.00    -0.365 OA 
BRANCH  11  12
HETATM   12  C   UNL     1     -12.023   7.935  71.261  1.00  0.00    -0.298 C  
BRANCH  12  13
HETATM   13  C   UNL     1     -11.502   6.865  72.216  1.00  0.00    -0.313 C  
BRANCH  13  14
HETATM   14  C   UNL     1     -10.701   5.791  71.479  1.00  0.00    -0.258 C  
BRANCH  14  15
HETATM   15  N   UNL     1      -9.926   4.912  72.381  1.00  0.00    -0.171 NA 
HETATM   16  C   UNL     1     -10.779   4.337  73.430  1.00  0.00    -0.231 C  
BRANCH  15  17
HETATM   17  C   UNL     1      -9.268   3.855  71.567  1.00  0.00    -0.125 C  
BRANCH  17  18
HETATM   18  C   UNL     1      -9.777   3.769  70.109  1.00  0.00    -0.147 C  
BRANCH  18  19
HETATM   19  N   UNL     1      -8.737   3.666  69.059  1.00  0.00    -0.085 NA 
HETATM   20  C   UNL     1      -7.570   2.922  69.542  1.00  0.00    -0.044 C  
BRANCH  19  21
HETATM   21  C   UNL     1      -9.277   2.997  67.854  1.00  0.00    -0.199 C  
BRANCH  21  22
HETATM   22  C   UNL     1      -9.039   3.784  66.562  1.00  0.00    -0.162 C  
BRANCH  22  23
HETATM   23  C   UNL     1      -8.715   5.246  66.841  1.00  0.00    -0.111 C  
BRANCH  23  24
HETATM   24  O   UNL     1      -9.824   6.069  66.443  1.00  0.00    -0.161 OA 
BRANCH  24  25
HETATM   25  C   UNL     1     -10.466   6.715  67.449  1.00  0.00    -0.260 C  
HETATM   26  O   UNL     1     -11.357   6.257  68.145  1.00  0.00    -0.278 OA 
BRANCH  25  27
HETATM   27  C   UNL     1      -9.915   8.086  67.619  1.00  0.00    -0.234 A  
HETATM   28  C   UNL     1     -10.054   8.986  66.562  1.00  0.00    -0.354 A  
HETATM   29  C   UNL     1      -9.515  10.269  66.655  1.00  0.00    -0.166 A  
HETATM   30  C   UNL     1      -8.808  10.661  67.818  1.00  0.00    -0.133 A  
HETATM   31  C   UNL     1      -9.254   8.481  68.787  1.00  0.00    -0.142 A  
HETATM   32  C   UNL     1      -8.685   9.758  68.899  1.00  0.00    -0.136 A  
BRANCH  29  33
HETATM   33  O   UNL     1      -9.594  11.185  65.630  1.00  0.00    -0.206 OA 
HETATM   34  C   UNL     1     -10.172  10.724  64.413  1.00  0.00    -0.364 C  
ENDBRANCH  29  33
BRANCH  30  35
HETATM   35  O   UNL     1      -8.239  11.911  67.749  1.00  0.00    -0.132 OA 
HETATM   36  C   UNL     1      -6.871  12.013  67.381  1.00  0.00    -0.142 C  
ENDBRANCH  30  35
BRANCH  32  37
HETATM   37  O   UNL     1      -7.988  10.154  70.009  1.00  0.00    -0.172 OA 
HETATM   38  C   UNL     1      -6.777   9.477  70.325  1.00  0.00    -0.084 C  
ENDBRANCH  32  37
ENDBRANCH  25  27
ENDBRANCH  24  25
ENDBRANCH  23  24
ENDBRANCH  22  23
ENDBRANCH  21  22
ENDBRANCH  19  21
ENDBRANCH  18  19
ENDBRANCH  17  18
ENDBRANCH  15  17
ENDBRANCH  14  15
ENDBRANCH  13  14
ENDBRANCH  12  13
ENDBRANCH  11  12
ENDBRANCH   9  11
ENDBRANCH   5   9
BRANCH   8  39
HETATM   39  O   UNL     1     -11.189  13.044  68.647  1.00  0.00    -0.245 OA 
HETATM   40  C   UNL     1     -11.850  13.110  67.393  1.00  0.00    -0.361 C  
ENDBRANCH   8  39
BRANCH   7  41
HETATM   41  O   UNL     1     -12.349  15.295  70.025  1.00  0.00    -0.344 OA 
HETATM   42  C   UNL     1     -11.179  16.045  70.307  1.00  0.00    -0.389 C  
ENDBRANCH   7  41
ENDBRANCH   2   3
TORSDOF 21
ENDMDL
MODEL       37
REMARK 921   NORMALIZED FREE ENERGY PREDICTED BY IDOCK:   -5.04 KCAL/MOL
REMARK 922        TOTAL FREE ENERGY PREDICTED BY IDOCK:  -14.09 KCAL/MOL
REMARK 923 INTER-LIGAND FREE ENERGY PREDICTED BY IDOCK:  -11.21 KCAL/MOL
REMARK 924 INTRA-LIGAND FREE ENERGY PREDICTED BY IDOCK:   -2.88 KCAL/MOL
REMARK 927      BINDING AFFINITY PREDICTED BY RF-SCORE:    0.00 PKD
ROOT
HETATM    1  C   UNL     1     -12.117  12.224  69.566  1.00  0.00    -0.198 C  
HETATM    2  O   UNL     1     -11.189  11.882  68.539  1.00  0.00    -0.215 OA 
ENDROOT
BRANCH   2   3
HETATM    3  C   UNL     1     -10.170  11.029  68.884  1.00  0.00    -0.203 A  
HETATM    4  C   UNL     1     -10.373  10.035  69.849  1.00  0.00    -0.315 A  
HETATM    5  C   UNL     1      -9.354   9.155  70.218  1.00  0.00    -0.253 A  
HETATM    6  C   UNL     1      -8.111   9.265  69.606  1.00  0.00    -0.116 A  
HETATM    7  C   UNL     1      -8.920  11.125  68.228  1.00  0.00    -0.166 A  
HETATM    8  C   UNL     1      -7.885  10.234  68.611  1.00  0.00    -0.101 A  
BRANCH   5   9
HETATM    9  C   UNL     1      -9.683   8.153  71.261  1.00  0.00    -0.164 C  
HETATM   10  O   UNL     1      -9.808   8.452  72.440  1.00  0.00    -0.273 OA 
BRANCH   9  11
HETATM   11  O   UNL     1      -9.778   6.900  70.750  1.00  0.00    -0.172 OA 
BRANCH  11  12
HETATM   12  C   UNL     1     -10.964   6.674  69.966  1.00  0.00    -0.311 C  
BRANCH  12  13
HETATM   13  C   UNL     1     -10.578   6.083  68.614  1.00  0.00    -0.327 C  
BRANCH  13  14
HETATM   14  C   UNL     1     -10.779   7.088  67.479  1.00  0.00    -0.281 C  
BRANCH  14  15
HETATM   15  N   UNL     1      -9.519   7.483  66.815  1.00  0.00    -0.169 NA 
HETATM   16  C   UNL     1      -8.972   6.384  66.008  1.00  0.00    -0.130 C  
BRANCH  15  17
HETATM   17  C   UNL     1      -9.773   8.694  65.990  1.00  0.00    -0.168 C  
BRANCH  17  18
HETATM   18  C   UNL     1      -8.641   9.030  64.991  1.00  0.00    -0.181 C  
BRANCH  18  19
HETATM   19  N   UNL     1      -8.791  10.295  64.234  1.00  0.00    -0.199 NA 
HETATM   20  C   UNL     1      -8.452  10.107  62.819  1.00  0.00    -0.177 C  
BRANCH  19  21
HETATM   21  C   UNL     1     -10.176  10.804  64.340  1.00  0.00    -0.364 C  
BRANCH  21  22
HETATM   22  C   UNL     1     -10.552  11.782  63.222  1.00  0.00    -0.427 C  
BRANCH  22  23
HETATM   23  C   UNL     1     -11.714  12.682  63.624  1.00  0.00    -0.522 C  
BRANCH  23  24
HETATM   24  O   UNL     1     -11.224  13.767  64.430  1.00  0.00    -0.376 OA 
BRANCH  24  25
HETATM   25  C   UNL     1     -12.028  14.145  65.456  1.00  0.00    -0.391 C  
HETATM   26  O   UNL     1     -13.147  13.716  65.689  1.00  0.00    -0.549 OA 
BRANCH  25  27
HETATM   27  C   UNL     1     -11.346  15.159  66.303  1.00  0.00    -0.219 A  
HETATM   28  C   UNL     1     -10.376  15.967  65.707  1.00  0.00    -0.396 A  
HETATM   29  C   UNL     1      -9.677  16.903  66.469  1.00  0.00    -0.281 A  
HETATM   30  C   UNL     1      -9.936  17.028  67.856  1.00  0.00    -0.281 A  
HETATM   31  C   UNL     1     -11.637  15.307  67.663  1.00  0.00    -0.249 A  
HETATM   32  C   UNL     1     -10.934  16.227  68.456  1.00  0.00    -0.345 A  
BRANCH  29  33
HETATM   33  O   UNL     1      -8.687  17.701  65.941  1.00  0.00    -0.520 OA 
HETATM   34  C   UNL     1      -7.348  17.243  66.109  1.00  0.00    -0.281 C  
ENDBRANCH  29  33
BRANCH  30  35
HETATM   35  O   UNL     1      -9.114  17.912  68.515  1.00  0.00    -0.282 OA 
HETATM   36  C   UNL     1      -9.604  19.217  68.787  1.00  0.00    -0.425 C  
ENDBRANCH  30  35
BRANCH  32  37
HETATM   37  O   UNL     1     -11.159  16.356  69.800  1.00  0.00    -0.338 OA 
HETATM   38  C   UNL     1     -12.213  15.601  70.386  1.00  0.00    -0.395 C  
ENDBRANCH  32  37
ENDBRANCH  25  27
ENDBRANCH  24  25
ENDBRANCH  23  24
ENDBRANCH  22  23
ENDBRANCH  21  22
ENDBRANCH  19  21
ENDBRANCH  18  19
ENDBRANCH  17  18
ENDBRANCH  15  17
ENDBRANCH  14  15
ENDBRANCH  13  14
ENDBRANCH  12  13
ENDBRANCH  11  12
ENDBRANCH   9  11
ENDBRANCH   5   9
BRANCH   8  39
HETATM   39  O   UNL     1      -6.598  10.157  68.132  1.00  0.00    -0.058 OA 
HETATM   40  C   UNL     1      -6.088   8.914  67.674  1.00  0.00    -0.047 C  
ENDBRANCH   8  39
BRANCH   7  41
HETATM   41  O   UNL     1      -8.605  12.026  67.246  1.00  0.00    -0.162 OA 
HETATM   42  C   UNL     1      -8.219  13.351  67.568  1.00  0.00    -0.185 C  
ENDBRANCH   7  41
ENDBRANCH   2   3
TORSDOF 21
ENDMDL
MODEL       38
REMARK 921   NORMALIZED FREE ENERGY PREDICTED BY IDOCK:   -5.04 KCAL/MOL
REMARK 922        TOTAL FREE ENERGY PREDICTED BY IDOCK:  -14.09 KCAL/MOL
REMARK 923 INTER-LIGAND FREE ENERGY PREDICTED BY IDOCK:  -12.57 KCAL/MOL
REMARK 924 INTRA-LIGAND FREE ENERGY PREDICTED BY IDOCK:   -1.52 KCAL/MOL
REMARK 927      BINDING AFFINITY PREDICTED BY RF-SCORE:    0.00 PKD
ROOT
HETATM    1  C   UNL     1     -11.261   5.494  72.641  1.00  0.00    -0.295 C  
HETATM    2  O   UNL     1     -12.169   6.240  71.833  1.00  0.00    -0.329 OA 
ENDROOT
BRANCH   2   3
HETATM    3  C   UNL     1     -11.623   7.182  70.996  1.00  0.00    -0.309 A  
HETATM    4  C   UNL     1     -10.936   6.790  69.840  1.00  0.00    -0.340 A  
HETATM    5  C   UNL     1     -10.372   7.727  68.973  1.00  0.00    -0.219 A  
HETATM    6  C   UNL     1     -10.503   9.081  69.260  1.00  0.00    -0.238 A  
HETATM    7  C   UNL     1     -11.796   8.557  71.277  1.00  0.00    -0.291 A  
HETATM    8  C   UNL     1     -11.215   9.506  70.398  1.00  0.00    -0.270 A  
BRANCH   5   9
HETATM    9  C   UNL     1      -9.656   7.194  67.788  1.00  0.00    -0.129 C  
HETATM   10  O   UNL     1     -10.212   7.011  66.714  1.00  0.00    -0.227 OA 
BRANCH   9  11
HETATM   11  O   UNL     1      -8.359   6.908  68.064  1.00  0.00    -0.120 OA 
BRANCH  11  12
HETATM   12  C   UNL     1      -7.421   7.857  67.526  1.00  0.00    -0.093 C  
BRANCH  12  13
HETATM   13  C   UNL     1      -6.350   7.120  66.727  1.00  0.00    -0.050 C  
BRANCH  13  14
HETATM   14  C   UNL     1      -6.151   7.740  65.344  1.00  0.00    -0.038 C  
BRANCH  14  15
HETATM   15  N   UNL     1      -6.887   9.009  65.157  1.00  0.00    -0.075 NA 
HETATM   16  C   UNL     1      -5.968  10.147  65.027  1.00  0.00    -0.122 C  
BRANCH  15  17
HETATM   17  C   UNL     1      -7.769   8.878  63.966  1.00  0.00    -0.128 C  
BRANCH  17  18
HETATM   18  C   UNL     1      -8.405  10.209  63.500  1.00  0.00    -0.169 C  
BRANCH  18  19
HETATM   19  N   UNL     1      -9.843  10.388  63.807  1.00  0.00    -0.296 NA 
HETATM   20  C   UNL     1     -10.085  10.343  65.252  1.00  0.00    -0.300 C  
BRANCH  19  21
HETATM   21  C   UNL     1     -10.333  11.678  63.271  1.00  0.00    -0.398 C  
BRANCH  21  22
HETATM   22  C   UNL     1     -11.825  11.915  63.525  1.00  0.00    -0.560 C  
BRANCH  22  23
HETATM   23  C   UNL     1     -12.144  13.396  63.685  1.00  0.00    -0.450 C  
BRANCH  23  24
HETATM   24  O   UNL     1     -12.889  13.600  64.897  1.00  0.00    -0.688 OA 
BRANCH  24  25
HETATM   25  C   UNL     1     -12.246  13.266  66.044  1.00  0.00    -0.424 C  
HETATM   26  O   UNL     1     -12.201  12.154  66.546  1.00  0.00    -0.584 OA 
BRANCH  25  27
HETATM   27  C   UNL     1     -11.562  14.454  66.620  1.00  0.00    -0.396 A  
HETATM   28  C   UNL     1     -11.884  14.828  67.926  1.00  0.00    -0.327 A  
HETATM   29  C   UNL     1     -11.303  15.962  68.495  1.00  0.00    -0.374 A  
HETATM   30  C   UNL     1     -10.395  16.749  67.745  1.00  0.00    -0.318 A  
HETATM   31  C   UNL     1     -10.634  15.203  65.890  1.00  0.00    -0.347 A  
HETATM   32  C   UNL     1     -10.051  16.358  66.431  1.00  0.00    -0.316 A  
BRANCH  29  33
HETATM   33  O   UNL     1     -11.610  16.396  69.765  1.00  0.00    -0.202 OA 
HETATM   34  C   UNL     1     -12.410  15.523  70.557  1.00  0.00    -0.418 C  
ENDBRANCH  29  33
BRANCH  30  35
HETATM   35  O   UNL     1      -9.969  17.892  68.379  1.00  0.00    -0.325 OA 
HETATM   36  C   UNL     1     -10.414  19.147  67.883  1.00  0.00    -0.399 C  
ENDBRANCH  30  35
BRANCH  32  37
HETATM   37  O   UNL     1      -9.180  17.140  65.721  1.00  0.00    -0.524 OA 
HETATM   38  C   UNL     1      -7.805  17.126  66.087  1.00  0.00    -0.268 C  
ENDBRANCH  32  37
ENDBRANCH  25  27
ENDBRANCH  24  25
ENDBRANCH  23  24
ENDBRANCH  22  23
ENDBRANCH  21  22
ENDBRANCH  19  21
ENDBRANCH  18  19
ENDBRANCH  17  18
ENDBRANCH  15  17
ENDBRANCH  14  15
ENDBRANCH  13  14
ENDBRANCH  12  13
ENDBRANCH  11  12
ENDBRANCH   9  11
ENDBRANCH   5   9
BRANCH   8  39
HETATM   39  O   UNL     1     -11.235  10.879  70.480  1.00  0.00    -0.240 OA 
HETATM   40  C   UNL     1     -12.328  11.604  69.937  1.00  0.00    -0.159 C  
ENDBRANCH   8  39
BRANCH   7  41
HETATM   41  O   UNL     1     -12.474   9.069  72.351  1.00  0.00    -0.361 OA 
HETATM   42  C   UNL     1     -13.889   9.164  72.343  1.00  0.00    -0.457 C  
ENDBRANCH   7  41
ENDBRANCH   2   3
TORSDOF 21
ENDMDL
MODEL       39
REMARK 921   NORMALIZED FREE ENERGY PREDICTED BY IDOCK:   -5.04 KCAL/MOL
REMARK 922        TOTAL FREE ENERGY PREDICTED BY IDOCK:  -14.08 KCAL/MOL
REMARK 923 INTER-LIGAND FREE ENERGY PREDICTED BY IDOCK:  -10.87 KCAL/MOL
REMARK 924 INTRA-LIGAND FREE ENERGY PREDICTED BY IDOCK:   -3.22 KCAL/MOL
REMARK 927      BINDING AFFINITY PREDICTED BY RF-SCORE:    0.00 PKD
ROOT
HETATM    1  C   UNL     1     -10.226  18.238  67.977  1.00  0.00    -0.385 C  
HETATM    2  O   UNL     1     -10.554  17.104  68.777  1.00  0.00    -0.343 OA 
ENDROOT
BRANCH   2   3
HETATM    3  C   UNL     1     -10.436  15.872  68.182  1.00  0.00    -0.270 A  
HETATM    4  C   UNL     1     -11.282  15.511  67.126  1.00  0.00    -0.204 A  
HETATM    5  C   UNL     1     -11.183  14.266  66.503  1.00  0.00    -0.333 A  
HETATM    6  C   UNL     1     -10.216  13.366  66.938  1.00  0.00    -0.252 A  
HETATM    7  C   UNL     1      -9.424  14.980  68.606  1.00  0.00    -0.212 A  
HETATM    8  C   UNL     1      -9.331  13.713  67.977  1.00  0.00    -0.208 A  
BRANCH   5   9
HETATM    9  C   UNL     1     -12.142  13.990  65.406  1.00  0.00    -0.401 C  
HETATM   10  O   UNL     1     -13.353  14.028  65.569  1.00  0.00    -0.673 OA 
BRANCH   9  11
HETATM   11  O   UNL     1     -11.511  13.659  64.251  1.00  0.00    -0.380 OA 
BRANCH  11  12
HETATM   12  C   UNL     1     -12.238  12.727  63.430  1.00  0.00    -0.504 C  
BRANCH  12  13
HETATM   13  C   UNL     1     -11.545  11.368  63.464  1.00  0.00    -0.127 C  
BRANCH  13  14
HETATM   14  C   UNL     1     -10.033  11.501  63.279  1.00  0.00    -0.409 C  
BRANCH  14  15
HETATM   15  N   UNL     1      -9.251  10.925  64.394  1.00  0.00    -0.210 NA 
HETATM   16  C   UNL     1     -10.123  10.259  65.371  1.00  0.00    -0.284 C  
BRANCH  15  17
HETATM   17  C   UNL     1      -8.240   9.988  63.834  1.00  0.00    -0.159 C  
BRANCH  17  18
HETATM   18  C   UNL     1      -6.864  10.047  64.537  1.00  0.00    -0.127 C  
BRANCH  18  19
HETATM   19  N   UNL     1      -6.331   8.760  65.042  1.00  0.00    -0.064 NA 
HETATM   20  C   UNL     1      -5.279   8.978  66.039  1.00  0.00    -0.033 C  
BRANCH  19  21
HETATM   21  C   UNL     1      -7.413   7.949  65.644  1.00  0.00    -0.081 C  
BRANCH  21  22
HETATM   22  C   UNL     1      -7.231   7.712  67.147  1.00  0.00    -0.090 C  
BRANCH  22  23
HETATM   23  C   UNL     1      -8.480   8.089  67.934  1.00  0.00    -0.125 C  
BRANCH  23  24
HETATM   24  O   UNL     1      -8.346   9.430  68.434  1.00  0.00    -0.116 OA 
BRANCH  24  25
HETATM   25  C   UNL     1      -8.241   9.546  69.782  1.00  0.00    -0.151 C  
HETATM   26  O   UNL     1      -7.209   9.709  70.411  1.00  0.00    -0.113 OA 
BRANCH  25  27
HETATM   27  C   UNL     1      -9.585   9.473  70.415  1.00  0.00    -0.326 A  
HETATM   28  C   UNL     1     -10.518  10.459  70.093  1.00  0.00    -0.185 A  
HETATM   29  C   UNL     1     -11.776  10.459  70.695  1.00  0.00    -0.351 A  
HETATM   30  C   UNL     1     -12.109   9.466  71.648  1.00  0.00    -0.388 A  
HETATM   31  C   UNL     1      -9.922   8.464  71.323  1.00  0.00    -0.261 A  
HETATM   32  C   UNL     1     -11.174   8.453  71.958  1.00  0.00    -0.334 A  
BRANCH  29  33
HETATM   33  O   UNL     1     -12.722  11.427  70.440  1.00  0.00    -0.197 OA 
HETATM   34  C   UNL     1     -12.239  12.758  70.285  1.00  0.00    -0.277 C  
ENDBRANCH  29  33
BRANCH  30  35
HETATM   35  O   UNL     1     -13.338   9.631  72.242  1.00  0.00    -0.438 OA 
HETATM   36  C   UNL     1     -14.364   8.692  71.949  1.00  0.00    -0.405 C  
ENDBRANCH  30  35
BRANCH  32  37
HETATM   37  O   UNL     1     -11.512   7.509  72.891  1.00  0.00    -0.328 OA 
HETATM   38  C   UNL     1     -10.511   7.063  73.797  1.00  0.00    -0.354 C  
ENDBRANCH  32  37
ENDBRANCH  25  27
ENDBRANCH  24  25
ENDBRANCH  23  24
ENDBRANCH  22  23
ENDBRANCH  21  22
ENDBRANCH  19  21
ENDBRANCH  18  19
ENDBRANCH  17  18
ENDBRANCH  15  17
ENDBRANCH  14  15
ENDBRANCH  13  14
ENDBRANCH  12  13
ENDBRANCH  11  12
ENDBRANCH   9  11
ENDBRANCH   5   9
BRANCH   8  39
HETATM   39  O   UNL     1      -8.451  12.688  68.234  1.00  0.00    -0.169 OA 
HETATM   40  C   UNL     1      -7.342  12.476  67.374  1.00  0.00    -0.147 C  
ENDBRANCH   8  39
BRANCH   7  41
HETATM   41  O   UNL     1      -8.514  15.226  69.600  1.00  0.00    -0.233 OA 
HETATM   42  C   UNL     1      -7.295  15.895  69.324  1.00  0.00    -0.221 C  
ENDBRANCH   7  41
ENDBRANCH   2   3
TORSDOF 21
ENDMDL
MODEL       40
REMARK 921   NORMALIZED FREE ENERGY PREDICTED BY IDOCK:   -5.02 KCAL/MOL
REMARK 922        TOTAL FREE ENERGY PREDICTED BY IDOCK:  -14.04 KCAL/MOL
REMARK 923 INTER-LIGAND FREE ENERGY PREDICTED BY IDOCK:  -10.61 KCAL/MOL
REMARK 924 INTRA-LIGAND FREE ENERGY PREDICTED BY IDOCK:   -3.43 KCAL/MOL
REMARK 927      BINDING AFFINITY PREDICTED BY RF-SCORE:    0.00 PKD
ROOT
HETATM    1  C   UNL     1     -13.581  14.156  72.655  1.00  0.00    -0.515 C  
HETATM    2  O   UNL     1     -13.319  12.775  72.418  1.00  0.00    -0.521 OA 
ENDROOT
BRANCH   2   3
HETATM    3  C   UNL     1     -12.739  12.452  71.216  1.00  0.00    -0.248 A  
HETATM    4  C   UNL     1     -12.517  13.440  70.248  1.00  0.00    -0.285 A  
HETATM    5  C   UNL     1     -11.928  13.140  69.019  1.00  0.00    -0.329 A  
HETATM    6  C   UNL     1     -11.546  11.830  68.754  1.00  0.00    -0.367 A  
HETATM    7  C   UNL     1     -12.318  11.124  70.971  1.00  0.00    -0.382 A  
HETATM    8  C   UNL     1     -11.727  10.821  69.719  1.00  0.00    -0.324 A  
BRANCH   5   9
HETATM    9  C   UNL     1     -11.757  14.265  68.068  1.00  0.00    -0.351 C  
HETATM   10  O   UNL     1     -12.005  15.423  68.372  1.00  0.00    -0.301 OA 
BRANCH   9  11
HETATM   11  O   UNL     1     -11.343  13.841  66.848  1.00  0.00    -0.308 OA 
BRANCH  11  12
HETATM   12  C   UNL     1     -12.223  14.206  65.769  1.00  0.00    -0.442 C  
BRANCH  12  13
HETATM   13  C   UNL     1     -11.575  15.303  64.930  1.00  0.00    -0.289 C  
BRANCH  13  14
HETATM   14  C   UNL     1     -10.061  15.356  65.142  1.00  0.00    -0.264 C  
BRANCH  14  15
HETATM   15  N   UNL     1      -9.591  16.643  65.696  1.00  0.00    -0.519 NA 
HETATM   16  C   UNL     1     -10.693  17.606  65.827  1.00  0.00    -0.110 C  
BRANCH  15  17
HETATM   17  C   UNL     1      -8.929  16.386  67.004  1.00  0.00    -0.212 C  
BRANCH  17  18
HETATM   18  C   UNL     1      -7.889  15.241  66.973  1.00  0.00    -0.189 C  
BRANCH  18  19
HETATM   19  N   UNL     1      -7.543  14.637  68.281  1.00  0.00    -0.110 NA 
HETATM   20  C   UNL     1      -7.968  15.498  69.389  1.00  0.00    -0.229 C  
BRANCH  19  21
HETATM   21  C   UNL     1      -8.179  13.308  68.424  1.00  0.00    -0.134 C  
BRANCH  21  22
HETATM   22  C   UNL     1      -7.574  12.241  67.506  1.00  0.00    -0.155 C  
BRANCH  22  23
HETATM   23  C   UNL     1      -7.048  11.048  68.294  1.00  0.00    -0.072 C  
BRANCH  23  24
HETATM   24  O   UNL     1      -7.928  10.775  69.397  1.00  0.00    -0.140 OA 
BRANCH  24  25
HETATM   25  C   UNL     1      -7.392  10.048  70.410  1.00  0.00    -0.080 C  
HETATM   26  O   UNL     1      -6.399  10.341  71.057  1.00  0.00    -0.312 OA 
BRANCH  25  27
HETATM   27  C   UNL     1      -8.201   8.826  70.656  1.00  0.00    -0.159 A  
HETATM   28  C   UNL     1      -8.202   7.830  69.679  1.00  0.00    -0.127 A  
HETATM   29  C   UNL     1      -8.981   6.685  69.844  1.00  0.00    -0.144 A  
HETATM   30  C   UNL     1      -9.788   6.533  70.997  1.00  0.00    -0.179 A  
HETATM   31  C   UNL     1      -8.963   8.662  71.818  1.00  0.00    -0.307 A  
HETATM   32  C   UNL     1      -9.770   7.529  71.999  1.00  0.00    -0.159 A  
BRANCH  29  33
HETATM   33  O   UNL     1      -9.046   5.688  68.896  1.00  0.00    -0.114 OA 
HETATM   34  C   UNL     1      -9.733   6.005  67.689  1.00  0.00    -0.115 C  
ENDBRANCH  29  33
BRANCH  30  35
HETATM   35  O   UNL     1     -10.584   5.411  70.997  1.00  0.00    -0.238 OA 
HETATM   36  C   UNL     1     -10.042   4.196  71.496  1.00  0.00    -0.114 C  
ENDBRANCH  30  35
BRANCH  32  37
HETATM   37  O   UNL     1     -10.567   7.367  73.101  1.00  0.00    -0.303 OA 
HETATM   38  C   UNL     1      -9.988   6.818  74.280  1.00  0.00    -0.323 C  
ENDBRANCH  32  37
ENDBRANCH  25  27
ENDBRANCH  24  25
ENDBRANCH  23  24
ENDBRANCH  22  23
ENDBRANCH  21  22
ENDBRANCH  19  21
ENDBRANCH  18  19
ENDBRANCH  17  18
ENDBRANCH  15  17
ENDBRANCH  14  15
ENDBRANCH  13  14
ENDBRANCH  12  13
ENDBRANCH  11  12
ENDBRANCH   9  11
ENDBRANCH   5   9
BRANCH   8  39
HETATM   39  O   UNL     1     -11.267   9.610  69.256  1.00  0.00    -0.168 OA 
HETATM   40  C   UNL     1     -10.838   9.485  67.909  1.00  0.00    -0.180 C  
ENDBRANCH   8  39
BRANCH   7  41
HETATM   41  O   UNL     1     -12.445  10.077  71.845  1.00  0.00    -0.385 OA 
HETATM   42  C   UNL     1     -13.655   9.344  71.937  1.00  0.00    -0.410 C  
ENDBRANCH   7  41
ENDBRANCH   2   3
TORSDOF 21
ENDMDL
MODEL       41
REMARK 921   NORMALIZED FREE ENERGY PREDICTED BY IDOCK:   -4.99 KCAL/MOL
REMARK 922        TOTAL FREE ENERGY PREDICTED BY IDOCK:  -13.97 KCAL/MOL
REMARK 923 INTER-LIGAND FREE ENERGY PREDICTED BY IDOCK:  -11.91 KCAL/MOL
REMARK 924 INTRA-LIGAND FREE ENERGY PREDICTED BY IDOCK:   -2.06 KCAL/MOL
REMARK 927      BINDING AFFINITY PREDICTED BY RF-SCORE:    0.00 PKD
ROOT
HETATM    1  C   UNL     1     -11.009   6.397  67.418  1.00  0.00    -0.376 C  
HETATM    2  O   UNL     1     -10.392   5.533  68.370  1.00  0.00    -0.184 OA 
ENDROOT
BRANCH   2   3
HETATM    3  C   UNL     1     -10.727   5.724  69.688  1.00  0.00    -0.346 A  
HETATM    4  C   UNL     1     -11.758   6.605  70.036  1.00  0.00    -0.378 A  
HETATM    5  C   UNL     1     -12.119   6.817  71.368  1.00  0.00    -0.415 A  
HETATM    6  C   UNL     1     -11.443   6.131  72.370  1.00  0.00    -0.349 A  
HETATM    7  C   UNL     1     -10.059   4.992  70.696  1.00  0.00    -0.243 A  
HETATM    8  C   UNL     1     -10.422   5.216  72.049  1.00  0.00    -0.215 A  
BRANCH   5   9
HETATM    9  C   UNL     1     -13.217   7.784  71.617  1.00  0.00    -0.343 C  
HETATM   10  O   UNL     1     -14.393   7.500  71.437  1.00  0.00    -0.441 OA 
BRANCH   9  11
HETATM   11  O   UNL     1     -12.748   8.993  72.014  1.00  0.00    -0.344 OA 
BRANCH  11  12
HETATM   12  C   UNL     1     -13.226  10.097  71.225  1.00  0.00    -0.364 C  
BRANCH  12  13
HETATM   13  C   UNL     1     -12.040  10.878  70.667  1.00  0.00    -0.468 C  
BRANCH  13  14
HETATM   14  C   UNL     1     -11.345  10.119  69.536  1.00  0.00    -0.206 C  
BRANCH  14  15
HETATM   15  N   UNL     1     -10.528  10.987  68.662  1.00  0.00    -0.183 NA 
HETATM   16  C   UNL     1      -9.098  10.667  68.775  1.00  0.00    -0.169 C  
BRANCH  15  17
HETATM   17  C   UNL     1     -11.012  10.845  67.262  1.00  0.00    -0.294 C  
BRANCH  17  18
HETATM   18  C   UNL     1      -9.885  10.819  66.202  1.00  0.00    -0.221 C  
BRANCH  18  19
HETATM   19  N   UNL     1     -10.103  11.653  64.997  1.00  0.00    -0.253 NA 
HETATM   20  C   UNL     1      -9.733  10.926  63.778  1.00  0.00    -0.307 C  
BRANCH  19  21
HETATM   21  C   UNL     1     -11.520  12.072  64.902  1.00  0.00    -0.294 C  
BRANCH  21  22
HETATM   22  C   UNL     1     -11.694  13.543  64.513  1.00  0.00    -0.431 C  
BRANCH  22  23
HETATM   23  C   UNL     1     -10.917  14.470  65.438  1.00  0.00    -0.342 C  
BRANCH  23  24
HETATM   24  O   UNL     1     -11.782  14.939  66.486  1.00  0.00    -0.312 OA 
BRANCH  24  25
HETATM   25  C   UNL     1     -11.266  14.889  67.740  1.00  0.00    -0.321 C  
HETATM   26  O   UNL     1     -11.550  14.074  68.602  1.00  0.00    -0.282 OA 
BRANCH  25  27
HETATM   27  C   UNL     1     -10.263  15.970  67.931  1.00  0.00    -0.258 A  
HETATM   28  C   UNL     1      -9.037  15.634  68.509  1.00  0.00    -0.196 A  
HETATM   29  C   UNL     1      -8.081  16.620  68.750  1.00  0.00    -0.247 A  
HETATM   30  C   UNL     1      -8.354  17.972  68.426  1.00  0.00    -0.298 A  
HETATM   31  C   UNL     1     -10.522  17.296  67.569  1.00  0.00    -0.356 A  
HETATM   32  C   UNL     1      -9.585  18.310  67.820  1.00  0.00    -0.283 A  
BRANCH  29  33
HETATM   33  O   UNL     1      -6.870  16.351  69.348  1.00  0.00    -0.210 OA 
HETATM   34  C   UNL     1      -6.015  15.440  68.663  1.00  0.00    -0.094 C  
ENDBRANCH  29  33
BRANCH  30  35
HETATM   35  O   UNL     1      -7.375  18.861  68.803  1.00  0.00    -0.303 OA 
HETATM   36  C   UNL     1      -6.439  19.292  67.825  1.00  0.00    -0.220 C  
ENDBRANCH  30  35
BRANCH  32  37
HETATM   37  O   UNL     1      -9.833  19.624  67.525  1.00  0.00    -0.338 OA 
HETATM   38  C   UNL     1     -10.464  19.933  66.288  1.00  0.00    -0.479 C  
ENDBRANCH  32  37
ENDBRANCH  25  27
ENDBRANCH  24  25
ENDBRANCH  23  24
ENDBRANCH  22  23
ENDBRANCH  21  22
ENDBRANCH  19  21
ENDBRANCH  18  19
ENDBRANCH  17  18
ENDBRANCH  15  17
ENDBRANCH  14  15
ENDBRANCH  13  14
ENDBRANCH  12  13
ENDBRANCH  11  12
ENDBRANCH   9  11
ENDBRANCH   5   9
BRANCH   8  39
HETATM   39  O   UNL     1      -9.902   4.641  73.185  1.00  0.00    -0.139 OA 
HETATM   40  C   UNL     1      -9.771   5.411  74.370  1.00  0.00    -0.181 C  
ENDBRANCH   8  39
BRANCH   7  41
HETATM   41  O   UNL     1      -9.061   4.078  70.486  1.00  0.00    -0.093 OA 
HETATM   42  C   UNL     1      -9.362   2.718  70.221  1.00  0.00    -0.140 C  
ENDBRANCH   7  41
ENDBRANCH   2   3
TORSDOF 21
ENDMDL
MODEL       42
REMARK 921   NORMALIZED FREE ENERGY PREDICTED BY IDOCK:   -4.97 KCAL/MOL
REMARK 922        TOTAL FREE ENERGY PREDICTED BY IDOCK:  -13.94 KCAL/MOL
REMARK 923 INTER-LIGAND FREE ENERGY PREDICTED BY IDOCK:  -10.77 KCAL/MOL
REMARK 924 INTRA-LIGAND FREE ENERGY PREDICTED BY IDOCK:   -3.17 KCAL/MOL
REMARK 927      BINDING AFFINITY PREDICTED BY RF-SCORE:    0.00 PKD
ROOT
HETATM    1  C   UNL     1     -12.681  15.222  73.222  1.00  0.00    -0.511 C  
HETATM    2  O   UNL     1     -13.545  14.714  72.208  1.00  0.00    -0.363 OA 
ENDROOT
BRANCH   2   3
HETATM    3  C   UNL     1     -13.028  13.747  71.381  1.00  0.00    -0.355 A  
HETATM    4  C   UNL     1     -13.102  12.395  71.739  1.00  0.00    -0.446 A  
HETATM    5  C   UNL     1     -12.585  11.392  70.917  1.00  0.00    -0.453 A  
HETATM    6  C   UNL     1     -11.991  11.745  69.711  1.00  0.00    -0.392 A  
HETATM    7  C   UNL     1     -12.461  14.113  70.139  1.00  0.00    -0.331 A  
HETATM    8  C   UNL     1     -11.930  13.093  69.309  1.00  0.00    -0.292 A  
BRANCH   5   9
HETATM    9  C   UNL     1     -12.708   9.997  71.408  1.00  0.00    -0.415 C  
HETATM   10  O   UNL     1     -13.634   9.632  72.118  1.00  0.00    -0.426 OA 
BRANCH   9  11
HETATM   11  O   UNL     1     -11.666   9.226  71.009  1.00  0.00    -0.280 OA 
BRANCH  11  12
HETATM   12  C   UNL     1     -10.927   8.630  72.091  1.00  0.00    -0.364 C  
BRANCH  12  13
HETATM   13  C   UNL     1      -9.433   8.698  71.788  1.00  0.00    -0.354 C  
BRANCH  13  14
HETATM   14  C   UNL     1      -8.593   8.256  72.987  1.00  0.00    -0.206 C  
BRANCH  14  15
HETATM   15  N   UNL     1      -7.687   7.128  72.685  1.00  0.00    -0.087 NA 
HETATM   16  C   UNL     1      -6.282   7.495  72.908  1.00  0.00    -0.059 C  
BRANCH  15  17
HETATM   17  C   UNL     1      -8.087   5.959  73.514  1.00  0.00    -0.111 C  
BRANCH  17  18
HETATM   18  C   UNL     1      -8.639   4.765  72.700  1.00  0.00    -0.115 C  
BRANCH  18  19
HETATM   19  N   UNL     1     -10.080   4.465  72.875  1.00  0.00    -0.156 NA 
HETATM   20  C   UNL     1     -10.565   4.943  74.174  1.00  0.00    -0.291 C  
BRANCH  19  21
HETATM   21  C   UNL     1     -10.876   5.092  71.796  1.00  0.00    -0.024 C  
BRANCH  21  22
HETATM   22  C   UNL     1     -10.073   5.349  70.517  1.00  0.00    -0.306 C  
BRANCH  22  23
HETATM   23  C   UNL     1     -10.976   5.718  69.347  1.00  0.00    -0.282 C  
BRANCH  23  24
HETATM   24  O   UNL     1     -10.675   7.054  68.910  1.00  0.00    -0.216 OA 
BRANCH  24  25
HETATM   25  C   UNL     1     -10.549   7.219  67.569  1.00  0.00    -0.274 C  
HETATM   26  O   UNL     1     -11.067   6.527  66.708  1.00  0.00    -0.362 OA 
BRANCH  25  27
HETATM   27  C   UNL     1      -9.694   8.398  67.270  1.00  0.00    -0.240 A  
HETATM   28  C   UNL     1      -8.559   8.602  68.055  1.00  0.00    -0.137 A  
HETATM   29  C   UNL     1      -7.749   9.718  67.842  1.00  0.00    -0.087 A  
HETATM   30  C   UNL     1      -8.084  10.660  66.839  1.00  0.00    -0.124 A  
HETATM   31  C   UNL     1     -10.007   9.301  66.249  1.00  0.00    -0.357 A  
HETATM   32  C   UNL     1      -9.221  10.442  66.028  1.00  0.00    -0.167 A  
BRANCH  29  33
HETATM   33  O   UNL     1      -6.638   9.987  68.609  1.00  0.00    -0.049 OA 
HETATM   34  C   UNL     1      -5.752   8.896  68.845  1.00  0.00    -0.040 C  
ENDBRANCH  29  33
BRANCH  30  35
HETATM   35  O   UNL     1      -7.267  11.765  66.794  1.00  0.00    -0.128 OA 
HETATM   36  C   UNL     1      -7.609  12.892  67.588  1.00  0.00    -0.156 C  
ENDBRANCH  30  35
BRANCH  32  37
HETATM   37  O   UNL     1      -9.532  11.371  65.071  1.00  0.00    -0.226 OA 
HETATM   38  C   UNL     1     -10.648  11.122  64.224  1.00  0.00    -0.357 C  
ENDBRANCH  32  37
ENDBRANCH  25  27
ENDBRANCH  24  25
ENDBRANCH  23  24
ENDBRANCH  22  23
ENDBRANCH  21  22
ENDBRANCH  19  21
ENDBRANCH  18  19
ENDBRANCH  17  18
ENDBRANCH  15  17
ENDBRANCH  14  15
ENDBRANCH  13  14
ENDBRANCH  12  13
ENDBRANCH  11  12
ENDBRANCH   9  11
ENDBRANCH   5   9
BRANCH   8  39
HETATM   39  O   UNL     1     -11.318  13.213  68.083  1.00  0.00    -0.258 OA 
HETATM   40  C   UNL     1     -12.094  13.141  66.897  1.00  0.00    -0.316 C  
ENDBRANCH   8  39
BRANCH   7  41
HETATM   41  O   UNL     1     -12.361  15.391  69.657  1.00  0.00    -0.304 OA 
HETATM   42  C   UNL     1     -11.235  16.199  69.958  1.00  0.00    -0.357 C  
ENDBRANCH   7  41
ENDBRANCH   2   3
TORSDOF 21
ENDMDL
MODEL       43
REMARK 921   NORMALIZED FREE ENERGY PREDICTED BY IDOCK:   -4.97 KCAL/MOL
REMARK 922        TOTAL FREE ENERGY PREDICTED BY IDOCK:  -13.94 KCAL/MOL
REMARK 923 INTER-LIGAND FREE ENERGY PREDICTED BY IDOCK:  -10.76 KCAL/MOL
REMARK 924 INTRA-LIGAND FREE ENERGY PREDICTED BY IDOCK:   -3.18 KCAL/MOL
REMARK 927      BINDING AFFINITY PREDICTED BY RF-SCORE:    0.00 PKD
ROOT
HETATM    1  C   UNL     1     -11.100   6.435  67.115  1.00  0.00    -0.341 C  
HETATM    2  O   UNL     1     -11.243   6.307  68.527  1.00  0.00    -0.352 OA 
ENDROOT
BRANCH   2   3
HETATM    3  C   UNL     1     -10.493   7.154  69.305  1.00  0.00    -0.211 A  
HETATM    4  C   UNL     1      -9.504   7.958  68.725  1.00  0.00    -0.147 A  
HETATM    5  C   UNL     1      -8.727   8.829  69.492  1.00  0.00    -0.138 A  
HETATM    6  C   UNL     1      -8.948   8.903  70.863  1.00  0.00    -0.273 A  
HETATM    7  C   UNL     1     -10.751   7.251  70.692  1.00  0.00    -0.235 A  
HETATM    8  C   UNL     1      -9.956   8.131  71.469  1.00  0.00    -0.182 A  
BRANCH   5   9
HETATM    9  C   UNL     1      -7.700   9.620  68.770  1.00  0.00    -0.080 C  
HETATM   10  O   UNL     1      -7.078   9.171  67.819  1.00  0.00    -0.077 OA 
BRANCH   9  11
HETATM   11  O   UNL     1      -7.526  10.847  69.320  1.00  0.00    -0.123 OA 
BRANCH  11  12
HETATM   12  C   UNL     1      -7.894  11.937  68.455  1.00  0.00    -0.141 C  
BRANCH  12  13
HETATM   13  C   UNL     1      -6.681  12.372  67.637  1.00  0.00    -0.132 C  
BRANCH  13  14
HETATM   14  C   UNL     1      -6.162  13.740  68.082  1.00  0.00    -0.126 C  
BRANCH  14  15
HETATM   15  N   UNL     1      -6.656  14.152  69.413  1.00  0.00    -0.116 NA 
HETATM   16  C   UNL     1      -5.652  13.904  70.457  1.00  0.00    -0.147 C  
BRANCH  15  17
HETATM   17  C   UNL     1      -7.044  15.587  69.355  1.00  0.00    -0.194 C  
BRANCH  17  18
HETATM   18  C   UNL     1      -8.556  15.825  69.125  1.00  0.00    -0.256 C  
BRANCH  18  19
HETATM   19  N   UNL     1      -8.930  17.138  68.549  1.00  0.00    -0.259 NA 
HETATM   20  C   UNL     1      -7.740  17.937  68.238  1.00  0.00    -0.279 C  
BRANCH  19  21
HETATM   21  C   UNL     1      -9.731  16.957  67.318  1.00  0.00    -0.251 C  
BRANCH  21  22
HETATM   22  C   UNL     1      -8.914  16.435  66.131  1.00  0.00    -0.367 C  
BRANCH  22  23
HETATM   23  C   UNL     1      -9.718  15.466  65.274  1.00  0.00    -0.110 C  
BRANCH  23  24
HETATM   24  O   UNL     1     -11.110  15.820  65.324  1.00  0.00    -0.331 OA 
BRANCH  24  25
HETATM   25  C   UNL     1     -11.983  14.797  65.139  1.00  0.00    -0.278 C  
HETATM   26  O   UNL     1     -12.763  14.677  64.208  1.00  0.00    -0.679 OA 
BRANCH  25  27
HETATM   27  C   UNL     1     -11.851  13.799  66.233  1.00  0.00    -0.426 A  
HETATM   28  C   UNL     1     -12.109  14.217  67.539  1.00  0.00    -0.363 A  
HETATM   29  C   UNL     1     -11.956  13.328  68.604  1.00  0.00    -0.310 A  
HETATM   30  C   UNL     1     -11.521  12.001  68.367  1.00  0.00    -0.301 A  
HETATM   31  C   UNL     1     -11.463  12.477  65.988  1.00  0.00    -0.423 A  
HETATM   32  C   UNL     1     -11.282  11.570  67.043  1.00  0.00    -0.300 A  
BRANCH  29  33
HETATM   33  O   UNL     1     -12.164  13.697  69.914  1.00  0.00    -0.321 OA 
HETATM   34  C   UNL     1     -11.728  15.002  70.282  1.00  0.00    -0.294 C  
ENDBRANCH  29  33
BRANCH  30  35
HETATM   35  O   UNL     1     -11.313  11.256  69.503  1.00  0.00    -0.252 OA 
HETATM   36  C   UNL     1     -12.401  10.515  70.036  1.00  0.00    -0.219 C  
ENDBRANCH  30  35
BRANCH  32  37
HETATM   37  O   UNL     1     -10.852  10.286  66.838  1.00  0.00    -0.220 OA 
HETATM   38  C   UNL     1     -10.008  10.025  65.723  1.00  0.00    -0.276 C  
ENDBRANCH  32  37
ENDBRANCH  25  27
ENDBRANCH  24  25
ENDBRANCH  23  24
ENDBRANCH  22  23
ENDBRANCH  21  22
ENDBRANCH  19  21
ENDBRANCH  18  19
ENDBRANCH  17  18
ENDBRANCH  15  17
ENDBRANCH  14  15
ENDBRANCH  13  14
ENDBRANCH  12  13
ENDBRANCH  11  12
ENDBRANCH   9  11
ENDBRANCH   5   9
BRANCH   8  39
HETATM   39  O   UNL     1     -10.012   8.370  72.822  1.00  0.00    -0.284 OA 
HETATM   40  C   UNL     1      -9.337   7.505  73.722  1.00  0.00    -0.279 C  
ENDBRANCH   8  39
BRANCH   7  41
HETATM   41  O   UNL     1     -11.711   6.549  71.372  1.00  0.00    -0.302 OA 
HETATM   42  C   UNL     1     -13.003   7.093  71.581  1.00  0.00    -0.370 C  
ENDBRANCH   7  41
ENDBRANCH   2   3
TORSDOF 21
ENDMDL
MODEL       44
REMARK 921   NORMALIZED FREE ENERGY PREDICTED BY IDOCK:   -4.97 KCAL/MOL
REMARK 922        TOTAL FREE ENERGY PREDICTED BY IDOCK:  -13.92 KCAL/MOL
REMARK 923 INTER-LIGAND FREE ENERGY PREDICTED BY IDOCK:  -11.26 KCAL/MOL
REMARK 924 INTRA-LIGAND FREE ENERGY PREDICTED BY IDOCK:   -2.67 KCAL/MOL
REMARK 927      BINDING AFFINITY PREDICTED BY RF-SCORE:    0.00 PKD
ROOT
HETATM    1  C   UNL     1      -8.515   9.263  64.316  1.00  0.00    -0.190 C  
HETATM    2  O   UNL     1      -9.769   9.935  64.411  1.00  0.00    -0.274 OA 
ENDROOT
BRANCH   2   3
HETATM    3  C   UNL     1      -9.756  11.194  64.958  1.00  0.00    -0.253 A  
HETATM    4  C   UNL     1      -9.008  11.458  66.112  1.00  0.00    -0.207 A  
HETATM    5  C   UNL     1      -8.977  12.729  66.688  1.00  0.00    -0.152 A  
HETATM    6  C   UNL     1      -9.701  13.758  66.096  1.00  0.00    -0.280 A  
HETATM    7  C   UNL     1     -10.465  12.243  64.327  1.00  0.00    -0.346 A  
HETATM    8  C   UNL     1     -10.438  13.531  64.918  1.00  0.00    -0.402 A  
BRANCH   5   9
HETATM    9  C   UNL     1      -8.162  12.886  67.917  1.00  0.00    -0.165 C  
HETATM   10  O   UNL     1      -7.332  12.057  68.262  1.00  0.00    -0.081 OA 
BRANCH   9  11
HETATM   11  O   UNL     1      -8.484  14.013  68.600  1.00  0.00    -0.160 OA 
BRANCH  11  12
HETATM   12  C   UNL     1      -7.347  14.760  69.070  1.00  0.00    -0.139 C  
BRANCH  12  13
HETATM   13  C   UNL     1      -7.526  16.235  68.722  1.00  0.00    -0.195 C  
BRANCH  13  14
HETATM   14  C   UNL     1      -8.879  16.499  68.059  1.00  0.00    -0.197 C  
BRANCH  14  15
HETATM   15  N   UNL     1      -9.808  17.274  68.909  1.00  0.00    -0.297 NA 
HETATM   16  C   UNL     1      -9.597  18.719  68.754  1.00  0.00    -0.364 C  
BRANCH  15  17
HETATM   17  C   UNL     1     -11.203  16.884  68.569  1.00  0.00    -0.112 C  
BRANCH  17  18
HETATM   18  C   UNL     1     -11.528  15.396  68.839  1.00  0.00    -0.342 C  
BRANCH  18  19
HETATM   19  N   UNL     1     -11.493  14.966  70.256  1.00  0.00    -0.262 NA 
HETATM   20  C   UNL     1     -12.012  16.015  71.139  1.00  0.00    -0.398 C  
BRANCH  19  21
HETATM   21  C   UNL     1     -12.289  13.732  70.446  1.00  0.00    -0.353 C  
BRANCH  21  22
HETATM   22  C   UNL     1     -13.165  13.760  71.702  1.00  0.00    -0.450 C  
BRANCH  22  23
HETATM   23  C   UNL     1     -13.507  12.356  72.186  1.00  0.00    -0.378 C  
BRANCH  23  24
HETATM   24  O   UNL     1     -12.932  11.387  71.293  1.00  0.00    -0.385 OA 
BRANCH  24  25
HETATM   25  C   UNL     1     -13.001  10.096  71.705  1.00  0.00    -0.456 C  
HETATM   26  O   UNL     1     -13.957   9.565  72.247  1.00  0.00    -0.371 OA 
BRANCH  25  27
HETATM   27  C   UNL     1     -11.739   9.380  71.381  1.00  0.00    -0.448 A  
HETATM   28  C   UNL     1     -11.242   9.480  70.081  1.00  0.00    -0.275 A  
HETATM   29  C   UNL     1     -10.085   8.790  69.717  1.00  0.00    -0.196 A  
HETATM   30  C   UNL     1      -9.418   7.971  70.660  1.00  0.00    -0.162 A  
HETATM   31  C   UNL     1     -11.061   8.607  72.330  1.00  0.00    -0.395 A  
HETATM   32  C   UNL     1      -9.908   7.887  71.983  1.00  0.00    -0.192 A  
BRANCH  29  33
HETATM   33  O   UNL     1      -9.570   8.825  68.441  1.00  0.00    -0.144 OA 
HETATM   34  C   UNL     1     -10.376   8.251  67.416  1.00  0.00    -0.280 C  
ENDBRANCH  29  33
BRANCH  30  35
HETATM   35  O   UNL     1      -8.351   7.266  70.154  1.00  0.00    -0.132 OA 
HETATM   36  C   UNL     1      -7.039   7.754  70.402  1.00  0.00    -0.050 C  
ENDBRANCH  30  35
BRANCH  32  37
HETATM   37  O   UNL     1      -9.253   7.081  72.876  1.00  0.00    -0.136 OA 
HETATM   38  C   UNL     1     -10.025   6.364  73.832  1.00  0.00    -0.258 C  
ENDBRANCH  32  37
ENDBRANCH  25  27
ENDBRANCH  24  25
ENDBRANCH  23  24
ENDBRANCH  22  23
ENDBRANCH  21  22
ENDBRANCH  19  21
ENDBRANCH  18  19
ENDBRANCH  17  18
ENDBRANCH  15  17
ENDBRANCH  14  15
ENDBRANCH  13  14
ENDBRANCH  12  13
ENDBRANCH  11  12
ENDBRANCH   9  11
ENDBRANCH   5   9
BRANCH   8  39
HETATM   39  O   UNL     1     -11.061  14.683  64.498  1.00  0.00    -0.343 OA 
HETATM   40  C   UNL     1     -10.660  15.937  65.029  1.00  0.00    -0.346 C  
ENDBRANCH   8  39
BRANCH   7  41
HETATM   41  O   UNL     1     -11.202  12.124  63.178  1.00  0.00    -0.348 OA 
HETATM   42  C   UNL     1     -12.594  11.859  63.229  1.00  0.00    -0.344 C  
ENDBRANCH   7  41
ENDBRANCH   2   3
TORSDOF 21
ENDMDL
MODEL       45
REMARK 921   NORMALIZED FREE ENERGY PREDICTED BY IDOCK:   -4.94 KCAL/MOL
REMARK 922        TOTAL FREE ENERGY PREDICTED BY IDOCK:  -13.87 KCAL/MOL
REMARK 923 INTER-LIGAND FREE ENERGY PREDICTED BY IDOCK:  -10.85 KCAL/MOL
REMARK 924 INTRA-LIGAND FREE ENERGY PREDICTED BY IDOCK:   -3.02 KCAL/MOL
REMARK 927      BINDING AFFINITY PREDICTED BY RF-SCORE:    0.00 PKD
ROOT
HETATM    1  C   UNL     1     -14.403   8.475  72.078  1.00  0.00    -0.447 C  
HETATM    2  O   UNL     1     -13.264   9.140  72.619  1.00  0.00    -0.436 OA 
ENDROOT
BRANCH   2   3
HETATM    3  C   UNL     1     -12.289   9.520  71.729  1.00  0.00    -0.394 A  
HETATM    4  C   UNL     1     -12.560  10.480  70.747  1.00  0.00    -0.474 A  
HETATM    5  C   UNL     1     -11.587  10.884  69.831  1.00  0.00    -0.410 A  
HETATM    6  C   UNL     1     -10.317  10.324  69.903  1.00  0.00    -0.281 A  
HETATM    7  C   UNL     1     -10.989   8.973  71.835  1.00  0.00    -0.353 A  
HETATM    8  C   UNL     1     -10.005   9.380  70.899  1.00  0.00    -0.283 A  
BRANCH   5   9
HETATM    9  C   UNL     1     -11.995  11.897  68.827  1.00  0.00    -0.249 C  
HETATM   10  O   UNL     1     -12.110  11.632  67.639  1.00  0.00    -0.615 OA 
BRANCH   9  11
HETATM   11  O   UNL     1     -12.173  13.121  69.384  1.00  0.00    -0.251 OA 
BRANCH  11  12
HETATM   12  C   UNL     1     -11.242  14.117  68.925  1.00  0.00    -0.267 C  
BRANCH  12  13
HETATM   13  C   UNL     1     -11.833  15.507  69.140  1.00  0.00    -0.373 C  
BRANCH  13  14
HETATM   14  C   UNL     1     -10.743  16.573  69.258  1.00  0.00    -0.331 C  
BRANCH  14  15
HETATM   15  N   UNL     1     -10.016  16.813  67.993  1.00  0.00    -0.263 NA 
HETATM   16  C   UNL     1     -10.479  18.041  67.334  1.00  0.00    -0.387 C  
BRANCH  15  17
HETATM   17  C   UNL     1      -8.558  16.863  68.283  1.00  0.00    -0.230 C  
BRANCH  17  18
HETATM   18  C   UNL     1      -7.721  15.819  67.505  1.00  0.00    -0.161 C  
BRANCH  18  19
HETATM   19  N   UNL     1      -6.809  14.978  68.315  1.00  0.00    -0.109 NA 
HETATM   20  C   UNL     1      -7.175  15.018  69.735  1.00  0.00    -0.149 C  
BRANCH  19  21
HETATM   21  C   UNL     1      -6.837  13.576  67.843  1.00  0.00    -0.151 C  
BRANCH  21  22
HETATM   22  C   UNL     1      -8.195  12.895  68.040  1.00  0.00    -0.168 C  
BRANCH  22  23
HETATM   23  C   UNL     1      -8.789  12.425  66.719  1.00  0.00    -0.189 C  
BRANCH  23  24
HETATM   24  O   UNL     1      -8.646  10.999  66.607  1.00  0.00    -0.146 OA 
BRANCH  24  25
HETATM   25  C   UNL     1      -9.509  10.387  65.758  1.00  0.00    -0.198 C  
HETATM   26  O   UNL     1     -10.246  10.941  64.958  1.00  0.00    -0.272 OA 
BRANCH  25  27
HETATM   27  C   UNL     1      -9.428   8.910  65.911  1.00  0.00    -0.303 A  
HETATM   28  C   UNL     1     -10.410   8.273  66.670  1.00  0.00    -0.293 A  
HETATM   29  C   UNL     1     -10.353   6.895  66.880  1.00  0.00    -0.262 A  
HETATM   30  C   UNL     1      -9.287   6.136  66.337  1.00  0.00    -0.152 A  
HETATM   31  C   UNL     1      -8.396   8.160  65.337  1.00  0.00    -0.163 A  
HETATM   32  C   UNL     1      -8.303   6.777  65.549  1.00  0.00    -0.142 A  
BRANCH  29  33
HETATM   33  O   UNL     1     -11.275   6.221  67.648  1.00  0.00    -0.327 OA 
HETATM   34  C   UNL     1     -11.031   6.192  69.051  1.00  0.00    -0.367 C  
ENDBRANCH  29  33
BRANCH  30  35
HETATM   35  O   UNL     1      -9.287   4.809  66.697  1.00  0.00    -0.128 OA 
HETATM   36  C   UNL     1      -9.669   3.845  65.726  1.00  0.00    -0.165 C  
ENDBRANCH  30  35
BRANCH  32  37
HETATM   37  O   UNL     1      -7.276   6.026  65.044  1.00  0.00    -0.062 OA 
HETATM   38  C   UNL     1      -6.045   5.995  65.758  1.00  0.00    -0.029 C  
ENDBRANCH  32  37
ENDBRANCH  25  27
ENDBRANCH  24  25
ENDBRANCH  23  24
ENDBRANCH  22  23
ENDBRANCH  21  22
ENDBRANCH  19  21
ENDBRANCH  18  19
ENDBRANCH  17  18
ENDBRANCH  15  17
ENDBRANCH  14  15
ENDBRANCH  13  14
ENDBRANCH  12  13
ENDBRANCH  11  12
ENDBRANCH   9  11
ENDBRANCH   5   9
BRANCH   8  39
HETATM   39  O   UNL     1      -8.695   8.971  70.796  1.00  0.00    -0.186 OA 
HETATM   40  C   UNL     1      -8.208   8.464  69.563  1.00  0.00    -0.118 C  
ENDBRANCH   8  39
BRANCH   7  41
HETATM   41  O   UNL     1     -10.586   8.056  72.770  1.00  0.00    -0.315 OA 
HETATM   42  C   UNL     1     -10.871   6.676  72.609  1.00  0.00    -0.248 C  
ENDBRANCH   7  41
ENDBRANCH   2   3
TORSDOF 21
ENDMDL
MODEL       46
REMARK 921   NORMALIZED FREE ENERGY PREDICTED BY IDOCK:   -4.93 KCAL/MOL
REMARK 922        TOTAL FREE ENERGY PREDICTED BY IDOCK:  -13.84 KCAL/MOL
REMARK 923 INTER-LIGAND FREE ENERGY PREDICTED BY IDOCK:  -10.77 KCAL/MOL
REMARK 924 INTRA-LIGAND FREE ENERGY PREDICTED BY IDOCK:   -3.07 KCAL/MOL
REMARK 927      BINDING AFFINITY PREDICTED BY RF-SCORE:    0.00 PKD
ROOT
HETATM    1  C   UNL     1     -11.795  12.479  69.180  1.00  0.00    -0.296 C  
HETATM    2  O   UNL     1     -12.272  13.745  68.731  1.00  0.00    -0.350 OA 
ENDROOT
BRANCH   2   3
HETATM    3  C   UNL     1     -11.799  14.192  67.522  1.00  0.00    -0.401 A  
HETATM    4  C   UNL     1     -12.187  13.562  66.333  1.00  0.00    -0.454 A  
HETATM    5  C   UNL     1     -11.722  13.996  65.091  1.00  0.00    -0.353 A  
HETATM    6  C   UNL     1     -10.859  15.085  65.033  1.00  0.00    -0.439 A  
HETATM    7  C   UNL     1     -10.953  15.324  67.472  1.00  0.00    -0.315 A  
HETATM    8  C   UNL     1     -10.476  15.758  66.209  1.00  0.00    -0.309 A  
BRANCH   5   9
HETATM    9  C   UNL     1     -12.190  13.242  63.902  1.00  0.00    -0.425 C  
HETATM   10  O   UNL     1     -12.776  13.781  62.974  1.00  0.00    -0.671 OA 
BRANCH   9  11
HETATM   11  O   UNL     1     -11.925  11.916  64.004  1.00  0.00    -0.385 OA 
BRANCH  11  12
HETATM   12  C   UNL     1     -10.584  11.554  63.626  1.00  0.00    -0.429 C  
BRANCH  12  13
HETATM   13  C   UNL     1     -10.059  10.479  64.574  1.00  0.00    -0.402 C  
BRANCH  13  14
HETATM   14  C   UNL     1      -8.946   9.652  63.929  1.00  0.00    -0.218 C  
BRANCH  14  15
HETATM   15  N   UNL     1      -8.531   8.490  64.743  1.00  0.00    -0.157 NA 
HETATM   16  C   UNL     1      -7.300   7.883  64.220  1.00  0.00    -0.088 C  
BRANCH  15  17
HETATM   17  C   UNL     1      -8.369   8.930  66.154  1.00  0.00    -0.122 C  
BRANCH  17  18
HETATM   18  C   UNL     1      -6.898   9.008  66.629  1.00  0.00    -0.080 C  
BRANCH  18  19
HETATM   19  N   UNL     1      -6.382  10.362  66.939  1.00  0.00    -0.068 NA 
HETATM   20  C   UNL     1      -5.450  10.822  65.904  1.00  0.00    -0.133 C  
BRANCH  19  21
HETATM   21  C   UNL     1      -7.496  11.329  67.057  1.00  0.00    -0.139 C  
BRANCH  21  22
HETATM   22  C   UNL     1      -7.778  11.760  68.500  1.00  0.00    -0.137 C  
BRANCH  22  23
HETATM   23  C   UNL     1      -6.624  11.410  69.431  1.00  0.00    -0.119 C  
BRANCH  23  24
HETATM   24  O   UNL     1      -7.100  10.560  70.487  1.00  0.00    -0.278 OA 
BRANCH  24  25
HETATM   25  C   UNL     1      -6.841   9.236  70.338  1.00  0.00    -0.075 C  
HETATM   26  O   UNL     1      -5.754   8.740  70.088  1.00  0.00    -0.030 OA 
BRANCH  25  27
HETATM   27  C   UNL     1      -8.078   8.439  70.545  1.00  0.00    -0.107 A  
HETATM   28  C   UNL     1      -9.119   9.018  71.271  1.00  0.00    -0.302 A  
HETATM   29  C   UNL     1     -10.283   8.294  71.531  1.00  0.00    -0.214 A  
HETATM   30  C   UNL     1     -10.409   6.960  71.072  1.00  0.00    -0.205 A  
HETATM   31  C   UNL     1      -8.213   7.136  70.052  1.00  0.00    -0.136 A  
HETATM   32  C   UNL     1      -9.365   6.380  70.317  1.00  0.00    -0.158 A  
BRANCH  29  33
HETATM   33  O   UNL     1     -11.326   8.804  72.271  1.00  0.00    -0.355 OA 
HETATM   34  C   UNL     1     -12.164   9.752  71.615  1.00  0.00    -0.404 C  
ENDBRANCH  29  33
BRANCH  30  35
HETATM   35  O   UNL     1     -11.557   6.321  71.476  1.00  0.00    -0.298 OA 
HETATM   36  C   UNL     1     -11.509   5.520  72.649  1.00  0.00    -0.272 C  
ENDBRANCH  30  35
BRANCH  32  37
HETATM   37  O   UNL     1      -9.502   5.085  69.893  1.00  0.00    -0.135 OA 
HETATM   38  C   UNL     1      -8.595   4.109  70.391  1.00  0.00    -0.073 C  
ENDBRANCH  32  37
ENDBRANCH  25  27
ENDBRANCH  24  25
ENDBRANCH  23  24
ENDBRANCH  22  23
ENDBRANCH  21  22
ENDBRANCH  19  21
ENDBRANCH  18  19
ENDBRANCH  17  18
ENDBRANCH  15  17
ENDBRANCH  14  15
ENDBRANCH  13  14
ENDBRANCH  12  13
ENDBRANCH  11  12
ENDBRANCH   9  11
ENDBRANCH   5   9
BRANCH   8  39
HETATM   39  O   UNL     1      -9.636  16.809  65.922  1.00  0.00    -0.458 OA 
HETATM   40  C   UNL     1      -8.238  16.669  66.117  1.00  0.00    -0.260 C  
ENDBRANCH   8  39
BRANCH   7  41
HETATM   41  O   UNL     1     -10.530  16.048  68.555  1.00  0.00    -0.239 OA 
HETATM   42  C   UNL     1      -9.513  15.555  69.411  1.00  0.00    -0.278 C  
ENDBRANCH   7  41
ENDBRANCH   2   3
TORSDOF 21
ENDMDL
MODEL       47
REMARK 921   NORMALIZED FREE ENERGY PREDICTED BY IDOCK:   -4.91 KCAL/MOL
REMARK 922        TOTAL FREE ENERGY PREDICTED BY IDOCK:  -13.80 KCAL/MOL
REMARK 923 INTER-LIGAND FREE ENERGY PREDICTED BY IDOCK:  -11.37 KCAL/MOL
REMARK 924 INTRA-LIGAND FREE ENERGY PREDICTED BY IDOCK:   -2.43 KCAL/MOL
REMARK 927      BINDING AFFINITY PREDICTED BY RF-SCORE:    0.00 PKD
ROOT
HETATM    1  C   UNL     1      -6.465  10.532  69.760  1.00  0.00    -0.102 C  
HETATM    2  O   UNL     1      -6.484   9.929  68.468  1.00  0.00    -0.050 OA 
ENDROOT
BRANCH   2   3
HETATM    3  C   UNL     1      -7.717   9.657  67.930  1.00  0.00    -0.087 A  
HETATM    4  C   UNL     1      -8.364   8.448  68.215  1.00  0.00    -0.131 A  
HETATM    5  C   UNL     1      -9.618   8.146  67.682  1.00  0.00    -0.186 A  
HETATM    6  C   UNL     1     -10.242   9.073  66.854  1.00  0.00    -0.339 A  
HETATM    7  C   UNL     1      -8.360  10.622  67.120  1.00  0.00    -0.125 A  
HETATM    8  C   UNL     1      -9.631  10.310  66.574  1.00  0.00    -0.181 A  
BRANCH   5   9
HETATM    9  C   UNL     1     -10.198   6.830  68.043  1.00  0.00    -0.171 C  
HETATM   10  O   UNL     1     -11.147   6.345  67.442  1.00  0.00    -0.363 OA 
BRANCH   9  11
HETATM   11  O   UNL     1      -9.581   6.280  69.118  1.00  0.00    -0.135 OA 
BRANCH  11  12
HETATM   12  C   UNL     1      -9.792   4.863  69.256  1.00  0.00    -0.201 C  
BRANCH  12  13
HETATM   13  C   UNL     1      -9.881   4.501  70.736  1.00  0.00    -0.280 C  
BRANCH  13  14
HETATM   14  C   UNL     1      -9.898   5.748  71.622  1.00  0.00    -0.167 C  
BRANCH  14  15
HETATM   15  N   UNL     1     -11.169   5.928  72.356  1.00  0.00    -0.277 NA 
HETATM   16  C   UNL     1     -11.285   4.975  73.468  1.00  0.00    -0.269 C  
BRANCH  15  17
HETATM   17  C   UNL     1     -11.249   7.336  72.831  1.00  0.00    -0.292 C  
BRANCH  17  18
HETATM   18  C   UNL     1     -12.163   8.243  71.972  1.00  0.00    -0.348 C  
BRANCH  18  19
HETATM   19  N   UNL     1     -11.666   9.614  71.714  1.00  0.00    -0.362 NA 
HETATM   20  C   UNL     1     -10.588   9.607  70.720  1.00  0.00    -0.322 C  
BRANCH  19  21
HETATM   21  C   UNL     1     -12.764  10.485  71.236  1.00  0.00    -0.428 C  
BRANCH  21  22
HETATM   22  C   UNL     1     -12.319  11.498  70.176  1.00  0.00    -0.323 C  
BRANCH  22  23
HETATM   23  C   UNL     1     -12.489  12.933  70.658  1.00  0.00    -0.252 C  
BRANCH  23  24
HETATM   24  O   UNL     1     -12.405  13.829  69.538  1.00  0.00    -0.316 OA 
BRANCH  24  25
HETATM   25  C   UNL     1     -12.227  15.139  69.846  1.00  0.00    -0.314 C  
HETATM   26  O   UNL     1     -12.711  15.725  70.800  1.00  0.00    -0.453 OA 
BRANCH  25  27
HETATM   27  C   UNL     1     -11.321  15.785  68.860  1.00  0.00    -0.356 A  
HETATM   28  C   UNL     1     -10.651  16.946  69.246  1.00  0.00    -0.325 A  
HETATM   29  C   UNL     1      -9.825  17.614  68.342  1.00  0.00    -0.334 A  
HETATM   30  C   UNL     1      -9.674  17.126  67.020  1.00  0.00    -0.265 A  
HETATM   31  C   UNL     1     -11.143  15.274  67.570  1.00  0.00    -0.324 A  
HETATM   32  C   UNL     1     -10.335  15.937  66.635  1.00  0.00    -0.300 A  
BRANCH  29  33
HETATM   33  O   UNL     1      -9.167  18.781  68.658  1.00  0.00    -0.342 OA 
HETATM   34  C   UNL     1      -9.981  19.872  69.081  1.00  0.00    -0.247 C  
ENDBRANCH  29  33
BRANCH  30  35
HETATM   35  O   UNL     1      -8.916  17.925  66.197  1.00  0.00    -0.466 OA 
HETATM   36  C   UNL     1      -7.531  17.637  66.063  1.00  0.00    -0.247 C  
ENDBRANCH  30  35
BRANCH  32  37
HETATM   37  O   UNL     1     -10.184  15.490  65.350  1.00  0.00    -0.356 OA 
HETATM   38  C   UNL     1     -10.942  14.361  64.932  1.00  0.00    -0.406 C  
ENDBRANCH  32  37
ENDBRANCH  25  27
ENDBRANCH  24  25
ENDBRANCH  23  24
ENDBRANCH  22  23
ENDBRANCH  21  22
ENDBRANCH  19  21
ENDBRANCH  18  19
ENDBRANCH  17  18
ENDBRANCH  15  17
ENDBRANCH  14  15
ENDBRANCH  13  14
ENDBRANCH  12  13
ENDBRANCH  11  12
ENDBRANCH   9  11
ENDBRANCH   5   9
BRANCH   8  39
HETATM   39  O   UNL     1     -10.425  11.075  65.752  1.00  0.00    -0.249 OA 
HETATM   40  C   UNL     1     -10.385  10.878  64.347  1.00  0.00    -0.361 C  
ENDBRANCH   8  39
BRANCH   7  41
HETATM   41  O   UNL     1      -7.853  11.852  66.796  1.00  0.00    -0.146 OA 
HETATM   42  C   UNL     1      -8.111  12.985  67.608  1.00  0.00    -0.172 C  
ENDBRANCH   7  41
ENDBRANCH   2   3
TORSDOF 21
ENDMDL
MODEL       48
REMARK 921   NORMALIZED FREE ENERGY PREDICTED BY IDOCK:   -4.91 KCAL/MOL
REMARK 922        TOTAL FREE ENERGY PREDICTED BY IDOCK:  -13.80 KCAL/MOL
REMARK 923 INTER-LIGAND FREE ENERGY PREDICTED BY IDOCK:  -11.61 KCAL/MOL
REMARK 924 INTRA-LIGAND FREE ENERGY PREDICTED BY IDOCK:   -2.19 KCAL/MOL
REMARK 927      BINDING AFFINITY PREDICTED BY RF-SCORE:    0.00 PKD
ROOT
HETATM    1  C   UNL     1      -5.567   6.588  66.435  1.00  0.00    -0.014 C  
HETATM    2  O   UNL     1      -6.061   7.539  65.494  1.00  0.00    -0.037 OA 
ENDROOT
BRANCH   2   3
HETATM    3  C   UNL     1      -7.338   8.003  65.695  1.00  0.00    -0.079 A  
HETATM    4  C   UNL     1      -8.295   7.195  66.321  1.00  0.00    -0.129 A  
HETATM    5  C   UNL     1      -9.599   7.642  66.538  1.00  0.00    -0.254 A  
HETATM    6  C   UNL     1      -9.953   8.923  66.129  1.00  0.00    -0.290 A  
HETATM    7  C   UNL     1      -7.676   9.321  65.311  1.00  0.00    -0.103 A  
HETATM    8  C   UNL     1      -9.004   9.770  65.526  1.00  0.00    -0.176 A  
BRANCH   5   9
HETATM    9  C   UNL     1     -10.530   6.692  67.196  1.00  0.00    -0.288 C  
HETATM   10  O   UNL     1     -11.032   5.749  66.601  1.00  0.00    -0.277 OA 
BRANCH   9  11
HETATM   11  O   UNL     1     -10.769   7.029  68.488  1.00  0.00    -0.208 OA 
BRANCH  11  12
HETATM   12  C   UNL     1     -10.998   5.904  69.356  1.00  0.00    -0.350 C  
BRANCH  12  13
HETATM   13  C   UNL     1      -9.700   5.538  70.071  1.00  0.00    -0.238 C  
BRANCH  13  14
HETATM   14  C   UNL     1      -9.710   5.997  71.529  1.00  0.00    -0.163 C  
BRANCH  14  15
HETATM   15  N   UNL     1     -11.049   5.946  72.153  1.00  0.00    -0.268 NA 
HETATM   16  C   UNL     1     -11.147   4.846  73.121  1.00  0.00    -0.322 C  
BRANCH  15  17
HETATM   17  C   UNL     1     -11.331   7.261  72.787  1.00  0.00    -0.274 C  
BRANCH  17  18
HETATM   18  C   UNL     1     -12.320   8.148  71.993  1.00  0.00    -0.338 C  
BRANCH  18  19
HETATM   19  N   UNL     1     -11.931   9.568  71.821  1.00  0.00    -0.382 NA 
HETATM   20  C   UNL     1     -11.283   9.784  70.524  1.00  0.00    -0.315 C  
BRANCH  19  21
HETATM   21  C   UNL     1     -13.116  10.448  71.927  1.00  0.00    -0.458 C  
BRANCH  21  22
HETATM   22  C   UNL     1     -12.927  11.806  71.243  1.00  0.00    -0.353 C  
BRANCH  22  23
HETATM   23  C   UNL     1     -13.306  12.961  72.161  1.00  0.00    -0.515 C  
BRANCH  23  24
HETATM   24  O   UNL     1     -12.488  14.103  71.860  1.00  0.00    -0.319 OA 
BRANCH  24  25
HETATM   25  C   UNL     1     -13.045  15.022  71.031  1.00  0.00    -0.422 C  
HETATM   26  O   UNL     1     -14.111  15.591  71.202  1.00  0.00    -0.537 OA 
BRANCH  25  27
HETATM   27  C   UNL     1     -12.158  15.275  69.866  1.00  0.00    -0.375 A  
HETATM   28  C   UNL     1     -12.228  14.397  68.784  1.00  0.00    -0.200 A  
HETATM   29  C   UNL     1     -11.384  14.566  67.686  1.00  0.00    -0.337 A  
HETATM   30  C   UNL     1     -10.439  15.621  67.670  1.00  0.00    -0.283 A  
HETATM   31  C   UNL     1     -11.256  16.344  69.838  1.00  0.00    -0.253 A  
HETATM   32  C   UNL     1     -10.382  16.524  68.755  1.00  0.00    -0.286 A  
BRANCH  29  33
HETATM   33  O   UNL     1     -11.387  13.710  66.608  1.00  0.00    -0.309 OA 
HETATM   34  C   UNL     1     -12.434  13.890  65.658  1.00  0.00    -0.505 C  
ENDBRANCH  29  33
BRANCH  30  35
HETATM   35  O   UNL     1      -9.599  15.621  66.581  1.00  0.00    -0.225 OA 
HETATM   36  C   UNL     1      -8.216  15.378  66.793  1.00  0.00    -0.217 C  
ENDBRANCH  30  35
BRANCH  32  37
HETATM   37  O   UNL     1      -9.454  17.530  68.724  1.00  0.00    -0.279 OA 
HETATM   38  C   UNL     1      -9.913  18.877  68.736  1.00  0.00    -0.408 C  
ENDBRANCH  32  37
ENDBRANCH  25  27
ENDBRANCH  24  25
ENDBRANCH  23  24
ENDBRANCH  22  23
ENDBRANCH  21  22
ENDBRANCH  19  21
ENDBRANCH  18  19
ENDBRANCH  17  18
ENDBRANCH  15  17
ENDBRANCH  14  15
ENDBRANCH  13  14
ENDBRANCH  12  13
ENDBRANCH  11  12
ENDBRANCH   9  11
ENDBRANCH   5   9
BRANCH   8  39
HETATM   39  O   UNL     1      -9.560  10.990  65.218  1.00  0.00    -0.206 OA 
HETATM   40  C   UNL     1     -10.392  11.119  64.076  1.00  0.00    -0.376 C  
ENDBRANCH   8  39
BRANCH   7  41
HETATM   41  O   UNL     1      -6.825  10.221  64.725  1.00  0.00    -0.129 OA 
HETATM   42  C   UNL     1      -6.614  10.220  63.324  1.00  0.00    -0.112 C  
ENDBRANCH   7  41
ENDBRANCH   2   3
TORSDOF 21
ENDMDL
MODEL       49
REMARK 921   NORMALIZED FREE ENERGY PREDICTED BY IDOCK:   -4.90 KCAL/MOL
REMARK 922        TOTAL FREE ENERGY PREDICTED BY IDOCK:  -13.77 KCAL/MOL
REMARK 923 INTER-LIGAND FREE ENERGY PREDICTED BY IDOCK:  -12.61 KCAL/MOL
REMARK 924 INTRA-LIGAND FREE ENERGY PREDICTED BY IDOCK:   -1.17 KCAL/MOL
REMARK 927      BINDING AFFINITY PREDICTED BY RF-SCORE:    0.00 PKD
ROOT
HETATM    1  C   UNL     1     -12.616  15.410  70.731  1.00  0.00    -0.442 C  
HETATM    2  O   UNL     1     -11.680  16.264  70.077  1.00  0.00    -0.242 OA 
ENDROOT
BRANCH   2   3
HETATM    3  C   UNL     1     -11.337  15.934  68.788  1.00  0.00    -0.378 A  
HETATM    4  C   UNL     1     -11.893  14.805  68.174  1.00  0.00    -0.318 A  
HETATM    5  C   UNL     1     -11.563  14.449  66.865  1.00  0.00    -0.404 A  
HETATM    6  C   UNL     1     -10.666  15.239  66.154  1.00  0.00    -0.322 A  
HETATM    7  C   UNL     1     -10.455  16.766  68.060  1.00  0.00    -0.333 A  
HETATM    8  C   UNL     1     -10.116  16.397  66.734  1.00  0.00    -0.285 A  
BRANCH   5   9
HETATM    9  C   UNL     1     -12.203  13.224  66.325  1.00  0.00    -0.377 C  
HETATM   10  O   UNL     1     -12.129  12.143  66.891  1.00  0.00    -0.600 OA 
BRANCH   9  11
HETATM   11  O   UNL     1     -12.820  13.455  65.139  1.00  0.00    -0.675 OA 
BRANCH  11  12
HETATM   12  C   UNL     1     -11.958  13.327  63.994  1.00  0.00    -0.465 C  
BRANCH  12  13
HETATM   13  C   UNL     1     -11.568  11.863  63.809  1.00  0.00    -0.555 C  
BRANCH  13  14
HETATM   14  C   UNL     1     -10.167  11.723  63.212  1.00  0.00    -0.416 C  
BRANCH  14  15
HETATM   15  N   UNL     1      -9.285  10.824  63.987  1.00  0.00    -0.217 NA 
HETATM   16  C   UNL     1      -9.965  10.306  65.181  1.00  0.00    -0.325 C  
BRANCH  15  17
HETATM   17  C   UNL     1      -8.825   9.724  63.097  1.00  0.00    -0.246 C  
BRANCH  17  18
HETATM   18  C   UNL     1      -7.291   9.520  63.084  1.00  0.00    -0.110 C  
BRANCH  18  19
HETATM   19  N   UNL     1      -6.769   8.441  63.955  1.00  0.00    -0.074 NA 
HETATM   20  C   UNL     1      -6.265   8.983  65.222  1.00  0.00    -0.063 C  
BRANCH  19  21
HETATM   21  C   UNL     1      -7.824   7.443  64.237  1.00  0.00    -0.127 C  
BRANCH  21  22
HETATM   22  C   UNL     1      -7.960   7.106  65.726  1.00  0.00    -0.123 C  
BRANCH  22  23
HETATM   23  C   UNL     1      -8.809   5.860  65.949  1.00  0.00    -0.149 C  
BRANCH  23  24
HETATM   24  O   UNL     1      -9.144   5.750  67.342  1.00  0.00    -0.112 OA 
BRANCH  24  25
HETATM   25  C   UNL     1     -10.397   6.150  67.678  1.00  0.00    -0.201 C  
HETATM   26  O   UNL     1     -11.237   6.598  66.915  1.00  0.00    -0.391 OA 
BRANCH  25  27
HETATM   27  C   UNL     1     -10.634   5.947  69.131  1.00  0.00    -0.369 A  
HETATM   28  C   UNL     1     -11.395   6.898  69.812  1.00  0.00    -0.288 A  
HETATM   29  C   UNL     1     -11.609   6.775  71.185  1.00  0.00    -0.329 A  
HETATM   30  C   UNL     1     -11.039   5.693  71.900  1.00  0.00    -0.214 A  
HETATM   31  C   UNL     1     -10.105   4.853  69.824  1.00  0.00    -0.319 A  
HETATM   32  C   UNL     1     -10.287   4.717  71.208  1.00  0.00    -0.113 A  
BRANCH  29  33
HETATM   33  O   UNL     1     -12.322   7.701  71.912  1.00  0.00    -0.295 OA 
HETATM   34  C   UNL     1     -11.790   9.022  71.952  1.00  0.00    -0.376 C  
ENDBRANCH  29  33
BRANCH  30  35
HETATM   35  O   UNL     1     -11.237   5.738  73.260  1.00  0.00    -0.246 OA 
HETATM   36  C   UNL     1     -10.263   6.389  74.065  1.00  0.00    -0.332 C  
ENDBRANCH  30  35
BRANCH  32  37
HETATM   37  O   UNL     1      -9.736   3.686  71.921  1.00  0.00    -0.146 OA 
HETATM   38  C   UNL     1      -9.559   2.433  71.271  1.00  0.00    -0.152 C  
ENDBRANCH  32  37
ENDBRANCH  25  27
ENDBRANCH  24  25
ENDBRANCH  23  24
ENDBRANCH  22  23
ENDBRANCH  21  22
ENDBRANCH  19  21
ENDBRANCH  18  19
ENDBRANCH  17  18
ENDBRANCH  15  17
ENDBRANCH  14  15
ENDBRANCH  13  14
ENDBRANCH  12  13
ENDBRANCH  11  12
ENDBRANCH   9  11
ENDBRANCH   5   9
BRANCH   8  39
HETATM   39  O   UNL     1      -9.272  17.034  65.854  1.00  0.00    -0.504 OA 
HETATM   40  C   UNL     1      -7.885  17.119  66.141  1.00  0.00    -0.268 C  
ENDBRANCH   8  39
BRANCH   7  41
HETATM   41  O   UNL     1      -9.874  17.913  68.533  1.00  0.00    -0.329 OA 
HETATM   42  C   UNL     1     -10.377  19.189  68.172  1.00  0.00    -0.376 C  
ENDBRANCH   7  41
ENDBRANCH   2   3
TORSDOF 21
ENDMDL
MODEL       50
REMARK 921   NORMALIZED FREE ENERGY PREDICTED BY IDOCK:   -4.90 KCAL/MOL
REMARK 922        TOTAL FREE ENERGY PREDICTED BY IDOCK:  -13.77 KCAL/MOL
REMARK 923 INTER-LIGAND FREE ENERGY PREDICTED BY IDOCK:  -11.82 KCAL/MOL
REMARK 924 INTRA-LIGAND FREE ENERGY PREDICTED BY IDOCK:   -1.95 KCAL/MOL
REMARK 927      BINDING AFFINITY PREDICTED BY RF-SCORE:    0.00 PKD
ROOT
HETATM    1  C   UNL     1     -10.908   6.499  67.300  1.00  0.00    -0.390 C  
HETATM    2  O   UNL     1      -9.860   5.797  67.963  1.00  0.00    -0.119 OA 
ENDROOT
BRANCH   2   3
HETATM    3  C   UNL     1      -9.904   5.769  69.335  1.00  0.00    -0.167 A  
HETATM    4  C   UNL     1     -10.032   6.958  70.064  1.00  0.00    -0.190 A  
HETATM    5  C   UNL     1     -10.081   6.959  71.459  1.00  0.00    -0.195 A  
HETATM    6  C   UNL     1     -10.007   5.748  72.139  1.00  0.00    -0.206 A  
HETATM    7  C   UNL     1      -9.867   4.530  70.016  1.00  0.00    -0.226 A  
HETATM    8  C   UNL     1      -9.909   4.534  71.433  1.00  0.00    -0.194 A  
BRANCH   5   9
HETATM    9  C   UNL     1     -10.203   8.280  72.122  1.00  0.00    -0.285 C  
HETATM   10  O   UNL     1      -9.251   9.035  72.258  1.00  0.00    -0.344 OA 
BRANCH   9  11
HETATM   11  O   UNL     1     -11.461   8.504  72.578  1.00  0.00    -0.371 OA 
BRANCH  11  12
HETATM   12  C   UNL     1     -12.355   9.051  71.591  1.00  0.00    -0.347 C  
BRANCH  12  13
HETATM   13  C   UNL     1     -11.763  10.338  71.023  1.00  0.00    -0.461 C  
BRANCH  13  14
HETATM   14  C   UNL     1     -12.635  11.552  71.346  1.00  0.00    -0.314 C  
BRANCH  14  15
HETATM   15  N   UNL     1     -12.544  12.626  70.335  1.00  0.00    -0.112 NA 
HETATM   16  C   UNL     1     -12.390  13.944  70.966  1.00  0.00    -0.376 C  
BRANCH  15  17
HETATM   17  C   UNL     1     -11.413  12.323  69.417  1.00  0.00    -0.277 C  
BRANCH  17  18
HETATM   18  C   UNL     1     -11.627  12.815  67.966  1.00  0.00    -0.341 C  
BRANCH  18  19
HETATM   19  N   UNL     1     -10.770  12.190  66.931  1.00  0.00    -0.229 NA 
HETATM   20  C   UNL     1     -10.424  10.812  67.294  1.00  0.00    -0.237 C  
BRANCH  19  21
HETATM   21  C   UNL     1     -11.454  12.191  65.619  1.00  0.00    -0.355 C  
BRANCH  21  22
HETATM   22  C   UNL     1     -12.561  13.244  65.510  1.00  0.00    -0.505 C  
BRANCH  22  23
HETATM   23  C   UNL     1     -12.285  14.243  64.394  1.00  0.00    -0.447 C  
BRANCH  23  24
HETATM   24  O   UNL     1     -10.972  14.803  64.564  1.00  0.00    -0.327 OA 
BRANCH  24  25
HETATM   25  C   UNL     1     -10.931  16.128  64.852  1.00  0.00    -0.349 C  
HETATM   26  O   UNL     1     -11.457  17.021  64.208  1.00  0.00    -1.124 OA 
BRANCH  25  27
HETATM   27  C   UNL     1     -10.162  16.363  66.103  1.00  0.00    -0.363 A  
HETATM   28  C   UNL     1     -10.084  17.668  66.591  1.00  0.00    -0.335 A  
HETATM   29  C   UNL     1      -9.337  17.946  67.736  1.00  0.00    -0.262 A  
HETATM   30  C   UNL     1      -8.640  16.908  68.401  1.00  0.00    -0.240 A  
HETATM   31  C   UNL     1      -9.511  15.326  66.780  1.00  0.00    -0.264 A  
HETATM   32  C   UNL     1      -8.737  15.582  67.921  1.00  0.00    -0.163 A  
BRANCH  29  33
HETATM   33  O   UNL     1      -9.198  19.220  68.241  1.00  0.00    -0.314 OA 
HETATM   34  C   UNL     1      -9.580  20.288  67.379  1.00  0.00    -0.432 C  
ENDBRANCH  29  33
BRANCH  30  35
HETATM   35  O   UNL     1      -7.862  17.325  69.455  1.00  0.00    -0.009 OA 
HETATM   36  C   UNL     1      -6.465  17.477  69.246  1.00  0.00    -0.243 C  
ENDBRANCH  30  35
BRANCH  32  37
HETATM   37  O   UNL     1      -8.046  14.596  68.574  1.00  0.00    -0.133 OA 
HETATM   38  C   UNL     1      -7.375  13.612  67.796  1.00  0.00    -0.166 C  
ENDBRANCH  32  37
ENDBRANCH  25  27
ENDBRANCH  24  25
ENDBRANCH  23  24
ENDBRANCH  22  23
ENDBRANCH  21  22
ENDBRANCH  19  21
ENDBRANCH  18  19
ENDBRANCH  17  18
ENDBRANCH  15  17
ENDBRANCH  14  15
ENDBRANCH  13  14
ENDBRANCH  12  13
ENDBRANCH  11  12
ENDBRANCH   9  11
ENDBRANCH   5   9
BRANCH   8  39
HETATM   39  O   UNL     1      -9.866   3.465  72.298  1.00  0.00    -0.143 OA 
HETATM   40  C   UNL     1      -8.657   3.150  72.971  1.00  0.00    -0.081 C  
ENDBRANCH   8  39
BRANCH   7  41
HETATM   41  O   UNL     1      -9.780   3.299  69.421  1.00  0.00    -0.111 OA 
HETATM   42  C   UNL     1      -8.543   2.814  68.927  1.00  0.00    -0.074 C  
ENDBRANCH   7  41
ENDBRANCH   2   3
TORSDOF 21
ENDMDL
MODEL       51
REMARK 921   NORMALIZED FREE ENERGY PREDICTED BY IDOCK:   -4.89 KCAL/MOL
REMARK 922        TOTAL FREE ENERGY PREDICTED BY IDOCK:  -13.76 KCAL/MOL
REMARK 923 INTER-LIGAND FREE ENERGY PREDICTED BY IDOCK:  -10.97 KCAL/MOL
REMARK 924 INTRA-LIGAND FREE ENERGY PREDICTED BY IDOCK:   -2.79 KCAL/MOL
REMARK 927      BINDING AFFINITY PREDICTED BY RF-SCORE:    0.00 PKD
ROOT
HETATM    1  C   UNL     1      -7.124   9.433  69.679  1.00  0.00    -0.064 C  
HETATM    2  O   UNL     1      -8.391  10.083  69.750  1.00  0.00    -0.171 OA 
ENDROOT
BRANCH   2   3
HETATM    3  C   UNL     1      -9.389   9.423  70.425  1.00  0.00    -0.268 A  
HETATM    4  C   UNL     1      -9.115   8.228  71.102  1.00  0.00    -0.198 A  
HETATM    5  C   UNL     1     -10.110   7.538  71.797  1.00  0.00    -0.205 A  
HETATM    6  C   UNL     1     -11.400   8.054  71.823  1.00  0.00    -0.318 A  
HETATM    7  C   UNL     1     -10.689   9.977  70.478  1.00  0.00    -0.285 A  
HETATM    8  C   UNL     1     -11.699   9.270  71.178  1.00  0.00    -0.325 A  
BRANCH   5   9
HETATM    9  C   UNL     1      -9.706   6.275  72.463  1.00  0.00    -0.156 C  
HETATM   10  O   UNL     1      -8.912   6.251  73.393  1.00  0.00    -0.126 OA 
BRANCH   9  11
HETATM   11  O   UNL     1     -10.284   5.191  71.890  1.00  0.00    -0.196 OA 
BRANCH  11  12
HETATM   12  C   UNL     1      -9.432   4.490  70.966  1.00  0.00    -0.161 C  
BRANCH  12  13
HETATM   13  C   UNL     1     -10.003   4.607  69.555  1.00  0.00    -0.266 C  
BRANCH  13  14
HETATM   14  C   UNL     1      -9.082   5.412  68.638  1.00  0.00    -0.115 C  
BRANCH  14  15
HETATM   15  N   UNL     1      -9.798   6.092  67.537  1.00  0.00    -0.119 NA 
HETATM   16  C   UNL     1     -11.162   6.464  67.935  1.00  0.00    -0.154 C  
BRANCH  15  17
HETATM   17  C   UNL     1      -9.007   7.279  67.116  1.00  0.00    -0.126 C  
BRANCH  17  18
HETATM   18  C   UNL     1      -9.861   8.529  66.797  1.00  0.00    -0.257 C  
BRANCH  18  19
HETATM   19  N   UNL     1      -9.258   9.514  65.868  1.00  0.00    -0.188 NA 
HETATM   20  C   UNL     1      -8.741   8.856  64.664  1.00  0.00    -0.103 C  
BRANCH  19  21
HETATM   21  C   UNL     1     -10.252  10.537  65.477  1.00  0.00    -0.256 C  
BRANCH  21  22
HETATM   22  C   UNL     1     -10.273  10.820  63.971  1.00  0.00    -0.390 C  
BRANCH  22  23
HETATM   23  C   UNL     1     -11.370  11.809  63.596  1.00  0.00    -0.436 C  
BRANCH  23  24
HETATM   24  O   UNL     1     -10.999  13.127  64.034  1.00  0.00    -0.392 OA 
BRANCH  24  25
HETATM   25  C   UNL     1     -11.905  13.761  64.821  1.00  0.00    -0.391 C  
HETATM   26  O   UNL     1     -13.113  13.588  64.808  1.00  0.00    -0.680 OA 
BRANCH  25  27
HETATM   27  C   UNL     1     -11.220  14.704  65.744  1.00  0.00    -0.336 A  
HETATM   28  C   UNL     1     -11.099  14.338  67.085  1.00  0.00    -0.318 A  
HETATM   29  C   UNL     1     -10.504  15.207  68.000  1.00  0.00    -0.247 A  
HETATM   30  C   UNL     1     -10.034  16.474  67.575  1.00  0.00    -0.255 A  
HETATM   31  C   UNL     1     -10.720  15.936  65.310  1.00  0.00    -0.442 A  
HETATM   32  C   UNL     1     -10.136  16.837  66.213  1.00  0.00    -0.326 A  
BRANCH  29  33
HETATM   33  O   UNL     1     -10.389  14.912  69.339  1.00  0.00    -0.235 OA 
HETATM   34  C   UNL     1     -11.608  14.761  70.061  1.00  0.00    -0.286 C  
ENDBRANCH  29  33
BRANCH  30  35
HETATM   35  O   UNL     1      -9.562  17.278  68.586  1.00  0.00    -0.267 OA 
HETATM   36  C   UNL     1     -10.443  18.234  69.159  1.00  0.00     0.186 C  
ENDBRANCH  30  35
BRANCH  32  37
HETATM   37  O   UNL     1      -9.686  18.071  65.827  1.00  0.00    -0.521 OA 
HETATM   38  C   UNL     1     -10.642  19.097  65.590  1.00  0.00    -0.229 C  
ENDBRANCH  32  37
ENDBRANCH  25  27
ENDBRANCH  24  25
ENDBRANCH  23  24
ENDBRANCH  22  23
ENDBRANCH  21  22
ENDBRANCH  19  21
ENDBRANCH  18  19
ENDBRANCH  17  18
ENDBRANCH  15  17
ENDBRANCH  14  15
ENDBRANCH  13  14
ENDBRANCH  12  13
ENDBRANCH  11  12
ENDBRANCH   9  11
ENDBRANCH   5   9
BRANCH   8  39
HETATM   39  O   UNL     1     -13.023   9.602  71.343  1.00  0.00    -0.344 OA 
HETATM   40  C   UNL     1     -13.936   8.636  71.842  1.00  0.00    -0.442 C  
ENDBRANCH   8  39
BRANCH   7  41
HETATM   41  O   UNL     1     -11.075  11.153  69.891  1.00  0.00    -0.243 OA 
HETATM   42  C   UNL     1     -11.738  11.160  68.638  1.00  0.00    -0.320 C  
ENDBRANCH   7  41
ENDBRANCH   2   3
TORSDOF 21
ENDMDL
MODEL       52
REMARK 921   NORMALIZED FREE ENERGY PREDICTED BY IDOCK:   -4.89 KCAL/MOL
REMARK 922        TOTAL FREE ENERGY PREDICTED BY IDOCK:  -13.76 KCAL/MOL
REMARK 923 INTER-LIGAND FREE ENERGY PREDICTED BY IDOCK:  -10.58 KCAL/MOL
REMARK 924 INTRA-LIGAND FREE ENERGY PREDICTED BY IDOCK:   -3.17 KCAL/MOL
REMARK 927      BINDING AFFINITY PREDICTED BY RF-SCORE:    0.00 PKD
ROOT
HETATM    1  C   UNL     1      -8.483  14.622  67.864  1.00  0.00    -0.158 C  
HETATM    2  O   UNL     1      -9.713  13.929  67.671  1.00  0.00    -0.217 OA 
ENDROOT
BRANCH   2   3
HETATM    3  C   UNL     1      -9.790  13.097  66.581  1.00  0.00    -0.261 A  
HETATM    4  C   UNL     1      -8.990  11.951  66.505  1.00  0.00    -0.199 A  
HETATM    5  C   UNL     1      -9.049  11.089  65.410  1.00  0.00    -0.213 A  
HETATM    6  C   UNL     1      -9.930  11.372  64.372  1.00  0.00    -0.321 A  
HETATM    7  C   UNL     1     -10.718  13.373  65.549  1.00  0.00    -0.294 A  
HETATM    8  C   UNL     1     -10.771  12.499  64.434  1.00  0.00    -0.350 A  
BRANCH   5   9
HETATM    9  C   UNL     1      -8.143   9.914  65.434  1.00  0.00    -0.137 C  
HETATM   10  O   UNL     1      -6.978   9.993  65.799  1.00  0.00    -0.099 OA 
BRANCH   9  11
HETATM   11  O   UNL     1      -8.751   8.794  64.973  1.00  0.00    -0.187 OA 
BRANCH  11  12
HETATM   12  C   UNL     1      -8.737   7.693  65.899  1.00  0.00    -0.152 C  
BRANCH  12  13
HETATM   13  C   UNL     1      -9.827   7.893  66.948  1.00  0.00    -0.309 C  
BRANCH  13  14
HETATM   14  C   UNL     1      -9.592   7.021  68.182  1.00  0.00    -0.129 C  
BRANCH  14  15
HETATM   15  N   UNL     1     -10.599   5.951  68.345  1.00  0.00    -0.239 NA 
HETATM   16  C   UNL     1     -10.201   4.728  67.635  1.00  0.00    -0.036 C  
BRANCH  15  17
HETATM   17  C   UNL     1     -10.797   5.701  69.798  1.00  0.00    -0.300 C  
BRANCH  17  18
HETATM   18  C   UNL     1      -9.611   4.985  70.486  1.00  0.00    -0.185 C  
BRANCH  18  19
HETATM   19  N   UNL     1      -9.915   3.685  71.129  1.00  0.00    -0.125 NA 
HETATM   20  C   UNL     1      -9.238   2.583  70.439  1.00  0.00    -0.128 C  
BRANCH  19  21
HETATM   21  C   UNL     1      -9.502   3.698  72.550  1.00  0.00    -0.124 C  
BRANCH  21  22
HETATM   22  C   UNL     1     -10.624   4.113  73.507  1.00  0.00    -0.284 C  
BRANCH  22  23
HETATM   23  C   UNL     1     -10.192   5.245  74.430  1.00  0.00    -0.274 C  
BRANCH  23  24
HETATM   24  O   UNL     1     -10.641   6.501  73.894  1.00  0.00    -0.310 OA 
BRANCH  24  25
HETATM   25  C   UNL     1      -9.667   7.327  73.437  1.00  0.00    -0.251 C  
HETATM   26  O   UNL     1      -8.498   7.323  73.789  1.00  0.00    -0.133 OA 
BRANCH  25  27
HETATM   27  C   UNL     1     -10.210   8.251  72.407  1.00  0.00    -0.397 A  
HETATM   28  C   UNL     1     -11.590   8.456  72.371  1.00  0.00    -0.450 A  
HETATM   29  C   UNL     1     -12.153   9.278  71.395  1.00  0.00    -0.348 A  
HETATM   30  C   UNL     1     -11.328   9.898  70.424  1.00  0.00    -0.307 A  
HETATM   31  C   UNL     1      -9.386   8.894  71.478  1.00  0.00    -0.335 A  
HETATM   32  C   UNL     1      -9.928   9.709  70.473  1.00  0.00    -0.254 A  
BRANCH  29  33
HETATM   33  O   UNL     1     -13.510   9.488  71.292  1.00  0.00    -0.370 OA 
HETATM   34  C   UNL     1     -14.349   8.400  71.667  1.00  0.00    -0.448 C  
ENDBRANCH  29  33
BRANCH  30  35
HETATM   35  O   UNL     1     -12.009  10.601  69.458  1.00  0.00    -0.288 OA 
HETATM   36  C   UNL     1     -12.021  12.019  69.536  1.00  0.00    -0.283 C  
ENDBRANCH  30  35
BRANCH  32  37
HETATM   37  O   UNL     1      -9.152  10.309  69.518  1.00  0.00    -0.206 OA 
HETATM   38  C   UNL     1      -7.737  10.212  69.638  1.00  0.00    -0.163 C  
ENDBRANCH  32  37
ENDBRANCH  25  27
ENDBRANCH  24  25
ENDBRANCH  23  24
ENDBRANCH  22  23
ENDBRANCH  21  22
ENDBRANCH  19  21
ENDBRANCH  18  19
ENDBRANCH  17  18
ENDBRANCH  15  17
ENDBRANCH  14  15
ENDBRANCH  13  14
ENDBRANCH  12  13
ENDBRANCH  11  12
ENDBRANCH   9  11
ENDBRANCH   5   9
BRANCH   8  39
HETATM   39  O   UNL     1     -11.569  12.579  63.317  1.00  0.00    -0.468 OA 
HETATM   40  C   UNL     1     -12.814  11.898  63.288  1.00  0.00    -0.161 C  
ENDBRANCH   8  39
BRANCH   7  41
HETATM   41  O   UNL     1     -11.580  14.437  65.520  1.00  0.00    -0.335 OA 
HETATM   42  C   UNL     1     -11.317  15.567  64.705  1.00  0.00    -0.357 C  
ENDBRANCH   7  41
ENDBRANCH   2   3
TORSDOF 21
ENDMDL
MODEL       53
REMARK 921   NORMALIZED FREE ENERGY PREDICTED BY IDOCK:   -4.89 KCAL/MOL
REMARK 922        TOTAL FREE ENERGY PREDICTED BY IDOCK:  -13.76 KCAL/MOL
REMARK 923 INTER-LIGAND FREE ENERGY PREDICTED BY IDOCK:  -11.28 KCAL/MOL
REMARK 924 INTRA-LIGAND FREE ENERGY PREDICTED BY IDOCK:   -2.48 KCAL/MOL
REMARK 927      BINDING AFFINITY PREDICTED BY RF-SCORE:    0.00 PKD
ROOT
HETATM    1  C   UNL     1     -10.316   6.166  73.833  1.00  0.00    -0.294 C  
HETATM    2  O   UNL     1     -11.376   6.871  73.191  1.00  0.00    -0.181 OA 
ENDROOT
BRANCH   2   3
HETATM    3  C   UNL     1     -11.018   7.912  72.370  1.00  0.00    -0.325 A  
HETATM    4  C   UNL     1      -9.679   8.103  72.010  1.00  0.00    -0.292 A  
HETATM    5  C   UNL     1      -9.288   9.152  71.176  1.00  0.00    -0.313 A  
HETATM    6  C   UNL     1     -10.255  10.023  70.686  1.00  0.00    -0.080 A  
HETATM    7  C   UNL     1     -12.014   8.768  71.845  1.00  0.00    -0.365 A  
HETATM    8  C   UNL     1     -11.614   9.838  71.005  1.00  0.00    -0.376 A  
BRANCH   5   9
HETATM    9  C   UNL     1      -7.840   9.264  70.876  1.00  0.00    -0.113 C  
HETATM   10  O   UNL     1      -6.979   9.067  71.722  1.00  0.00    -0.252 OA 
BRANCH   9  11
HETATM   11  O   UNL     1      -7.615   9.641  69.593  1.00  0.00    -0.088 OA 
BRANCH  11  12
HETATM   12  C   UNL     1      -7.188   8.570  68.732  1.00  0.00    -0.078 C  
BRANCH  12  13
HETATM   13  C   UNL     1      -8.387   8.027  67.960  1.00  0.00    -0.126 C  
BRANCH  13  14
HETATM   14  C   UNL     1      -9.146   9.141  67.238  1.00  0.00    -0.126 C  
BRANCH  14  15
HETATM   15  N   UNL     1      -8.302   9.921  66.309  1.00  0.00    -0.123 NA 
HETATM   16  C   UNL     1      -7.914   9.123  65.139  1.00  0.00    -0.117 C  
BRANCH  15  17
HETATM   17  C   UNL     1      -9.038  11.152  65.914  1.00  0.00    -0.203 C  
BRANCH  17  18
HETATM   18  C   UNL     1     -10.236  10.896  64.968  1.00  0.00    -0.303 C  
BRANCH  18  19
HETATM   19  N   UNL     1     -10.336  11.784  63.786  1.00  0.00    -0.366 NA 
HETATM   20  C   UNL     1      -9.783  11.136  62.592  1.00  0.00    -0.189 C  
BRANCH  19  21
HETATM   21  C   UNL     1     -11.746  12.155  63.531  1.00  0.00    -0.490 C  
BRANCH  21  22
HETATM   22  C   UNL     1     -12.488  12.627  64.785  1.00  0.00    -0.555 C  
BRANCH  22  23
HETATM   23  C   UNL     1     -12.226  14.099  65.078  1.00  0.00    -0.441 C  
BRANCH  23  24
HETATM   24  O   UNL     1     -11.055  14.224  65.902  1.00  0.00    -0.302 OA 
BRANCH  24  25
HETATM   25  C   UNL     1     -11.240  14.846  67.094  1.00  0.00    -0.343 C  
HETATM   26  O   UNL     1     -12.160  14.652  67.871  1.00  0.00    -0.304 OA 
BRANCH  25  27
HETATM   27  C   UNL     1     -10.136  15.808  67.354  1.00  0.00    -0.246 A  
HETATM   28  C   UNL     1     -10.107  16.990  66.613  1.00  0.00    -0.308 A  
HETATM   29  C   UNL     1      -9.068  17.904  66.789  1.00  0.00    -0.268 A  
HETATM   30  C   UNL     1      -8.026  17.629  67.708  1.00  0.00    -0.218 A  
HETATM   31  C   UNL     1      -9.134  15.550  68.294  1.00  0.00    -0.186 A  
HETATM   32  C   UNL     1      -8.066  16.442  68.475  1.00  0.00    -0.205 A  
BRANCH  29  33
HETATM   33  O   UNL     1      -8.971  19.069  66.061  1.00  0.00    -0.456 OA 
HETATM   34  C   UNL     1      -9.875  20.112  66.413  1.00  0.00    -0.435 C  
ENDBRANCH  29  33
BRANCH  30  35
HETATM   35  O   UNL     1      -7.010  18.555  67.717  1.00  0.00    -0.210 OA 
HETATM   36  C   UNL     1      -7.001  19.539  68.742  1.00  0.00    -0.336 C  
ENDBRANCH  30  35
BRANCH  32  37
HETATM   37  O   UNL     1      -7.043  16.191  69.350  1.00  0.00    -0.215 OA 
HETATM   38  C   UNL     1      -6.893  14.870  69.855  1.00  0.00    -0.167 C  
ENDBRANCH  32  37
ENDBRANCH  25  27
ENDBRANCH  24  25
ENDBRANCH  23  24
ENDBRANCH  22  23
ENDBRANCH  21  22
ENDBRANCH  19  21
ENDBRANCH  18  19
ENDBRANCH  17  18
ENDBRANCH  15  17
ENDBRANCH  14  15
ENDBRANCH  13  14
ENDBRANCH  12  13
ENDBRANCH  11  12
ENDBRANCH   9  11
ENDBRANCH   5   9
BRANCH   8  39
HETATM   39  O   UNL     1     -12.395  10.798  70.404  1.00  0.00    -0.306 OA 
HETATM   40  C   UNL     1     -11.969  11.396  69.189  1.00  0.00    -0.328 C  
ENDBRANCH   8  39
BRANCH   7  41
HETATM   41  O   UNL     1     -13.358   8.667  72.090  1.00  0.00    -0.361 OA 
HETATM   42  C   UNL     1     -14.185   7.835  71.293  1.00  0.00    -0.283 C  
ENDBRANCH   7  41
ENDBRANCH   2   3
TORSDOF 21
ENDMDL
MODEL       54
REMARK 921   NORMALIZED FREE ENERGY PREDICTED BY IDOCK:   -4.85 KCAL/MOL
REMARK 922        TOTAL FREE ENERGY PREDICTED BY IDOCK:  -13.67 KCAL/MOL
REMARK 923 INTER-LIGAND FREE ENERGY PREDICTED BY IDOCK:  -10.92 KCAL/MOL
REMARK 924 INTRA-LIGAND FREE ENERGY PREDICTED BY IDOCK:   -2.75 KCAL/MOL
REMARK 927      BINDING AFFINITY PREDICTED BY RF-SCORE:    0.00 PKD
ROOT
HETATM    1  C   UNL     1     -11.364  10.403  68.947  1.00  0.00    -0.219 C  
HETATM    2  O   UNL     1     -11.593  10.815  67.602  1.00  0.00    -0.523 OA 
ENDROOT
BRANCH   2   3
HETATM    3  C   UNL     1     -11.661  12.167  67.371  1.00  0.00    -0.340 A  
HETATM    4  C   UNL     1     -11.538  13.074  68.431  1.00  0.00    -0.370 A  
HETATM    5  C   UNL     1     -11.603  14.453  68.224  1.00  0.00    -0.359 A  
HETATM    6  C   UNL     1     -11.785  14.936  66.933  1.00  0.00    -0.260 A  
HETATM    7  C   UNL     1     -11.807  12.649  66.050  1.00  0.00    -0.436 A  
HETATM    8  C   UNL     1     -11.880  14.050  65.843  1.00  0.00    -0.383 A  
BRANCH   5   9
HETATM    9  C   UNL     1     -11.475  15.315  69.425  1.00  0.00    -0.315 C  
HETATM   10  O   UNL     1     -12.406  15.980  69.855  1.00  0.00    -0.215 OA 
BRANCH   9  11
HETATM   11  O   UNL     1     -10.217  15.296  69.932  1.00  0.00    -0.263 OA 
BRANCH  11  12
HETATM   12  C   UNL     1      -9.269  16.078  69.183  1.00  0.00    -0.247 C  
BRANCH  12  13
HETATM   13  C   UNL     1      -7.975  15.287  69.013  1.00  0.00    -0.195 C  
BRANCH  13  14
HETATM   14  C   UNL     1      -7.917  14.584  67.656  1.00  0.00    -0.177 C  
BRANCH  14  15
HETATM   15  N   UNL     1      -6.591  14.008  67.349  1.00  0.00    -0.278 NA 
HETATM   16  C   UNL     1      -5.541  14.606  68.184  1.00  0.00    -0.123 C  
BRANCH  15  17
HETATM   17  C   UNL     1      -6.659  12.532  67.529  1.00  0.00    -0.150 C  
BRANCH  17  18
HETATM   18  C   UNL     1      -8.066  11.931  67.297  1.00  0.00    -0.171 C  
BRANCH  18  19
HETATM   19  N   UNL     1      -8.113  10.640  66.571  1.00  0.00    -0.134 NA 
HETATM   20  C   UNL     1      -6.939  10.477  65.707  1.00  0.00    -0.125 C  
BRANCH  19  21
HETATM   21  C   UNL     1      -8.177   9.509  67.524  1.00  0.00    -0.121 C  
BRANCH  21  22
HETATM   22  C   UNL     1      -7.609   8.204  66.958  1.00  0.00    -0.096 C  
BRANCH  22  23
HETATM   23  C   UNL     1      -8.707   7.289  66.431  1.00  0.00    -0.142 C  
BRANCH  23  24
HETATM   24  O   UNL     1      -9.886   7.439  67.239  1.00  0.00    -0.150 OA 
BRANCH  24  25
HETATM   25  C   UNL     1     -10.571   6.296  67.495  1.00  0.00    -0.278 C  
HETATM   26  O   UNL     1     -10.996   5.510  66.663  1.00  0.00    -0.244 OA 
BRANCH  25  27
HETATM   27  C   UNL     1     -10.726   6.101  68.961  1.00  0.00    -0.377 A  
HETATM   28  C   UNL     1      -9.916   5.152  69.586  1.00  0.00    -0.313 A  
HETATM   29  C   UNL     1     -10.054   4.900  70.951  1.00  0.00    -0.222 A  
HETATM   30  C   UNL     1     -11.028   5.595  71.708  1.00  0.00    -0.226 A  
HETATM   31  C   UNL     1     -11.661   6.821  69.711  1.00  0.00    -0.284 A  
HETATM   32  C   UNL     1     -11.834   6.573  71.081  1.00  0.00    -0.325 A  
BRANCH  29  33
HETATM   33  O   UNL     1      -9.305   3.952  71.611  1.00  0.00    -0.119 OA 
HETATM   34  C   UNL     1      -9.502   2.599  71.211  1.00  0.00    -0.148 C  
ENDBRANCH  29  33
BRANCH  30  35
HETATM   35  O   UNL     1     -11.135   5.188  73.017  1.00  0.00    -0.268 OA 
HETATM   36  C   UNL     1     -10.466   5.944  74.017  1.00  0.00    -0.261 C  
ENDBRANCH  30  35
BRANCH  32  37
HETATM   37  O   UNL     1     -12.777   7.225  71.829  1.00  0.00    -0.332 OA 
HETATM   38  C   UNL     1     -12.662   8.634  71.985  1.00  0.00    -0.376 C  
ENDBRANCH  32  37
ENDBRANCH  25  27
ENDBRANCH  24  25
ENDBRANCH  23  24
ENDBRANCH  22  23
ENDBRANCH  21  22
ENDBRANCH  19  21
ENDBRANCH  18  19
ENDBRANCH  17  18
ENDBRANCH  15  17
ENDBRANCH  14  15
ENDBRANCH  13  14
ENDBRANCH  12  13
ENDBRANCH  11  12
ENDBRANCH   9  11
ENDBRANCH   5   9
BRANCH   8  39
HETATM   39  O   UNL     1     -12.041  14.738  64.663  1.00  0.00    -0.443 OA 
HETATM   40  C   UNL     1     -11.386  15.983  64.477  1.00  0.00    -0.295 C  
ENDBRANCH   8  39
BRANCH   7  41
HETATM   41  O   UNL     1     -11.902  11.871  64.926  1.00  0.00    -0.277 OA 
HETATM   42  C   UNL     1     -10.747  11.301  64.334  1.00  0.00    -0.339 C  
ENDBRANCH   7  41
ENDBRANCH   2   3
TORSDOF 21
ENDMDL
MODEL       55
REMARK 921   NORMALIZED FREE ENERGY PREDICTED BY IDOCK:   -4.85 KCAL/MOL
REMARK 922        TOTAL FREE ENERGY PREDICTED BY IDOCK:  -13.66 KCAL/MOL
REMARK 923 INTER-LIGAND FREE ENERGY PREDICTED BY IDOCK:  -11.51 KCAL/MOL
REMARK 924 INTRA-LIGAND FREE ENERGY PREDICTED BY IDOCK:   -2.15 KCAL/MOL
REMARK 927      BINDING AFFINITY PREDICTED BY RF-SCORE:    0.00 PKD
ROOT
HETATM    1  C   UNL     1      -6.613   6.461  64.305  1.00  0.00    -0.034 C  
HETATM    2  O   UNL     1      -7.238   7.718  64.056  1.00  0.00    -0.071 OA 
ENDROOT
BRANCH   2   3
HETATM    3  C   UNL     1      -8.278   8.066  64.882  1.00  0.00    -0.134 A  
HETATM    4  C   UNL     1      -8.898   7.102  65.686  1.00  0.00    -0.043 A  
HETATM    5  C   UNL     1      -9.957   7.429  66.534  1.00  0.00    -0.194 A  
HETATM    6  C   UNL     1     -10.401   8.746  66.586  1.00  0.00    -0.298 A  
HETATM    7  C   UNL     1      -8.696   9.415  64.956  1.00  0.00    -0.186 A  
HETATM    8  C   UNL     1      -9.777   9.743  65.813  1.00  0.00    -0.273 A  
BRANCH   5   9
HETATM    9  C   UNL     1     -10.544   6.322  67.328  1.00  0.00    -0.302 C  
HETATM   10  O   UNL     1     -10.673   5.191  66.879  1.00  0.00    -0.230 OA 
BRANCH   9  11
HETATM   11  O   UNL     1     -10.942   6.733  68.557  1.00  0.00    -0.231 OA 
BRANCH  11  12
HETATM   12  C   UNL     1     -10.731   5.762  69.599  1.00  0.00    -0.346 C  
BRANCH  12  13
HETATM   13  C   UNL     1      -9.383   6.016  70.268  1.00  0.00    -0.176 C  
BRANCH  13  14
HETATM   14  C   UNL     1      -9.512   6.083  71.790  1.00  0.00    -0.151 C  
BRANCH  14  15
HETATM   15  N   UNL     1     -10.913   6.148  72.259  1.00  0.00    -0.246 NA 
HETATM   16  C   UNL     1     -11.193   5.104  73.254  1.00  0.00    -0.321 C  
BRANCH  15  17
HETATM   17  C   UNL     1     -11.172   7.508  72.803  1.00  0.00    -0.352 C  
BRANCH  17  18
HETATM   18  C   UNL     1     -12.046   8.399  71.889  1.00  0.00    -0.342 C  
BRANCH  18  19
HETATM   19  N   UNL     1     -11.486   9.726  71.541  1.00  0.00    -0.366 NA 
HETATM   20  C   UNL     1     -10.403   9.601  70.560  1.00  0.00    -0.295 C  
BRANCH  19  21
HETATM   21  C   UNL     1     -12.541  10.609  70.993  1.00  0.00    -0.416 C  
BRANCH  21  22
HETATM   22  C   UNL     1     -11.995  11.723  70.095  1.00  0.00    -0.421 C  
BRANCH  22  23
HETATM   23  C   UNL     1     -12.447  13.100  70.563  1.00  0.00    -0.248 C  
BRANCH  23  24
HETATM   24  O   UNL     1     -12.090  14.085  69.579  1.00  0.00    -0.320 OA 
BRANCH  24  25
HETATM   25  C   UNL     1     -11.366  15.137  70.037  1.00  0.00    -0.277 C  
HETATM   26  O   UNL     1     -11.093  15.369  71.203  1.00  0.00    -0.353 OA 
BRANCH  25  27
HETATM   27  C   UNL     1     -10.912  15.987  68.904  1.00  0.00    -0.309 A  
HETATM   28  C   UNL     1     -10.370  17.239  69.198  1.00  0.00    -0.290 A  
HETATM   29  C   UNL     1      -9.971  18.091  68.168  1.00  0.00    -0.353 A  
HETATM   30  C   UNL     1     -10.129  17.697  66.816  1.00  0.00    -0.334 A  
HETATM   31  C   UNL     1     -11.031  15.574  67.573  1.00  0.00    -0.316 A  
HETATM   32  C   UNL     1     -10.657  16.420  66.518  1.00  0.00    -0.235 A  
BRANCH  29  33
HETATM   33  O   UNL     1      -9.463  19.349  68.399  1.00  0.00    -0.337 OA 
HETATM   34  C   UNL     1      -8.068  19.426  68.681  1.00  0.00    -0.366 C  
ENDBRANCH  29  33
BRANCH  30  35
HETATM   35  O   UNL     1      -9.793  18.661  65.895  1.00  0.00    -0.510 OA 
HETATM   36  C   UNL     1     -10.759  19.650  65.569  1.00  0.00    -0.225 C  
ENDBRANCH  30  35
BRANCH  32  37
HETATM   37  O   UNL     1     -10.811  16.064  65.205  1.00  0.00    -0.418 OA 
HETATM   38  C   UNL     1     -11.200  14.728  64.906  1.00  0.00    -0.406 C  
ENDBRANCH  32  37
ENDBRANCH  25  27
ENDBRANCH  24  25
ENDBRANCH  23  24
ENDBRANCH  22  23
ENDBRANCH  21  22
ENDBRANCH  19  21
ENDBRANCH  18  19
ENDBRANCH  17  18
ENDBRANCH  15  17
ENDBRANCH  14  15
ENDBRANCH  13  14
ENDBRANCH  12  13
ENDBRANCH  11  12
ENDBRANCH   9  11
ENDBRANCH   5   9
BRANCH   8  39
HETATM   39  O   UNL     1     -10.362  10.969  66.029  1.00  0.00    -0.244 OA 
HETATM   40  C   UNL     1      -9.902  11.795  67.088  1.00  0.00    -0.193 C  
ENDBRANCH   8  39
BRANCH   7  41
HETATM   41  O   UNL     1      -8.151  10.456  64.251  1.00  0.00    -0.160 OA 
HETATM   42  C   UNL     1      -8.597  10.762  62.941  1.00  0.00    -0.190 C  
ENDBRANCH   7  41
ENDBRANCH   2   3
TORSDOF 21
ENDMDL
MODEL       56
REMARK 921   NORMALIZED FREE ENERGY PREDICTED BY IDOCK:   -4.84 KCAL/MOL
REMARK 922        TOTAL FREE ENERGY PREDICTED BY IDOCK:  -13.63 KCAL/MOL
REMARK 923 INTER-LIGAND FREE ENERGY PREDICTED BY IDOCK:  -11.02 KCAL/MOL
REMARK 924 INTRA-LIGAND FREE ENERGY PREDICTED BY IDOCK:   -2.61 KCAL/MOL
REMARK 927      BINDING AFFINITY PREDICTED BY RF-SCORE:    0.00 PKD
ROOT
HETATM    1  C   UNL     1     -11.497  16.332  70.585  1.00  0.00    -0.272 C  
HETATM    2  O   UNL     1     -12.704  15.578  70.676  1.00  0.00    -0.439 OA 
ENDROOT
BRANCH   2   3
HETATM    3  C   UNL     1     -12.601  14.221  70.494  1.00  0.00    -0.353 A  
HETATM    4  C   UNL     1     -12.106  13.703  69.291  1.00  0.00    -0.360 A  
HETATM    5  C   UNL     1     -11.990  12.328  69.080  1.00  0.00    -0.303 A  
HETATM    6  C   UNL     1     -12.369  11.454  70.092  1.00  0.00    -0.344 A  
HETATM    7  C   UNL     1     -12.953  13.341  71.544  1.00  0.00    -0.337 A  
HETATM    8  C   UNL     1     -12.841  11.945  71.324  1.00  0.00    -0.290 A  
BRANCH   5   9
HETATM    9  C   UNL     1     -11.466  11.897  67.761  1.00  0.00    -0.319 C  
HETATM   10  O   UNL     1     -11.643  10.768  67.324  1.00  0.00    -0.439 OA 
BRANCH   9  11
HETATM   11  O   UNL     1     -10.754  12.877  67.152  1.00  0.00    -0.249 OA 
BRANCH  11  12
HETATM   12  C   UNL     1      -9.528  12.425  66.550  1.00  0.00    -0.242 C  
BRANCH  12  13
HETATM   13  C   UNL     1      -8.341  13.066  67.265  1.00  0.00    -0.186 C  
BRANCH  13  14
HETATM   14  C   UNL     1      -7.948  12.284  68.519  1.00  0.00    -0.107 C  
BRANCH  14  15
HETATM   15  N   UNL     1      -8.010  10.818  68.340  1.00  0.00    -0.117 NA 
HETATM   16  C   UNL     1      -6.687  10.260  68.030  1.00  0.00    -0.066 C  
BRANCH  15  17
HETATM   17  C   UNL     1      -8.585  10.211  69.571  1.00  0.00    -0.164 C  
BRANCH  17  18
HETATM   18  C   UNL     1      -7.567   9.412  70.419  1.00  0.00    -0.145 C  
BRANCH  18  19
HETATM   19  N   UNL     1      -7.998   8.063  70.856  1.00  0.00    -0.091 NA 
HETATM   20  C   UNL     1      -6.991   7.052  70.517  1.00  0.00    -0.062 C  
BRANCH  19  21
HETATM   21  C   UNL     1      -8.238   8.041  72.316  1.00  0.00    -0.141 C  
BRANCH  21  22
HETATM   22  C   UNL     1      -9.674   8.409  72.702  1.00  0.00    -0.332 C  
BRANCH  22  23
HETATM   23  C   UNL     1     -10.352   7.293  73.487  1.00  0.00    -0.366 C  
BRANCH  23  24
HETATM   24  O   UNL     1     -10.461   6.122  72.660  1.00  0.00    -0.194 OA 
BRANCH  24  25
HETATM   25  C   UNL     1     -11.403   6.176  71.685  1.00  0.00    -0.284 C  
HETATM   26  O   UNL     1     -12.572   6.496  71.832  1.00  0.00    -0.341 OA 
BRANCH  25  27
HETATM   27  C   UNL     1     -10.812   5.810  70.372  1.00  0.00    -0.360 A  
HETATM   28  C   UNL     1     -11.077   6.636  69.279  1.00  0.00    -0.345 A  
HETATM   29  C   UNL     1     -10.582   6.311  68.016  1.00  0.00    -0.262 A  
HETATM   30  C   UNL     1      -9.820   5.131  67.832  1.00  0.00    -0.155 A  
HETATM   31  C   UNL     1     -10.025   4.666  70.205  1.00  0.00    -0.309 A  
HETATM   32  C   UNL     1      -9.532   4.305  68.942  1.00  0.00    -0.168 A  
BRANCH  29  33
HETATM   33  O   UNL     1     -10.841   7.071  66.897  1.00  0.00    -0.354 OA 
HETATM   34  C   UNL     1     -10.046   8.241  66.729  1.00  0.00    -0.303 C  
ENDBRANCH  29  33
BRANCH  30  35
HETATM   35  O   UNL     1      -9.475   4.869  66.527  1.00  0.00    -0.132 OA 
HETATM   36  C   UNL     1     -10.493   4.448  65.629  1.00  0.00    -0.193 C  
ENDBRANCH  30  35
BRANCH  32  37
HETATM   37  O   UNL     1      -8.804   3.164  68.740  1.00  0.00    -0.093 OA 
HETATM   38  C   UNL     1      -9.472   2.016  68.229  1.00  0.00    -0.174 C  
ENDBRANCH  32  37
ENDBRANCH  25  27
ENDBRANCH  24  25
ENDBRANCH  23  24
ENDBRANCH  22  23
ENDBRANCH  21  22
ENDBRANCH  19  21
ENDBRANCH  18  19
ENDBRANCH  17  18
ENDBRANCH  15  17
ENDBRANCH  14  15
ENDBRANCH  13  14
ENDBRANCH  12  13
ENDBRANCH  11  12
ENDBRANCH   9  11
ENDBRANCH   5   9
BRANCH   8  39
HETATM   39  O   UNL     1     -13.143  10.913  72.182  1.00  0.00    -0.463 OA 
HETATM   40  C   UNL     1     -13.564   9.662  71.662  1.00  0.00    -0.324 C  
ENDBRANCH   8  39
BRANCH   7  41
HETATM   41  O   UNL     1     -13.415  13.721  72.777  1.00  0.00    -0.616 OA 
HETATM   42  C   UNL     1     -12.664  14.598  73.600  1.00  0.00    -0.228 C  
ENDBRANCH   7  41
ENDBRANCH   2   3
TORSDOF 21
ENDMDL
MODEL       57
REMARK 921   NORMALIZED FREE ENERGY PREDICTED BY IDOCK:   -4.82 KCAL/MOL
REMARK 922        TOTAL FREE ENERGY PREDICTED BY IDOCK:  -13.60 KCAL/MOL
REMARK 923 INTER-LIGAND FREE ENERGY PREDICTED BY IDOCK:  -10.96 KCAL/MOL
REMARK 924 INTRA-LIGAND FREE ENERGY PREDICTED BY IDOCK:   -2.64 KCAL/MOL
REMARK 927      BINDING AFFINITY PREDICTED BY RF-SCORE:    0.00 PKD
ROOT
HETATM    1  C   UNL     1     -10.542  19.553  65.731  1.00  0.00    -0.427 C  
HETATM    2  O   UNL     1      -9.357  19.060  66.351  1.00  0.00    -0.328 OA 
ENDROOT
BRANCH   2   3
HETATM    3  C   UNL     1      -9.223  17.696  66.436  1.00  0.00    -0.244 A  
HETATM    4  C   UNL     1     -10.292  16.857  66.099  1.00  0.00    -0.327 A  
HETATM    5  C   UNL     1     -10.183  15.468  66.175  1.00  0.00    -0.322 A  
HETATM    6  C   UNL     1      -8.981  14.905  66.589  1.00  0.00    -0.301 A  
HETATM    7  C   UNL     1      -7.984  17.133  66.821  1.00  0.00    -0.235 A  
HETATM    8  C   UNL     1      -7.879  15.721  66.905  1.00  0.00    -0.236 A  
BRANCH   5   9
HETATM    9  C   UNL     1     -11.387  14.682  65.807  1.00  0.00    -0.340 C  
HETATM   10  O   UNL     1     -12.083  14.121  66.642  1.00  0.00    -0.429 OA 
BRANCH   9  11
HETATM   11  O   UNL     1     -11.574  14.639  64.465  1.00  0.00    -0.397 OA 
BRANCH  11  12
HETATM   12  C   UNL     1     -12.252  13.457  64.003  1.00  0.00    -0.405 C  
BRANCH  12  13
HETATM   13  C   UNL     1     -11.231  12.463  63.457  1.00  0.00    -0.540 C  
BRANCH  13  14
HETATM   14  C   UNL     1     -11.065  11.258  64.384  1.00  0.00    -0.203 C  
BRANCH  14  15
HETATM   15  N   UNL     1      -9.728  11.178  65.010  1.00  0.00    -0.240 NA 
HETATM   16  C   UNL     1      -9.807  11.351  66.466  1.00  0.00    -0.208 C  
BRANCH  15  17
HETATM   17  C   UNL     1      -9.108   9.875  64.646  1.00  0.00    -0.242 C  
BRANCH  17  18
HETATM   18  C   UNL     1      -7.608   9.968  64.278  1.00  0.00    -0.141 C  
BRANCH  18  19
HETATM   19  N   UNL     1      -6.652   9.502  65.310  1.00  0.00    -0.078 NA 
HETATM   20  C   UNL     1      -6.069  10.633  66.039  1.00  0.00    -0.131 C  
BRANCH  19  21
HETATM   21  C   UNL     1      -7.322   8.597  66.269  1.00  0.00    -0.086 C  
BRANCH  21  22
HETATM   22  C   UNL     1      -7.078   7.113  65.977  1.00  0.00    -0.073 C  
BRANCH  22  23
HETATM   23  C   UNL     1      -8.337   6.281  66.186  1.00  0.00    -0.130 C  
BRANCH  23  24
HETATM   24  O   UNL     1      -9.402   7.128  66.651  1.00  0.00    -0.155 OA 
BRANCH  24  25
HETATM   25  C   UNL     1     -10.400   6.500  67.323  1.00  0.00    -0.222 C  
HETATM   26  O   UNL     1     -10.990   5.496  66.961  1.00  0.00    -0.190 OA 
BRANCH  25  27
HETATM   27  C   UNL     1     -10.677   7.197  68.607  1.00  0.00    -0.198 A  
HETATM   28  C   UNL     1     -11.110   6.431  69.690  1.00  0.00    -0.465 A  
HETATM   29  C   UNL     1     -11.426   7.045  70.903  1.00  0.00    -0.308 A  
HETATM   30  C   UNL     1     -11.326   8.451  71.037  1.00  0.00    -0.266 A  
HETATM   31  C   UNL     1     -10.535   8.582  68.746  1.00  0.00    -0.208 A  
HETATM   32  C   UNL     1     -10.866   9.226  69.947  1.00  0.00    -0.234 A  
BRANCH  29  33
HETATM   33  O   UNL     1     -11.890   6.342  71.992  1.00  0.00    -0.317 OA 
HETATM   34  C   UNL     1     -10.938   5.533  72.676  1.00  0.00    -0.270 C  
ENDBRANCH  29  33
BRANCH  30  35
HETATM   35  O   UNL     1     -11.760   8.944  72.244  1.00  0.00    -0.354 OA 
HETATM   36  C   UNL     1     -13.108   9.382  72.352  1.00  0.00    -0.379 C  
ENDBRANCH  30  35
BRANCH  32  37
HETATM   37  O   UNL     1     -10.787  10.584  70.096  1.00  0.00    -0.283 OA 
HETATM   38  C   UNL     1     -11.824  11.387  69.543  1.00  0.00    -0.357 C  
ENDBRANCH  32  37
ENDBRANCH  25  27
ENDBRANCH  24  25
ENDBRANCH  23  24
ENDBRANCH  22  23
ENDBRANCH  21  22
ENDBRANCH  19  21
ENDBRANCH  18  19
ENDBRANCH  17  18
ENDBRANCH  15  17
ENDBRANCH  14  15
ENDBRANCH  13  14
ENDBRANCH  12  13
ENDBRANCH  11  12
ENDBRANCH   9  11
ENDBRANCH   5   9
BRANCH   8  39
HETATM   39  O   UNL     1      -6.793  14.961  67.272  1.00  0.00    -0.254 OA 
HETATM   40  C   UNL     1      -6.605  14.610  68.634  1.00  0.00    -0.085 C  
ENDBRANCH   8  39
BRANCH   7  41
HETATM   41  O   UNL     1      -6.855  17.840  67.140  1.00  0.00    -0.163 OA 
HETATM   42  C   UNL     1      -5.893  18.165  66.151  1.00  0.00    -0.189 C  
ENDBRANCH   7  41
ENDBRANCH   2   3
TORSDOF 21
ENDMDL
MODEL       58
REMARK 921   NORMALIZED FREE ENERGY PREDICTED BY IDOCK:   -4.80 KCAL/MOL
REMARK 922        TOTAL FREE ENERGY PREDICTED BY IDOCK:  -13.55 KCAL/MOL
REMARK 923 INTER-LIGAND FREE ENERGY PREDICTED BY IDOCK:  -10.77 KCAL/MOL
REMARK 924 INTRA-LIGAND FREE ENERGY PREDICTED BY IDOCK:   -2.79 KCAL/MOL
REMARK 927      BINDING AFFINITY PREDICTED BY RF-SCORE:    0.00 PKD
ROOT
HETATM    1  C   UNL     1     -12.906  15.002  73.402  1.00  0.00    -0.528 C  
HETATM    2  O   UNL     1     -13.634  14.533  72.269  1.00  0.00    -0.366 OA 
ENDROOT
BRANCH   2   3
HETATM    3  C   UNL     1     -13.068  13.510  71.549  1.00  0.00    -0.344 A  
HETATM    4  C   UNL     1     -13.232  12.181  71.957  1.00  0.00    -0.496 A  
HETATM    5  C   UNL     1     -12.669  11.122  71.244  1.00  0.00    -0.531 A  
HETATM    6  C   UNL     1     -11.933  11.395  70.096  1.00  0.00    -0.460 A  
HETATM    7  C   UNL     1     -12.354  13.796  70.362  1.00  0.00    -0.353 A  
HETATM    8  C   UNL     1     -11.776  12.718  69.644  1.00  0.00    -0.302 A  
BRANCH   5   9
HETATM    9  C   UNL     1     -12.898   9.758  71.780  1.00  0.00    -0.434 C  
HETATM   10  O   UNL     1     -14.007   9.362  72.111  1.00  0.00    -0.379 OA 
BRANCH   9  11
HETATM   11  O   UNL     1     -11.744   9.053  71.887  1.00  0.00    -0.346 OA 
BRANCH  11  12
HETATM   12  C   UNL     1     -11.560   8.067  70.855  1.00  0.00    -0.269 C  
BRANCH  12  13
HETATM   13  C   UNL     1     -11.849   6.678  71.418  1.00  0.00    -0.388 C  
BRANCH  13  14
HETATM   14  C   UNL     1     -10.790   5.663  70.989  1.00  0.00    -0.219 C  
BRANCH  14  15
HETATM   15  N   UNL     1      -9.880   5.265  72.083  1.00  0.00    -0.167 NA 
HETATM   16  C   UNL     1     -10.606   5.096  73.349  1.00  0.00    -0.255 C  
BRANCH  15  17
HETATM   17  C   UNL     1      -9.173   4.017  71.686  1.00  0.00    -0.126 C  
BRANCH  17  18
HETATM   18  C   UNL     1      -9.694   3.384  70.375  1.00  0.00    -0.080 C  
BRANCH  18  19
HETATM   19  N   UNL     1      -8.763   3.408  69.222  1.00  0.00    -0.071 NA 
HETATM   20  C   UNL     1      -7.540   2.654  69.516  1.00  0.00    -0.043 C  
BRANCH  19  21
HETATM   21  C   UNL     1      -9.410   2.839  68.018  1.00  0.00    -0.204 C  
BRANCH  21  22
HETATM   22  C   UNL     1      -9.068   3.594  66.730  1.00  0.00    -0.178 C  
BRANCH  22  23
HETATM   23  C   UNL     1      -8.714   5.050  67.003  1.00  0.00    -0.103 C  
BRANCH  23  24
HETATM   24  O   UNL     1      -9.593   5.907  66.255  1.00  0.00    -0.158 OA 
BRANCH  24  25
HETATM   25  C   UNL     1     -10.339   6.770  66.991  1.00  0.00    -0.268 C  
HETATM   26  O   UNL     1     -11.402   6.518  67.535  1.00  0.00    -0.284 OA 
BRANCH  25  27
HETATM   27  C   UNL     1      -9.667   8.094  67.074  1.00  0.00    -0.275 A  
HETATM   28  C   UNL     1      -9.058   8.446  68.279  1.00  0.00    -0.139 A  
HETATM   29  C   UNL     1      -8.453   9.696  68.421  1.00  0.00    -0.118 A  
HETATM   30  C   UNL     1      -8.470  10.621  67.349  1.00  0.00    -0.122 A  
HETATM   31  C   UNL     1      -9.650   8.986  65.997  1.00  0.00    -0.342 A  
HETATM   32  C   UNL     1      -9.067  10.256  66.121  1.00  0.00    -0.155 A  
BRANCH  29  33
HETATM   33  O   UNL     1      -7.868  10.108  69.597  1.00  0.00    -0.147 OA 
HETATM   34  C   UNL     1      -6.708   9.392  70.012  1.00  0.00    -0.063 C  
ENDBRANCH  29  33
BRANCH  30  35
HETATM   35  O   UNL     1      -7.932  11.851  67.645  1.00  0.00    -0.129 OA 
HETATM   36  C   UNL     1      -6.581  12.103  67.286  1.00  0.00    -0.146 C  
ENDBRANCH  30  35
BRANCH  32  37
HETATM   37  O   UNL     1      -9.082  11.170  65.101  1.00  0.00    -0.202 OA 
HETATM   38  C   UNL     1      -9.558  10.755  63.826  1.00  0.00    -0.295 C  
ENDBRANCH  32  37
ENDBRANCH  25  27
ENDBRANCH  24  25
ENDBRANCH  23  24
ENDBRANCH  22  23
ENDBRANCH  21  22
ENDBRANCH  19  21
ENDBRANCH  18  19
ENDBRANCH  17  18
ENDBRANCH  15  17
ENDBRANCH  14  15
ENDBRANCH  13  14
ENDBRANCH  12  13
ENDBRANCH  11  12
ENDBRANCH   9  11
ENDBRANCH   5   9
BRANCH   8  39
HETATM   39  O   UNL     1     -11.030  12.758  68.489  1.00  0.00    -0.237 OA 
HETATM   40  C   UNL     1     -11.681  12.788  67.228  1.00  0.00    -0.378 C  
ENDBRANCH   8  39
BRANCH   7  41
HETATM   41  O   UNL     1     -12.152  15.045  69.838  1.00  0.00    -0.308 OA 
HETATM   42  C   UNL     1     -11.027  15.821  70.213  1.00  0.00    -0.357 C  
ENDBRANCH   7  41
ENDBRANCH   2   3
TORSDOF 21
ENDMDL
MODEL       59
REMARK 921   NORMALIZED FREE ENERGY PREDICTED BY IDOCK:   -4.79 KCAL/MOL
REMARK 922        TOTAL FREE ENERGY PREDICTED BY IDOCK:  -13.52 KCAL/MOL
REMARK 923 INTER-LIGAND FREE ENERGY PREDICTED BY IDOCK:  -10.55 KCAL/MOL
REMARK 924 INTRA-LIGAND FREE ENERGY PREDICTED BY IDOCK:   -2.97 KCAL/MOL
REMARK 927      BINDING AFFINITY PREDICTED BY RF-SCORE:    0.00 PKD
ROOT
HETATM    1  C   UNL     1      -9.152   9.256  65.516  1.00  0.00    -0.221 C  
HETATM    2  O   UNL     1     -10.337  10.033  65.674  1.00  0.00    -0.233 OA 
ENDROOT
BRANCH   2   3
HETATM    3  C   UNL     1     -10.169  11.372  65.928  1.00  0.00    -0.246 A  
HETATM    4  C   UNL     1      -9.028  11.829  66.600  1.00  0.00    -0.195 A  
HETATM    5  C   UNL     1      -8.832  13.184  66.870  1.00  0.00    -0.184 A  
HETATM    6  C   UNL     1      -9.790  14.102  66.455  1.00  0.00    -0.298 A  
HETATM    7  C   UNL     1     -11.130  12.302  65.468  1.00  0.00    -0.307 A  
HETATM    8  C   UNL     1     -10.932  13.677  65.750  1.00  0.00    -0.278 A  
BRANCH   5   9
HETATM    9  C   UNL     1      -7.593  13.547  67.601  1.00  0.00    -0.177 C  
HETATM   10  O   UNL     1      -6.672  12.759  67.760  1.00  0.00    -0.102 OA 
BRANCH   9  11
HETATM   11  O   UNL     1      -7.642  14.813  68.085  1.00  0.00    -0.105 OA 
BRANCH  11  12
HETATM   12  C   UNL     1      -6.481  15.605  67.776  1.00  0.00    -0.160 C  
BRANCH  12  13
HETATM   13  C   UNL     1      -6.910  17.030  67.439  1.00  0.00    -0.174 C  
BRANCH  13  14
HETATM   14  C   UNL     1      -8.421  17.213  67.577  1.00  0.00    -0.198 C  
BRANCH  14  15
HETATM   15  N   UNL     1      -8.811  18.029  68.746  1.00  0.00    -0.249 NA 
HETATM   16  C   UNL     1      -8.391  19.427  68.588  1.00  0.00    -0.362 C  
BRANCH  15  17
HETATM   17  C   UNL     1     -10.282  17.917  68.937  1.00  0.00    -0.330 C  
BRANCH  17  18
HETATM   18  C   UNL     1     -10.832  16.478  68.791  1.00  0.00    -0.342 C  
BRANCH  18  19
HETATM   19  N   UNL     1     -10.769  15.628  70.003  1.00  0.00    -0.313 NA 
HETATM   20  C   UNL     1     -11.514  16.232  71.112  1.00  0.00    -0.314 C  
BRANCH  19  21
HETATM   21  C   UNL     1     -11.317  14.281  69.723  1.00  0.00    -0.227 C  
BRANCH  21  22
HETATM   22  C   UNL     1     -12.483  13.897  70.639  1.00  0.00    -0.436 C  
BRANCH  22  23
HETATM   23  C   UNL     1     -12.433  12.426  71.032  1.00  0.00    -0.256 C  
BRANCH  23  24
HETATM   24  O   UNL     1     -11.303  11.799  70.405  1.00  0.00    -0.021 OA 
BRANCH  24  25
HETATM   25  C   UNL     1     -11.596  10.881  69.449  1.00  0.00    -0.316 C  
HETATM   26  O   UNL     1     -12.329  11.052  68.488  1.00  0.00    -0.536 OA 
BRANCH  25  27
HETATM   27  C   UNL     1     -10.874   9.608  69.713  1.00  0.00    -0.274 A  
HETATM   28  C   UNL     1     -10.545   9.302  71.034  1.00  0.00    -0.386 A  
HETATM   29  C   UNL     1      -9.828   8.141  71.328  1.00  0.00    -0.164 A  
HETATM   30  C   UNL     1      -9.416   7.276  70.285  1.00  0.00    -0.165 A  
HETATM   31  C   UNL     1     -10.507   8.736  68.683  1.00  0.00    -0.213 A  
HETATM   32  C   UNL     1      -9.769   7.573  68.949  1.00  0.00    -0.151 A  
BRANCH  29  33
HETATM   33  O   UNL     1      -9.447   7.808  72.608  1.00  0.00    -0.158 OA 
HETATM   34  C   UNL     1     -10.483   7.369  73.483  1.00  0.00    -0.345 C  
ENDBRANCH  29  33
BRANCH  30  35
HETATM   35  O   UNL     1      -8.633   6.222  70.692  1.00  0.00    -0.135 OA 
HETATM   36  C   UNL     1      -7.225   6.405  70.743  1.00  0.00    -0.074 C  
ENDBRANCH  30  35
BRANCH  32  37
HETATM   37  O   UNL     1      -9.350   6.729  67.957  1.00  0.00    -0.121 OA 
HETATM   38  C   UNL     1     -10.314   5.890  67.330  1.00  0.00    -0.226 C  
ENDBRANCH  32  37
ENDBRANCH  25  27
ENDBRANCH  24  25
ENDBRANCH  23  24
ENDBRANCH  22  23
ENDBRANCH  21  22
ENDBRANCH  19  21
ENDBRANCH  18  19
ENDBRANCH  17  18
ENDBRANCH  15  17
ENDBRANCH  14  15
ENDBRANCH  13  14
ENDBRANCH  12  13
ENDBRANCH  11  12
ENDBRANCH   9  11
ENDBRANCH   5   9
BRANCH   8  39
HETATM   39  O   UNL     1     -11.735  14.746  65.425  1.00  0.00    -0.344 OA 
HETATM   40  C   UNL     1     -11.151  15.949  64.950  1.00  0.00    -0.389 C  
ENDBRANCH   8  39
BRANCH   7  41
HETATM   41  O   UNL     1     -12.267  11.989  64.770  1.00  0.00    -0.299 OA 
HETATM   42  C   UNL     1     -12.289  12.029  63.353  1.00  0.00    -0.523 C  
ENDBRANCH   7  41
ENDBRANCH   2   3
TORSDOF 21
ENDMDL
MODEL       60
REMARK 921   NORMALIZED FREE ENERGY PREDICTED BY IDOCK:   -4.78 KCAL/MOL
REMARK 922        TOTAL FREE ENERGY PREDICTED BY IDOCK:  -13.50 KCAL/MOL
REMARK 923 INTER-LIGAND FREE ENERGY PREDICTED BY IDOCK:  -10.42 KCAL/MOL
REMARK 924 INTRA-LIGAND FREE ENERGY PREDICTED BY IDOCK:   -3.08 KCAL/MOL
REMARK 927      BINDING AFFINITY PREDICTED BY RF-SCORE:    0.00 PKD
ROOT
HETATM    1  C   UNL     1      -6.846   9.173  66.881  1.00  0.00    -0.080 C  
HETATM    2  O   UNL     1      -7.625   9.823  65.879  1.00  0.00    -0.098 OA 
ENDROOT
BRANCH   2   3
HETATM    3  C   UNL     1      -8.226  11.006  66.231  1.00  0.00    -0.164 A  
HETATM    4  C   UNL     1      -7.609  11.868  67.147  1.00  0.00    -0.154 A  
HETATM    5  C   UNL     1      -8.198  13.077  67.522  1.00  0.00    -0.181 A  
HETATM    6  C   UNL     1      -9.421  13.436  66.967  1.00  0.00    -0.247 A  
HETATM    7  C   UNL     1      -9.451  11.379  65.632  1.00  0.00    -0.230 A  
HETATM    8  C   UNL     1     -10.049  12.605  66.020  1.00  0.00    -0.262 A  
BRANCH   5   9
HETATM    9  C   UNL     1      -7.459  13.901  68.510  1.00  0.00    -0.122 C  
HETATM   10  O   UNL     1      -6.787  13.406  69.403  1.00  0.00    -0.087 OA 
BRANCH   9  11
HETATM   11  O   UNL     1      -7.661  15.228  68.317  1.00  0.00    -0.108 OA 
BRANCH  11  12
HETATM   12  C   UNL     1      -6.577  15.897  67.648  1.00  0.00    -0.172 C  
BRANCH  12  13
HETATM   13  C   UNL     1      -7.137  16.922  66.666  1.00  0.00    -0.289 C  
BRANCH  13  14
HETATM   14  C   UNL     1      -8.636  17.143  66.873  1.00  0.00    -0.232 C  
BRANCH  14  15
HETATM   15  N   UNL     1      -8.946  18.316  67.718  1.00  0.00    -0.264 NA 
HETATM   16  C   UNL     1      -9.199  19.511  66.902  1.00  0.00    -0.338 C  
BRANCH  15  17
HETATM   17  C   UNL     1     -10.110  17.986  68.584  1.00  0.00    -0.394 C  
BRANCH  17  18
HETATM   18  C   UNL     1     -10.730  16.596  68.308  1.00  0.00    -0.351 C  
BRANCH  18  19
HETATM   19  N   UNL     1     -10.886  15.705  69.482  1.00  0.00    -0.247 NA 
HETATM   20  C   UNL     1     -11.143  16.480  70.701  1.00  0.00    -0.043 C  
BRANCH  19  21
HETATM   21  C   UNL     1     -11.997  14.751  69.268  1.00  0.00    -0.294 C  
BRANCH  21  22
HETATM   22  C   UNL     1     -12.614  14.233  70.571  1.00  0.00    -0.418 C  
BRANCH  22  23
HETATM   23  C   UNL     1     -12.452  12.725  70.713  1.00  0.00    -0.271 C  
BRANCH  23  24
HETATM   24  O   UNL     1     -11.429  12.264  69.814  1.00  0.00    -0.247 OA 
BRANCH  24  25
HETATM   25  C   UNL     1     -11.642  11.045  69.258  1.00  0.00    -0.314 C  
HETATM   26  O   UNL     1     -12.035  10.832  68.122  1.00  0.00    -0.527 OA 
BRANCH  25  27
HETATM   27  C   UNL     1     -11.306   9.967  70.225  1.00  0.00    -0.376 A  
HETATM   28  C   UNL     1      -9.973   9.827  70.614  1.00  0.00    -0.215 A  
HETATM   29  C   UNL     1      -9.600   8.803  71.485  1.00  0.00    -0.284 A  
HETATM   30  C   UNL     1     -10.570   7.889  71.967  1.00  0.00    -0.238 A  
HETATM   31  C   UNL     1     -12.275   9.095  70.731  1.00  0.00    -0.151 A  
HETATM   32  C   UNL     1     -11.923   8.044  71.591  1.00  0.00    -0.298 A  
BRANCH  29  33
HETATM   33  O   UNL     1      -8.296   8.597  71.875  1.00  0.00    -0.211 OA 
HETATM   34  C   UNL     1      -7.291   8.922  70.919  1.00  0.00    -0.097 C  
ENDBRANCH  29  33
BRANCH  30  35
HETATM   35  O   UNL     1     -10.063   6.868  72.735  1.00  0.00    -0.167 OA 
HETATM   36  C   UNL     1      -9.892   7.089  74.128  1.00  0.00    -0.269 C  
ENDBRANCH  30  35
BRANCH  32  37
HETATM   37  O   UNL     1     -12.842   7.143  72.060  1.00  0.00    -0.267 OA 
HETATM   38  C   UNL     1     -14.180   7.232  71.585  1.00  0.00    -0.409 C  
ENDBRANCH  32  37
ENDBRANCH  25  27
ENDBRANCH  24  25
ENDBRANCH  23  24
ENDBRANCH  22  23
ENDBRANCH  21  22
ENDBRANCH  19  21
ENDBRANCH  18  19
ENDBRANCH  17  18
ENDBRANCH  15  17
ENDBRANCH  14  15
ENDBRANCH  13  14
ENDBRANCH  12  13
ENDBRANCH  11  12
ENDBRANCH   9  11
ENDBRANCH   5   9
BRANCH   8  39
HETATM   39  O   UNL     1     -11.235  13.156  65.592  1.00  0.00    -0.281 OA 
HETATM   40  C   UNL     1     -11.219  14.245  64.683  1.00  0.00    -0.366 C  
ENDBRANCH   8  39
BRANCH   7  41
HETATM   41  O   UNL     1     -10.135  10.645  64.700  1.00  0.00    -0.311 OA 
HETATM   42  C   UNL     1      -9.941  10.863  63.312  1.00  0.00    -0.349 C  
ENDBRANCH   7  41
ENDBRANCH   2   3
TORSDOF 21
ENDMDL
MODEL       61
REMARK 921   NORMALIZED FREE ENERGY PREDICTED BY IDOCK:   -4.77 KCAL/MOL
REMARK 922        TOTAL FREE ENERGY PREDICTED BY IDOCK:  -13.49 KCAL/MOL
REMARK 923 INTER-LIGAND FREE ENERGY PREDICTED BY IDOCK:  -10.87 KCAL/MOL
REMARK 924 INTRA-LIGAND FREE ENERGY PREDICTED BY IDOCK:   -2.62 KCAL/MOL
REMARK 927      BINDING AFFINITY PREDICTED BY RF-SCORE:    0.00 PKD
ROOT
HETATM    1  C   UNL     1     -14.409   8.474  72.162  1.00  0.00    -0.436 C  
HETATM    2  O   UNL     1     -13.293   9.212  72.655  1.00  0.00    -0.454 OA 
ENDROOT
BRANCH   2   3
HETATM    3  C   UNL     1     -12.323   9.549  71.743  1.00  0.00    -0.394 A  
HETATM    4  C   UNL     1     -12.558  10.554  70.797  1.00  0.00    -0.474 A  
HETATM    5  C   UNL     1     -11.589  10.916  69.860  1.00  0.00    -0.410 A  
HETATM    6  C   UNL     1     -10.359  10.268  69.873  1.00  0.00    -0.281 A  
HETATM    7  C   UNL     1     -11.062   8.911  71.790  1.00  0.00    -0.363 A  
HETATM    8  C   UNL     1     -10.082   9.276  70.833  1.00  0.00    -0.302 A  
BRANCH   5   9
HETATM    9  C   UNL     1     -11.956  11.984  68.898  1.00  0.00    -0.246 C  
HETATM   10  O   UNL     1     -12.259  13.113  69.257  1.00  0.00    -0.249 OA 
BRANCH   9  11
HETATM   11  O   UNL     1     -11.951  11.537  67.617  1.00  0.00    -0.630 OA 
BRANCH  11  12
HETATM   12  C   UNL     1     -11.908  12.583  66.630  1.00  0.00    -0.352 C  
BRANCH  12  13
HETATM   13  C   UNL     1     -11.277  12.050  65.347  1.00  0.00    -0.374 C  
BRANCH  13  14
HETATM   14  C   UNL     1     -10.321  10.890  65.628  1.00  0.00    -0.242 C  
BRANCH  14  15
HETATM   15  N   UNL     1      -9.932  10.142  64.414  1.00  0.00    -0.263 NA 
HETATM   16  C   UNL     1      -9.896  11.016  63.234  1.00  0.00    -0.368 C  
BRANCH  15  17
HETATM   17  C   UNL     1      -8.616   9.491  64.655  1.00  0.00    -0.187 C  
BRANCH  17  18
HETATM   18  C   UNL     1      -7.576  10.404  65.347  1.00  0.00    -0.131 C  
BRANCH  18  19
HETATM   19  N   UNL     1      -6.834   9.807  66.482  1.00  0.00    -0.083 NA 
HETATM   20  C   UNL     1      -6.591   8.378  66.261  1.00  0.00    -0.058 C  
BRANCH  19  21
HETATM   21  C   UNL     1      -5.540  10.497  66.680  1.00  0.00    -0.058 C  
BRANCH  21  22
HETATM   22  C   UNL     1      -5.523  11.419  67.903  1.00  0.00    -0.044 C  
BRANCH  22  23
HETATM   23  C   UNL     1      -5.652  12.885  67.509  1.00  0.00    -0.084 C  
BRANCH  23  24
HETATM   24  O   UNL     1      -6.456  13.575  68.480  1.00  0.00    -0.076 OA 
BRANCH  24  25
HETATM   25  C   UNL     1      -7.794  13.557  68.254  1.00  0.00    -0.145 C  
HETATM   26  O   UNL     1      -8.470  12.569  68.017  1.00  0.00    -0.156 OA 
BRANCH  25  27
HETATM   27  C   UNL     1      -8.356  14.930  68.356  1.00  0.00    -0.153 A  
HETATM   28  C   UNL     1      -9.622  15.081  68.921  1.00  0.00    -0.221 A  
HETATM   29  C   UNL     1     -10.211  16.343  68.998  1.00  0.00    -0.269 A  
HETATM   30  C   UNL     1      -9.533  17.477  68.488  1.00  0.00    -0.296 A  
HETATM   31  C   UNL     1      -7.662  16.052  67.889  1.00  0.00    -0.149 A  
HETATM   32  C   UNL     1      -8.241  17.329  67.936  1.00  0.00    -0.219 A  
BRANCH  29  33
HETATM   33  O   UNL     1     -11.472  16.545  69.514  1.00  0.00    -0.188 OA 
HETATM   34  C   UNL     1     -11.753  15.918  70.762  1.00  0.00    -0.401 C  
ENDBRANCH  29  33
BRANCH  30  35
HETATM   35  O   UNL     1     -10.257  18.645  68.531  1.00  0.00    -0.380 OA 
HETATM   36  C   UNL     1     -10.802  19.150  67.320  1.00  0.00    -0.431 C  
ENDBRANCH  30  35
BRANCH  32  37
HETATM   37  O   UNL     1      -7.608  18.437  67.439  1.00  0.00    -0.216 OA 
HETATM   38  C   UNL     1      -6.628  19.077  68.248  1.00  0.00    -0.243 C  
ENDBRANCH  32  37
ENDBRANCH  25  27
ENDBRANCH  24  25
ENDBRANCH  23  24
ENDBRANCH  22  23
ENDBRANCH  21  22
ENDBRANCH  19  21
ENDBRANCH  18  19
ENDBRANCH  17  18
ENDBRANCH  15  17
ENDBRANCH  14  15
ENDBRANCH  13  14
ENDBRANCH  12  13
ENDBRANCH  11  12
ENDBRANCH   9  11
ENDBRANCH   5   9
BRANCH   8  39
HETATM   39  O   UNL     1      -8.808   8.782  70.675  1.00  0.00    -0.149 OA 
HETATM   40  C   UNL     1      -7.864   9.498  69.893  1.00  0.00    -0.138 C  
ENDBRANCH   8  39
BRANCH   7  41
HETATM   41  O   UNL     1     -10.695   7.942  72.686  1.00  0.00    -0.290 OA 
HETATM   42  C   UNL     1     -11.158   6.609  72.550  1.00  0.00    -0.261 C  
ENDBRANCH   7  41
ENDBRANCH   2   3
TORSDOF 21
ENDMDL
MODEL       62
REMARK 921   NORMALIZED FREE ENERGY PREDICTED BY IDOCK:   -4.77 KCAL/MOL
REMARK 922        TOTAL FREE ENERGY PREDICTED BY IDOCK:  -13.48 KCAL/MOL
REMARK 923 INTER-LIGAND FREE ENERGY PREDICTED BY IDOCK:  -10.84 KCAL/MOL
REMARK 924 INTRA-LIGAND FREE ENERGY PREDICTED BY IDOCK:   -2.64 KCAL/MOL
REMARK 927      BINDING AFFINITY PREDICTED BY RF-SCORE:    0.00 PKD
ROOT
HETATM    1  C   UNL     1     -11.497  16.178  64.365  1.00  0.00    -0.193 C  
HETATM    2  O   UNL     1     -12.082  14.900  64.601  1.00  0.00    -0.427 OA 
ENDROOT
BRANCH   2   3
HETATM    3  C   UNL     1     -11.856  14.333  65.831  1.00  0.00    -0.380 A  
HETATM    4  C   UNL     1     -11.489  15.130  66.922  1.00  0.00    -0.215 A  
HETATM    5  C   UNL     1     -11.254  14.580  68.183  1.00  0.00    -0.301 A  
HETATM    6  C   UNL     1     -11.397  13.208  68.360  1.00  0.00    -0.324 A  
HETATM    7  C   UNL     1     -12.042  12.942  66.010  1.00  0.00    -0.422 A  
HETATM    8  C   UNL     1     -11.796  12.385  67.290  1.00  0.00    -0.287 A  
BRANCH   5   9
HETATM    9  C   UNL     1     -10.856  15.521  69.259  1.00  0.00    -0.252 C  
HETATM   10  O   UNL     1     -11.316  15.454  70.390  1.00  0.00    -0.273 OA 
BRANCH   9  11
HETATM   11  O   UNL     1      -9.977  16.454  68.818  1.00  0.00    -0.224 OA 
BRANCH  11  12
HETATM   12  C   UNL     1      -8.598  16.130  69.073  1.00  0.00    -0.251 C  
BRANCH  12  13
HETATM   13  C   UNL     1      -7.874  15.895  67.750  1.00  0.00    -0.153 C  
BRANCH  13  14
HETATM   14  C   UNL     1      -6.531  15.195  67.957  1.00  0.00    -0.144 C  
BRANCH  14  15
HETATM   15  N   UNL     1      -6.476  13.842  67.363  1.00  0.00    -0.294 NA 
HETATM   16  C   UNL     1      -5.550  12.971  68.099  1.00  0.00    -0.093 C  
BRANCH  15  17
HETATM   17  C   UNL     1      -7.852  13.278  67.334  1.00  0.00    -0.153 C  
BRANCH  17  18
HETATM   18  C   UNL     1      -7.980  11.885  67.995  1.00  0.00    -0.147 C  
BRANCH  18  19
HETATM   19  N   UNL     1      -8.390  10.774  67.105  1.00  0.00    -0.125 NA 
HETATM   20  C   UNL     1      -7.378  10.520  66.075  1.00  0.00    -0.137 C  
BRANCH  19  21
HETATM   21  C   UNL     1      -8.612   9.536  67.886  1.00  0.00    -0.119 C  
BRANCH  21  22
HETATM   22  C   UNL     1      -8.702   8.277  67.018  1.00  0.00    -0.132 C  
BRANCH  22  23
HETATM   23  C   UNL     1     -10.076   8.129  66.376  1.00  0.00    -0.126 C  
BRANCH  23  24
HETATM   24  O   UNL     1     -11.017   7.663  67.357  1.00  0.00    -0.207 OA 
BRANCH  24  25
HETATM   25  C   UNL     1     -10.932   6.346  67.673  1.00  0.00    -0.349 C  
HETATM   26  O   UNL     1     -10.822   5.423  66.882  1.00  0.00    -0.237 OA 
BRANCH  25  27
HETATM   27  C   UNL     1     -10.966   6.163  69.148  1.00  0.00    -0.450 A  
HETATM   28  C   UNL     1     -10.079   5.248  69.717  1.00  0.00    -0.334 A  
HETATM   29  C   UNL     1     -10.103   5.008  71.091  1.00  0.00    -0.223 A  
HETATM   30  C   UNL     1     -11.038   5.681  71.915  1.00  0.00    -0.214 A  
HETATM   31  C   UNL     1     -11.863   6.862  69.962  1.00  0.00    -0.207 A  
HETATM   32  C   UNL     1     -11.921   6.625  71.343  1.00  0.00    -0.353 A  
BRANCH  29  33
HETATM   33  O   UNL     1      -9.275   4.092  71.700  1.00  0.00    -0.114 OA 
HETATM   34  C   UNL     1      -9.549   2.718  71.436  1.00  0.00    -0.153 C  
ENDBRANCH  29  33
BRANCH  30  35
HETATM   35  O   UNL     1     -11.030   5.286  73.232  1.00  0.00    -0.267 OA 
HETATM   36  C   UNL     1     -10.371   6.112  74.182  1.00  0.00    -0.294 C  
ENDBRANCH  30  35
BRANCH  32  37
HETATM   37  O   UNL     1     -12.824   7.255  72.157  1.00  0.00    -0.202 OA 
HETATM   38  C   UNL     1     -14.155   7.427  71.685  1.00  0.00    -0.421 C  
ENDBRANCH  32  37
ENDBRANCH  25  27
ENDBRANCH  24  25
ENDBRANCH  23  24
ENDBRANCH  22  23
ENDBRANCH  21  22
ENDBRANCH  19  21
ENDBRANCH  18  19
ENDBRANCH  17  18
ENDBRANCH  15  17
ENDBRANCH  14  15
ENDBRANCH  13  14
ENDBRANCH  12  13
ENDBRANCH  11  12
ENDBRANCH   9  11
ENDBRANCH   5   9
BRANCH   8  39
HETATM   39  O   UNL     1     -11.889  11.072  67.689  1.00  0.00    -0.599 OA 
HETATM   40  C   UNL     1     -11.856  10.749  69.070  1.00  0.00    -0.254 C  
ENDBRANCH   8  39
BRANCH   7  41
HETATM   41  O   UNL     1     -12.433  12.062  65.036  1.00  0.00    -0.414 OA 
HETATM   42  C   UNL     1     -11.585  11.760  63.941  1.00  0.00    -0.377 C  
ENDBRANCH   7  41
ENDBRANCH   2   3
TORSDOF 21
ENDMDL
MODEL       63
REMARK 921   NORMALIZED FREE ENERGY PREDICTED BY IDOCK:   -4.76 KCAL/MOL
REMARK 922        TOTAL FREE ENERGY PREDICTED BY IDOCK:  -13.47 KCAL/MOL
REMARK 923 INTER-LIGAND FREE ENERGY PREDICTED BY IDOCK:  -11.26 KCAL/MOL
REMARK 924 INTRA-LIGAND FREE ENERGY PREDICTED BY IDOCK:   -2.21 KCAL/MOL
REMARK 927      BINDING AFFINITY PREDICTED BY RF-SCORE:    0.00 PKD
ROOT
HETATM    1  C   UNL     1      -7.543   8.433  72.972  1.00  0.00    -0.059 C  
HETATM    2  O   UNL     1      -8.769   9.005  72.521  1.00  0.00    -0.318 OA 
ENDROOT
BRANCH   2   3
HETATM    3  C   UNL     1      -9.819   8.142  72.322  1.00  0.00    -0.260 A  
HETATM    4  C   UNL     1      -9.698   6.790  72.662  1.00  0.00    -0.164 A  
HETATM    5  C   UNL     1     -10.749   5.892  72.470  1.00  0.00    -0.274 A  
HETATM    6  C   UNL     1     -11.946   6.355  71.936  1.00  0.00    -0.381 A  
HETATM    7  C   UNL     1     -11.044   8.631  71.814  1.00  0.00    -0.326 A  
HETATM    8  C   UNL     1     -12.108   7.715  71.613  1.00  0.00    -0.306 A  
BRANCH   5   9
HETATM    9  C   UNL     1     -10.501   4.480  72.854  1.00  0.00    -0.190 C  
HETATM   10  O   UNL     1     -10.281   4.145  74.010  1.00  0.00    -0.143 OA 
BRANCH   9  11
HETATM   11  O   UNL     1     -10.508   3.653  71.780  1.00  0.00     0.016 OA 
BRANCH  11  12
HETATM   12  C   UNL     1      -9.315   3.719  70.979  1.00  0.00    -0.148 C  
BRANCH  12  13
HETATM   13  C   UNL     1      -9.682   4.080  69.542  1.00  0.00    -0.227 C  
BRANCH  13  14
HETATM   14  C   UNL     1      -9.131   5.449  69.145  1.00  0.00    -0.107 C  
BRANCH  14  15
HETATM   15  N   UNL     1      -8.902   5.592  67.692  1.00  0.00    -0.107 NA 
HETATM   16  C   UNL     1     -10.097   5.221  66.922  1.00  0.00    -0.219 C  
BRANCH  15  17
HETATM   17  C   UNL     1      -8.481   6.990  67.410  1.00  0.00    -0.122 C  
BRANCH  17  18
HETATM   18  C   UNL     1      -9.647   8.006  67.364  1.00  0.00    -0.153 C  
BRANCH  18  19
HETATM   19  N   UNL     1      -9.320   9.354  66.844  1.00  0.00    -0.142 NA 
HETATM   20  C   UNL     1      -7.869   9.570  66.813  1.00  0.00    -0.101 C  
BRANCH  19  21
HETATM   21  C   UNL     1      -9.869   9.535  65.482  1.00  0.00    -0.234 C  
BRANCH  21  22
HETATM   22  C   UNL     1      -9.626  10.935  64.909  1.00  0.00    -0.297 C  
BRANCH  22  23
HETATM   23  C   UNL     1     -10.593  11.259  63.777  1.00  0.00    -0.392 C  
BRANCH  23  24
HETATM   24  O   UNL     1     -10.669  12.684  63.602  1.00  0.00    -0.425 OA 
BRANCH  24  25
HETATM   25  C   UNL     1     -11.724  13.292  64.200  1.00  0.00    -0.420 C  
HETATM   26  O   UNL     1     -12.895  13.185  63.874  1.00  0.00    -0.653 OA 
BRANCH  25  27
HETATM   27  C   UNL     1     -11.265  14.113  65.352  1.00  0.00    -0.325 A  
HETATM   28  C   UNL     1     -10.678  15.350  65.084  1.00  0.00    -0.460 A  
HETATM   29  C   UNL     1     -10.191  16.137  66.128  1.00  0.00    -0.336 A  
HETATM   30  C   UNL     1     -10.275  15.677  67.465  1.00  0.00    -0.263 A  
HETATM   31  C   UNL     1     -11.390  13.672  66.673  1.00  0.00    -0.343 A  
HETATM   32  C   UNL     1     -10.890  14.435  67.739  1.00  0.00    -0.258 A  
BRANCH  29  33
HETATM   33  O   UNL     1      -9.572  17.349  65.919  1.00  0.00    -0.509 OA 
HETATM   34  C   UNL     1     -10.427  18.469  65.709  1.00  0.00    -0.247 C  
ENDBRANCH  29  33
BRANCH  30  35
HETATM   35  O   UNL     1      -9.671  16.495  68.391  1.00  0.00    -0.223 OA 
HETATM   36  C   UNL     1     -10.486  17.387  69.139  1.00  0.00    -0.231 C  
ENDBRANCH  30  35
BRANCH  32  37
HETATM   37  O   UNL     1     -10.951  14.005  69.038  1.00  0.00    -0.252 OA 
HETATM   38  C   UNL     1     -12.190  14.112  69.730  1.00  0.00    -0.344 C  
ENDBRANCH  32  37
ENDBRANCH  25  27
ENDBRANCH  24  25
ENDBRANCH  23  24
ENDBRANCH  22  23
ENDBRANCH  21  22
ENDBRANCH  19  21
ENDBRANCH  18  19
ENDBRANCH  17  18
ENDBRANCH  15  17
ENDBRANCH  14  15
ENDBRANCH  13  14
ENDBRANCH  12  13
ENDBRANCH  11  12
ENDBRANCH   9  11
ENDBRANCH   5   9
BRANCH   8  39
HETATM   39  O   UNL     1     -13.368   7.956  71.117  1.00  0.00    -0.191 OA 
HETATM   40  C   UNL     1     -14.393   8.416  71.984  1.00  0.00    -0.464 C  
ENDBRANCH   8  39
BRANCH   7  41
HETATM   41  O   UNL     1     -11.302   9.934  71.477  1.00  0.00    -0.343 OA 
HETATM   42  C   UNL     1     -11.155  10.385  70.141  1.00  0.00    -0.314 C  
ENDBRANCH   7  41
ENDBRANCH   2   3
TORSDOF 21
ENDMDL
MODEL       64
REMARK 921   NORMALIZED FREE ENERGY PREDICTED BY IDOCK:   -4.76 KCAL/MOL
REMARK 922        TOTAL FREE ENERGY PREDICTED BY IDOCK:  -13.45 KCAL/MOL
REMARK 923 INTER-LIGAND FREE ENERGY PREDICTED BY IDOCK:  -10.78 KCAL/MOL
REMARK 924 INTRA-LIGAND FREE ENERGY PREDICTED BY IDOCK:   -2.67 KCAL/MOL
REMARK 927      BINDING AFFINITY PREDICTED BY RF-SCORE:    0.00 PKD
ROOT
HETATM    1  C   UNL     1      -7.184   8.956  70.315  1.00  0.00    -0.054 C  
HETATM    2  O   UNL     1      -7.142   9.746  69.129  1.00  0.00    -0.063 OA 
ENDROOT
BRANCH   2   3
HETATM    3  C   UNL     1      -8.037   9.424  68.139  1.00  0.00    -0.110 A  
HETATM    4  C   UNL     1      -8.161   8.100  67.698  1.00  0.00    -0.127 A  
HETATM    5  C   UNL     1      -9.062   7.746  66.694  1.00  0.00    -0.195 A  
HETATM    6  C   UNL     1      -9.862   8.730  66.123  1.00  0.00    -0.297 A  
HETATM    7  C   UNL     1      -8.872  10.426  67.593  1.00  0.00    -0.124 A  
HETATM    8  C   UNL     1      -9.782  10.064  66.567  1.00  0.00    -0.200 A  
BRANCH   5   9
HETATM    9  C   UNL     1      -9.095   6.316  66.300  1.00  0.00    -0.153 C  
HETATM   10  O   UNL     1      -8.746   5.934  65.192  1.00  0.00    -0.129 OA 
BRANCH   9  11
HETATM   11  O   UNL     1      -9.588   5.528  67.287  1.00  0.00    -0.117 OA 
BRANCH  11  12
HETATM   12  C   UNL     1      -9.368   4.121  67.081  1.00  0.00    -0.176 C  
BRANCH  12  13
HETATM   13  C   UNL     1      -9.112   3.442  68.424  1.00  0.00    -0.206 C  
BRANCH  13  14
HETATM   14  C   UNL     1      -9.035   4.457  69.565  1.00  0.00    -0.097 C  
BRANCH  14  15
HETATM   15  N   UNL     1      -9.770   4.036  70.776  1.00  0.00    -0.192 NA 
HETATM   16  C   UNL     1      -9.201   2.808  71.348  1.00  0.00    -0.119 C  
BRANCH  15  17
HETATM   17  C   UNL     1      -9.755   5.155  71.756  1.00  0.00    -0.161 C  
BRANCH  17  18
HETATM   18  C   UNL     1     -11.117   5.871  71.920  1.00  0.00    -0.268 C  
BRANCH  18  19
HETATM   19  N   UNL     1     -11.125   7.066  72.796  1.00  0.00    -0.282 NA 
HETATM   20  C   UNL     1      -9.840   7.772  72.739  1.00  0.00    -0.246 C  
BRANCH  19  21
HETATM   21  C   UNL     1     -12.208   7.994  72.400  1.00  0.00    -0.287 C  
BRANCH  21  22
HETATM   22  C   UNL     1     -11.698   9.278  71.737  1.00  0.00    -0.456 C  
BRANCH  22  23
HETATM   23  C   UNL     1     -12.843  10.187  71.309  1.00  0.00    -0.410 C  
BRANCH  23  24
HETATM   24  O   UNL     1     -12.314  11.447  70.862  1.00  0.00    -0.379 OA 
BRANCH  24  25
HETATM   25  C   UNL     1     -12.229  11.605  69.517  1.00  0.00    -0.193 C  
HETATM   26  O   UNL     1     -12.376  10.729  68.680  1.00  0.00    -0.430 OA 
BRANCH  25  27
HETATM   27  C   UNL     1     -11.950  13.025  69.178  1.00  0.00    -0.320 A  
HETATM   28  C   UNL     1     -11.754  13.353  67.836  1.00  0.00    -0.396 A  
HETATM   29  C   UNL     1     -11.445  14.664  67.471  1.00  0.00    -0.361 A  
HETATM   30  C   UNL     1     -11.312  15.666  68.463  1.00  0.00    -0.360 A  
HETATM   31  C   UNL     1     -11.862  14.019  70.158  1.00  0.00    -0.377 A  
HETATM   32  C   UNL     1     -11.532  15.340  69.821  1.00  0.00    -0.313 A  
BRANCH  29  33
HETATM   33  O   UNL     1     -11.209  15.037  66.167  1.00  0.00    -0.342 OA 
HETATM   34  C   UNL     1     -12.059  14.460  65.180  1.00  0.00    -0.395 C  
ENDBRANCH  29  33
BRANCH  30  35
HETATM   35  O   UNL     1     -10.908  16.892  67.989  1.00  0.00    -0.363 OA 
HETATM   36  C   UNL     1      -9.528  17.224  68.059  1.00  0.00    -0.271 C  
ENDBRANCH  30  35
BRANCH  32  37
HETATM   37  O   UNL     1     -11.387  16.322  70.764  1.00  0.00    -0.395 OA 
HETATM   38  C   UNL     1     -11.934  16.103  72.059  1.00  0.00    -0.526 C  
ENDBRANCH  32  37
ENDBRANCH  25  27
ENDBRANCH  24  25
ENDBRANCH  23  24
ENDBRANCH  22  23
ENDBRANCH  21  22
ENDBRANCH  19  21
ENDBRANCH  18  19
ENDBRANCH  17  18
ENDBRANCH  15  17
ENDBRANCH  14  15
ENDBRANCH  13  14
ENDBRANCH  12  13
ENDBRANCH  11  12
ENDBRANCH   9  11
ENDBRANCH   5   9
BRANCH   8  39
HETATM   39  O   UNL     1     -10.667  10.863  65.882  1.00  0.00    -0.215 OA 
HETATM   40  C   UNL     1     -10.456  11.132  64.504  1.00  0.00    -0.350 C  
ENDBRANCH   8  39
BRANCH   7  41
HETATM   41  O   UNL     1      -8.875  11.745  67.960  1.00  0.00    -0.151 OA 
HETATM   42  C   UNL     1      -7.963  12.665  67.384  1.00  0.00    -0.177 C  
ENDBRANCH   7  41
ENDBRANCH   2   3
TORSDOF 21
ENDMDL
MODEL       65
REMARK 921   NORMALIZED FREE ENERGY PREDICTED BY IDOCK:   -4.75 KCAL/MOL
REMARK 922        TOTAL FREE ENERGY PREDICTED BY IDOCK:  -13.43 KCAL/MOL
REMARK 923 INTER-LIGAND FREE ENERGY PREDICTED BY IDOCK:  -11.43 KCAL/MOL
REMARK 924 INTRA-LIGAND FREE ENERGY PREDICTED BY IDOCK:   -2.01 KCAL/MOL
REMARK 927      BINDING AFFINITY PREDICTED BY RF-SCORE:    0.00 PKD
ROOT
HETATM    1  C   UNL     1     -12.912   9.269  72.128  1.00  0.00    -0.424 C  
HETATM    2  O   UNL     1     -12.200   8.062  72.392  1.00  0.00    -0.328 OA 
ENDROOT
BRANCH   2   3
HETATM    3  C   UNL     1     -10.832   8.115  72.291  1.00  0.00    -0.320 A  
HETATM    4  C   UNL     1     -10.224   8.895  71.299  1.00  0.00    -0.361 A  
HETATM    5  C   UNL     1      -8.836   8.967  71.176  1.00  0.00    -0.282 A  
HETATM    6  C   UNL     1      -8.038   8.254  72.064  1.00  0.00    -0.188 A  
HETATM    7  C   UNL     1     -10.030   7.417  73.224  1.00  0.00    -0.291 A  
HETATM    8  C   UNL     1      -8.620   7.487  73.091  1.00  0.00    -0.150 A  
BRANCH   5   9
HETATM    9  C   UNL     1      -8.306   9.813  70.078  1.00  0.00    -0.192 C  
HETATM   10  O   UNL     1      -9.037  10.421  69.309  1.00  0.00    -0.187 OA 
BRANCH   9  11
HETATM   11  O   UNL     1      -6.951   9.785  70.024  1.00  0.00    -0.074 OA 
BRANCH  11  12
HETATM   12  C   UNL     1      -6.421   8.858  69.059  1.00  0.00    -0.047 C  
BRANCH  12  13
HETATM   13  C   UNL     1      -6.184   9.578  67.735  1.00  0.00    -0.053 C  
BRANCH  13  14
HETATM   14  C   UNL     1      -7.051   9.000  66.615  1.00  0.00    -0.081 C  
BRANCH  14  15
HETATM   15  N   UNL     1      -6.267   8.468  65.480  1.00  0.00    -0.049 NA 
HETATM   16  C   UNL     1      -6.006   7.031  65.637  1.00  0.00    -0.036 C  
BRANCH  15  17
HETATM   17  C   UNL     1      -6.998   8.758  64.218  1.00  0.00    -0.088 C  
BRANCH  17  18
HETATM   18  C   UNL     1      -8.482   9.145  64.420  1.00  0.00    -0.184 C  
BRANCH  18  19
HETATM   19  N   UNL     1      -8.871  10.502  63.968  1.00  0.00    -0.191 NA 
HETATM   20  C   UNL     1      -8.793  10.615  62.508  1.00  0.00    -0.275 C  
BRANCH  19  21
HETATM   21  C   UNL     1     -10.246  10.824  64.409  1.00  0.00    -0.364 C  
BRANCH  21  22
HETATM   22  C   UNL     1     -10.935  11.877  63.536  1.00  0.00    -0.505 C  
BRANCH  22  23
HETATM   23  C   UNL     1     -12.453  11.759  63.597  1.00  0.00    -0.370 C  
BRANCH  23  24
HETATM   24  O   UNL     1     -12.958  12.603  64.645  1.00  0.00    -0.768 OA 
BRANCH  24  25
HETATM   25  C   UNL     1     -12.495  13.879  64.646  1.00  0.00    -0.325 C  
HETATM   26  O   UNL     1     -12.581  14.676  63.726  1.00  0.00    -0.820 OA 
BRANCH  25  27
HETATM   27  C   UNL     1     -11.872  14.203  65.957  1.00  0.00    -0.409 A  
HETATM   28  C   UNL     1     -12.128  13.353  67.034  1.00  0.00    -0.390 A  
HETATM   29  C   UNL     1     -11.603  13.639  68.294  1.00  0.00    -0.339 A  
HETATM   30  C   UNL     1     -10.820  14.803  68.492  1.00  0.00    -0.252 A  
HETATM   31  C   UNL     1     -11.065  15.331  66.136  1.00  0.00    -0.280 A  
HETATM   32  C   UNL     1     -10.542  15.652  67.397  1.00  0.00    -0.301 A  
BRANCH  29  33
HETATM   33  O   UNL     1     -11.851  12.855  69.398  1.00  0.00    -0.303 OA 
HETATM   34  C   UNL     1     -12.108  11.476  69.150  1.00  0.00    -0.263 C  
ENDBRANCH  29  33
BRANCH  30  35
HETATM   35  O   UNL     1     -10.446  15.027  69.796  1.00  0.00    -0.237 OA 
HETATM   36  C   UNL     1     -11.253  15.880  70.595  1.00  0.00    -0.378 C  
ENDBRANCH  30  35
BRANCH  32  37
HETATM   37  O   UNL     1      -9.792  16.778  67.614  1.00  0.00    -0.252 OA 
HETATM   38  C   UNL     1     -10.173  17.981  66.957  1.00  0.00    -0.362 C  
ENDBRANCH  32  37
ENDBRANCH  25  27
ENDBRANCH  24  25
ENDBRANCH  23  24
ENDBRANCH  22  23
ENDBRANCH  21  22
ENDBRANCH  19  21
ENDBRANCH  18  19
ENDBRANCH  17  18
ENDBRANCH  15  17
ENDBRANCH  14  15
ENDBRANCH  13  14
ENDBRANCH  12  13
ENDBRANCH  11  12
ENDBRANCH   9  11
ENDBRANCH   5   9
BRANCH   8  39
HETATM   39  O   UNL     1      -7.653   6.881  73.860  1.00  0.00    -0.097 OA 
HETATM   40  C   UNL     1      -6.836   5.867  73.296  1.00  0.00    -0.083 C  
ENDBRANCH   8  39
BRANCH   7  41
HETATM   41  O   UNL     1     -10.499   6.652  74.259  1.00  0.00    -0.344 OA 
HETATM   42  C   UNL     1     -10.698   5.257  74.103  1.00  0.00    -0.185 C  
ENDBRANCH   7  41
ENDBRANCH   2   3
TORSDOF 21
ENDMDL
MODEL       66
REMARK 921   NORMALIZED FREE ENERGY PREDICTED BY IDOCK:   -4.75 KCAL/MOL
REMARK 922        TOTAL FREE ENERGY PREDICTED BY IDOCK:  -13.43 KCAL/MOL
REMARK 923 INTER-LIGAND FREE ENERGY PREDICTED BY IDOCK:  -11.70 KCAL/MOL
REMARK 924 INTRA-LIGAND FREE ENERGY PREDICTED BY IDOCK:   -1.73 KCAL/MOL
REMARK 927      BINDING AFFINITY PREDICTED BY RF-SCORE:    0.00 PKD
ROOT
HETATM    1  C   UNL     1     -12.045  14.299  69.988  1.00  0.00    -0.340 C  
HETATM    2  O   UNL     1     -11.792  15.570  69.394  1.00  0.00    -0.343 OA 
ENDROOT
BRANCH   2   3
HETATM    3  C   UNL     1     -11.345  15.568  68.096  1.00  0.00    -0.345 A  
HETATM    4  C   UNL     1     -11.916  14.708  67.150  1.00  0.00    -0.310 A  
HETATM    5  C   UNL     1     -11.482  14.687  65.825  1.00  0.00    -0.338 A  
HETATM    6  C   UNL     1     -10.461  15.547  65.433  1.00  0.00    -0.429 A  
HETATM    7  C   UNL     1     -10.334  16.474  67.699  1.00  0.00    -0.291 A  
HETATM    8  C   UNL     1      -9.889  16.445  66.353  1.00  0.00    -0.294 A  
BRANCH   5   9
HETATM    9  C   UNL     1     -12.152  13.724  64.917  1.00  0.00    -0.403 C  
HETATM   10  O   UNL     1     -13.254  13.254  65.159  1.00  0.00    -0.658 OA 
BRANCH   9  11
HETATM   11  O   UNL     1     -11.381  13.417  63.844  1.00  0.00    -0.364 OA 
BRANCH  11  12
HETATM   12  C   UNL     1     -11.513  12.056  63.396  1.00  0.00    -0.400 C  
BRANCH  12  13
HETATM   13  C   UNL     1     -10.203  11.310  63.633  1.00  0.00    -0.446 C  
BRANCH  13  14
HETATM   14  C   UNL     1     -10.132  10.728  65.045  1.00  0.00    -0.313 C  
BRANCH  14  15
HETATM   15  N   UNL     1      -8.775  10.287  65.431  1.00  0.00    -0.161 NA 
HETATM   16  C   UNL     1      -8.819   9.335  66.549  1.00  0.00    -0.133 C  
BRANCH  15  17
HETATM   17  C   UNL     1      -8.106   9.702  64.239  1.00  0.00    -0.146 C  
BRANCH  17  18
HETATM   18  C   UNL     1      -8.207   8.160  64.149  1.00  0.00    -0.080 C  
BRANCH  18  19
HETATM   19  N   UNL     1      -6.926   7.428  64.013  1.00  0.00    -0.055 NA 
HETATM   20  C   UNL     1      -5.782   8.322  64.222  1.00  0.00    -0.060 C  
BRANCH  19  21
HETATM   21  C   UNL     1      -6.857   6.314  64.985  1.00  0.00    -0.051 C  
BRANCH  21  22
HETATM   22  C   UNL     1      -8.233   5.807  65.427  1.00  0.00    -0.138 C  
BRANCH  22  23
HETATM   23  C   UNL     1      -8.370   5.791  66.945  1.00  0.00    -0.108 C  
BRANCH  23  24
HETATM   24  O   UNL     1      -9.580   5.107  67.312  1.00  0.00    -0.128 OA 
BRANCH  24  25
HETATM   25  C   UNL     1     -10.604   5.902  67.713  1.00  0.00    -0.259 C  
HETATM   26  O   UNL     1     -11.358   6.526  66.984  1.00  0.00    -0.342 OA 
BRANCH  25  27
HETATM   27  C   UNL     1     -10.712   5.899  69.196  1.00  0.00    -0.394 A  
HETATM   28  C   UNL     1      -9.941   4.980  69.909  1.00  0.00    -0.322 A  
HETATM   29  C   UNL     1     -10.041   4.908  71.299  1.00  0.00    -0.199 A  
HETATM   30  C   UNL     1     -10.938   5.756  71.993  1.00  0.00    -0.260 A  
HETATM   31  C   UNL     1     -11.569   6.768  69.879  1.00  0.00    -0.326 A  
HETATM   32  C   UNL     1     -11.703   6.702  71.274  1.00  0.00    -0.334 A  
BRANCH  29  33
HETATM   33  O   UNL     1      -9.330   3.998  72.048  1.00  0.00    -0.119 OA 
HETATM   34  C   UNL     1      -9.548   2.623  71.749  1.00  0.00    -0.147 C  
ENDBRANCH  29  33
BRANCH  30  35
HETATM   35  O   UNL     1     -11.019   5.521  73.345  1.00  0.00    -0.276 OA 
HETATM   36  C   UNL     1     -10.279   6.358  74.223  1.00  0.00    -0.344 C  
ENDBRANCH  30  35
BRANCH  32  37
HETATM   37  O   UNL     1     -12.572   7.504  71.964  1.00  0.00    -0.294 OA 
HETATM   38  C   UNL     1     -12.325   8.905  71.991  1.00  0.00    -0.390 C  
ENDBRANCH  32  37
ENDBRANCH  25  27
ENDBRANCH  24  25
ENDBRANCH  23  24
ENDBRANCH  22  23
ENDBRANCH  21  22
ENDBRANCH  19  21
ENDBRANCH  18  19
ENDBRANCH  17  18
ENDBRANCH  15  17
ENDBRANCH  14  15
ENDBRANCH  13  14
ENDBRANCH  12  13
ENDBRANCH  11  12
ENDBRANCH   9  11
ENDBRANCH   5   9
BRANCH   8  39
HETATM   39  O   UNL     1      -8.915  17.209  65.753  1.00  0.00    -0.523 OA 
HETATM   40  C   UNL     1      -7.551  17.005  66.089  1.00  0.00    -0.245 C  
ENDBRANCH   8  39
BRANCH   7  41
HETATM   41  O   UNL     1      -9.720  17.388  68.515  1.00  0.00    -0.278 OA 
HETATM   42  C   UNL     1     -10.252  18.692  68.680  1.00  0.00    -0.313 C  
ENDBRANCH   7  41
ENDBRANCH   2   3
TORSDOF 21
ENDMDL
MODEL       67
REMARK 921   NORMALIZED FREE ENERGY PREDICTED BY IDOCK:   -4.74 KCAL/MOL
REMARK 922        TOTAL FREE ENERGY PREDICTED BY IDOCK:  -13.43 KCAL/MOL
REMARK 923 INTER-LIGAND FREE ENERGY PREDICTED BY IDOCK:  -10.79 KCAL/MOL
REMARK 924 INTRA-LIGAND FREE ENERGY PREDICTED BY IDOCK:   -2.64 KCAL/MOL
REMARK 927      BINDING AFFINITY PREDICTED BY RF-SCORE:    0.00 PKD
ROOT
HETATM    1  C   UNL     1      -7.518   5.271  63.671  1.00  0.00    -0.055 C  
HETATM    2  O   UNL     1      -7.127   6.490  64.298  1.00  0.00    -0.054 OA 
ENDROOT
BRANCH   2   3
HETATM    3  C   UNL     1      -8.077   7.128  65.057  1.00  0.00    -0.119 A  
HETATM    4  C   UNL     1      -8.686   6.469  66.132  1.00  0.00    -0.153 A  
HETATM    5  C   UNL     1      -9.653   7.095  66.920  1.00  0.00    -0.216 A  
HETATM    6  C   UNL     1     -10.014   8.407  66.634  1.00  0.00    -0.354 A  
HETATM    7  C   UNL     1      -8.408   8.476  64.782  1.00  0.00    -0.153 A  
HETATM    8  C   UNL     1      -9.396   9.106  65.580  1.00  0.00    -0.221 A  
BRANCH   5   9
HETATM    9  C   UNL     1     -10.239   6.293  68.022  1.00  0.00    -0.172 C  
HETATM   10  O   UNL     1     -11.400   6.424  68.382  1.00  0.00    -0.280 OA 
BRANCH   9  11
HETATM   11  O   UNL     1      -9.329   5.456  68.580  1.00  0.00    -0.111 OA 
BRANCH  11  12
HETATM   12  C   UNL     1      -8.548   6.054  69.631  1.00  0.00    -0.126 C  
BRANCH  12  13
HETATM   13  C   UNL     1      -8.388   5.060  70.778  1.00  0.00    -0.107 C  
BRANCH  13  14
HETATM   14  C   UNL     1      -9.742   4.609  71.327  1.00  0.00    -0.182 C  
BRANCH  14  15
HETATM   15  N   UNL     1      -9.808   4.615  72.804  1.00  0.00    -0.139 NA 
HETATM   16  C   UNL     1      -8.508   4.958  73.397  1.00  0.00    -0.106 C  
BRANCH  15  17
HETATM   17  C   UNL     1     -10.872   5.562  73.231  1.00  0.00    -0.293 C  
BRANCH  17  18
HETATM   18  C   UNL     1     -10.342   6.924  73.738  1.00  0.00    -0.376 C  
BRANCH  18  19
HETATM   19  N   UNL     1     -10.694   8.108  72.920  1.00  0.00    -0.326 NA 
HETATM   20  C   UNL     1      -9.576   8.505  72.058  1.00  0.00    -0.301 C  
BRANCH  19  21
HETATM   21  C   UNL     1     -11.880   7.828  72.082  1.00  0.00    -0.324 C  
BRANCH  21  22
HETATM   22  C   UNL     1     -13.084   8.715  72.414  1.00  0.00    -0.396 C  
BRANCH  22  23
HETATM   23  C   UNL     1     -13.420   9.665  71.271  1.00  0.00    -0.289 C  
BRANCH  23  24
HETATM   24  O   UNL     1     -12.520  10.785  71.297  1.00  0.00    -0.364 OA 
BRANCH  24  25
HETATM   25  C   UNL     1     -11.816  10.998  70.156  1.00  0.00    -0.357 C  
HETATM   26  O   UNL     1     -11.231  10.149  69.504  1.00  0.00    -0.238 OA 
BRANCH  25  27
HETATM   27  C   UNL     1     -11.866  12.435  69.776  1.00  0.00    -0.387 A  
HETATM   28  C   UNL     1     -11.396  12.797  68.513  1.00  0.00    -0.326 A  
HETATM   29  C   UNL     1     -11.381  14.137  68.127  1.00  0.00    -0.290 A  
HETATM   30  C   UNL     1     -11.828  15.141  69.021  1.00  0.00    -0.304 A  
HETATM   31  C   UNL     1     -12.349  13.416  70.647  1.00  0.00    -0.423 A  
HETATM   32  C   UNL     1     -12.326  14.773  70.291  1.00  0.00    -0.345 A  
BRANCH  29  33
HETATM   33  O   UNL     1     -10.897  14.554  66.907  1.00  0.00    -0.294 OA 
HETATM   34  C   UNL     1     -11.658  14.180  65.762  1.00  0.00    -0.343 C  
ENDBRANCH  29  33
BRANCH  30  35
HETATM   35  O   UNL     1     -11.670  16.427  68.563  1.00  0.00    -0.239 OA 
HETATM   36  C   UNL     1     -10.534  17.164  68.992  1.00  0.00    -0.321 C  
ENDBRANCH  30  35
BRANCH  32  37
HETATM   37  O   UNL     1     -12.743  15.761  71.144  1.00  0.00    -0.471 OA 
HETATM   38  C   UNL     1     -12.004  15.978  72.340  1.00  0.00    -0.544 C  
ENDBRANCH  32  37
ENDBRANCH  25  27
ENDBRANCH  24  25
ENDBRANCH  23  24
ENDBRANCH  22  23
ENDBRANCH  21  22
ENDBRANCH  19  21
ENDBRANCH  18  19
ENDBRANCH  17  18
ENDBRANCH  15  17
ENDBRANCH  14  15
ENDBRANCH  13  14
ENDBRANCH  12  13
ENDBRANCH  11  12
ENDBRANCH   9  11
ENDBRANCH   5   9
BRANCH   8  39
HETATM   39  O   UNL     1      -9.889  10.387  65.484  1.00  0.00    -0.232 OA 
HETATM   40  C   UNL     1      -9.170  11.465  66.062  1.00  0.00    -0.214 C  
ENDBRANCH   8  39
BRANCH   7  41
HETATM   41  O   UNL     1      -7.861   9.241  63.786  1.00  0.00    -0.121 OA 
HETATM   42  C   UNL     1      -6.682   9.996  64.010  1.00  0.00    -0.128 C  
ENDBRANCH   7  41
ENDBRANCH   2   3
TORSDOF 21
ENDMDL
MODEL       68
REMARK 921   NORMALIZED FREE ENERGY PREDICTED BY IDOCK:   -4.74 KCAL/MOL
REMARK 922        TOTAL FREE ENERGY PREDICTED BY IDOCK:  -13.42 KCAL/MOL
REMARK 923 INTER-LIGAND FREE ENERGY PREDICTED BY IDOCK:  -11.11 KCAL/MOL
REMARK 924 INTRA-LIGAND FREE ENERGY PREDICTED BY IDOCK:   -2.31 KCAL/MOL
REMARK 927      BINDING AFFINITY PREDICTED BY RF-SCORE:    0.00 PKD
ROOT
HETATM    1  C   UNL     1     -11.966  12.232  63.666  1.00  0.00    -0.543 C  
HETATM    2  O   UNL     1     -11.075  12.163  64.777  1.00  0.00    -0.299 OA 
ENDROOT
BRANCH   2   3
HETATM    3  C   UNL     1     -11.109  13.210  65.665  1.00  0.00    -0.275 A  
HETATM    4  C   UNL     1     -10.608  14.465  65.299  1.00  0.00    -0.398 A  
HETATM    5  C   UNL     1     -10.631  15.547  66.181  1.00  0.00    -0.321 A  
HETATM    6  C   UNL     1     -11.172  15.374  67.450  1.00  0.00    -0.287 A  
HETATM    7  C   UNL     1     -11.697  13.034  66.939  1.00  0.00    -0.383 A  
HETATM    8  C   UNL     1     -11.713  14.132  67.835  1.00  0.00    -0.367 A  
BRANCH   5   9
HETATM    9  C   UNL     1     -10.058  16.823  65.688  1.00  0.00    -0.189 C  
HETATM   10  O   UNL     1     -10.758  17.740  65.281  1.00  0.00    -0.649 OA 
BRANCH   9  11
HETATM   11  O   UNL     1      -8.703  16.814  65.711  1.00  0.00    -0.496 OA 
BRANCH  11  12
HETATM   12  C   UNL     1      -8.134  17.151  66.990  1.00  0.00    -0.201 C  
BRANCH  12  13
HETATM   13  C   UNL     1      -6.912  16.276  67.253  1.00  0.00    -0.227 C  
BRANCH  13  14
HETATM   14  C   UNL     1      -7.311  14.859  67.667  1.00  0.00    -0.187 C  
BRANCH  14  15
HETATM   15  N   UNL     1      -6.368  14.238  68.621  1.00  0.00    -0.083 NA 
HETATM   16  C   UNL     1      -6.292  15.003  69.873  1.00  0.00    -0.162 C  
BRANCH  15  17
HETATM   17  C   UNL     1      -6.790  12.832  68.863  1.00  0.00    -0.096 C  
BRANCH  17  18
HETATM   18  C   UNL     1      -7.862  12.314  67.875  1.00  0.00    -0.146 C  
BRANCH  18  19
HETATM   19  N   UNL     1      -7.646  10.954  67.330  1.00  0.00    -0.097 NA 
HETATM   20  C   UNL     1      -6.227  10.718  67.045  1.00  0.00    -0.070 C  
BRANCH  19  21
HETATM   21  C   UNL     1      -8.128   9.928  68.283  1.00  0.00    -0.104 C  
BRANCH  21  22
HETATM   22  C   UNL     1      -7.667   8.510  67.935  1.00  0.00    -0.103 C  
BRANCH  22  23
HETATM   23  C   UNL     1      -8.705   7.764  67.106  1.00  0.00    -0.125 C  
BRANCH  23  24
HETATM   24  O   UNL     1      -9.052   6.534  67.764  1.00  0.00    -0.115 OA 
BRANCH  24  25
HETATM   25  C   UNL     1     -10.375   6.348  68.001  1.00  0.00    -0.193 C  
HETATM   26  O   UNL     1     -11.266   6.374  67.167  1.00  0.00    -0.370 OA 
BRANCH  25  27
HETATM   27  C   UNL     1     -10.610   6.076  69.444  1.00  0.00    -0.365 A  
HETATM   28  C   UNL     1     -11.375   6.991  70.168  1.00  0.00    -0.321 A  
HETATM   29  C   UNL     1     -11.586   6.805  71.535  1.00  0.00    -0.300 A  
HETATM   30  C   UNL     1     -11.011   5.693  72.199  1.00  0.00    -0.250 A  
HETATM   31  C   UNL     1     -10.075   4.954  70.085  1.00  0.00    -0.332 A  
HETATM   32  C   UNL     1     -10.255   4.754  71.462  1.00  0.00    -0.176 A  
BRANCH  29  33
HETATM   33  O   UNL     1     -12.304   7.693  72.304  1.00  0.00    -0.272 OA 
HETATM   34  C   UNL     1     -12.671   8.919  71.679  1.00  0.00    -0.349 C  
ENDBRANCH  29  33
BRANCH  30  35
HETATM   35  O   UNL     1     -11.207   5.674  73.559  1.00  0.00    -0.209 OA 
HETATM   36  C   UNL     1     -10.131   6.057  74.404  1.00  0.00    -0.304 C  
ENDBRANCH  30  35
BRANCH  32  37
HETATM   37  O   UNL     1      -9.699   3.693  72.126  1.00  0.00    -0.144 OA 
HETATM   38  C   UNL     1      -9.800   2.400  71.541  1.00  0.00    -0.127 C  
ENDBRANCH  32  37
ENDBRANCH  25  27
ENDBRANCH  24  25
ENDBRANCH  23  24
ENDBRANCH  22  23
ENDBRANCH  21  22
ENDBRANCH  19  21
ENDBRANCH  18  19
ENDBRANCH  17  18
ENDBRANCH  15  17
ENDBRANCH  14  15
ENDBRANCH  13  14
ENDBRANCH  12  13
ENDBRANCH  11  12
ENDBRANCH   9  11
ENDBRANCH   5   9
BRANCH   8  39
HETATM   39  O   UNL     1     -12.206  14.188  69.118  1.00  0.00    -0.335 OA 
HETATM   40  C   UNL     1     -11.788  15.225  69.992  1.00  0.00    -0.334 C  
ENDBRANCH   8  39
BRANCH   7  41
HETATM   41  O   UNL     1     -12.253  11.871  67.403  1.00  0.00    -0.502 OA 
HETATM   42  C   UNL     1     -11.587  11.079  68.372  1.00  0.00    -0.302 C  
ENDBRANCH   7  41
ENDBRANCH   2   3
TORSDOF 21
ENDMDL
MODEL       69
REMARK 921   NORMALIZED FREE ENERGY PREDICTED BY IDOCK:   -4.74 KCAL/MOL
REMARK 922        TOTAL FREE ENERGY PREDICTED BY IDOCK:  -13.41 KCAL/MOL
REMARK 923 INTER-LIGAND FREE ENERGY PREDICTED BY IDOCK:   -9.93 KCAL/MOL
REMARK 924 INTRA-LIGAND FREE ENERGY PREDICTED BY IDOCK:   -3.48 KCAL/MOL
REMARK 927      BINDING AFFINITY PREDICTED BY RF-SCORE:    0.00 PKD
ROOT
HETATM    1  C   UNL     1     -11.553  13.323  68.473  1.00  0.00    -0.333 C  
HETATM    2  O   UNL     1     -12.217  12.624  67.423  1.00  0.00    -0.406 OA 
ENDROOT
BRANCH   2   3
HETATM    3  C   UNL     1     -11.430  11.866  66.589  1.00  0.00    -0.314 A  
HETATM    4  C   UNL     1     -10.951  10.619  67.007  1.00  0.00    -0.274 A  
HETATM    5  C   UNL     1     -10.152   9.829  66.180  1.00  0.00    -0.315 A  
HETATM    6  C   UNL     1      -9.830  10.290  64.909  1.00  0.00    -0.404 A  
HETATM    7  C   UNL     1     -11.142  12.327  65.284  1.00  0.00    -0.316 A  
HETATM    8  C   UNL     1     -10.323  11.525  64.449  1.00  0.00    -0.312 A  
BRANCH   5   9
HETATM    9  C   UNL     1      -9.691   8.532  66.736  1.00  0.00    -0.236 C  
HETATM   10  O   UNL     1      -8.670   7.980  66.351  1.00  0.00    -0.135 OA 
BRANCH   9  11
HETATM   11  O   UNL     1     -10.550   8.044  67.665  1.00  0.00    -0.235 OA 
BRANCH  11  12
HETATM   12  C   UNL     1     -10.864   6.649  67.500  1.00  0.00    -0.342 C  
BRANCH  12  13
HETATM   13  C   UNL     1     -10.338   5.862  68.697  1.00  0.00    -0.271 C  
BRANCH  13  14
HETATM   14  C   UNL     1      -9.986   4.424  68.316  1.00  0.00     0.004 C  
BRANCH  14  15
HETATM   15  N   UNL     1      -8.907   3.844  69.145  1.00  0.00    -0.093 NA 
HETATM   16  C   UNL     1      -9.334   2.589  69.778  1.00  0.00    -0.106 C  
BRANCH  15  17
HETATM   17  C   UNL     1      -7.704   3.647  68.293  1.00  0.00    -0.061 C  
BRANCH  17  18
HETATM   18  C   UNL     1      -6.590   4.697  68.517  1.00  0.00    -0.046 C  
BRANCH  18  19
HETATM   19  N   UNL     1      -5.919   5.208  67.299  1.00  0.00    -0.025 NA 
HETATM   20  C   UNL     1      -6.792   5.093  66.127  1.00  0.00    -0.062 C  
BRANCH  19  21
HETATM   21  C   UNL     1      -5.525   6.624  67.477  1.00  0.00    -0.008 C  
BRANCH  21  22
HETATM   22  C   UNL     1      -5.714   7.133  68.909  1.00  0.00    -0.019 C  
BRANCH  22  23
HETATM   23  C   UNL     1      -6.330   8.526  68.939  1.00  0.00    -0.045 C  
BRANCH  23  24
HETATM   24  O   UNL     1      -7.402   8.558  69.896  1.00  0.00    -0.054 OA 
BRANCH  24  25
HETATM   25  C   UNL     1      -8.187   9.664  69.862  1.00  0.00    -0.174 C  
HETATM   26  O   UNL     1      -7.907  10.728  69.332  1.00  0.00    -0.144 OA 
BRANCH  25  27
HETATM   27  C   UNL     1      -9.478   9.406  70.551  1.00  0.00    -0.327 A  
HETATM   28  C   UNL     1      -9.582   8.262  71.344  1.00  0.00    -0.231 A  
HETATM   29  C   UNL     1     -10.787   7.952  71.975  1.00  0.00    -0.255 A  
HETATM   30  C   UNL     1     -11.918   8.788  71.801  1.00  0.00    -0.349 A  
HETATM   31  C   UNL     1     -10.579  10.258  70.410  1.00  0.00    -0.212 A  
HETATM   32  C   UNL     1     -11.807   9.958  71.017  1.00  0.00    -0.376 A  
BRANCH  29  33
HETATM   33  O   UNL     1     -10.955   6.820  72.741  1.00  0.00    -0.248 OA 
HETATM   34  C   UNL     1     -10.185   6.744  73.936  1.00  0.00    -0.367 C  
ENDBRANCH  29  33
BRANCH  30  35
HETATM   35  O   UNL     1     -13.070   8.323  72.391  1.00  0.00    -0.266 OA 
HETATM   36  C   UNL     1     -13.993   7.596  71.592  1.00  0.00    -0.408 C  
ENDBRANCH  30  35
BRANCH  32  37
HETATM   37  O   UNL     1     -12.916  10.745  70.853  1.00  0.00    -0.348 OA 
HETATM   38  C   UNL     1     -13.019  11.938  71.622  1.00  0.00    -0.342 C  
ENDBRANCH  32  37
ENDBRANCH  25  27
ENDBRANCH  24  25
ENDBRANCH  23  24
ENDBRANCH  22  23
ENDBRANCH  21  22
ENDBRANCH  19  21
ENDBRANCH  18  19
ENDBRANCH  17  18
ENDBRANCH  15  17
ENDBRANCH  14  15
ENDBRANCH  13  14
ENDBRANCH  12  13
ENDBRANCH  11  12
ENDBRANCH   9  11
ENDBRANCH   5   9
BRANCH   8  39
HETATM   39  O   UNL     1      -9.897  11.777  63.165  1.00  0.00    -0.409 OA 
HETATM   40  C   UNL     1      -8.934  10.928  62.561  1.00  0.00    -0.324 C  
ENDBRANCH   8  39
BRANCH   7  41
HETATM   41  O   UNL     1     -11.577  13.508  64.744  1.00  0.00    -0.325 OA 
HETATM   42  C   UNL     1     -10.831  14.703  64.903  1.00  0.00    -0.419 C  
ENDBRANCH   7  41
ENDBRANCH   2   3
TORSDOF 21
ENDMDL
MODEL       70
REMARK 921   NORMALIZED FREE ENERGY PREDICTED BY IDOCK:   -4.74 KCAL/MOL
REMARK 922        TOTAL FREE ENERGY PREDICTED BY IDOCK:  -13.41 KCAL/MOL
REMARK 923 INTER-LIGAND FREE ENERGY PREDICTED BY IDOCK:  -10.44 KCAL/MOL
REMARK 924 INTRA-LIGAND FREE ENERGY PREDICTED BY IDOCK:   -2.98 KCAL/MOL
REMARK 927      BINDING AFFINITY PREDICTED BY RF-SCORE:    0.00 PKD
ROOT
HETATM    1  C   UNL     1     -11.047  16.566  69.576  1.00  0.00    -0.245 C  
HETATM    2  O   UNL     1     -12.045  15.934  70.373  1.00  0.00    -0.361 OA 
ENDROOT
BRANCH   2   3
HETATM    3  C   UNL     1     -12.096  14.562  70.329  1.00  0.00    -0.323 A  
HETATM    4  C   UNL     1     -11.508  13.865  69.267  1.00  0.00    -0.348 A  
HETATM    5  C   UNL     1     -11.544  12.472  69.198  1.00  0.00    -0.375 A  
HETATM    6  C   UNL     1     -12.174  11.760  70.213  1.00  0.00    -0.381 A  
HETATM    7  C   UNL     1     -12.705  13.847  71.386  1.00  0.00    -0.365 A  
HETATM    8  C   UNL     1     -12.747  12.431  71.309  1.00  0.00    -0.248 A  
BRANCH   5   9
HETATM    9  C   UNL     1     -10.900  11.844  68.018  1.00  0.00    -0.216 C  
HETATM   10  O   UNL     1     -11.440  10.958  67.371  1.00  0.00    -0.479 OA 
BRANCH   9  11
HETATM   11  O   UNL     1      -9.659  12.341  67.793  1.00  0.00    -0.189 OA 
BRANCH  11  12
HETATM   12  C   UNL     1      -8.671  11.340  67.487  1.00  0.00    -0.138 C  
BRANCH  12  13
HETATM   13  C   UNL     1      -7.739  11.161  68.682  1.00  0.00    -0.135 C  
BRANCH  13  14
HETATM   14  C   UNL     1      -7.993   9.837  69.404  1.00  0.00    -0.125 C  
BRANCH  14  15
HETATM   15  N   UNL     1      -7.264   8.695  68.811  1.00  0.00    -0.074 NA 
HETATM   16  C   UNL     1      -5.834   8.994  68.659  1.00  0.00    -0.041 C  
BRANCH  15  17
HETATM   17  C   UNL     1      -7.486   7.495  69.660  1.00  0.00    -0.092 C  
BRANCH  17  18
HETATM   18  C   UNL     1      -8.121   7.802  71.038  1.00  0.00    -0.098 C  
BRANCH  18  19
HETATM   19  N   UNL     1      -7.367   7.332  72.224  1.00  0.00    -0.071 NA 
HETATM   20  C   UNL     1      -6.063   7.996  72.318  1.00  0.00    -0.046 C  
BRANCH  19  21
HETATM   21  C   UNL     1      -8.134   7.587  73.463  1.00  0.00    -0.133 C  
BRANCH  21  22
HETATM   22  C   UNL     1      -9.628   7.825  73.216  1.00  0.00    -0.346 C  
BRANCH  22  23
HETATM   23  C   UNL     1     -10.475   6.659  73.709  1.00  0.00    -0.333 C  
BRANCH  23  24
HETATM   24  O   UNL     1     -10.603   5.681  72.664  1.00  0.00    -0.202 OA 
BRANCH  24  25
HETATM   25  C   UNL     1     -11.494   5.981  71.685  1.00  0.00    -0.230 C  
HETATM   26  O   UNL     1     -12.615   6.435  71.848  1.00  0.00    -0.314 OA 
BRANCH  25  27
HETATM   27  C   UNL     1     -10.909   5.701  70.347  1.00  0.00    -0.326 A  
HETATM   28  C   UNL     1      -9.984   4.662  70.239  1.00  0.00    -0.309 A  
HETATM   29  C   UNL     1      -9.373   4.389  69.015  1.00  0.00    -0.154 A  
HETATM   30  C   UNL     1      -9.677   5.177  67.877  1.00  0.00    -0.145 A  
HETATM   31  C   UNL     1     -11.245   6.455  69.218  1.00  0.00    -0.440 A  
HETATM   32  C   UNL     1     -10.630   6.215  67.980  1.00  0.00    -0.268 A  
BRANCH  29  33
HETATM   33  O   UNL     1      -8.429   3.399  68.859  1.00  0.00    -0.070 OA 
HETATM   34  C   UNL     1      -8.901   2.057  68.933  1.00  0.00    -0.091 C  
ENDBRANCH  29  33
BRANCH  30  35
HETATM   35  O   UNL     1      -8.938   4.875  66.758  1.00  0.00    -0.110 OA 
HETATM   36  C   UNL     1      -9.563   4.148  65.710  1.00  0.00    -0.190 C  
ENDBRANCH  30  35
BRANCH  32  37
HETATM   37  O   UNL     1     -10.900   6.970  66.870  1.00  0.00    -0.354 OA 
HETATM   38  C   UNL     1     -10.313   8.263  66.772  1.00  0.00    -0.290 C  
ENDBRANCH  32  37
ENDBRANCH  25  27
ENDBRANCH  24  25
ENDBRANCH  23  24
ENDBRANCH  22  23
ENDBRANCH  21  22
ENDBRANCH  19  21
ENDBRANCH  18  19
ENDBRANCH  17  18
ENDBRANCH  15  17
ENDBRANCH  14  15
ENDBRANCH  13  14
ENDBRANCH  12  13
ENDBRANCH  11  12
ENDBRANCH   9  11
ENDBRANCH   5   9
BRANCH   8  39
HETATM   39  O   UNL     1     -13.299  11.538  72.198  1.00  0.00    -0.477 OA 
HETATM   40  C   UNL     1     -13.222  10.145  71.940  1.00  0.00    -0.452 C  
ENDBRANCH   8  39
BRANCH   7  41
HETATM   41  O   UNL     1     -13.283  14.406  72.495  1.00  0.00    -0.399 OA 
HETATM   42  C   UNL     1     -12.489  14.960  73.531  1.00  0.00    -0.456 C  
ENDBRANCH   7  41
ENDBRANCH   2   3
TORSDOF 21
ENDMDL
MODEL       71
REMARK 921   NORMALIZED FREE ENERGY PREDICTED BY IDOCK:   -4.73 KCAL/MOL
REMARK 922        TOTAL FREE ENERGY PREDICTED BY IDOCK:  -13.40 KCAL/MOL
REMARK 923 INTER-LIGAND FREE ENERGY PREDICTED BY IDOCK:  -10.82 KCAL/MOL
REMARK 924 INTRA-LIGAND FREE ENERGY PREDICTED BY IDOCK:   -2.58 KCAL/MOL
REMARK 927      BINDING AFFINITY PREDICTED BY RF-SCORE:    0.00 PKD
ROOT
HETATM    1  C   UNL     1      -7.946   5.333  63.222  1.00  0.00    -0.096 C  
HETATM    2  O   UNL     1      -7.333   6.276  64.098  1.00  0.00    -0.060 OA 
ENDROOT
BRANCH   2   3
HETATM    3  C   UNL     1      -8.161   6.949  64.962  1.00  0.00    -0.096 A  
HETATM    4  C   UNL     1      -8.713   6.294  66.070  1.00  0.00    -0.155 A  
HETATM    5  C   UNL     1      -9.557   6.954  66.964  1.00  0.00    -0.197 A  
HETATM    6  C   UNL     1      -9.851   8.296  66.751  1.00  0.00    -0.333 A  
HETATM    7  C   UNL     1      -8.422   8.323  64.759  1.00  0.00    -0.070 A  
HETATM    8  C   UNL     1      -9.287   8.990  65.664  1.00  0.00    -0.222 A  
BRANCH   5   9
HETATM    9  C   UNL     1     -10.093   6.154  68.093  1.00  0.00    -0.157 C  
HETATM   10  O   UNL     1     -11.267   6.203  68.430  1.00  0.00    -0.330 OA 
BRANCH   9  11
HETATM   11  O   UNL     1      -9.126   5.422  68.700  1.00  0.00    -0.112 OA 
BRANCH  11  12
HETATM   12  C   UNL     1      -8.703   5.948  69.972  1.00  0.00    -0.133 C  
BRANCH  12  13
HETATM   13  C   UNL     1      -8.545   4.804  70.970  1.00  0.00    -0.126 C  
BRANCH  13  14
HETATM   14  C   UNL     1      -9.896   4.202  71.357  1.00  0.00    -0.184 C  
BRANCH  14  15
HETATM   15  N   UNL     1     -10.194   4.308  72.801  1.00  0.00    -0.162 NA 
HETATM   16  C   UNL     1      -8.973   4.537  73.585  1.00  0.00    -0.103 C  
BRANCH  15  17
HETATM   17  C   UNL     1     -11.188   5.396  73.005  1.00  0.00    -0.311 C  
BRANCH  17  18
HETATM   18  C   UNL     1     -10.610   6.664  73.677  1.00  0.00    -0.300 C  
BRANCH  18  19
HETATM   19  N   UNL     1     -10.923   7.954  73.017  1.00  0.00    -0.384 NA 
HETATM   20  C   UNL     1      -9.773   8.448  72.252  1.00  0.00    -0.316 C  
BRANCH  19  21
HETATM   21  C   UNL     1     -12.084   7.807  72.111  1.00  0.00    -0.304 C  
BRANCH  21  22
HETATM   22  C   UNL     1     -13.231   8.770  72.432  1.00  0.00    -0.441 C  
BRANCH  22  23
HETATM   23  C   UNL     1     -13.536   9.698  71.263  1.00  0.00    -0.289 C  
BRANCH  23  24
HETATM   24  O   UNL     1     -12.589  10.780  71.249  1.00  0.00    -0.368 OA 
BRANCH  24  25
HETATM   25  C   UNL     1     -11.820  10.871  70.135  1.00  0.00    -0.353 C  
HETATM   26  O   UNL     1     -11.284   9.942  69.553  1.00  0.00    -0.229 OA 
BRANCH  25  27
HETATM   27  C   UNL     1     -11.727  12.285  69.684  1.00  0.00    -0.386 A  
HETATM   28  C   UNL     1     -12.231  13.277  70.525  1.00  0.00    -0.416 A  
HETATM   29  C   UNL     1     -12.208  14.614  70.127  1.00  0.00    -0.335 A  
HETATM   30  C   UNL     1     -11.687  14.970  68.859  1.00  0.00    -0.328 A  
HETATM   31  C   UNL     1     -11.172  12.634  68.448  1.00  0.00    -0.316 A  
HETATM   32  C   UNL     1     -11.155  13.969  68.016  1.00  0.00    -0.263 A  
BRANCH  29  33
HETATM   33  O   UNL     1     -12.722  15.629  70.902  1.00  0.00    -0.451 OA 
HETATM   34  C   UNL     1     -11.904  16.082  71.977  1.00  0.00    -0.533 C  
ENDBRANCH  29  33
BRANCH  30  35
HETATM   35  O   UNL     1     -11.811  16.302  68.542  1.00  0.00    -0.236 OA 
HETATM   36  C   UNL     1     -10.643  17.112  68.551  1.00  0.00    -0.361 C  
ENDBRANCH  30  35
BRANCH  32  37
HETATM   37  O   UNL     1     -10.667  14.334  66.790  1.00  0.00    -0.282 OA 
HETATM   38  C   UNL     1     -11.527  14.234  65.661  1.00  0.00    -0.329 C  
ENDBRANCH  32  37
ENDBRANCH  25  27
ENDBRANCH  24  25
ENDBRANCH  23  24
ENDBRANCH  22  23
ENDBRANCH  21  22
ENDBRANCH  19  21
ENDBRANCH  18  19
ENDBRANCH  17  18
ENDBRANCH  15  17
ENDBRANCH  14  15
ENDBRANCH  13  14
ENDBRANCH  12  13
ENDBRANCH  11  12
ENDBRANCH   9  11
ENDBRANCH   5   9
BRANCH   8  39
HETATM   39  O   UNL     1      -9.696  10.303  65.653  1.00  0.00    -0.211 OA 
HETATM   40  C   UNL     1      -8.864  11.307  66.213  1.00  0.00    -0.191 C  
ENDBRANCH   8  39
BRANCH   7  41
HETATM   41  O   UNL     1      -7.918   9.085  63.738  1.00  0.00    -0.131 OA 
HETATM   42  C   UNL     1      -8.612   9.209  62.508  1.00  0.00    -0.220 C  
ENDBRANCH   7  41
ENDBRANCH   2   3
TORSDOF 21
ENDMDL
MODEL       72
REMARK 921   NORMALIZED FREE ENERGY PREDICTED BY IDOCK:   -4.73 KCAL/MOL
REMARK 922        TOTAL FREE ENERGY PREDICTED BY IDOCK:  -13.39 KCAL/MOL
REMARK 923 INTER-LIGAND FREE ENERGY PREDICTED BY IDOCK:  -10.90 KCAL/MOL
REMARK 924 INTRA-LIGAND FREE ENERGY PREDICTED BY IDOCK:   -2.49 KCAL/MOL
REMARK 927      BINDING AFFINITY PREDICTED BY RF-SCORE:    0.00 PKD
ROOT
HETATM    1  C   UNL     1     -11.465  15.979  70.502  1.00  0.00    -0.389 C  
HETATM    2  O   UNL     1     -11.876  16.325  69.181  1.00  0.00    -0.249 OA 
ENDROOT
BRANCH   2   3
HETATM    3  C   UNL     1     -10.989  16.061  68.167  1.00  0.00    -0.339 A  
HETATM    4  C   UNL     1     -10.802  14.749  67.713  1.00  0.00    -0.278 A  
HETATM    5  C   UNL     1      -9.908  14.453  66.683  1.00  0.00    -0.287 A  
HETATM    6  C   UNL     1      -9.192  15.487  66.091  1.00  0.00    -0.379 A  
HETATM    7  C   UNL     1     -10.295  17.124  67.545  1.00  0.00    -0.341 A  
HETATM    8  C   UNL     1      -9.381  16.819  66.504  1.00  0.00    -0.264 A  
BRANCH   5   9
HETATM    9  C   UNL     1      -9.783  13.026  66.296  1.00  0.00    -0.263 C  
HETATM   10  O   UNL     1      -8.860  12.322  66.680  1.00  0.00    -0.204 OA 
BRANCH   9  11
HETATM   11  O   UNL     1     -10.774  12.640  65.455  1.00  0.00    -0.265 OA 
BRANCH  11  12
HETATM   12  C   UNL     1     -10.440  12.756  64.060  1.00  0.00    -0.406 C  
BRANCH  12  13
HETATM   13  C   UNL     1     -10.434  11.371  63.419  1.00  0.00    -0.452 C  
BRANCH  13  14
HETATM   14  C   UNL     1      -9.016  10.913  63.076  1.00  0.00    -0.256 C  
BRANCH  14  15
HETATM   15  N   UNL     1      -8.335  10.227  64.194  1.00  0.00    -0.163 NA 
HETATM   16  C   UNL     1      -9.271   9.399  64.966  1.00  0.00    -0.218 C  
BRANCH  15  17
HETATM   17  C   UNL     1      -7.213   9.419  63.645  1.00  0.00    -0.101 C  
BRANCH  17  18
HETATM   18  C   UNL     1      -5.812   9.874  64.121  1.00  0.00    -0.117 C  
BRANCH  18  19
HETATM   19  N   UNL     1      -5.334   9.290  65.396  1.00  0.00    -0.037 NA 
HETATM   20  C   UNL     1      -5.808  10.069  66.544  1.00  0.00    -0.059 C  
BRANCH  19  21
HETATM   21  C   UNL     1      -5.793   7.890  65.533  1.00  0.00    -0.038 C  
BRANCH  21  22
HETATM   22  C   UNL     1      -6.539   7.620  66.843  1.00  0.00    -0.062 C  
BRANCH  22  23
HETATM   23  C   UNL     1      -7.636   6.577  66.666  1.00  0.00    -0.094 C  
BRANCH  23  24
HETATM   24  O   UNL     1      -8.436   6.513  67.858  1.00  0.00    -0.118 OA 
BRANCH  24  25
HETATM   25  C   UNL     1      -9.777   6.597  67.670  1.00  0.00    -0.124 C  
HETATM   26  O   UNL     1     -10.388   6.229  66.680  1.00  0.00    -0.198 OA 
BRANCH  25  27
HETATM   27  C   UNL     1     -10.432   7.189  68.866  1.00  0.00    -0.218 A  
HETATM   28  C   UNL     1     -10.361   8.572  69.037  1.00  0.00    -0.229 A  
HETATM   29  C   UNL     1     -10.922   9.171  70.166  1.00  0.00    -0.239 A  
HETATM   30  C   UNL     1     -11.552   8.375  71.154  1.00  0.00    -0.279 A  
HETATM   31  C   UNL     1     -11.091   6.403  69.817  1.00  0.00    -0.459 A  
HETATM   32  C   UNL     1     -11.645   6.977  70.971  1.00  0.00    -0.320 A  
BRANCH  29  33
HETATM   33  O   UNL     1     -10.851  10.525  70.402  1.00  0.00    -0.263 OA 
HETATM   34  C   UNL     1     -11.447  11.371  69.422  1.00  0.00    -0.310 C  
ENDBRANCH  29  33
BRANCH  30  35
HETATM   35  O   UNL     1     -11.975   9.069  72.263  1.00  0.00    -0.338 OA 
HETATM   36  C   UNL     1     -13.354   9.391  72.376  1.00  0.00    -0.424 C  
ENDBRANCH  30  35
BRANCH  32  37
HETATM   37  O   UNL     1     -12.249   6.227  71.944  1.00  0.00    -0.329 OA 
HETATM   38  C   UNL     1     -11.443   5.345  72.718  1.00  0.00    -0.268 C  
ENDBRANCH  32  37
ENDBRANCH  25  27
ENDBRANCH  24  25
ENDBRANCH  23  24
ENDBRANCH  22  23
ENDBRANCH  21  22
ENDBRANCH  19  21
ENDBRANCH  18  19
ENDBRANCH  17  18
ENDBRANCH  15  17
ENDBRANCH  14  15
ENDBRANCH  13  14
ENDBRANCH  12  13
ENDBRANCH  11  12
ENDBRANCH   9  11
ENDBRANCH   5   9
BRANCH   8  39
HETATM   39  O   UNL     1      -8.588  17.677  65.778  1.00  0.00    -0.516 OA 
HETATM   40  C   UNL     1      -7.198  17.754  66.049  1.00  0.00    -0.287 C  
ENDBRANCH   8  39
BRANCH   7  41
HETATM   41  O   UNL     1     -10.414  18.449  67.871  1.00  0.00    -0.388 OA 
HETATM   42  C   UNL     1     -11.036  19.365  66.985  1.00  0.00    -0.331 C  
ENDBRANCH   7  41
ENDBRANCH   2   3
TORSDOF 21
ENDMDL
MODEL       73
REMARK 921   NORMALIZED FREE ENERGY PREDICTED BY IDOCK:   -4.72 KCAL/MOL
REMARK 922        TOTAL FREE ENERGY PREDICTED BY IDOCK:  -13.38 KCAL/MOL
REMARK 923 INTER-LIGAND FREE ENERGY PREDICTED BY IDOCK:  -11.27 KCAL/MOL
REMARK 924 INTRA-LIGAND FREE ENERGY PREDICTED BY IDOCK:   -2.11 KCAL/MOL
REMARK 927      BINDING AFFINITY PREDICTED BY RF-SCORE:    0.00 PKD
ROOT
HETATM    1  C   UNL     1      -7.613   8.152  73.507  1.00  0.00    -0.155 C  
HETATM    2  O   UNL     1      -8.846   8.690  73.035  1.00  0.00    -0.355 OA 
ENDROOT
BRANCH   2   3
HETATM    3  C   UNL     1      -9.833   7.789  72.720  1.00  0.00    -0.246 A  
HETATM    4  C   UNL     1      -9.678   6.431  73.024  1.00  0.00    -0.162 A  
HETATM    5  C   UNL     1     -10.666   5.495  72.715  1.00  0.00    -0.290 A  
HETATM    6  C   UNL     1     -11.835   5.924  72.098  1.00  0.00    -0.247 A  
HETATM    7  C   UNL     1     -11.035   8.242  72.127  1.00  0.00    -0.326 A  
HETATM    8  C   UNL     1     -12.034   7.287  71.808  1.00  0.00    -0.307 A  
BRANCH   5   9
HETATM    9  C   UNL     1     -10.383   4.083  73.071  1.00  0.00    -0.168 C  
HETATM   10  O   UNL     1     -10.195   3.724  74.225  1.00  0.00    -0.150 OA 
BRANCH   9  11
HETATM   11  O   UNL     1     -10.323   3.285  71.977  1.00  0.00    -0.095 OA 
BRANCH  11  12
HETATM   12  C   UNL     1      -9.171   3.516  71.144  1.00  0.00    -0.121 C  
BRANCH  12  13
HETATM   13  C   UNL     1      -9.625   3.854  69.727  1.00  0.00    -0.271 C  
BRANCH  13  14
HETATM   14  C   UNL     1      -9.239   5.281  69.336  1.00  0.00    -0.114 C  
BRANCH  14  15
HETATM   15  N   UNL     1      -8.931   5.433  67.898  1.00  0.00    -0.109 NA 
HETATM   16  C   UNL     1     -10.064   5.018  67.060  1.00  0.00    -0.214 C  
BRANCH  15  17
HETATM   17  C   UNL     1      -8.547   6.847  67.639  1.00  0.00    -0.121 C  
BRANCH  17  18
HETATM   18  C   UNL     1      -9.645   7.684  66.942  1.00  0.00    -0.193 C  
BRANCH  18  19
HETATM   19  N   UNL     1      -9.509   9.156  67.046  1.00  0.00    -0.147 NA 
HETATM   20  C   UNL     1      -8.109   9.545  67.241  1.00  0.00    -0.110 C  
BRANCH  19  21
HETATM   21  C   UNL     1     -10.032   9.814  65.828  1.00  0.00    -0.279 C  
BRANCH  21  22
HETATM   22  C   UNL     1      -9.971  11.344  65.889  1.00  0.00    -0.274 C  
BRANCH  22  23
HETATM   23  C   UNL     1     -11.184  11.986  65.228  1.00  0.00    -0.322 C  
BRANCH  23  24
HETATM   24  O   UNL     1     -11.130  13.411  65.404  1.00  0.00    -0.285 OA 
BRANCH  24  25
HETATM   25  C   UNL     1     -12.197  13.967  66.032  1.00  0.00    -0.462 C  
HETATM   26  O   UNL     1     -13.323  14.078  65.574  1.00  0.00    -0.673 OA 
BRANCH  25  27
HETATM   27  C   UNL     1     -11.819  14.415  67.398  1.00  0.00    -0.430 A  
HETATM   28  C   UNL     1     -12.058  13.547  68.464  1.00  0.00    -0.303 A  
HETATM   29  C   UNL     1     -11.762  13.940  69.769  1.00  0.00    -0.309 A  
HETATM   30  C   UNL     1     -11.232  15.229  70.022  1.00  0.00    -0.287 A  
HETATM   31  C   UNL     1     -11.255  15.673  67.636  1.00  0.00    -0.274 A  
HETATM   32  C   UNL     1     -10.968  16.100  68.941  1.00  0.00    -0.324 A  
BRANCH  29  33
HETATM   33  O   UNL     1     -12.009  13.138  70.861  1.00  0.00    -0.227 OA 
HETATM   34  C   UNL     1     -13.376  12.968  71.225  1.00  0.00    -0.006 C  
ENDBRANCH  29  33
BRANCH  30  35
HETATM   35  O   UNL     1     -11.077  15.534  71.354  1.00  0.00    -0.357 OA 
HETATM   36  C   UNL     1     -12.133  16.213  72.020  1.00  0.00    -0.496 C  
ENDBRANCH  30  35
BRANCH  32  37
HETATM   37  O   UNL     1     -10.466  17.346  69.210  1.00  0.00    -0.341 OA 
HETATM   38  C   UNL     1      -9.373  17.818  68.430  1.00  0.00    -0.294 C  
ENDBRANCH  32  37
ENDBRANCH  25  27
ENDBRANCH  24  25
ENDBRANCH  23  24
ENDBRANCH  22  23
ENDBRANCH  21  22
ENDBRANCH  19  21
ENDBRANCH  18  19
ENDBRANCH  17  18
ENDBRANCH  15  17
ENDBRANCH  14  15
ENDBRANCH  13  14
ENDBRANCH  12  13
ENDBRANCH  11  12
ENDBRANCH   9  11
ENDBRANCH   5   9
BRANCH   8  39
HETATM   39  O   UNL     1     -13.259   7.490  71.216  1.00  0.00    -0.325 OA 
HETATM   40  C   UNL     1     -14.329   8.032  71.975  1.00  0.00    -0.410 C  
ENDBRANCH   8  39
BRANCH   7  41
HETATM   41  O   UNL     1     -11.325   9.543  71.814  1.00  0.00    -0.370 OA 
HETATM   42  C   UNL     1     -11.015  10.073  70.536  1.00  0.00    -0.326 C  
ENDBRANCH   7  41
ENDBRANCH   2   3
TORSDOF 21
ENDMDL
MODEL       74
REMARK 921   NORMALIZED FREE ENERGY PREDICTED BY IDOCK:   -4.72 KCAL/MOL
REMARK 922        TOTAL FREE ENERGY PREDICTED BY IDOCK:  -13.37 KCAL/MOL
REMARK 923 INTER-LIGAND FREE ENERGY PREDICTED BY IDOCK:  -10.58 KCAL/MOL
REMARK 924 INTRA-LIGAND FREE ENERGY PREDICTED BY IDOCK:   -2.78 KCAL/MOL
REMARK 927      BINDING AFFINITY PREDICTED BY RF-SCORE:    0.00 PKD
ROOT
HETATM    1  C   UNL     1     -12.249  15.879  72.750  1.00  0.00    -0.500 C  
HETATM    2  O   UNL     1     -12.492  16.034  71.354  1.00  0.00    -0.446 OA 
ENDROOT
BRANCH   2   3
HETATM    3  C   UNL     1     -12.286  14.931  70.563  1.00  0.00    -0.342 A  
HETATM    4  C   UNL     1     -12.479  13.643  71.079  1.00  0.00    -0.456 A  
HETATM    5  C   UNL     1     -12.277  12.505  70.297  1.00  0.00    -0.345 A  
HETATM    6  C   UNL     1     -11.884  12.655  68.972  1.00  0.00    -0.341 A  
HETATM    7  C   UNL     1     -11.924  15.095  69.206  1.00  0.00    -0.292 A  
HETATM    8  C   UNL     1     -11.713  13.937  68.416  1.00  0.00    -0.356 A  
BRANCH   5   9
HETATM    9  C   UNL     1     -12.498  11.194  70.956  1.00  0.00    -0.403 C  
HETATM   10  O   UNL     1     -13.145  11.080  71.988  1.00  0.00    -0.496 OA 
BRANCH   9  11
HETATM   11  O   UNL     1     -11.869  10.185  70.303  1.00  0.00    -0.266 OA 
BRANCH  11  12
HETATM   12  C   UNL     1     -10.743   9.638  71.012  1.00  0.00    -0.323 C  
BRANCH  12  13
HETATM   13  C   UNL     1      -9.494   9.733  70.139  1.00  0.00    -0.277 C  
BRANCH  13  14
HETATM   14  C   UNL     1      -8.239   9.310  70.902  1.00  0.00    -0.132 C  
BRANCH  14  15
HETATM   15  N   UNL     1      -7.935   7.868  70.778  1.00  0.00    -0.097 NA 
HETATM   16  C   UNL     1      -6.613   7.649  70.175  1.00  0.00    -0.038 C  
BRANCH  15  17
HETATM   17  C   UNL     1      -8.034   7.243  72.124  1.00  0.00    -0.093 C  
BRANCH  17  18
HETATM   18  C   UNL     1      -8.644   5.821  72.119  1.00  0.00    -0.129 C  
BRANCH  18  19
HETATM   19  N   UNL     1      -9.958   5.672  72.787  1.00  0.00    -0.171 NA 
HETATM   20  C   UNL     1     -10.291   6.866  73.570  1.00  0.00    -0.338 C  
BRANCH  19  21
HETATM   21  C   UNL     1     -11.025   5.428  71.791  1.00  0.00    -0.128 C  
BRANCH  21  22
HETATM   22  C   UNL     1     -10.500   5.301  70.357  1.00  0.00    -0.322 C  
BRANCH  22  23
HETATM   23  C   UNL     1     -11.075   6.378  69.446  1.00  0.00    -0.387 C  
BRANCH  23  24
HETATM   24  O   UNL     1     -10.068   6.806  68.513  1.00  0.00    -0.151 OA 
BRANCH  24  25
HETATM   25  C   UNL     1     -10.460   6.873  67.216  1.00  0.00    -0.287 C  
HETATM   26  O   UNL     1     -11.405   6.281  66.719  1.00  0.00    -0.229 OA 
BRANCH  25  27
HETATM   27  C   UNL     1      -9.583   7.802  66.456  1.00  0.00    -0.270 A  
HETATM   28  C   UNL     1      -8.536   7.257  65.712  1.00  0.00    -0.148 A  
HETATM   29  C   UNL     1      -7.658   8.091  65.018  1.00  0.00    -0.104 A  
HETATM   30  C   UNL     1      -7.815   9.497  65.079  1.00  0.00    -0.117 A  
HETATM   31  C   UNL     1      -9.769   9.189  66.485  1.00  0.00    -0.306 A  
HETATM   32  C   UNL     1      -8.889  10.050  65.814  1.00  0.00    -0.150 A  
BRANCH  29  33
HETATM   33  O   UNL     1      -6.589   7.609  64.297  1.00  0.00    -0.051 OA 
HETATM   34  C   UNL     1      -6.026   6.380  64.745  1.00  0.00    -0.026 C  
ENDBRANCH  29  33
BRANCH  30  35
HETATM   35  O   UNL     1      -6.831  10.212  64.437  1.00  0.00    -0.127 OA 
HETATM   36  C   UNL     1      -5.603  10.434  65.117  1.00  0.00    -0.137 C  
ENDBRANCH  30  35
BRANCH  32  37
HETATM   37  O   UNL     1      -9.015  11.412  65.867  1.00  0.00    -0.207 OA 
HETATM   38  C   UNL     1      -8.460  12.100  66.982  1.00  0.00    -0.183 C  
ENDBRANCH  32  37
ENDBRANCH  25  27
ENDBRANCH  24  25
ENDBRANCH  23  24
ENDBRANCH  22  23
ENDBRANCH  21  22
ENDBRANCH  19  21
ENDBRANCH  18  19
ENDBRANCH  17  18
ENDBRANCH  15  17
ENDBRANCH  14  15
ENDBRANCH  13  14
ENDBRANCH  12  13
ENDBRANCH  11  12
ENDBRANCH   9  11
ENDBRANCH   5   9
BRANCH   8  39
HETATM   39  O   UNL     1     -11.340  13.854  67.095  1.00  0.00    -0.302 OA 
HETATM   40  C   UNL     1     -12.295  14.100  66.074  1.00  0.00    -0.445 C  
ENDBRANCH   8  39
BRANCH   7  41
HETATM   41  O   UNL     1     -11.741  16.296  68.573  1.00  0.00    -0.302 OA 
HETATM   42  C   UNL     1     -10.502  16.981  68.652  1.00  0.00    -0.363 C  
ENDBRANCH   7  41
ENDBRANCH   2   3
TORSDOF 21
ENDMDL
MODEL       75
REMARK 921   NORMALIZED FREE ENERGY PREDICTED BY IDOCK:   -4.70 KCAL/MOL
REMARK 922        TOTAL FREE ENERGY PREDICTED BY IDOCK:  -13.32 KCAL/MOL
REMARK 923 INTER-LIGAND FREE ENERGY PREDICTED BY IDOCK:  -11.09 KCAL/MOL
REMARK 924 INTRA-LIGAND FREE ENERGY PREDICTED BY IDOCK:   -2.23 KCAL/MOL
REMARK 927      BINDING AFFINITY PREDICTED BY RF-SCORE:    0.00 PKD
ROOT
HETATM    1  C   UNL     1     -14.153   8.140  71.748  1.00  0.00    -0.439 C  
HETATM    2  O   UNL     1     -12.776   7.860  71.987  1.00  0.00    -0.311 OA 
ENDROOT
BRANCH   2   3
HETATM    3  C   UNL     1     -11.861   8.607  71.287  1.00  0.00    -0.295 A  
HETATM    4  C   UNL     1     -12.226   9.844  70.741  1.00  0.00    -0.380 A  
HETATM    5  C   UNL     1     -11.316  10.624  70.026  1.00  0.00    -0.400 A  
HETATM    6  C   UNL     1     -10.014  10.163  69.859  1.00  0.00    -0.250 A  
HETATM    7  C   UNL     1     -10.530   8.148  71.156  1.00  0.00    -0.199 A  
HETATM    8  C   UNL     1      -9.610   8.939  70.422  1.00  0.00    -0.194 A  
BRANCH   5   9
HETATM    9  C   UNL     1     -11.819  11.909  69.482  1.00  0.00    -0.331 C  
HETATM   10  O   UNL     1     -11.953  12.906  70.177  1.00  0.00    -0.341 OA 
BRANCH   9  11
HETATM   11  O   UNL     1     -12.139  11.814  68.168  1.00  0.00    -0.556 OA 
BRANCH  11  12
HETATM   12  C   UNL     1     -11.974  13.040  67.432  1.00  0.00    -0.316 C  
BRANCH  12  13
HETATM   13  C   UNL     1     -11.714  12.723  65.962  1.00  0.00    -0.470 C  
BRANCH  13  14
HETATM   14  C   UNL     1     -10.514  11.792  65.789  1.00  0.00    -0.260 C  
BRANCH  14  15
HETATM   15  N   UNL     1     -10.617  10.915  64.603  1.00  0.00    -0.313 NA 
HETATM   16  C   UNL     1     -10.431  11.673  63.359  1.00  0.00    -0.426 C  
BRANCH  15  17
HETATM   17  C   UNL     1      -9.619   9.819  64.732  1.00  0.00    -0.214 C  
BRANCH  17  18
HETATM   18  C   UNL     1      -8.152  10.272  64.536  1.00  0.00    -0.150 C  
BRANCH  18  19
HETATM   19  N   UNL     1      -7.189   9.833  65.572  1.00  0.00    -0.102 NA 
HETATM   20  C   UNL     1      -6.544   8.571  65.193  1.00  0.00    -0.064 C  
BRANCH  19  21
HETATM   21  C   UNL     1      -6.150  10.865  65.789  1.00  0.00    -0.073 C  
BRANCH  21  22
HETATM   22  C   UNL     1      -6.092  11.377  67.232  1.00  0.00    -0.085 C  
BRANCH  22  23
HETATM   23  C   UNL     1      -7.224  12.351  67.533  1.00  0.00    -0.145 C  
BRANCH  23  24
HETATM   24  O   UNL     1      -6.772  13.697  67.305  1.00  0.00    -0.222 OA 
BRANCH  24  25
HETATM   25  C   UNL     1      -7.089  14.593  68.274  1.00  0.00    -0.115 C  
HETATM   26  O   UNL     1      -6.894  14.457  69.471  1.00  0.00    -0.136 OA 
BRANCH  25  27
HETATM   27  C   UNL     1      -7.700  15.809  67.675  1.00  0.00    -0.174 A  
HETATM   28  C   UNL     1      -7.238  17.055  68.102  1.00  0.00    -0.186 A  
HETATM   29  C   UNL     1      -7.810  18.225  67.603  1.00  0.00    -0.229 A  
HETATM   30  C   UNL     1      -8.875  18.156  66.672  1.00  0.00    -0.275 A  
HETATM   31  C   UNL     1      -8.722  15.734  66.723  1.00  0.00    -0.305 A  
HETATM   32  C   UNL     1      -9.328  16.896  66.221  1.00  0.00    -0.262 A  
BRANCH  29  33
HETATM   33  O   UNL     1      -7.417  19.479  68.015  1.00  0.00    -0.269 OA 
HETATM   34  C   UNL     1      -6.117  19.900  67.611  1.00  0.00    -0.191 C  
ENDBRANCH  29  33
BRANCH  30  35
HETATM   35  O   UNL     1      -9.419  19.372  66.333  1.00  0.00    -0.342 OA 
HETATM   36  C   UNL     1     -10.499  19.871  67.110  1.00  0.00    -0.433 C  
ENDBRANCH  30  35
BRANCH  32  37
HETATM   37  O   UNL     1     -10.366  16.852  65.329  1.00  0.00    -0.624 OA 
HETATM   38  C   UNL     1     -10.783  15.584  64.837  1.00  0.00    -0.392 C  
ENDBRANCH  32  37
ENDBRANCH  25  27
ENDBRANCH  24  25
ENDBRANCH  23  24
ENDBRANCH  22  23
ENDBRANCH  21  22
ENDBRANCH  19  21
ENDBRANCH  18  19
ENDBRANCH  17  18
ENDBRANCH  15  17
ENDBRANCH  14  15
ENDBRANCH  13  14
ENDBRANCH  12  13
ENDBRANCH  11  12
ENDBRANCH   9  11
ENDBRANCH   5   9
BRANCH   8  39
HETATM   39  O   UNL     1      -8.286   8.686  70.150  1.00  0.00    -0.111 OA 
HETATM   40  C   UNL     1      -7.885   8.365  68.827  1.00  0.00    -0.115 C  
ENDBRANCH   8  39
BRANCH   7  41
HETATM   41  O   UNL     1     -10.040   6.977  71.671  1.00  0.00    -0.183 OA 
HETATM   42  C   UNL     1     -10.262   5.741  71.015  1.00  0.00    -0.217 C  
ENDBRANCH   7  41
ENDBRANCH   2   3
TORSDOF 21
ENDMDL
MODEL       76
REMARK 921   NORMALIZED FREE ENERGY PREDICTED BY IDOCK:   -4.68 KCAL/MOL
REMARK 922        TOTAL FREE ENERGY PREDICTED BY IDOCK:  -13.30 KCAL/MOL
REMARK 923 INTER-LIGAND FREE ENERGY PREDICTED BY IDOCK:  -10.39 KCAL/MOL
REMARK 924 INTRA-LIGAND FREE ENERGY PREDICTED BY IDOCK:   -2.90 KCAL/MOL
REMARK 927      BINDING AFFINITY PREDICTED BY RF-SCORE:    0.00 PKD
ROOT
HETATM    1  C   UNL     1      -9.727  10.885  63.116  1.00  0.00    -0.363 C  
HETATM    2  O   UNL     1      -8.550  10.081  63.156  1.00  0.00    -0.161 OA 
ENDROOT
BRANCH   2   3
HETATM    3  C   UNL     1      -7.955   9.916  64.383  1.00  0.00    -0.146 A  
HETATM    4  C   UNL     1      -8.177  10.841  65.409  1.00  0.00    -0.077 A  
HETATM    5  C   UNL     1      -7.586  10.696  66.665  1.00  0.00    -0.129 A  
HETATM    6  C   UNL     1      -6.762   9.602  66.903  1.00  0.00    -0.075 A  
HETATM    7  C   UNL     1      -7.151   8.778  64.626  1.00  0.00    -0.088 A  
HETATM    8  C   UNL     1      -6.545   8.637  65.901  1.00  0.00    -0.057 A  
BRANCH   5   9
HETATM    9  C   UNL     1      -7.883  11.748  67.669  1.00  0.00    -0.138 C  
HETATM   10  O   UNL     1      -8.177  11.483  68.826  1.00  0.00    -0.145 OA 
BRANCH   9  11
HETATM   11  O   UNL     1      -7.826  12.992  67.133  1.00  0.00    -0.151 OA 
BRANCH  11  12
HETATM   12  C   UNL     1      -8.856  13.882  67.603  1.00  0.00    -0.191 C  
BRANCH  12  13
HETATM   13  C   UNL     1      -9.356  14.741  66.446  1.00  0.00    -0.320 C  
BRANCH  13  14
HETATM   14  C   UNL     1     -10.635  15.494  66.813  1.00  0.00    -0.307 C  
BRANCH  14  15
HETATM   15  N   UNL     1     -10.441  16.496  67.883  1.00  0.00    -0.302 NA 
HETATM   16  C   UNL     1     -10.529  17.865  67.358  1.00  0.00    -0.383 C  
BRANCH  15  17
HETATM   17  C   UNL     1     -11.447  16.253  68.952  1.00  0.00    -0.282 C  
BRANCH  17  18
HETATM   18  C   UNL     1     -10.837  16.012  70.353  1.00  0.00    -0.286 C  
BRANCH  18  19
HETATM   19  N   UNL     1     -11.718  15.351  71.344  1.00  0.00    -0.356 NA 
HETATM   20  C   UNL     1     -11.947  16.216  72.506  1.00  0.00    -0.561 C  
BRANCH  19  21
HETATM   21  C   UNL     1     -13.019  15.000  70.733  1.00  0.00    -0.389 C  
BRANCH  21  22
HETATM   22  C   UNL     1     -14.053  14.502  71.747  1.00  0.00    -0.578 C  
BRANCH  22  23
HETATM   23  C   UNL     1     -13.654  13.161  72.350  1.00  0.00    -0.567 C  
BRANCH  23  24
HETATM   24  O   UNL     1     -13.020  12.352  71.345  1.00  0.00    -0.361 OA 
BRANCH  24  25
HETATM   25  C   UNL     1     -13.027  11.015  71.577  1.00  0.00    -0.448 C  
HETATM   26  O   UNL     1     -13.691  10.435  72.421  1.00  0.00    -0.162 OA 
BRANCH  25  27
HETATM   27  C   UNL     1     -12.116  10.319  70.630  1.00  0.00    -0.433 A  
HETATM   28  C   UNL     1     -12.045  10.793  69.319  1.00  0.00    -0.278 A  
HETATM   29  C   UNL     1     -11.238  10.146  68.382  1.00  0.00    -0.177 A  
HETATM   30  C   UNL     1     -10.500   8.996  68.751  1.00  0.00    -0.206 A  
HETATM   31  C   UNL     1     -11.356   9.209  71.012  1.00  0.00    -0.377 A  
HETATM   32  C   UNL     1     -10.553   8.529  70.084  1.00  0.00    -0.232 A  
BRANCH  29  33
HETATM   33  O   UNL     1     -11.157  10.549  67.068  1.00  0.00    -0.236 OA 
HETATM   34  C   UNL     1     -11.607  11.870  66.782  1.00  0.00    -0.268 C  
ENDBRANCH  29  33
BRANCH  30  35
HETATM   35  O   UNL     1      -9.824   8.392  67.717  1.00  0.00    -0.159 OA 
HETATM   36  C   UNL     1     -10.492   7.387  66.967  1.00  0.00    -0.333 C  
ENDBRANCH  30  35
BRANCH  32  37
HETATM   37  O   UNL     1      -9.840   7.408  70.416  1.00  0.00    -0.183 OA 
HETATM   38  C   UNL     1     -10.551   6.198  70.652  1.00  0.00    -0.249 C  
ENDBRANCH  32  37
ENDBRANCH  25  27
ENDBRANCH  24  25
ENDBRANCH  23  24
ENDBRANCH  22  23
ENDBRANCH  21  22
ENDBRANCH  19  21
ENDBRANCH  18  19
ENDBRANCH  17  18
ENDBRANCH  15  17
ENDBRANCH  14  15
ENDBRANCH  13  14
ENDBRANCH  12  13
ENDBRANCH  11  12
ENDBRANCH   9  11
ENDBRANCH   5   9
BRANCH   8  39
HETATM   39  O   UNL     1      -5.716   7.637  66.353  1.00  0.00    -0.034 OA 
HETATM   40  C   UNL     1      -6.192   6.703  67.309  1.00  0.00    -0.036 C  
ENDBRANCH   8  39
BRANCH   7  41
HETATM   41  O   UNL     1      -6.885   7.785  63.722  1.00  0.00    -0.060 OA 
HETATM   42  C   UNL     1      -7.855   6.797  63.416  1.00  0.00    -0.107 C  
ENDBRANCH   7  41
ENDBRANCH   2   3
TORSDOF 21
ENDMDL
MODEL       77
REMARK 921   NORMALIZED FREE ENERGY PREDICTED BY IDOCK:   -4.68 KCAL/MOL
REMARK 922        TOTAL FREE ENERGY PREDICTED BY IDOCK:  -13.29 KCAL/MOL
REMARK 923 INTER-LIGAND FREE ENERGY PREDICTED BY IDOCK:  -10.76 KCAL/MOL
REMARK 924 INTRA-LIGAND FREE ENERGY PREDICTED BY IDOCK:   -2.52 KCAL/MOL
REMARK 927      BINDING AFFINITY PREDICTED BY RF-SCORE:    0.00 PKD
ROOT
HETATM    1  C   UNL     1     -11.292  16.072  64.354  1.00  0.00    -0.245 C  
HETATM    2  O   UNL     1     -12.074  14.924  64.677  1.00  0.00    -0.427 OA 
ENDROOT
BRANCH   2   3
HETATM    3  C   UNL     1     -11.860  14.356  65.909  1.00  0.00    -0.367 A  
HETATM    4  C   UNL     1     -11.539  15.156  67.013  1.00  0.00    -0.179 A  
HETATM    5  C   UNL     1     -11.317  14.604  68.275  1.00  0.00    -0.317 A  
HETATM    6  C   UNL     1     -11.426  13.228  68.441  1.00  0.00    -0.349 A  
HETATM    7  C   UNL     1     -12.011  12.960  66.075  1.00  0.00    -0.446 A  
HETATM    8  C   UNL     1     -11.778  12.401  67.358  1.00  0.00    -0.347 A  
BRANCH   5   9
HETATM    9  C   UNL     1     -10.969  15.549  69.365  1.00  0.00    -0.276 C  
HETATM   10  O   UNL     1     -11.622  15.628  70.396  1.00  0.00    -0.289 OA 
BRANCH   9  11
HETATM   11  O   UNL     1      -9.893  16.311  69.052  1.00  0.00    -0.234 OA 
BRANCH  11  12
HETATM   12  C   UNL     1      -8.628  15.657  69.260  1.00  0.00    -0.262 C  
BRANCH  12  13
HETATM   13  C   UNL     1      -7.966  15.384  67.912  1.00  0.00    -0.144 C  
BRANCH  13  14
HETATM   14  C   UNL     1      -6.560  14.807  68.080  1.00  0.00    -0.147 C  
BRANCH  14  15
HETATM   15  N   UNL     1      -6.505  13.338  67.926  1.00  0.00    -0.129 NA 
HETATM   16  C   UNL     1      -6.145  12.679  69.188  1.00  0.00    -0.092 C  
BRANCH  15  17
HETATM   17  C   UNL     1      -7.819  12.863  67.415  1.00  0.00    -0.170 C  
BRANCH  17  18
HETATM   18  C   UNL     1      -8.276  11.507  68.005  1.00  0.00    -0.143 C  
BRANCH  18  19
HETATM   19  N   UNL     1      -8.528  10.421  67.030  1.00  0.00    -0.126 NA 
HETATM   20  C   UNL     1      -7.441  10.330  66.049  1.00  0.00    -0.128 C  
BRANCH  19  21
HETATM   21  C   UNL     1      -8.670   9.121  67.722  1.00  0.00    -0.121 C  
BRANCH  21  22
HETATM   22  C   UNL     1      -7.992   7.962  66.986  1.00  0.00    -0.112 C  
BRANCH  22  23
HETATM   23  C   UNL     1      -8.987   7.157  66.159  1.00  0.00    -0.140 C  
BRANCH  23  24
HETATM   24  O   UNL     1     -10.183   6.937  66.926  1.00  0.00    -0.212 OA 
BRANCH  24  25
HETATM   25  C   UNL     1     -10.354   5.676  67.397  1.00  0.00    -0.230 C  
HETATM   26  O   UNL     1     -10.315   4.651  66.736  1.00  0.00    -0.217 OA 
BRANCH  25  27
HETATM   27  C   UNL     1     -10.580   5.697  68.866  1.00  0.00    -0.303 A  
HETATM   28  C   UNL     1     -11.432   6.673  69.386  1.00  0.00    -0.288 A  
HETATM   29  C   UNL     1     -11.641   6.762  70.763  1.00  0.00    -0.366 A  
HETATM   30  C   UNL     1     -10.977   5.872  71.642  1.00  0.00    -0.268 A  
HETATM   31  C   UNL     1      -9.955   4.788  69.726  1.00  0.00    -0.308 A  
HETATM   32  C   UNL     1     -10.132   4.869  71.116  1.00  0.00    -0.207 A  
BRANCH  29  33
HETATM   33  O   UNL     1     -12.442   7.726  71.332  1.00  0.00    -0.316 OA 
HETATM   34  C   UNL     1     -13.831   7.421  71.424  1.00  0.00    -0.328 C  
ENDBRANCH  29  33
BRANCH  30  35
HETATM   35  O   UNL     1     -11.186   6.125  72.978  1.00  0.00    -0.242 OA 
HETATM   36  C   UNL     1     -10.237   6.921  73.673  1.00  0.00    -0.340 C  
ENDBRANCH  30  35
BRANCH  32  37
HETATM   37  O   UNL     1      -9.492   4.027  71.985  1.00  0.00    -0.124 OA 
HETATM   38  C   UNL     1      -9.856   2.651  71.987  1.00  0.00    -0.163 C  
ENDBRANCH  32  37
ENDBRANCH  25  27
ENDBRANCH  24  25
ENDBRANCH  23  24
ENDBRANCH  22  23
ENDBRANCH  21  22
ENDBRANCH  19  21
ENDBRANCH  18  19
ENDBRANCH  17  18
ENDBRANCH  15  17
ENDBRANCH  14  15
ENDBRANCH  13  14
ENDBRANCH  12  13
ENDBRANCH  11  12
ENDBRANCH   9  11
ENDBRANCH   5   9
BRANCH   8  39
HETATM   39  O   UNL     1     -11.844  11.084  67.746  1.00  0.00    -0.605 OA 
HETATM   40  C   UNL     1     -11.811  10.751  69.126  1.00  0.00    -0.275 C  
ENDBRANCH   8  39
BRANCH   7  41
HETATM   41  O   UNL     1     -12.356  12.075  65.088  1.00  0.00    -0.423 OA 
HETATM   42  C   UNL     1     -11.441  11.734  64.061  1.00  0.00    -0.359 C  
ENDBRANCH   7  41
ENDBRANCH   2   3
TORSDOF 21
ENDMDL
MODEL       78
REMARK 921   NORMALIZED FREE ENERGY PREDICTED BY IDOCK:   -4.68 KCAL/MOL
REMARK 922        TOTAL FREE ENERGY PREDICTED BY IDOCK:  -13.27 KCAL/MOL
REMARK 923 INTER-LIGAND FREE ENERGY PREDICTED BY IDOCK:  -10.12 KCAL/MOL
REMARK 924 INTRA-LIGAND FREE ENERGY PREDICTED BY IDOCK:   -3.15 KCAL/MOL
REMARK 927      BINDING AFFINITY PREDICTED BY RF-SCORE:    0.00 PKD
ROOT
HETATM    1  C   UNL     1      -7.853  15.353  67.050  1.00  0.00    -0.209 C  
HETATM    2  O   UNL     1      -9.010  14.711  67.581  1.00  0.00    -0.176 OA 
ENDROOT
BRANCH   2   3
HETATM    3  C   UNL     1      -9.594  13.743  66.801  1.00  0.00    -0.279 A  
HETATM    4  C   UNL     1      -9.043  12.458  66.737  1.00  0.00    -0.212 A  
HETATM    5  C   UNL     1      -9.616  11.455  65.953  1.00  0.00    -0.254 A  
HETATM    6  C   UNL     1     -10.766  11.740  65.225  1.00  0.00    -0.338 A  
HETATM    7  C   UNL     1     -10.785  14.032  66.096  1.00  0.00    -0.289 A  
HETATM    8  C   UNL     1     -11.361  13.014  65.295  1.00  0.00    -0.295 A  
BRANCH   5   9
HETATM    9  C   UNL     1      -8.936  10.137  65.952  1.00  0.00    -0.157 C  
HETATM   10  O   UNL     1      -7.720  10.027  65.884  1.00  0.00    -0.107 OA 
BRANCH   9  11
HETATM   11  O   UNL     1      -9.820   9.109  65.992  1.00  0.00    -0.277 OA 
BRANCH  11  12
HETATM   12  C   UNL     1      -9.227   7.835  66.300  1.00  0.00    -0.166 C  
BRANCH  12  13
HETATM   13  C   UNL     1     -10.167   7.038  67.201  1.00  0.00    -0.318 C  
BRANCH  13  14
HETATM   14  C   UNL     1      -9.397   6.221  68.239  1.00  0.00    -0.112 C  
BRANCH  14  15
HETATM   15  N   UNL     1      -9.267   4.792  67.883  1.00  0.00    -0.117 NA 
HETATM   16  C   UNL     1      -7.912   4.480  67.409  1.00  0.00    -0.100 C  
BRANCH  15  17
HETATM   17  C   UNL     1      -9.637   3.970  69.066  1.00  0.00    -0.153 C  
BRANCH  17  18
HETATM   18  C   UNL     1      -9.591   4.737  70.409  1.00  0.00    -0.197 C  
BRANCH  18  19
HETATM   19  N   UNL     1      -8.388   4.519  71.246  1.00  0.00    -0.101 NA 
HETATM   20  C   UNL     1      -7.569   5.733  71.321  1.00  0.00    -0.104 C  
BRANCH  19  21
HETATM   21  C   UNL     1      -8.773   4.106  72.614  1.00  0.00    -0.104 C  
BRANCH  21  22
HETATM   22  C   UNL     1     -10.288   4.102  72.845  1.00  0.00    -0.241 C  
BRANCH  22  23
HETATM   23  C   UNL     1     -10.708   5.158  73.859  1.00  0.00    -0.290 C  
BRANCH  23  24
HETATM   24  O   UNL     1     -11.160   6.335  73.167  1.00  0.00    -0.243 OA 
BRANCH  24  25
HETATM   25  C   UNL     1     -10.321   7.400  73.212  1.00  0.00    -0.355 C  
HETATM   26  O   UNL     1      -9.380   7.543  73.975  1.00  0.00    -0.263 OA 
BRANCH  25  27
HETATM   27  C   UNL     1     -10.688   8.393  72.168  1.00  0.00    -0.407 A  
HETATM   28  C   UNL     1      -9.753   8.673  71.170  1.00  0.00    -0.287 A  
HETATM   29  C   UNL     1     -10.033   9.629  70.194  1.00  0.00    -0.261 A  
HETATM   30  C   UNL     1     -11.261  10.335  70.219  1.00  0.00    -0.323 A  
HETATM   31  C   UNL     1     -11.920   9.055  72.173  1.00  0.00    -0.395 A  
HETATM   32  C   UNL     1     -12.218  10.036  71.215  1.00  0.00    -0.402 A  
BRANCH  29  33
HETATM   33  O   UNL     1      -9.134   9.969  69.208  1.00  0.00    -0.174 OA 
HETATM   34  C   UNL     1      -7.793  10.205  69.627  1.00  0.00    -0.175 C  
ENDBRANCH  29  33
BRANCH  30  35
HETATM   35  O   UNL     1     -11.376  11.319  69.266  1.00  0.00    -0.238 OA 
HETATM   36  C   UNL     1     -11.309  12.676  69.683  1.00  0.00    -0.104 C  
ENDBRANCH  30  35
BRANCH  32  37
HETATM   37  O   UNL     1     -13.394  10.738  71.227  1.00  0.00    -0.278 OA 
HETATM   38  C   UNL     1     -13.502  11.863  72.091  1.00  0.00    -0.195 C  
ENDBRANCH  32  37
ENDBRANCH  25  27
ENDBRANCH  24  25
ENDBRANCH  23  24
ENDBRANCH  22  23
ENDBRANCH  21  22
ENDBRANCH  19  21
ENDBRANCH  18  19
ENDBRANCH  17  18
ENDBRANCH  15  17
ENDBRANCH  14  15
ENDBRANCH  13  14
ENDBRANCH  12  13
ENDBRANCH  11  12
ENDBRANCH   9  11
ENDBRANCH   5   9
BRANCH   8  39
HETATM   39  O   UNL     1     -12.492  13.071  64.514  1.00  0.00    -0.516 OA 
HETATM   40  C   UNL     1     -12.631  12.194  63.407  1.00  0.00    -0.463 C  
ENDBRANCH   8  39
BRANCH   7  41
HETATM   41  O   UNL     1     -11.441  15.234  66.104  1.00  0.00    -0.237 OA 
HETATM   42  C   UNL     1     -11.112  16.252  65.174  1.00  0.00    -0.212 C  
ENDBRANCH   7  41
ENDBRANCH   2   3
TORSDOF 21
ENDMDL
MODEL       79
REMARK 921   NORMALIZED FREE ENERGY PREDICTED BY IDOCK:   -4.66 KCAL/MOL
REMARK 922        TOTAL FREE ENERGY PREDICTED BY IDOCK:  -13.23 KCAL/MOL
REMARK 923 INTER-LIGAND FREE ENERGY PREDICTED BY IDOCK:  -10.90 KCAL/MOL
REMARK 924 INTRA-LIGAND FREE ENERGY PREDICTED BY IDOCK:   -2.33 KCAL/MOL
REMARK 927      BINDING AFFINITY PREDICTED BY RF-SCORE:    0.00 PKD
ROOT
HETATM    1  C   UNL     1     -10.739   5.482  73.809  1.00  0.00    -0.260 C  
HETATM    2  O   UNL     1     -11.669   6.182  72.987  1.00  0.00    -0.050 OA 
ENDROOT
BRANCH   2   3
HETATM    3  C   UNL     1     -11.182   7.249  72.272  1.00  0.00    -0.267 A  
HETATM    4  C   UNL     1      -9.930   7.174  71.651  1.00  0.00    -0.186 A  
HETATM    5  C   UNL     1      -9.412   8.243  70.918  1.00  0.00    -0.192 A  
HETATM    6  C   UNL     1     -10.163   9.407  70.797  1.00  0.00    -0.368 A  
HETATM    7  C   UNL     1     -11.971   8.414  72.123  1.00  0.00    -0.374 A  
HETATM    8  C   UNL     1     -11.439   9.501  71.384  1.00  0.00    -0.392 A  
BRANCH   5   9
HETATM    9  C   UNL     1      -8.069   8.053  70.317  1.00  0.00    -0.113 C  
HETATM   10  O   UNL     1      -7.092   7.744  70.983  1.00  0.00    -0.052 OA 
BRANCH   9  11
HETATM   11  O   UNL     1      -8.070   8.303  68.984  1.00  0.00    -0.114 OA 
BRANCH  11  12
HETATM   12  C   UNL     1      -8.422   7.167  68.173  1.00  0.00    -0.123 C  
BRANCH  12  13
HETATM   13  C   UNL     1      -9.543   7.554  67.212  1.00  0.00    -0.198 C  
BRANCH  13  14
HETATM   14  C   UNL     1      -9.476   9.033  66.831  1.00  0.00    -0.167 C  
BRANCH  14  15
HETATM   15  N   UNL     1      -8.319   9.366  65.973  1.00  0.00    -0.117 NA 
HETATM   16  C   UNL     1      -8.262   8.499  64.789  1.00  0.00    -0.162 C  
BRANCH  15  17
HETATM   17  C   UNL     1      -8.402  10.803  65.597  1.00  0.00    -0.144 C  
BRANCH  17  18
HETATM   18  C   UNL     1      -9.779  11.452  65.875  1.00  0.00    -0.227 C  
BRANCH  18  19
HETATM   19  N   UNL     1     -10.273  12.401  64.850  1.00  0.00    -0.285 NA 
HETATM   20  C   UNL     1     -10.105  11.854  63.499  1.00  0.00    -0.441 C  
BRANCH  19  21
HETATM   21  C   UNL     1     -11.702  12.713  65.074  1.00  0.00    -0.359 C  
BRANCH  21  22
HETATM   22  C   UNL     1     -12.094  12.739  66.555  1.00  0.00    -0.338 C  
BRANCH  22  23
HETATM   23  C   UNL     1     -11.982  14.138  67.146  1.00  0.00    -0.426 C  
BRANCH  23  24
HETATM   24  O   UNL     1     -11.249  14.082  68.382  1.00  0.00    -0.244 OA 
BRANCH  24  25
HETATM   25  C   UNL     1     -11.308  15.198  69.151  1.00  0.00    -0.298 C  
HETATM   26  O   UNL     1     -12.164  15.454  69.982  1.00  0.00    -0.345 OA 
BRANCH  25  27
HETATM   27  C   UNL     1     -10.152  16.087  68.863  1.00  0.00    -0.229 A  
HETATM   28  C   UNL     1      -8.875  15.633  69.195  1.00  0.00    -0.251 A  
HETATM   29  C   UNL     1      -7.763  16.448  68.985  1.00  0.00    -0.235 A  
HETATM   30  C   UNL     1      -7.924  17.750  68.450  1.00  0.00    -0.293 A  
HETATM   31  C   UNL     1     -10.314  17.355  68.294  1.00  0.00    -0.374 A  
HETATM   32  C   UNL     1      -9.215  18.203  68.093  1.00  0.00    -0.291 A  
BRANCH  29  33
HETATM   33  O   UNL     1      -6.485  16.064  69.326  1.00  0.00    -0.146 OA 
HETATM   34  C   UNL     1      -6.121  14.724  69.009  1.00  0.00    -0.093 C  
ENDBRANCH  29  33
BRANCH  30  35
HETATM   35  O   UNL     1      -6.768  18.491  68.385  1.00  0.00    -0.227 OA 
HETATM   36  C   UNL     1      -6.605  19.571  69.293  1.00  0.00    -0.339 C  
ENDBRANCH  30  35
BRANCH  32  37
HETATM   37  O   UNL     1      -9.349  19.468  67.587  1.00  0.00    -0.300 OA 
HETATM   38  C   UNL     1      -9.949  19.625  66.307  1.00  0.00    -0.466 C  
ENDBRANCH  32  37
ENDBRANCH  25  27
ENDBRANCH  24  25
ENDBRANCH  23  24
ENDBRANCH  22  23
ENDBRANCH  21  22
ENDBRANCH  19  21
ENDBRANCH  18  19
ENDBRANCH  17  18
ENDBRANCH  15  17
ENDBRANCH  14  15
ENDBRANCH  13  14
ENDBRANCH  12  13
ENDBRANCH  11  12
ENDBRANCH   9  11
ENDBRANCH   5   9
BRANCH   8  39
HETATM   39  O   UNL     1     -12.009  10.727  71.128  1.00  0.00    -0.329 OA 
HETATM   40  C   UNL     1     -12.351  11.082  69.798  1.00  0.00    -0.262 C  
ENDBRANCH   8  39
BRANCH   7  41
HETATM   41  O   UNL     1     -13.222   8.599  72.649  1.00  0.00    -0.341 OA 
HETATM   42  C   UNL     1     -14.381   8.237  71.918  1.00  0.00    -0.476 C  
ENDBRANCH   7  41
ENDBRANCH   2   3
TORSDOF 21
ENDMDL
MODEL       80
REMARK 921   NORMALIZED FREE ENERGY PREDICTED BY IDOCK:   -4.65 KCAL/MOL
REMARK 922        TOTAL FREE ENERGY PREDICTED BY IDOCK:  -13.22 KCAL/MOL
REMARK 923 INTER-LIGAND FREE ENERGY PREDICTED BY IDOCK:  -11.44 KCAL/MOL
REMARK 924 INTRA-LIGAND FREE ENERGY PREDICTED BY IDOCK:   -1.77 KCAL/MOL
REMARK 927      BINDING AFFINITY PREDICTED BY RF-SCORE:    0.00 PKD
ROOT
HETATM    1  C   UNL     1      -7.483   3.972  65.443  1.00  0.00    -0.081 C  
HETATM    2  O   UNL     1      -7.514   5.126  64.607  1.00  0.00    -0.068 OA 
ENDROOT
BRANCH   2   3
HETATM    3  C   UNL     1      -8.002   6.282  65.164  1.00  0.00    -0.115 A  
HETATM    4  C   UNL     1      -8.450   6.296  66.491  1.00  0.00    -0.121 A  
HETATM    5  C   UNL     1      -8.950   7.457  67.081  1.00  0.00    -0.134 A  
HETATM    6  C   UNL     1      -8.998   8.629  66.336  1.00  0.00    -0.197 A  
HETATM    7  C   UNL     1      -8.010   7.478  64.409  1.00  0.00    -0.117 A  
HETATM    8  C   UNL     1      -8.526   8.655  65.010  1.00  0.00    -0.173 A  
BRANCH   5   9
HETATM    9  C   UNL     1      -9.408   7.347  68.488  1.00  0.00    -0.141 C  
HETATM   10  O   UNL     1      -9.123   8.180  69.337  1.00  0.00    -0.147 OA 
BRANCH   9  11
HETATM   11  O   UNL     1     -10.122   6.214  68.703  1.00  0.00    -0.143 OA 
BRANCH  11  12
HETATM   12  C   UNL     1     -11.278   6.397  69.541  1.00  0.00    -0.412 C  
BRANCH  12  13
HETATM   13  C   UNL     1     -11.033   5.744  70.898  1.00  0.00    -0.305 C  
BRANCH  13  14
HETATM   14  C   UNL     1     -11.983   6.287  71.966  1.00  0.00    -0.300 C  
BRANCH  14  15
HETATM   15  N   UNL     1     -12.765   7.457  71.516  1.00  0.00    -0.359 NA 
HETATM   16  C   UNL     1     -14.206   7.243  71.705  1.00  0.00    -0.377 C  
BRANCH  15  17
HETATM   17  C   UNL     1     -12.289   8.660  72.250  1.00  0.00    -0.382 C  
BRANCH  17  18
HETATM   18  C   UNL     1     -11.479   9.653  71.382  1.00  0.00    -0.385 C  
BRANCH  18  19
HETATM   19  N   UNL     1     -12.263  10.496  70.450  1.00  0.00    -0.311 NA 
HETATM   20  C   UNL     1     -12.699  11.737  71.099  1.00  0.00    -0.305 C  
BRANCH  19  21
HETATM   21  C   UNL     1     -11.463  10.828  69.250  1.00  0.00    -0.298 C  
BRANCH  21  22
HETATM   22  C   UNL     1     -11.870  12.152  68.595  1.00  0.00    -0.358 C  
BRANCH  22  23
HETATM   23  C   UNL     1     -11.610  12.144  67.094  1.00  0.00    -0.335 C  
BRANCH  23  24
HETATM   24  O   UNL     1     -12.234  13.290  66.491  1.00  0.00    -0.387 OA 
BRANCH  24  25
HETATM   25  C   UNL     1     -11.445  14.020  65.662  1.00  0.00    -0.319 C  
HETATM   26  O   UNL     1     -11.270  13.815  64.472  1.00  0.00    -0.362 OA 
BRANCH  25  27
HETATM   27  C   UNL     1     -10.820  15.148  66.401  1.00  0.00    -0.326 A  
HETATM   28  C   UNL     1     -11.192  15.349  67.731  1.00  0.00    -0.321 A  
HETATM   29  C   UNL     1     -10.667  16.421  68.453  1.00  0.00    -0.327 A  
HETATM   30  C   UNL     1      -9.765  17.322  67.836  1.00  0.00    -0.273 A  
HETATM   31  C   UNL     1      -9.898  16.010  65.798  1.00  0.00    -0.357 A  
HETATM   32  C   UNL     1      -9.371  17.107  66.496  1.00  0.00    -0.265 A  
BRANCH  29  33
HETATM   33  O   UNL     1     -11.024  16.685  69.756  1.00  0.00    -0.330 OA 
HETATM   34  C   UNL     1     -11.066  15.569  70.641  1.00  0.00    -0.352 C  
ENDBRANCH  29  33
BRANCH  30  35
HETATM   35  O   UNL     1      -9.398  18.391  68.618  1.00  0.00    -0.324 OA 
HETATM   36  C   UNL     1     -10.080  19.625  68.442  1.00  0.00    -0.449 C  
ENDBRANCH  30  35
BRANCH  32  37
HETATM   37  O   UNL     1      -8.507  17.997  65.915  1.00  0.00    -0.509 OA 
HETATM   38  C   UNL     1      -7.109  17.794  66.085  1.00  0.00    -0.312 C  
ENDBRANCH  32  37
ENDBRANCH  25  27
ENDBRANCH  24  25
ENDBRANCH  23  24
ENDBRANCH  22  23
ENDBRANCH  21  22
ENDBRANCH  19  21
ENDBRANCH  18  19
ENDBRANCH  17  18
ENDBRANCH  15  17
ENDBRANCH  14  15
ENDBRANCH  13  14
ENDBRANCH  12  13
ENDBRANCH  11  12
ENDBRANCH   9  11
ENDBRANCH   5   9
BRANCH   8  39
HETATM   39  O   UNL     1      -8.652   9.913  64.468  1.00  0.00    -0.157 OA 
HETATM   40  C   UNL     1      -9.941  10.467  64.260  1.00  0.00    -0.331 C  
ENDBRANCH   8  39
BRANCH   7  41
HETATM   41  O   UNL     1      -7.569   7.607  63.119  1.00  0.00    -0.104 OA 
HETATM   42  C   UNL     1      -6.220   7.941  62.838  1.00  0.00    -0.072 C  
ENDBRANCH   7  41
ENDBRANCH   2   3
TORSDOF 21
ENDMDL
MODEL       81
REMARK 921   NORMALIZED FREE ENERGY PREDICTED BY IDOCK:   -4.63 KCAL/MOL
REMARK 922        TOTAL FREE ENERGY PREDICTED BY IDOCK:  -13.17 KCAL/MOL
REMARK 923 INTER-LIGAND FREE ENERGY PREDICTED BY IDOCK:  -10.40 KCAL/MOL
REMARK 924 INTRA-LIGAND FREE ENERGY PREDICTED BY IDOCK:   -2.77 KCAL/MOL
REMARK 927      BINDING AFFINITY PREDICTED BY RF-SCORE:    0.00 PKD
ROOT
HETATM    1  C   UNL     1      -8.166  10.334  63.874  1.00  0.00    -0.152 C  
HETATM    2  O   UNL     1      -7.061  10.328  64.776  1.00  0.00    -0.138 OA 
ENDROOT
BRANCH   2   3
HETATM    3  C   UNL     1      -7.277   9.777  66.015  1.00  0.00    -0.101 A  
HETATM    4  C   UNL     1      -7.539   8.408  66.146  1.00  0.00    -0.089 A  
HETATM    5  C   UNL     1      -7.760   7.822  67.393  1.00  0.00    -0.113 A  
HETATM    6  C   UNL     1      -7.712   8.617  68.533  1.00  0.00    -0.100 A  
HETATM    7  C   UNL     1      -7.187  10.587  67.170  1.00  0.00    -0.092 A  
HETATM    8  C   UNL     1      -7.420   9.991  68.436  1.00  0.00    -0.082 A  
BRANCH   5   9
HETATM    9  C   UNL     1      -8.043   6.366  67.407  1.00  0.00    -0.116 C  
HETATM   10  O   UNL     1      -7.405   5.582  68.096  1.00  0.00    -0.071 OA 
BRANCH   9  11
HETATM   11  O   UNL     1      -9.039   6.033  66.549  1.00  0.00    -0.137 OA 
BRANCH  11  12
HETATM   12  C   UNL     1     -10.147   5.355  67.170  1.00  0.00    -0.198 C  
BRANCH  12  13
HETATM   13  C   UNL     1     -10.930   6.339  68.034  1.00  0.00    -0.418 C  
BRANCH  13  14
HETATM   14  C   UNL     1     -10.991   5.885  69.493  1.00  0.00    -0.368 C  
BRANCH  14  15
HETATM   15  N   UNL     1     -11.703   6.834  70.375  1.00  0.00    -0.372 NA 
HETATM   16  C   UNL     1     -11.846   6.297  71.734  1.00  0.00    -0.286 C  
BRANCH  15  17
HETATM   17  C   UNL     1     -10.971   8.129  70.371  1.00  0.00    -0.247 C  
BRANCH  17  18
HETATM   18  C   UNL     1     -11.630   9.232  71.232  1.00  0.00    -0.349 C  
BRANCH  18  19
HETATM   19  N   UNL     1     -11.535  10.615  70.708  1.00  0.00    -0.298 NA 
HETATM   20  C   UNL     1     -10.974  10.629  69.354  1.00  0.00    -0.255 C  
BRANCH  19  21
HETATM   21  C   UNL     1     -12.868  11.258  70.691  1.00  0.00    -0.141 C  
BRANCH  21  22
HETATM   22  C   UNL     1     -13.298  11.805  72.055  1.00  0.00    -0.417 C  
BRANCH  22  23
HETATM   23  C   UNL     1     -13.373  13.327  72.057  1.00  0.00    -0.489 C  
BRANCH  23  24
HETATM   24  O   UNL     1     -13.138  13.821  70.728  1.00  0.00    -0.224 OA 
BRANCH  24  25
HETATM   25  C   UNL     1     -12.249  14.841  70.630  1.00  0.00    -0.319 C  
HETATM   26  O   UNL     1     -11.862  15.549  71.546  1.00  0.00    -0.325 OA 
BRANCH  25  27
HETATM   27  C   UNL     1     -11.770  14.978  69.229  1.00  0.00    -0.349 A  
HETATM   28  C   UNL     1     -11.059  16.130  68.887  1.00  0.00    -0.347 A  
HETATM   29  C   UNL     1     -10.628  16.325  67.575  1.00  0.00    -0.310 A  
HETATM   30  C   UNL     1     -10.922  15.363  66.578  1.00  0.00    -0.271 A  
HETATM   31  C   UNL     1     -12.027  14.004  68.258  1.00  0.00    -0.384 A  
HETATM   32  C   UNL     1     -11.622  14.186  66.927  1.00  0.00    -0.391 A  
BRANCH  29  33
HETATM   33  O   UNL     1      -9.954  17.457  67.175  1.00  0.00    -0.272 OA 
HETATM   34  C   UNL     1     -10.115  18.612  67.994  1.00  0.00    -0.375 C  
ENDBRANCH  29  33
BRANCH  30  35
HETATM   35  O   UNL     1     -10.532  15.717  65.308  1.00  0.00    -0.379 OA 
HETATM   36  C   UNL     1     -11.533  16.086  64.370  1.00  0.00    -0.242 C  
ENDBRANCH  30  35
BRANCH  32  37
HETATM   37  O   UNL     1     -11.905  13.275  65.945  1.00  0.00    -0.355 OA 
HETATM   38  C   UNL     1     -11.282  11.997  66.006  1.00  0.00    -0.335 C  
ENDBRANCH  32  37
ENDBRANCH  25  27
ENDBRANCH  24  25
ENDBRANCH  23  24
ENDBRANCH  22  23
ENDBRANCH  21  22
ENDBRANCH  19  21
ENDBRANCH  18  19
ENDBRANCH  17  18
ENDBRANCH  15  17
ENDBRANCH  14  15
ENDBRANCH  13  14
ENDBRANCH  12  13
ENDBRANCH  11  12
ENDBRANCH   9  11
ENDBRANCH   5   9
BRANCH   8  39
HETATM   39  O   UNL     1      -7.407  10.580  69.679  1.00  0.00    -0.134 OA 
HETATM   40  C   UNL     1      -6.778   9.919  70.766  1.00  0.00    -0.047 C  
ENDBRANCH   8  39
BRANCH   7  41
HETATM   41  O   UNL     1      -6.902  11.927  67.181  1.00  0.00    -0.132 OA 
HETATM   42  C   UNL     1      -7.917  12.887  67.424  1.00  0.00    -0.178 C  
ENDBRANCH   7  41
ENDBRANCH   2   3
TORSDOF 21
ENDMDL
MODEL       82
REMARK 921   NORMALIZED FREE ENERGY PREDICTED BY IDOCK:   -4.62 KCAL/MOL
REMARK 922        TOTAL FREE ENERGY PREDICTED BY IDOCK:  -13.16 KCAL/MOL
REMARK 923 INTER-LIGAND FREE ENERGY PREDICTED BY IDOCK:  -10.67 KCAL/MOL
REMARK 924 INTRA-LIGAND FREE ENERGY PREDICTED BY IDOCK:   -2.48 KCAL/MOL
REMARK 927      BINDING AFFINITY PREDICTED BY RF-SCORE:    0.00 PKD
ROOT
HETATM    1  C   UNL     1     -10.727   6.667  68.079  1.00  0.00    -0.265 C  
HETATM    2  O   UNL     1     -11.284   5.957  69.183  1.00  0.00    -0.340 OA 
ENDROOT
BRANCH   2   3
HETATM    3  C   UNL     1     -11.339   6.622  70.383  1.00  0.00    -0.365 A  
HETATM    4  C   UNL     1     -12.361   7.545  70.636  1.00  0.00    -0.018 A  
HETATM    5  C   UNL     1     -12.441   8.234  71.847  1.00  0.00    -0.376 A  
HETATM    6  C   UNL     1     -11.486   7.991  72.828  1.00  0.00    -0.420 A  
HETATM    7  C   UNL     1     -10.385   6.339  71.388  1.00  0.00    -0.210 A  
HETATM    8  C   UNL     1     -10.464   7.046  72.615  1.00  0.00    -0.226 A  
BRANCH   5   9
HETATM    9  C   UNL     1     -13.559   9.197  71.995  1.00  0.00    -0.459 C  
HETATM   10  O   UNL     1     -14.406   9.087  72.870  1.00  0.00    -0.550 OA 
BRANCH   9  11
HETATM   11  O   UNL     1     -13.534  10.155  71.036  1.00  0.00    -0.351 OA 
BRANCH  11  12
HETATM   12  C   UNL     1     -12.692  11.280  71.350  1.00  0.00    -0.396 C  
BRANCH  12  13
HETATM   13  C   UNL     1     -11.963  11.739  70.090  1.00  0.00    -0.421 C  
BRANCH  13  14
HETATM   14  C   UNL     1     -10.995  10.672  69.577  1.00  0.00    -0.272 C  
BRANCH  14  15
HETATM   15  N   UNL     1     -10.583  10.881  68.172  1.00  0.00    -0.185 NA 
HETATM   16  C   UNL     1     -11.547  11.721  67.450  1.00  0.00    -0.280 C  
BRANCH  15  17
HETATM   17  C   UNL     1      -9.219  11.475  68.159  1.00  0.00    -0.181 C  
BRANCH  17  18
HETATM   18  C   UNL     1      -8.076  10.439  68.279  1.00  0.00    -0.113 C  
BRANCH  18  19
HETATM   19  N   UNL     1      -7.138  10.629  69.410  1.00  0.00    -0.106 NA 
HETATM   20  C   UNL     1      -7.234   9.522  70.367  1.00  0.00    -0.127 C  
BRANCH  19  21
HETATM   21  C   UNL     1      -5.745  10.731  68.921  1.00  0.00    -0.040 C  
BRANCH  21  22
HETATM   22  C   UNL     1      -5.628  11.416  67.555  1.00  0.00    -0.056 C  
BRANCH  22  23
HETATM   23  C   UNL     1      -5.265  12.889  67.690  1.00  0.00    -0.090 C  
BRANCH  23  24
HETATM   24  O   UNL     1      -6.400  13.698  67.337  1.00  0.00    -0.307 OA 
BRANCH  24  25
HETATM   25  C   UNL     1      -6.954  14.408  68.352  1.00  0.00    -0.109 C  
HETATM   26  O   UNL     1      -6.695  14.287  69.539  1.00  0.00    -0.129 OA 
BRANCH  25  27
HETATM   27  C   UNL     1      -7.929  15.396  67.822  1.00  0.00    -0.159 A  
HETATM   28  C   UNL     1      -8.207  16.525  68.595  1.00  0.00    -0.234 A  
HETATM   29  C   UNL     1      -9.148  17.459  68.162  1.00  0.00    -0.267 A  
HETATM   30  C   UNL     1      -9.840  17.260  66.942  1.00  0.00    -0.287 A  
HETATM   31  C   UNL     1      -8.577  15.216  66.596  1.00  0.00    -0.279 A  
HETATM   32  C   UNL     1      -9.543  16.129  66.147  1.00  0.00    -0.327 A  
BRANCH  29  33
HETATM   33  O   UNL     1      -9.486  18.571  68.900  1.00  0.00    -0.315 OA 
HETATM   34  C   UNL     1      -8.577  19.666  68.847  1.00  0.00    -0.187 C  
ENDBRANCH  29  33
BRANCH  30  35
HETATM   35  O   UNL     1     -10.811  18.195  66.674  1.00  0.00    -0.237 OA 
HETATM   36  C   UNL     1     -10.479  19.296  65.839  1.00  0.00    -0.451 C  
ENDBRANCH  30  35
BRANCH  32  37
HETATM   37  O   UNL     1     -10.231  15.951  64.977  1.00  0.00    -0.484 OA 
HETATM   38  C   UNL     1     -11.058  14.800  64.846  1.00  0.00    -0.407 C  
ENDBRANCH  32  37
ENDBRANCH  25  27
ENDBRANCH  24  25
ENDBRANCH  23  24
ENDBRANCH  22  23
ENDBRANCH  21  22
ENDBRANCH  19  21
ENDBRANCH  18  19
ENDBRANCH  17  18
ENDBRANCH  15  17
ENDBRANCH  14  15
ENDBRANCH  13  14
ENDBRANCH  12  13
ENDBRANCH  11  12
ENDBRANCH   9  11
ENDBRANCH   5   9
BRANCH   8  39
HETATM   39  O   UNL     1      -9.644   6.953  73.715  1.00  0.00    -0.180 OA 
HETATM   40  C   UNL     1      -8.354   7.544  73.686  1.00  0.00    -0.164 C  
ENDBRANCH   8  39
BRANCH   7  41
HETATM   41  O   UNL     1      -9.361   5.436  71.280  1.00  0.00    -0.144 OA 
HETATM   42  C   UNL     1      -9.553   4.071  71.612  1.00  0.00    -0.160 C  
ENDBRANCH   7  41
ENDBRANCH   2   3
TORSDOF 21
ENDMDL
MODEL       83
REMARK 921   NORMALIZED FREE ENERGY PREDICTED BY IDOCK:   -4.62 KCAL/MOL
REMARK 922        TOTAL FREE ENERGY PREDICTED BY IDOCK:  -13.16 KCAL/MOL
REMARK 923 INTER-LIGAND FREE ENERGY PREDICTED BY IDOCK:  -11.03 KCAL/MOL
REMARK 924 INTRA-LIGAND FREE ENERGY PREDICTED BY IDOCK:   -2.13 KCAL/MOL
REMARK 927      BINDING AFFINITY PREDICTED BY RF-SCORE:    0.00 PKD
ROOT
HETATM    1  C   UNL     1      -7.856  10.351  62.890  1.00  0.00    -0.137 C  
HETATM    2  O   UNL     1      -9.219  10.678  63.147  1.00  0.00    -0.230 OA 
ENDROOT
BRANCH   2   3
HETATM    3  C   UNL     1      -9.714  10.340  64.383  1.00  0.00    -0.315 A  
HETATM    4  C   UNL     1      -9.334   9.139  64.995  1.00  0.00    -0.120 A  
HETATM    5  C   UNL     1      -9.821   8.773  66.250  1.00  0.00    -0.342 A  
HETATM    6  C   UNL     1     -10.699   9.625  66.911  1.00  0.00    -0.185 A  
HETATM    7  C   UNL     1     -10.575  11.232  65.064  1.00  0.00    -0.289 A  
HETATM    8  C   UNL     1     -11.074  10.853  66.336  1.00  0.00    -0.007 A  
BRANCH   5   9
HETATM    9  C   UNL     1      -9.360   7.471  66.791  1.00  0.00    -0.165 C  
HETATM   10  O   UNL     1      -8.730   6.668  66.118  1.00  0.00    -0.140 OA 
BRANCH   9  11
HETATM   11  O   UNL     1      -9.757   7.285  68.074  1.00  0.00    -0.138 OA 
BRANCH  11  12
HETATM   12  C   UNL     1      -9.938   5.904  68.440  1.00  0.00    -0.150 C  
BRANCH  12  13
HETATM   13  C   UNL     1      -9.526   5.703  69.895  1.00  0.00    -0.197 C  
BRANCH  13  14
HETATM   14  C   UNL     1     -10.739   5.484  70.800  1.00  0.00    -0.224 C  
BRANCH  14  15
HETATM   15  N   UNL     1     -11.066   6.656  71.639  1.00  0.00    -0.241 NA 
HETATM   16  C   UNL     1      -9.872   7.464  71.920  1.00  0.00    -0.162 C  
BRANCH  15  17
HETATM   17  C   UNL     1     -12.118   7.454  70.953  1.00  0.00    -0.257 C  
BRANCH  17  18
HETATM   18  C   UNL     1     -12.037   8.975  71.224  1.00  0.00    -0.314 C  
BRANCH  18  19
HETATM   19  N   UNL     1     -13.323   9.660  71.494  1.00  0.00    -0.386 NA 
HETATM   20  C   UNL     1     -14.146   8.888  72.431  1.00  0.00    -0.420 C  
BRANCH  19  21
HETATM   21  C   UNL     1     -13.086  11.010  72.052  1.00  0.00    -0.344 C  
BRANCH  21  22
HETATM   22  C   UNL     1     -12.493  11.993  71.037  1.00  0.00    -0.376 C  
BRANCH  22  23
HETATM   23  C   UNL     1     -12.622  13.437  71.505  1.00  0.00    -0.236 C  
BRANCH  23  24
HETATM   24  O   UNL     1     -11.570  14.226  70.923  1.00  0.00    -0.234 OA 
BRANCH  24  25
HETATM   25  C   UNL     1     -11.970  15.350  70.276  1.00  0.00    -0.355 C  
HETATM   26  O   UNL     1     -13.056  15.895  70.385  1.00  0.00    -0.349 OA 
BRANCH  25  27
HETATM   27  C   UNL     1     -10.878  15.865  69.409  1.00  0.00    -0.288 A  
HETATM   28  C   UNL     1     -11.222  16.698  68.343  1.00  0.00    -0.239 A  
HETATM   29  C   UNL     1     -10.238  17.170  67.474  1.00  0.00    -0.323 A  
HETATM   30  C   UNL     1      -8.885  16.794  67.658  1.00  0.00    -0.205 A  
HETATM   31  C   UNL     1      -9.538  15.524  69.621  1.00  0.00    -0.264 A  
HETATM   32  C   UNL     1      -8.532  15.968  68.750  1.00  0.00    -0.228 A  
BRANCH  29  33
HETATM   33  O   UNL     1     -10.526  17.966  66.388  1.00  0.00    -0.362 OA 
HETATM   34  C   UNL     1     -10.735  19.350  66.655  1.00  0.00    -0.429 C  
ENDBRANCH  29  33
BRANCH  30  35
HETATM   35  O   UNL     1      -8.028  17.241  66.681  1.00  0.00    -0.216 OA 
HETATM   36  C   UNL     1      -7.160  18.323  66.985  1.00  0.00    -0.196 C  
ENDBRANCH  30  35
BRANCH  32  37
HETATM   37  O   UNL     1      -7.220  15.608  68.902  1.00  0.00    -0.126 OA 
HETATM   38  C   UNL     1      -6.924  14.262  69.259  1.00  0.00    -0.116 C  
ENDBRANCH  32  37
ENDBRANCH  25  27
ENDBRANCH  24  25
ENDBRANCH  23  24
ENDBRANCH  22  23
ENDBRANCH  21  22
ENDBRANCH  19  21
ENDBRANCH  18  19
ENDBRANCH  17  18
ENDBRANCH  15  17
ENDBRANCH  14  15
ENDBRANCH  13  14
ENDBRANCH  12  13
ENDBRANCH  11  12
ENDBRANCH   9  11
ENDBRANCH   5   9
BRANCH   8  39
HETATM   39  O   UNL     1     -11.931  11.542  67.163  1.00  0.00    -0.581 OA 
HETATM   40  C   UNL     1     -11.510  12.758  67.761  1.00  0.00    -0.326 C  
ENDBRANCH   8  39
BRANCH   7  41
HETATM   41  O   UNL     1     -10.992  12.449  64.592  1.00  0.00    -0.282 OA 
HETATM   42  C   UNL     1     -12.104  12.551  63.719  1.00  0.00    -0.529 C  
ENDBRANCH   7  41
ENDBRANCH   2   3
TORSDOF 21
ENDMDL
MODEL       84
REMARK 921   NORMALIZED FREE ENERGY PREDICTED BY IDOCK:   -4.61 KCAL/MOL
REMARK 922        TOTAL FREE ENERGY PREDICTED BY IDOCK:  -13.12 KCAL/MOL
REMARK 923 INTER-LIGAND FREE ENERGY PREDICTED BY IDOCK:  -10.02 KCAL/MOL
REMARK 924 INTRA-LIGAND FREE ENERGY PREDICTED BY IDOCK:   -3.10 KCAL/MOL
REMARK 927      BINDING AFFINITY PREDICTED BY RF-SCORE:    0.00 PKD
ROOT
HETATM    1  C   UNL     1     -14.298   8.426  71.731  1.00  0.00    -0.472 C  
HETATM    2  O   UNL     1     -13.187   9.042  72.378  1.00  0.00    -0.420 OA 
ENDROOT
BRANCH   2   3
HETATM    3  C   UNL     1     -12.148   9.445  71.575  1.00  0.00    -0.379 A  
HETATM    4  C   UNL     1     -12.368  10.360  70.538  1.00  0.00    -0.410 A  
HETATM    5  C   UNL     1     -11.330  10.786  69.708  1.00  0.00    -0.372 A  
HETATM    6  C   UNL     1     -10.047  10.297  69.922  1.00  0.00    -0.219 A  
HETATM    7  C   UNL     1     -10.840   8.971  71.827  1.00  0.00    -0.367 A  
HETATM    8  C   UNL     1      -9.789   9.401  70.977  1.00  0.00    -0.247 A  
BRANCH   5   9
HETATM    9  C   UNL     1     -11.686  11.746  68.633  1.00  0.00    -0.330 C  
HETATM   10  O   UNL     1     -12.235  11.396  67.599  1.00  0.00    -0.485 OA 
BRANCH   9  11
HETATM   11  O   UNL     1     -11.292  13.009  68.930  1.00  0.00    -0.253 OA 
BRANCH  11  12
HETATM   12  C   UNL     1     -11.608  13.977  67.913  1.00  0.00    -0.343 C  
BRANCH  12  13
HETATM   13  C   UNL     1     -11.764  15.355  68.550  1.00  0.00    -0.355 C  
BRANCH  13  14
HETATM   14  C   UNL     1     -10.430  16.099  68.621  1.00  0.00    -0.269 C  
BRANCH  14  15
HETATM   15  N   UNL     1     -10.051  16.748  67.348  1.00  0.00    -0.270 NA 
HETATM   16  C   UNL     1     -10.397  18.175  67.350  1.00  0.00    -0.389 C  
BRANCH  15  17
HETATM   17  C   UNL     1      -8.596  16.536  67.119  1.00  0.00    -0.186 C  
BRANCH  17  18
HETATM   18  C   UNL     1      -8.180  15.050  67.018  1.00  0.00    -0.213 C  
BRANCH  18  19
HETATM   19  N   UNL     1      -6.960  14.660  67.764  1.00  0.00    -0.162 NA 
HETATM   20  C   UNL     1      -7.018  15.127  69.153  1.00  0.00    -0.147 C  
BRANCH  19  21
HETATM   21  C   UNL     1      -6.788  13.191  67.750  1.00  0.00    -0.149 C  
BRANCH  21  22
HETATM   22  C   UNL     1      -8.106  12.425  67.591  1.00  0.00    -0.168 C  
BRANCH  22  23
HETATM   23  C   UNL     1      -8.125  11.590  66.317  1.00  0.00    -0.014 C  
BRANCH  23  24
HETATM   24  O   UNL     1      -9.475  11.478  65.836  1.00  0.00    -0.221 OA 
BRANCH  24  25
HETATM   25  C   UNL     1      -9.689  10.511  64.908  1.00  0.00    -0.300 C  
HETATM   26  O   UNL     1     -10.159  10.675  63.794  1.00  0.00    -0.330 OA 
BRANCH  25  27
HETATM   27  C   UNL     1      -9.244   9.190  65.425  1.00  0.00    -0.266 A  
HETATM   28  C   UNL     1      -8.486   8.376  64.581  1.00  0.00    -0.094 A  
HETATM   29  C   UNL     1      -8.083   7.109  65.004  1.00  0.00    -0.119 A  
HETATM   30  C   UNL     1      -8.454   6.634  66.286  1.00  0.00    -0.130 A  
HETATM   31  C   UNL     1      -9.578   8.744  66.708  1.00  0.00    -0.267 A  
HETATM   32  C   UNL     1      -9.202   7.467  67.149  1.00  0.00    -0.136 A  
BRANCH  29  33
HETATM   33  O   UNL     1      -7.364   6.252  64.201  1.00  0.00    -0.060 OA 
HETATM   34  C   UNL     1      -6.163   6.771  63.637  1.00  0.00    -0.042 C  
ENDBRANCH  29  33
BRANCH  30  35
HETATM   35  O   UNL     1      -8.083   5.337  66.546  1.00  0.00    -0.107 OA 
HETATM   36  C   UNL     1      -6.897   5.109  67.294  1.00  0.00    -0.060 C  
ENDBRANCH  30  35
BRANCH  32  37
HETATM   37  O   UNL     1      -9.559   6.983  68.379  1.00  0.00    -0.136 OA 
HETATM   38  C   UNL     1     -10.920   6.631  68.599  1.00  0.00    -0.251 C  
ENDBRANCH  32  37
ENDBRANCH  25  27
ENDBRANCH  24  25
ENDBRANCH  23  24
ENDBRANCH  22  23
ENDBRANCH  21  22
ENDBRANCH  19  21
ENDBRANCH  18  19
ENDBRANCH  17  18
ENDBRANCH  15  17
ENDBRANCH  14  15
ENDBRANCH  13  14
ENDBRANCH  12  13
ENDBRANCH  11  12
ENDBRANCH   9  11
ENDBRANCH   5   9
BRANCH   8  39
HETATM   39  O   UNL     1      -8.457   9.059  71.017  1.00  0.00    -0.185 OA 
HETATM   40  C   UNL     1      -7.524   9.759  70.208  1.00  0.00    -0.164 C  
ENDBRANCH   8  39
BRANCH   7  41
HETATM   41  O   UNL     1     -10.487   8.106  72.828  1.00  0.00    -0.322 OA 
HETATM   42  C   UNL     1     -10.467   6.705  72.609  1.00  0.00    -0.212 C  
ENDBRANCH   7  41
ENDBRANCH   2   3
TORSDOF 21
ENDMDL
MODEL       85
REMARK 921   NORMALIZED FREE ENERGY PREDICTED BY IDOCK:   -4.60 KCAL/MOL
REMARK 922        TOTAL FREE ENERGY PREDICTED BY IDOCK:  -13.11 KCAL/MOL
REMARK 923 INTER-LIGAND FREE ENERGY PREDICTED BY IDOCK:  -10.64 KCAL/MOL
REMARK 924 INTRA-LIGAND FREE ENERGY PREDICTED BY IDOCK:   -2.47 KCAL/MOL
REMARK 927      BINDING AFFINITY PREDICTED BY RF-SCORE:    0.00 PKD
ROOT
HETATM    1  C   UNL     1      -9.268   4.680  66.996  1.00  0.00    -0.128 C  
HETATM    2  O   UNL     1      -9.552   3.784  68.068  1.00  0.00    -0.173 OA 
ENDROOT
BRANCH   2   3
HETATM    3  C   UNL     1      -9.845   4.348  69.285  1.00  0.00    -0.148 A  
HETATM    4  C   UNL     1     -10.388   5.637  69.357  1.00  0.00    -0.343 A  
HETATM    5  C   UNL     1     -10.695   6.234  70.581  1.00  0.00    -0.321 A  
HETATM    6  C   UNL     1     -10.463   5.527  71.756  1.00  0.00    -0.287 A  
HETATM    7  C   UNL     1      -9.641   3.606  70.472  1.00  0.00    -0.186 A  
HETATM    8  C   UNL     1      -9.947   4.218  71.714  1.00  0.00    -0.184 A  
BRANCH   5   9
HETATM    9  C   UNL     1     -11.251   7.608  70.533  1.00  0.00    -0.261 C  
HETATM   10  O   UNL     1     -12.258   7.928  71.150  1.00  0.00    -0.304 OA 
BRANCH   9  11
HETATM   11  O   UNL     1     -10.540   8.416  69.708  1.00  0.00    -0.220 OA 
BRANCH  11  12
HETATM   12  C   UNL     1      -9.370   8.993  70.316  1.00  0.00    -0.198 C  
BRANCH  12  13
HETATM   13  C   UNL     1      -8.338   9.311  69.238  1.00  0.00    -0.124 C  
BRANCH  13  14
HETATM   14  C   UNL     1      -7.891  10.772  69.296  1.00  0.00    -0.122 C  
BRANCH  14  15
HETATM   15  N   UNL     1      -7.217  11.230  68.062  1.00  0.00    -0.077 NA 
HETATM   16  C   UNL     1      -7.169  10.165  67.051  1.00  0.00    -0.091 C  
BRANCH  15  17
HETATM   17  C   UNL     1      -7.922  12.437  67.554  1.00  0.00    -0.173 C  
BRANCH  17  18
HETATM   18  C   UNL     1      -7.102  13.744  67.670  1.00  0.00    -0.176 C  
BRANCH  18  19
HETATM   19  N   UNL     1      -7.294  14.528  68.912  1.00  0.00    -0.122 NA 
HETATM   20  C   UNL     1      -6.073  14.536  69.725  1.00  0.00    -0.131 C  
BRANCH  19  21
HETATM   21  C   UNL     1      -7.678  15.922  68.595  1.00  0.00    -0.161 C  
BRANCH  21  22
HETATM   22  C   UNL     1      -7.008  16.464  67.329  1.00  0.00    -0.218 C  
BRANCH  22  23
HETATM   23  C   UNL     1      -7.879  17.497  66.625  1.00  0.00    -0.250 C  
BRANCH  23  24
HETATM   24  O   UNL     1      -8.644  16.855  65.590  1.00  0.00    -0.443 OA 
BRANCH  24  25
HETATM   25  C   UNL     1      -9.992  16.951  65.712  1.00  0.00    -0.184 C  
HETATM   26  O   UNL     1     -10.652  17.974  65.618  1.00  0.00    -0.599 OA 
BRANCH  25  27
HETATM   27  C   UNL     1     -10.587  15.611  65.959  1.00  0.00    -0.336 A  
HETATM   28  C   UNL     1     -11.131  15.356  67.218  1.00  0.00    -0.302 A  
HETATM   29  C   UNL     1     -11.661  14.099  67.513  1.00  0.00    -0.367 A  
HETATM   30  C   UNL     1     -11.635  13.070  66.541  1.00  0.00    -0.356 A  
HETATM   31  C   UNL     1     -10.598  14.612  64.980  1.00  0.00    -0.461 A  
HETATM   32  C   UNL     1     -11.106  13.334  65.257  1.00  0.00    -0.288 A  
BRANCH  29  33
HETATM   33  O   UNL     1     -12.178  13.782  68.749  1.00  0.00    -0.350 OA 
HETATM   34  C   UNL     1     -11.838  14.657  69.821  1.00  0.00    -0.316 C  
ENDBRANCH  29  33
BRANCH  30  35
HETATM   35  O   UNL     1     -12.094  11.852  66.983  1.00  0.00    -0.600 OA 
HETATM   36  C   UNL     1     -11.144  10.885  67.409  1.00  0.00    -0.307 C  
ENDBRANCH  30  35
BRANCH  32  37
HETATM   37  O   UNL     1     -11.081  12.321  64.336  1.00  0.00    -0.298 OA 
HETATM   38  C   UNL     1     -12.233  12.113  63.528  1.00  0.00    -0.567 C  
ENDBRANCH  32  37
ENDBRANCH  25  27
ENDBRANCH  24  25
ENDBRANCH  23  24
ENDBRANCH  22  23
ENDBRANCH  21  22
ENDBRANCH  19  21
ENDBRANCH  18  19
ENDBRANCH  17  18
ENDBRANCH  15  17
ENDBRANCH  14  15
ENDBRANCH  13  14
ENDBRANCH  12  13
ENDBRANCH  11  12
ENDBRANCH   9  11
ENDBRANCH   5   9
BRANCH   8  39
HETATM   39  O   UNL     1      -9.812   3.703  72.982  1.00  0.00    -0.122 OA 
HETATM   40  C   UNL     1     -10.964   3.296  73.706  1.00  0.00    -0.221 C  
ENDBRANCH   8  39
BRANCH   7  41
HETATM   41  O   UNL     1      -9.152   2.328  70.536  1.00  0.00    -0.083 OA 
HETATM   42  C   UNL     1      -7.761   2.073  70.439  1.00  0.00    -0.042 C  
ENDBRANCH   7  41
ENDBRANCH   2   3
TORSDOF 21
ENDMDL
MODEL       86
REMARK 921   NORMALIZED FREE ENERGY PREDICTED BY IDOCK:   -4.60 KCAL/MOL
REMARK 922        TOTAL FREE ENERGY PREDICTED BY IDOCK:  -13.10 KCAL/MOL
REMARK 923 INTER-LIGAND FREE ENERGY PREDICTED BY IDOCK:   -9.93 KCAL/MOL
REMARK 924 INTRA-LIGAND FREE ENERGY PREDICTED BY IDOCK:   -3.17 KCAL/MOL
REMARK 927      BINDING AFFINITY PREDICTED BY RF-SCORE:    0.00 PKD
ROOT
HETATM    1  C   UNL     1     -12.248  15.083  64.242  1.00  0.00    -0.293 C  
HETATM    2  O   UNL     1     -11.118  15.880  64.589  1.00  0.00    -0.476 OA 
ENDROOT
BRANCH   2   3
HETATM    3  C   UNL     1     -10.415  15.504  65.707  1.00  0.00    -0.361 A  
HETATM    4  C   UNL     1      -9.935  14.194  65.835  1.00  0.00    -0.331 A  
HETATM    5  C   UNL     1      -9.217  13.786  66.960  1.00  0.00    -0.256 A  
HETATM    6  C   UNL     1      -8.967  14.704  67.974  1.00  0.00    -0.174 A  
HETATM    7  C   UNL     1     -10.132  16.456  66.714  1.00  0.00    -0.285 A  
HETATM    8  C   UNL     1      -9.409  16.036  67.859  1.00  0.00    -0.208 A  
BRANCH   5   9
HETATM    9  C   UNL     1      -8.772  12.371  66.992  1.00  0.00    -0.207 C  
HETATM   10  O   UNL     1      -7.608  12.046  66.807  1.00  0.00    -0.102 OA 
BRANCH   9  11
HETATM   11  O   UNL     1      -9.806  11.518  67.203  1.00  0.00    -0.189 OA 
BRANCH  11  12
HETATM   12  C   UNL     1      -9.840  10.400  66.298  1.00  0.00    -0.218 C  
BRANCH  12  13
HETATM   13  C   UNL     1     -10.586   9.238  66.948  1.00  0.00    -0.239 C  
BRANCH  13  14
HETATM   14  C   UNL     1      -9.651   8.069  67.256  1.00  0.00    -0.162 C  
BRANCH  14  15
HETATM   15  N   UNL     1     -10.055   7.291  68.447  1.00  0.00    -0.166 NA 
HETATM   16  C   UNL     1     -11.244   6.473  68.174  1.00  0.00    -0.150 C  
BRANCH  15  17
HETATM   17  C   UNL     1      -8.905   6.457  68.886  1.00  0.00    -0.125 C  
BRANCH  17  18
HETATM   18  C   UNL     1      -9.217   5.526  70.081  1.00  0.00    -0.141 C  
BRANCH  18  19
HETATM   19  N   UNL     1      -8.047   4.915  70.756  1.00  0.00    -0.085 NA 
HETATM   20  C   UNL     1      -7.179   5.942  71.341  1.00  0.00    -0.079 C  
BRANCH  19  21
HETATM   21  C   UNL     1      -8.488   3.985  71.820  1.00  0.00    -0.098 C  
BRANCH  21  22
HETATM   22  C   UNL     1      -9.900   4.277  72.338  1.00  0.00    -0.217 C  
BRANCH  22  23
HETATM   23  C   UNL     1      -9.893   4.674  73.809  1.00  0.00    -0.144 C  
BRANCH  23  24
HETATM   24  O   UNL     1     -10.504   5.966  73.961  1.00  0.00    -0.265 OA 
BRANCH  24  25
HETATM   25  C   UNL     1      -9.669   7.029  73.838  1.00  0.00    -0.294 C  
HETATM   26  O   UNL     1      -8.622   7.194  74.442  1.00  0.00    -0.174 OA 
BRANCH  25  27
HETATM   27  C   UNL     1     -10.193   7.984  72.826  1.00  0.00    -0.389 A  
HETATM   28  C   UNL     1     -11.576   8.094  72.680  1.00  0.00    -0.441 A  
HETATM   29  C   UNL     1     -12.116   8.944  71.714  1.00  0.00    -0.362 A  
HETATM   30  C   UNL     1     -11.261   9.688  70.864  1.00  0.00    -0.352 A  
HETATM   31  C   UNL     1      -9.344   8.749  72.019  1.00  0.00    -0.322 A  
HETATM   32  C   UNL     1      -9.860   9.595  71.026  1.00  0.00    -0.035 A  
BRANCH  29  33
HETATM   33  O   UNL     1     -13.471   9.065  71.504  1.00  0.00    -0.355 OA 
HETATM   34  C   UNL     1     -14.264   7.923  71.813  1.00  0.00    -0.451 C  
ENDBRANCH  29  33
BRANCH  30  35
HETATM   35  O   UNL     1     -11.910  10.410  69.890  1.00  0.00    -0.258 OA 
HETATM   36  C   UNL     1     -12.029  11.816  70.055  1.00  0.00    -0.344 C  
ENDBRANCH  30  35
BRANCH  32  37
HETATM   37  O   UNL     1      -9.054  10.315  70.186  1.00  0.00    -0.004 OA 
HETATM   38  C   UNL     1      -7.738   9.836  69.936  1.00  0.00    -0.157 C  
ENDBRANCH  32  37
ENDBRANCH  25  27
ENDBRANCH  24  25
ENDBRANCH  23  24
ENDBRANCH  22  23
ENDBRANCH  21  22
ENDBRANCH  19  21
ENDBRANCH  18  19
ENDBRANCH  17  18
ENDBRANCH  15  17
ENDBRANCH  14  15
ENDBRANCH  13  14
ENDBRANCH  12  13
ENDBRANCH  11  12
ENDBRANCH   9  11
ENDBRANCH   5   9
BRANCH   8  39
HETATM   39  O   UNL     1      -9.041  16.772  68.961  1.00  0.00    -0.256 OA 
HETATM   40  C   UNL     1      -7.720  17.282  69.061  1.00  0.00    -0.166 C  
ENDBRANCH   8  39
BRANCH   7  41
HETATM   41  O   UNL     1     -10.512  17.772  66.692  1.00  0.00    -0.344 OA 
HETATM   42  C   UNL     1      -9.688  18.759  66.096  1.00  0.00    -0.257 C  
ENDBRANCH   7  41
ENDBRANCH   2   3
TORSDOF 21
ENDMDL
MODEL       87
REMARK 921   NORMALIZED FREE ENERGY PREDICTED BY IDOCK:   -4.58 KCAL/MOL
REMARK 922        TOTAL FREE ENERGY PREDICTED BY IDOCK:  -13.05 KCAL/MOL
REMARK 923 INTER-LIGAND FREE ENERGY PREDICTED BY IDOCK:  -11.00 KCAL/MOL
REMARK 924 INTRA-LIGAND FREE ENERGY PREDICTED BY IDOCK:   -2.06 KCAL/MOL
REMARK 927      BINDING AFFINITY PREDICTED BY RF-SCORE:    0.00 PKD
ROOT
HETATM    1  C   UNL     1     -10.534  17.773  67.457  1.00  0.00    -0.372 C  
HETATM    2  O   UNL     1     -10.667  17.027  68.665  1.00  0.00    -0.345 OA 
ENDROOT
BRANCH   2   3
HETATM    3  C   UNL     1     -11.188  15.761  68.557  1.00  0.00    -0.354 A  
HETATM    4  C   UNL     1     -11.521  15.237  67.302  1.00  0.00    -0.227 A  
HETATM    5  C   UNL     1     -12.052  13.953  67.164  1.00  0.00    -0.422 A  
HETATM    6  C   UNL     1     -12.245  13.175  68.300  1.00  0.00    -0.065 A  
HETATM    7  C   UNL     1     -11.344  14.964  69.714  1.00  0.00    -0.283 A  
HETATM    8  C   UNL     1     -11.890  13.663  69.572  1.00  0.00    -0.337 A  
BRANCH   5   9
HETATM    9  C   UNL     1     -12.380  13.511  65.787  1.00  0.00    -0.468 C  
HETATM   10  O   UNL     1     -12.997  14.217  65.002  1.00  0.00    -0.721 OA 
BRANCH   9  11
HETATM   11  O   UNL     1     -11.955  12.246  65.545  1.00  0.00    -0.449 OA 
BRANCH  11  12
HETATM   12  C   UNL     1     -10.784  12.168  64.713  1.00  0.00    -0.301 C  
BRANCH  12  13
HETATM   13  C   UNL     1     -10.411  10.706  64.490  1.00  0.00    -0.266 C  
BRANCH  13  14
HETATM   14  C   UNL     1      -9.674  10.506  63.165  1.00  0.00    -0.305 C  
BRANCH  14  15
HETATM   15  N   UNL     1      -8.599   9.494  63.237  1.00  0.00    -0.201 NA 
HETATM   16  C   UNL     1      -7.364   9.979  62.608  1.00  0.00    -0.129 C  
BRANCH  15  17
HETATM   17  C   UNL     1      -8.381   9.131  64.663  1.00  0.00    -0.172 C  
BRANCH  17  18
HETATM   18  C   UNL     1      -7.033   8.423  64.938  1.00  0.00    -0.075 C  
BRANCH  18  19
HETATM   19  N   UNL     1      -6.978   6.977  64.619  1.00  0.00    -0.049 NA 
HETATM   20  C   UNL     1      -5.930   6.693  63.633  1.00  0.00    -0.031 C  
BRANCH  19  21
HETATM   21  C   UNL     1      -6.724   6.183  65.843  1.00  0.00    -0.048 C  
BRANCH  21  22
HETATM   22  C   UNL     1      -7.256   4.749  65.759  1.00  0.00    -0.076 C  
BRANCH  22  23
HETATM   23  C   UNL     1      -8.597   4.600  66.466  1.00  0.00    -0.112 C  
BRANCH  23  24
HETATM   24  O   UNL     1      -8.873   5.787  67.228  1.00  0.00    -0.109 OA 
BRANCH  24  25
HETATM   25  C   UNL     1     -10.184   6.037  67.472  1.00  0.00    -0.184 C  
HETATM   26  O   UNL     1     -11.109   5.837  66.701  1.00  0.00    -0.227 OA 
BRANCH  25  27
HETATM   27  C   UNL     1     -10.363   6.578  68.845  1.00  0.00    -0.225 A  
HETATM   28  C   UNL     1      -9.309   7.298  69.409  1.00  0.00    -0.151 A  
HETATM   29  C   UNL     1      -9.411   7.788  70.711  1.00  0.00    -0.161 A  
HETATM   30  C   UNL     1     -10.579   7.543  71.475  1.00  0.00    -0.212 A  
HETATM   31  C   UNL     1     -11.536   6.369  69.578  1.00  0.00    -0.412 A  
HETATM   32  C   UNL     1     -11.656   6.833  70.896  1.00  0.00    -0.353 A  
BRANCH  29  33
HETATM   33  O   UNL     1      -8.391   8.475  71.329  1.00  0.00    -0.127 OA 
HETATM   34  C   UNL     1      -7.067   8.031  71.046  1.00  0.00    -0.050 C  
ENDBRANCH  29  33
BRANCH  30  35
HETATM   35  O   UNL     1     -10.519   7.989  72.774  1.00  0.00    -0.307 OA 
HETATM   36  C   UNL     1     -10.257   7.044  73.802  1.00  0.00    -0.363 C  
ENDBRANCH  30  35
BRANCH  32  37
HETATM   37  O   UNL     1     -12.770   6.598  71.656  1.00  0.00    -0.342 OA 
HETATM   38  C   UNL     1     -13.912   7.424  71.458  1.00  0.00    -0.396 C  
ENDBRANCH  32  37
ENDBRANCH  25  27
ENDBRANCH  24  25
ENDBRANCH  23  24
ENDBRANCH  22  23
ENDBRANCH  21  22
ENDBRANCH  19  21
ENDBRANCH  18  19
ENDBRANCH  17  18
ENDBRANCH  15  17
ENDBRANCH  14  15
ENDBRANCH  13  14
ENDBRANCH  12  13
ENDBRANCH  11  12
ENDBRANCH   9  11
ENDBRANCH   5   9
BRANCH   8  39
HETATM   39  O   UNL     1     -12.150  12.729  70.547  1.00  0.00    -0.367 OA 
HETATM   40  C   UNL     1     -12.101  11.346  70.232  1.00  0.00    -0.374 C  
ENDBRANCH   8  39
BRANCH   7  41
HETATM   41  O   UNL     1     -11.023  15.345  70.991  1.00  0.00    -0.342 OA 
HETATM   42  C   UNL     1     -11.924  16.113  71.771  1.00  0.00    -0.489 C  
ENDBRANCH   7  41
ENDBRANCH   2   3
TORSDOF 21
ENDMDL
MODEL       88
REMARK 921   NORMALIZED FREE ENERGY PREDICTED BY IDOCK:   -4.58 KCAL/MOL
REMARK 922        TOTAL FREE ENERGY PREDICTED BY IDOCK:  -13.05 KCAL/MOL
REMARK 923 INTER-LIGAND FREE ENERGY PREDICTED BY IDOCK:  -10.46 KCAL/MOL
REMARK 924 INTRA-LIGAND FREE ENERGY PREDICTED BY IDOCK:   -2.59 KCAL/MOL
REMARK 927      BINDING AFFINITY PREDICTED BY RF-SCORE:    0.00 PKD
ROOT
HETATM    1  C   UNL     1     -11.729  12.417  63.532  1.00  0.00    -0.510 C  
HETATM    2  O   UNL     1     -10.806  12.384  64.618  1.00  0.00    -0.284 OA 
ENDROOT
BRANCH   2   3
HETATM    3  C   UNL     1     -10.910  13.387  65.550  1.00  0.00    -0.289 A  
HETATM    4  C   UNL     1     -10.365  14.651  65.295  1.00  0.00    -0.425 A  
HETATM    5  C   UNL     1     -10.458  15.688  66.225  1.00  0.00    -0.313 A  
HETATM    6  C   UNL     1     -11.114  15.461  67.429  1.00  0.00    -0.311 A  
HETATM    7  C   UNL     1     -11.614  13.157  66.755  1.00  0.00    -0.366 A  
HETATM    8  C   UNL     1     -11.700  14.210  67.701  1.00  0.00    -0.387 A  
BRANCH   5   9
HETATM    9  C   UNL     1      -9.830  16.979  65.851  1.00  0.00    -0.177 C  
HETATM   10  O   UNL     1     -10.488  17.983  65.617  1.00  0.00    -0.619 OA 
BRANCH   9  11
HETATM   11  O   UNL     1      -8.480  16.882  65.766  1.00  0.00    -0.492 OA 
BRANCH  11  12
HETATM   12  C   UNL     1      -7.790  17.200  66.989  1.00  0.00    -0.198 C  
BRANCH  12  13
HETATM   13  C   UNL     1      -6.654  16.205  67.208  1.00  0.00    -0.231 C  
BRANCH  13  14
HETATM   14  C   UNL     1      -7.174  14.850  67.690  1.00  0.00    -0.185 C  
BRANCH  14  15
HETATM   15  N   UNL     1      -6.331  14.236  68.738  1.00  0.00    -0.083 NA 
HETATM   16  C   UNL     1      -6.355  15.026  69.976  1.00  0.00    -0.163 C  
BRANCH  15  17
HETATM   17  C   UNL     1      -6.796  12.842  68.967  1.00  0.00    -0.081 C  
BRANCH  17  18
HETATM   18  C   UNL     1      -8.014  12.430  68.107  1.00  0.00    -0.153 C  
BRANCH  18  19
HETATM   19  N   UNL     1      -7.846  11.215  67.276  1.00  0.00    -0.130 NA 
HETATM   20  C   UNL     1      -6.454  11.059  66.844  1.00  0.00    -0.108 C  
BRANCH  19  21
HETATM   21  C   UNL     1      -8.262  10.009  68.026  1.00  0.00    -0.116 C  
BRANCH  21  22
HETATM   22  C   UNL     1      -7.766   8.702  67.401  1.00  0.00    -0.098 C  
BRANCH  22  23
HETATM   23  C   UNL     1      -8.808   8.085  66.476  1.00  0.00    -0.151 C  
BRANCH  23  24
HETATM   24  O   UNL     1      -9.068   6.730  66.880  1.00  0.00    -0.128 OA 
BRANCH  24  25
HETATM   25  C   UNL     1     -10.301   6.497  67.395  1.00  0.00    -0.208 C  
HETATM   26  O   UNL     1     -11.355   6.528  66.781  1.00  0.00    -0.272 OA 
BRANCH  25  27
HETATM   27  C   UNL     1     -10.204   6.168  68.842  1.00  0.00    -0.232 A  
HETATM   28  C   UNL     1      -9.946   4.844  69.198  1.00  0.00    -0.252 A  
HETATM   29  C   UNL     1      -9.890   4.476  70.543  1.00  0.00    -0.227 A  
HETATM   30  C   UNL     1     -10.112   5.442  71.555  1.00  0.00    -0.195 A  
HETATM   31  C   UNL     1     -10.382   7.135  69.837  1.00  0.00    -0.224 A  
HETATM   32  C   UNL     1     -10.352   6.788  71.196  1.00  0.00    -0.205 A  
BRANCH  29  33
HETATM   33  O   UNL     1      -9.673   3.179  70.950  1.00  0.00    -0.166 OA 
HETATM   34  C   UNL     1      -8.770   2.410  70.161  1.00  0.00    -0.065 C  
ENDBRANCH  29  33
BRANCH  30  35
HETATM   35  O   UNL     1     -10.131   4.938  72.834  1.00  0.00    -0.156 OA 
HETATM   36  C   UNL     1     -11.389   4.671  73.438  1.00  0.00    -0.305 C  
ENDBRANCH  30  35
BRANCH  32  37
HETATM   37  O   UNL     1     -10.575   7.702  72.190  1.00  0.00    -0.213 OA 
HETATM   38  C   UNL     1     -11.900   8.184  72.382  1.00  0.00    -0.388 C  
ENDBRANCH  32  37
ENDBRANCH  25  27
ENDBRANCH  24  25
ENDBRANCH  23  24
ENDBRANCH  22  23
ENDBRANCH  21  22
ENDBRANCH  19  21
ENDBRANCH  18  19
ENDBRANCH  17  18
ENDBRANCH  15  17
ENDBRANCH  14  15
ENDBRANCH  13  14
ENDBRANCH  12  13
ENDBRANCH  11  12
ENDBRANCH   9  11
ENDBRANCH   5   9
BRANCH   8  39
HETATM   39  O   UNL     1     -12.308  14.209  68.935  1.00  0.00    -0.284 OA 
HETATM   40  C   UNL     1     -12.048  15.262  69.851  1.00  0.00    -0.343 C  
ENDBRANCH   8  39
BRANCH   7  41
HETATM   41  O   UNL     1     -12.221  11.981  67.108  1.00  0.00    -0.505 OA 
HETATM   42  C   UNL     1     -11.569  11.046  67.951  1.00  0.00    -0.226 C  
ENDBRANCH   7  41
ENDBRANCH   2   3
TORSDOF 21
ENDMDL
MODEL       89
REMARK 921   NORMALIZED FREE ENERGY PREDICTED BY IDOCK:   -4.57 KCAL/MOL
REMARK 922        TOTAL FREE ENERGY PREDICTED BY IDOCK:  -13.05 KCAL/MOL
REMARK 923 INTER-LIGAND FREE ENERGY PREDICTED BY IDOCK:  -10.44 KCAL/MOL
REMARK 924 INTRA-LIGAND FREE ENERGY PREDICTED BY IDOCK:   -2.61 KCAL/MOL
REMARK 927      BINDING AFFINITY PREDICTED BY RF-SCORE:    0.00 PKD
ROOT
HETATM    1  C   UNL     1     -10.610   5.825  73.765  1.00  0.00    -0.260 C  
HETATM    2  O   UNL     1      -9.899   7.060  73.779  1.00  0.00    -0.240 OA 
ENDROOT
BRANCH   2   3
HETATM    3  C   UNL     1      -9.992   7.841  72.654  1.00  0.00    -0.238 A  
HETATM    4  C   UNL     1     -11.176   8.532  72.367  1.00  0.00    -0.399 A  
HETATM    5  C   UNL     1     -11.298   9.333  71.231  1.00  0.00    -0.423 A  
HETATM    6  C   UNL     1     -10.214   9.454  70.368  1.00  0.00    -0.310 A  
HETATM    7  C   UNL     1      -8.872   7.988  71.804  1.00  0.00    -0.140 A  
HETATM    8  C   UNL     1      -9.001   8.797  70.646  1.00  0.00    -0.186 A  
BRANCH   5   9
HETATM    9  C   UNL     1     -12.605  10.004  71.023  1.00  0.00    -0.367 C  
HETATM   10  O   UNL     1     -13.618   9.661  71.616  1.00  0.00    -0.371 OA 
BRANCH   9  11
HETATM   11  O   UNL     1     -12.530  10.985  70.090  1.00  0.00    -0.306 OA 
BRANCH  11  12
HETATM   12  C   UNL     1     -12.467  12.314  70.637  1.00  0.00    -0.236 C  
BRANCH  12  13
HETATM   13  C   UNL     1     -11.494  13.158  69.819  1.00  0.00    -0.216 C  
BRANCH  13  14
HETATM   14  C   UNL     1     -11.974  14.604  69.685  1.00  0.00    -0.323 C  
BRANCH  14  15
HETATM   15  N   UNL     1     -11.793  15.160  68.328  1.00  0.00    -0.306 NA 
HETATM   16  C   UNL     1     -10.867  16.300  68.335  1.00  0.00    -0.334 C  
BRANCH  15  17
HETATM   17  C   UNL     1     -11.321  14.075  67.427  1.00  0.00    -0.329 C  
BRANCH  17  18
HETATM   18  C   UNL     1     -12.283  13.758  66.257  1.00  0.00    -0.447 C  
BRANCH  18  19
HETATM   19  N   UNL     1     -11.862  14.230  64.918  1.00  0.00    -0.389 NA 
HETATM   20  C   UNL     1     -10.646  15.046  65.004  1.00  0.00    -0.412 C  
BRANCH  19  21
HETATM   21  C   UNL     1     -11.616  13.084  64.015  1.00  0.00    -0.430 C  
BRANCH  21  22
HETATM   22  C   UNL     1     -10.144  12.665  63.949  1.00  0.00    -0.247 C  
BRANCH  22  23
HETATM   23  C   UNL     1      -9.972  11.166  64.158  1.00  0.00    -0.316 C  
BRANCH  23  24
HETATM   24  O   UNL     1      -9.044  10.933  65.230  1.00  0.00    -0.192 OA 
BRANCH  24  25
HETATM   25  C   UNL     1      -9.555  10.315  66.325  1.00  0.00    -0.189 C  
HETATM   26  O   UNL     1     -10.145  10.856  67.246  1.00  0.00    -0.181 OA 
BRANCH  25  27
HETATM   27  C   UNL     1      -9.321   8.849  66.250  1.00  0.00    -0.279 A  
HETATM   28  C   UNL     1      -8.453   8.372  65.268  1.00  0.00    -0.189 A  
HETATM   29  C   UNL     1      -8.235   7.001  65.128  1.00  0.00    -0.113 A  
HETATM   30  C   UNL     1      -8.907   6.084  65.973  1.00  0.00    -0.153 A  
HETATM   31  C   UNL     1      -9.955   7.951  67.115  1.00  0.00    -0.298 A  
HETATM   32  C   UNL     1      -9.769   6.567  66.983  1.00  0.00    -0.151 A  
BRANCH  29  33
HETATM   33  O   UNL     1      -7.416   6.474  64.155  1.00  0.00    -0.077 OA 
HETATM   34  C   UNL     1      -7.755   6.783  62.806  1.00  0.00    -0.105 C  
ENDBRANCH  29  33
BRANCH  30  35
HETATM   35  O   UNL     1      -8.687   4.760  65.672  1.00  0.00    -0.123 OA 
HETATM   36  C   UNL     1      -9.643   4.081  64.870  1.00  0.00    -0.179 C  
ENDBRANCH  30  35
BRANCH  32  37
HETATM   37  O   UNL     1     -10.417   5.662  67.781  1.00  0.00    -0.208 OA 
HETATM   38  C   UNL     1     -10.873   6.090  69.059  1.00  0.00    -0.342 C  
ENDBRANCH  32  37
ENDBRANCH  25  27
ENDBRANCH  24  25
ENDBRANCH  23  24
ENDBRANCH  22  23
ENDBRANCH  21  22
ENDBRANCH  19  21
ENDBRANCH  18  19
ENDBRANCH  17  18
ENDBRANCH  15  17
ENDBRANCH  14  15
ENDBRANCH  13  14
ENDBRANCH  12  13
ENDBRANCH  11  12
ENDBRANCH   9  11
ENDBRANCH   5   9
BRANCH   8  39
HETATM   39  O   UNL     1      -8.063   9.065  69.676  1.00  0.00    -0.094 OA 
HETATM   40  C   UNL     1      -7.436  10.338  69.633  1.00  0.00    -0.158 C  
ENDBRANCH   8  39
BRANCH   7  41
HETATM   41  O   UNL     1      -7.650   7.398  71.991  1.00  0.00    -0.082 OA 
HETATM   42  C   UNL     1      -7.532   5.992  72.129  1.00  0.00    -0.095 C  
ENDBRANCH   7  41
ENDBRANCH   2   3
TORSDOF 21
ENDMDL
MODEL       90
REMARK 921   NORMALIZED FREE ENERGY PREDICTED BY IDOCK:   -4.57 KCAL/MOL
REMARK 922        TOTAL FREE ENERGY PREDICTED BY IDOCK:  -13.03 KCAL/MOL
REMARK 923 INTER-LIGAND FREE ENERGY PREDICTED BY IDOCK:  -11.20 KCAL/MOL
REMARK 924 INTRA-LIGAND FREE ENERGY PREDICTED BY IDOCK:   -1.83 KCAL/MOL
REMARK 927      BINDING AFFINITY PREDICTED BY RF-SCORE:    0.00 PKD
ROOT
HETATM    1  C   UNL     1      -7.794   5.842  64.330  1.00  0.00    -0.112 C  
HETATM    2  O   UNL     1      -7.499   7.234  64.421  1.00  0.00    -0.082 OA 
ENDROOT
BRANCH   2   3
HETATM    3  C   UNL     1      -8.374   8.006  65.146  1.00  0.00    -0.130 A  
HETATM    4  C   UNL     1      -8.596   7.741  66.503  1.00  0.00    -0.149 A  
HETATM    5  C   UNL     1      -9.479   8.510  67.263  1.00  0.00    -0.199 A  
HETATM    6  C   UNL     1     -10.146   9.570  66.658  1.00  0.00    -0.321 A  
HETATM    7  C   UNL     1      -9.017   9.105  64.532  1.00  0.00    -0.079 A  
HETATM    8  C   UNL     1      -9.919   9.880  65.304  1.00  0.00    -0.249 A  
BRANCH   5   9
HETATM    9  C   UNL     1      -9.645   8.126  68.686  1.00  0.00    -0.149 C  
HETATM   10  O   UNL     1      -9.446   8.910  69.603  1.00  0.00    -0.162 OA 
BRANCH   9  11
HETATM   11  O   UNL     1      -9.994   6.823  68.823  1.00  0.00    -0.141 OA 
BRANCH  11  12
HETATM   12  C   UNL     1     -11.222   6.616  69.544  1.00  0.00    -0.326 C  
BRANCH  12  13
HETATM   13  C   UNL     1     -10.917   6.010  70.911  1.00  0.00    -0.355 C  
BRANCH  13  14
HETATM   14  C   UNL     1     -12.001   6.349  71.934  1.00  0.00    -0.329 C  
BRANCH  14  15
HETATM   15  N   UNL     1     -12.889   7.452  71.506  1.00  0.00    -0.365 NA 
HETATM   16  C   UNL     1     -14.304   7.097  71.677  1.00  0.00    -0.365 C  
BRANCH  15  17
HETATM   17  C   UNL     1     -12.534   8.675  72.274  1.00  0.00    -0.395 C  
BRANCH  17  18
HETATM   18  C   UNL     1     -11.768   9.739  71.451  1.00  0.00    -0.398 C  
BRANCH  18  19
HETATM   19  N   UNL     1     -12.583  10.842  70.890  1.00  0.00    -0.371 NA 
HETATM   20  C   UNL     1     -13.119  11.698  71.954  1.00  0.00    -0.385 C  
BRANCH  19  21
HETATM   21  C   UNL     1     -11.776  11.665  69.962  1.00  0.00    -0.321 C  
BRANCH  21  22
HETATM   22  C   UNL     1     -12.138  13.153  69.997  1.00  0.00    -0.375 C  
BRANCH  22  23
HETATM   23  C   UNL     1     -11.825  13.844  68.675  1.00  0.00    -0.372 C  
BRANCH  23  24
HETATM   24  O   UNL     1     -11.034  15.018  68.922  1.00  0.00    -0.232 OA 
BRANCH  24  25
HETATM   25  C   UNL     1      -9.707  14.896  68.662  1.00  0.00    -0.226 C  
HETATM   26  O   UNL     1      -9.103  13.852  68.478  1.00  0.00    -0.189 OA 
BRANCH  25  27
HETATM   27  C   UNL     1      -9.065  16.236  68.605  1.00  0.00    -0.228 A  
HETATM   28  C   UNL     1      -7.705  16.326  68.902  1.00  0.00    -0.219 A  
HETATM   29  C   UNL     1      -7.067  17.567  68.906  1.00  0.00    -0.253 A  
HETATM   30  C   UNL     1      -7.800  18.745  68.625  1.00  0.00    -0.328 A  
HETATM   31  C   UNL     1      -9.786  17.391  68.284  1.00  0.00    -0.299 A  
HETATM   32  C   UNL     1      -9.173  18.653  68.301  1.00  0.00    -0.322 A  
BRANCH  29  33
HETATM   33  O   UNL     1      -5.736  17.717  69.225  1.00  0.00    -0.193 OA 
HETATM   34  C   UNL     1      -5.346  17.297  70.530  1.00  0.00    -0.253 C  
ENDBRANCH  29  33
BRANCH  30  35
HETATM   35  O   UNL     1      -7.085  19.911  68.758  1.00  0.00    -0.325 OA 
HETATM   36  C   UNL     1      -6.549  20.514  67.588  1.00  0.00    -0.292 C  
ENDBRANCH  30  35
BRANCH  32  37
HETATM   37  O   UNL     1      -9.865  19.806  68.043  1.00  0.00    -0.373 OA 
HETATM   38  C   UNL     1     -10.762  19.825  66.938  1.00  0.00    -0.421 C  
ENDBRANCH  32  37
ENDBRANCH  25  27
ENDBRANCH  24  25
ENDBRANCH  23  24
ENDBRANCH  22  23
ENDBRANCH  21  22
ENDBRANCH  19  21
ENDBRANCH  18  19
ENDBRANCH  17  18
ENDBRANCH  15  17
ENDBRANCH  14  15
ENDBRANCH  13  14
ENDBRANCH  12  13
ENDBRANCH  11  12
ENDBRANCH   9  11
ENDBRANCH   5   9
BRANCH   8  39
HETATM   39  O   UNL     1     -10.666  10.969  64.918  1.00  0.00    -0.286 OA 
HETATM   40  C   UNL     1     -10.614  12.166  65.678  1.00  0.00    -0.262 C  
ENDBRANCH   8  39
BRANCH   7  41
HETATM   41  O   UNL     1      -8.858   9.491  63.227  1.00  0.00    -0.225 OA 
HETATM   42  C   UNL     1      -7.881  10.452  62.864  1.00  0.00    -0.137 C  
ENDBRANCH   7  41
ENDBRANCH   2   3
TORSDOF 21
ENDMDL
MODEL       91
REMARK 921   NORMALIZED FREE ENERGY PREDICTED BY IDOCK:   -4.56 KCAL/MOL
REMARK 922        TOTAL FREE ENERGY PREDICTED BY IDOCK:  -13.02 KCAL/MOL
REMARK 923 INTER-LIGAND FREE ENERGY PREDICTED BY IDOCK:  -10.49 KCAL/MOL
REMARK 924 INTRA-LIGAND FREE ENERGY PREDICTED BY IDOCK:   -2.52 KCAL/MOL
REMARK 927      BINDING AFFINITY PREDICTED BY RF-SCORE:    0.00 PKD
ROOT
HETATM    1  C   UNL     1      -7.351   3.612  65.427  1.00  0.00    -0.076 C  
HETATM    2  O   UNL     1      -7.817   4.695  64.625  1.00  0.00    -0.083 OA 
ENDROOT
BRANCH   2   3
HETATM    3  C   UNL     1      -8.303   5.794  65.291  1.00  0.00    -0.146 A  
HETATM    4  C   UNL     1      -9.025   5.639  66.481  1.00  0.00    -0.126 A  
HETATM    5  C   UNL     1      -9.529   6.739  67.178  1.00  0.00    -0.167 A  
HETATM    6  C   UNL     1      -9.300   8.017  66.682  1.00  0.00    -0.249 A  
HETATM    7  C   UNL     1      -8.032   7.091  64.799  1.00  0.00    -0.122 A  
HETATM    8  C   UNL     1      -8.551   8.206  65.505  1.00  0.00    -0.149 A  
BRANCH   5   9
HETATM    9  C   UNL     1     -10.290   6.451  68.418  1.00  0.00    -0.194 C  
HETATM   10  O   UNL     1     -11.509   6.541  68.474  1.00  0.00    -0.193 OA 
BRANCH   9  11
HETATM   11  O   UNL     1      -9.474   6.130  69.452  1.00  0.00    -0.137 OA 
BRANCH  11  12
HETATM   12  C   UNL     1      -9.975   5.072  70.290  1.00  0.00    -0.255 C  
BRANCH  12  13
HETATM   13  C   UNL     1     -10.080   5.567  71.730  1.00  0.00    -0.247 C  
BRANCH  13  14
HETATM   14  C   UNL     1     -11.528   5.861  72.123  1.00  0.00    -0.276 C  
BRANCH  14  15
HETATM   15  N   UNL     1     -12.047   7.121  71.550  1.00  0.00    -0.321 NA 
HETATM   16  C   UNL     1     -13.510   7.200  71.666  1.00  0.00    -0.321 C  
BRANCH  15  17
HETATM   17  C   UNL     1     -11.381   8.265  72.229  1.00  0.00    -0.378 C  
BRANCH  17  18
HETATM   18  C   UNL     1     -10.732   9.284  71.263  1.00  0.00    -0.352 C  
BRANCH  18  19
HETATM   19  N   UNL     1     -11.597   9.793  70.173  1.00  0.00    -0.220 NA 
HETATM   20  C   UNL     1     -12.581  10.753  70.683  1.00  0.00    -0.357 C  
BRANCH  19  21
HETATM   21  C   UNL     1     -10.781  10.443  69.122  1.00  0.00    -0.234 C  
BRANCH  21  22
HETATM   22  C   UNL     1     -11.585  11.392  68.228  1.00  0.00    -0.376 C  
BRANCH  22  23
HETATM   23  C   UNL     1     -10.987  11.496  66.831  1.00  0.00    -0.296 C  
BRANCH  23  24
HETATM   24  O   UNL     1     -10.015  12.554  66.802  1.00  0.00    -0.220 OA 
BRANCH  24  25
HETATM   25  C   UNL     1     -10.231  13.524  65.877  1.00  0.00    -0.301 C  
HETATM   26  O   UNL     1     -10.495  13.348  64.699  1.00  0.00    -0.385 OA 
BRANCH  25  27
HETATM   27  C   UNL     1     -10.126  14.869  66.503  1.00  0.00    -0.279 A  
HETATM   28  C   UNL     1      -9.365  15.840  65.849  1.00  0.00    -0.356 A  
HETATM   29  C   UNL     1      -9.200  17.103  66.418  1.00  0.00    -0.258 A  
HETATM   30  C   UNL     1      -9.789  17.402  67.670  1.00  0.00    -0.282 A  
HETATM   31  C   UNL     1     -10.746  15.172  67.719  1.00  0.00    -0.279 A  
HETATM   32  C   UNL     1     -10.579  16.428  68.322  1.00  0.00    -0.318 A  
BRANCH  29  33
HETATM   33  O   UNL     1      -8.433  18.086  65.834  1.00  0.00    -0.509 OA 
HETATM   34  C   UNL     1      -7.024  17.873  65.832  1.00  0.00    -0.278 C  
ENDBRANCH  29  33
BRANCH  30  35
HETATM   35  O   UNL     1      -9.471  18.642  68.171  1.00  0.00    -0.301 OA 
HETATM   36  C   UNL     1     -10.403  19.701  68.000  1.00  0.00    -0.453 C  
ENDBRANCH  30  35
BRANCH  32  37
HETATM   37  O   UNL     1     -11.130  16.735  69.537  1.00  0.00    -0.240 OA 
HETATM   38  C   UNL     1     -11.373  15.677  70.458  1.00  0.00    -0.367 C  
ENDBRANCH  32  37
ENDBRANCH  25  27
ENDBRANCH  24  25
ENDBRANCH  23  24
ENDBRANCH  22  23
ENDBRANCH  21  22
ENDBRANCH  19  21
ENDBRANCH  18  19
ENDBRANCH  17  18
ENDBRANCH  15  17
ENDBRANCH  14  15
ENDBRANCH  13  14
ENDBRANCH  12  13
ENDBRANCH  11  12
ENDBRANCH   9  11
ENDBRANCH   5   9
BRANCH   8  39
HETATM   39  O   UNL     1      -8.435   9.543  65.206  1.00  0.00    -0.133 OA 
HETATM   40  C   UNL     1      -7.436  10.325  65.842  1.00  0.00    -0.135 C  
ENDBRANCH   8  39
BRANCH   7  41
HETATM   41  O   UNL     1      -7.310   7.378  63.670  1.00  0.00    -0.079 OA 
HETATM   42  C   UNL     1      -5.903   7.546  63.727  1.00  0.00    -0.048 C  
ENDBRANCH   7  41
ENDBRANCH   2   3
TORSDOF 21
ENDMDL
MODEL       92
REMARK 921   NORMALIZED FREE ENERGY PREDICTED BY IDOCK:   -4.55 KCAL/MOL
REMARK 922        TOTAL FREE ENERGY PREDICTED BY IDOCK:  -12.99 KCAL/MOL
REMARK 923 INTER-LIGAND FREE ENERGY PREDICTED BY IDOCK:  -10.38 KCAL/MOL
REMARK 924 INTRA-LIGAND FREE ENERGY PREDICTED BY IDOCK:   -2.60 KCAL/MOL
REMARK 927      BINDING AFFINITY PREDICTED BY RF-SCORE:    0.00 PKD
ROOT
HETATM    1  C   UNL     1     -11.431  15.819  64.555  1.00  0.00    -0.289 C  
HETATM    2  O   UNL     1     -10.571  15.245  65.536  1.00  0.00    -0.319 OA 
ENDROOT
BRANCH   2   3
HETATM    3  C   UNL     1     -10.482  15.899  66.740  1.00  0.00    -0.309 A  
HETATM    4  C   UNL     1     -10.256  17.280  66.782  1.00  0.00    -0.318 A  
HETATM    5  C   UNL     1     -10.163  17.969  67.992  1.00  0.00    -0.390 A  
HETATM    6  C   UNL     1     -10.306  17.267  69.183  1.00  0.00    -0.290 A  
HETATM    7  C   UNL     1     -10.668  15.182  67.945  1.00  0.00    -0.268 A  
HETATM    8  C   UNL     1     -10.566  15.884  69.173  1.00  0.00    -0.246 A  
BRANCH   5   9
HETATM    9  C   UNL     1      -9.907  19.428  67.912  1.00  0.00    -0.361 C  
HETATM   10  O   UNL     1     -10.782  20.258  68.114  1.00  0.00    -0.169 OA 
BRANCH   9  11
HETATM   11  O   UNL     1      -8.628  19.701  67.555  1.00  0.00    -0.294 OA 
BRANCH  11  12
HETATM   12  C   UNL     1      -7.679  19.580  68.630  1.00  0.00    -0.355 C  
BRANCH  12  13
HETATM   13  C   UNL     1      -6.473  18.771  68.160  1.00  0.00    -0.227 C  
BRANCH  13  14
HETATM   14  C   UNL     1      -6.669  17.274  68.401  1.00  0.00    -0.181 C  
BRANCH  14  15
HETATM   15  N   UNL     1      -5.541  16.642  69.118  1.00  0.00    -0.134 NA 
HETATM   16  C   UNL     1      -5.464  17.105  70.510  1.00  0.00    -0.201 C  
BRANCH  15  17
HETATM   17  C   UNL     1      -5.694  15.164  69.040  1.00  0.00    -0.097 C  
BRANCH  17  18
HETATM   18  C   UNL     1      -5.467  14.577  67.627  1.00  0.00     0.075 C  
BRANCH  18  19
HETATM   19  N   UNL     1      -6.030  13.229  67.380  1.00  0.00    -0.342 NA 
HETATM   20  C   UNL     1      -5.448  12.239  68.294  1.00  0.00    -0.055 C  
BRANCH  19  21
HETATM   21  C   UNL     1      -7.500  13.240  67.546  1.00  0.00    -0.157 C  
BRANCH  21  22
HETATM   22  C   UNL     1      -8.104  11.843  67.720  1.00  0.00    -0.146 C  
BRANCH  22  23
HETATM   23  C   UNL     1      -8.907  11.417  66.498  1.00  0.00    -0.187 C  
BRANCH  23  24
HETATM   24  O   UNL     1     -10.114  10.760  66.921  1.00  0.00    -0.197 OA 
BRANCH  24  25
HETATM   25  C   UNL     1     -10.081   9.404  66.903  1.00  0.00    -0.248 C  
HETATM   26  O   UNL     1      -9.704   8.706  65.976  1.00  0.00    -0.241 OA 
BRANCH  25  27
HETATM   27  C   UNL     1     -10.556   8.856  68.202  1.00  0.00    -0.211 A  
HETATM   28  C   UNL     1     -10.895   9.759  69.210  1.00  0.00    -0.240 A  
HETATM   29  C   UNL     1     -11.302   9.294  70.461  1.00  0.00    -0.258 A  
HETATM   30  C   UNL     1     -11.359   7.902  70.719  1.00  0.00    -0.274 A  
HETATM   31  C   UNL     1     -10.651   7.481  68.437  1.00  0.00    -0.177 A  
HETATM   32  C   UNL     1     -11.038   6.987  69.691  1.00  0.00    -0.219 A  
BRANCH  29  33
HETATM   33  O   UNL     1     -11.615  10.139  71.502  1.00  0.00    -0.319 OA 
HETATM   34  C   UNL     1     -12.839  10.859  71.388  1.00  0.00    -0.449 C  
ENDBRANCH  29  33
BRANCH  30  35
HETATM   35  O   UNL     1     -11.678   7.573  72.016  1.00  0.00    -0.276 OA 
HETATM   36  C   UNL     1     -10.628   7.480  72.968  1.00  0.00    -0.368 C  
ENDBRANCH  30  35
BRANCH  32  37
HETATM   37  O   UNL     1     -11.089   5.647  69.967  1.00  0.00    -0.310 OA 
HETATM   38  C   UNL     1      -9.866   4.955  70.192  1.00  0.00    -0.239 C  
ENDBRANCH  32  37
ENDBRANCH  25  27
ENDBRANCH  24  25
ENDBRANCH  23  24
ENDBRANCH  22  23
ENDBRANCH  21  22
ENDBRANCH  19  21
ENDBRANCH  18  19
ENDBRANCH  17  18
ENDBRANCH  15  17
ENDBRANCH  14  15
ENDBRANCH  13  14
ENDBRANCH  12  13
ENDBRANCH  11  12
ENDBRANCH   9  11
ENDBRANCH   5   9
BRANCH   8  39
HETATM   39  O   UNL     1     -10.687  15.397  70.454  1.00  0.00    -0.306 OA 
HETATM   40  C   UNL     1     -11.605  15.997  71.354  1.00  0.00    -0.455 C  
ENDBRANCH   8  39
BRANCH   7  41
HETATM   41  O   UNL     1     -10.930  13.841  68.040  1.00  0.00    -0.241 OA 
HETATM   42  C   UNL     1     -12.189  13.373  68.494  1.00  0.00    -0.097 C  
ENDBRANCH   7  41
ENDBRANCH   2   3
TORSDOF 21
ENDMDL
MODEL       93
REMARK 921   NORMALIZED FREE ENERGY PREDICTED BY IDOCK:   -4.54 KCAL/MOL
REMARK 922        TOTAL FREE ENERGY PREDICTED BY IDOCK:  -12.97 KCAL/MOL
REMARK 923 INTER-LIGAND FREE ENERGY PREDICTED BY IDOCK:  -10.91 KCAL/MOL
REMARK 924 INTRA-LIGAND FREE ENERGY PREDICTED BY IDOCK:   -2.06 KCAL/MOL
REMARK 927      BINDING AFFINITY PREDICTED BY RF-SCORE:    0.00 PKD
ROOT
HETATM    1  C   UNL     1      -6.521   2.604  66.220  1.00  0.00    -0.028 C  
HETATM    2  O   UNL     1      -7.837   3.068  65.930  1.00  0.00    -0.080 OA 
ENDROOT
BRANCH   2   3
HETATM    3  C   UNL     1      -8.152   4.338  66.346  1.00  0.00    -0.102 A  
HETATM    4  C   UNL     1      -8.540   4.574  67.671  1.00  0.00    -0.106 A  
HETATM    5  C   UNL     1      -8.864   5.855  68.120  1.00  0.00    -0.110 A  
HETATM    6  C   UNL     1      -8.793   6.923  67.232  1.00  0.00    -0.118 A  
HETATM    7  C   UNL     1      -8.038   5.422  65.445  1.00  0.00    -0.120 A  
HETATM    8  C   UNL     1      -8.376   6.722  65.902  1.00  0.00    -0.137 A  
BRANCH   5   9
HETATM    9  C   UNL     1      -9.275   5.981  69.540  1.00  0.00    -0.136 C  
HETATM   10  O   UNL     1      -8.496   6.319  70.420  1.00  0.00    -0.130 OA 
BRANCH   9  11
HETATM   11  O   UNL     1     -10.575   5.640  69.725  1.00  0.00    -0.280 OA 
BRANCH  11  12
HETATM   12  C   UNL     1     -11.466   6.764  69.846  1.00  0.00    -0.300 C  
BRANCH  12  13
HETATM   13  C   UNL     1     -11.601   7.153  71.315  1.00  0.00    -0.327 C  
BRANCH  13  14
HETATM   14  C   UNL     1     -11.211   8.613  71.551  1.00  0.00    -0.290 C  
BRANCH  14  15
HETATM   15  N   UNL     1     -11.971   9.566  70.715  1.00  0.00    -0.273 NA 
HETATM   16  C   UNL     1     -12.958  10.308  71.511  1.00  0.00    -0.453 C  
BRANCH  15  17
HETATM   17  C   UNL     1     -11.011  10.481  70.041  1.00  0.00    -0.286 C  
BRANCH  17  18
HETATM   18  C   UNL     1     -11.154  10.528  68.502  1.00  0.00    -0.275 C  
BRANCH  18  19
HETATM   19  N   UNL     1     -11.946  11.653  67.953  1.00  0.00    -0.623 NA 
HETATM   20  C   UNL     1     -11.756  12.870  68.748  1.00  0.00    -0.323 C  
BRANCH  19  21
HETATM   21  C   UNL     1     -11.563  11.923  66.549  1.00  0.00    -0.255 C  
BRANCH  21  22
HETATM   22  C   UNL     1     -12.343  13.081  65.918  1.00  0.00    -0.432 C  
BRANCH  22  23
HETATM   23  C   UNL     1     -11.912  13.337  64.479  1.00  0.00    -0.400 C  
BRANCH  23  24
HETATM   24  O   UNL     1     -10.791  14.236  64.466  1.00  0.00    -0.381 OA 
BRANCH  24  25
HETATM   25  C   UNL     1     -11.081  15.539  64.709  1.00  0.00    -0.407 C  
HETATM   26  O   UNL     1     -11.858  16.233  64.074  1.00  0.00    -0.958 OA 
BRANCH  25  27
HETATM   27  C   UNL     1     -10.329  16.025  65.896  1.00  0.00    -0.386 A  
HETATM   28  C   UNL     1     -10.428  17.376  66.229  1.00  0.00    -0.276 A  
HETATM   29  C   UNL     1      -9.706  17.889  67.307  1.00  0.00    -0.289 A  
HETATM   30  C   UNL     1      -8.855  17.044  68.060  1.00  0.00    -0.223 A  
HETATM   31  C   UNL     1      -9.524  15.176  66.663  1.00  0.00    -0.285 A  
HETATM   32  C   UNL     1      -8.772  15.670  67.739  1.00  0.00    -0.170 A  
BRANCH  29  33
HETATM   33  O   UNL     1      -9.739  19.220  67.658  1.00  0.00    -0.308 OA 
HETATM   34  C   UNL     1      -9.722  20.158  66.586  1.00  0.00    -0.437 C  
ENDBRANCH  29  33
BRANCH  30  35
HETATM   35  O   UNL     1      -8.123  17.686  69.031  1.00  0.00    -0.199 OA 
HETATM   36  C   UNL     1      -6.797  18.093  68.721  1.00  0.00    -0.260 C  
ENDBRANCH  30  35
BRANCH  32  37
HETATM   37  O   UNL     1      -7.935  14.874  68.474  1.00  0.00    -0.127 OA 
HETATM   38  C   UNL     1      -6.900  14.171  67.796  1.00  0.00    -0.176 C  
ENDBRANCH  32  37
ENDBRANCH  25  27
ENDBRANCH  24  25
ENDBRANCH  23  24
ENDBRANCH  22  23
ENDBRANCH  21  22
ENDBRANCH  19  21
ENDBRANCH  18  19
ENDBRANCH  17  18
ENDBRANCH  15  17
ENDBRANCH  14  15
ENDBRANCH  13  14
ENDBRANCH  12  13
ENDBRANCH  11  12
ENDBRANCH   9  11
ENDBRANCH   5   9
BRANCH   8  39
HETATM   39  O   UNL     1      -8.362   7.908  65.207  1.00  0.00    -0.141 OA 
HETATM   40  C   UNL     1      -9.037   9.042  65.730  1.00  0.00    -0.219 C  
ENDBRANCH   8  39
BRANCH   7  41
HETATM   41  O   UNL     1      -7.637   5.331  64.139  1.00  0.00    -0.063 OA 
HETATM   42  C   UNL     1      -6.328   5.711  63.749  1.00  0.00    -0.025 C  
ENDBRANCH   7  41
ENDBRANCH   2   3
TORSDOF 21
ENDMDL
MODEL       94
REMARK 921   NORMALIZED FREE ENERGY PREDICTED BY IDOCK:   -4.53 KCAL/MOL
REMARK 922        TOTAL FREE ENERGY PREDICTED BY IDOCK:  -12.95 KCAL/MOL
REMARK 923 INTER-LIGAND FREE ENERGY PREDICTED BY IDOCK:  -10.49 KCAL/MOL
REMARK 924 INTRA-LIGAND FREE ENERGY PREDICTED BY IDOCK:   -2.45 KCAL/MOL
REMARK 927      BINDING AFFINITY PREDICTED BY RF-SCORE:    0.00 PKD
ROOT
HETATM    1  C   UNL     1     -10.094   6.541  74.326  1.00  0.00    -0.356 C  
HETATM    2  O   UNL     1     -10.055   7.648  73.429  1.00  0.00    -0.311 OA 
ENDROOT
BRANCH   2   3
HETATM    3  C   UNL     1      -9.821   7.365  72.106  1.00  0.00    -0.172 A  
HETATM    4  C   UNL     1      -8.525   7.452  71.581  1.00  0.00    -0.120 A  
HETATM    5  C   UNL     1      -8.259   7.169  70.240  1.00  0.00    -0.131 A  
HETATM    6  C   UNL     1      -9.306   6.784  69.409  1.00  0.00    -0.148 A  
HETATM    7  C   UNL     1     -10.885   6.936  71.279  1.00  0.00    -0.234 A  
HETATM    8  C   UNL     1     -10.613   6.656  69.916  1.00  0.00    -0.226 A  
BRANCH   5   9
HETATM    9  C   UNL     1      -6.852   7.310  69.794  1.00  0.00    -0.053 C  
HETATM   10  O   UNL     1      -6.098   6.353  69.694  1.00  0.00    -0.027 OA 
BRANCH   9  11
HETATM   11  O   UNL     1      -6.519   8.604  69.563  1.00  0.00    -0.039 OA 
BRANCH  11  12
HETATM   12  C   UNL     1      -7.048   9.137  68.335  1.00  0.00    -0.073 C  
BRANCH  12  13
HETATM   13  C   UNL     1      -6.040   8.923  67.209  1.00  0.00    -0.058 C  
BRANCH  13  14
HETATM   14  C   UNL     1      -6.630   8.085  66.075  1.00  0.00    -0.046 C  
BRANCH  14  15
HETATM   15  N   UNL     1      -6.418   8.676  64.736  1.00  0.00    -0.065 NA 
HETATM   16  C   UNL     1      -6.942   7.805  63.676  1.00  0.00    -0.068 C  
BRANCH  15  17
HETATM   17  C   UNL     1      -7.052  10.022  64.703  1.00  0.00    -0.140 C  
BRANCH  17  18
HETATM   18  C   UNL     1      -8.582   9.996  64.475  1.00  0.00    -0.187 C  
BRANCH  18  19
HETATM   19  N   UNL     1      -9.418  10.470  65.602  1.00  0.00    -0.197 NA 
HETATM   20  C   UNL     1      -8.810  11.631  66.260  1.00  0.00    -0.164 C  
BRANCH  19  21
HETATM   21  C   UNL     1     -10.773  10.832  65.129  1.00  0.00    -0.089 C  
BRANCH  21  22
HETATM   22  C   UNL     1     -10.774  11.542  63.771  1.00  0.00    -0.474 C  
BRANCH  22  23
HETATM   23  C   UNL     1     -12.158  12.062  63.405  1.00  0.00    -0.493 C  
BRANCH  23  24
HETATM   24  O   UNL     1     -12.756  12.687  64.552  1.00  0.00    -0.650 OA 
BRANCH  24  25
HETATM   25  C   UNL     1     -12.459  14.000  64.727  1.00  0.00    -0.365 C  
HETATM   26  O   UNL     1     -12.515  14.869  63.872  1.00  0.00    -0.806 OA 
BRANCH  25  27
HETATM   27  C   UNL     1     -12.068  14.260  66.137  1.00  0.00    -0.424 A  
HETATM   28  C   UNL     1     -11.387  15.445  66.422  1.00  0.00    -0.087 A  
HETATM   29  C   UNL     1     -10.960  15.714  67.723  1.00  0.00    -0.316 A  
HETATM   30  C   UNL     1     -11.199  14.778  68.759  1.00  0.00    -0.270 A  
HETATM   31  C   UNL     1     -12.346  13.352  67.164  1.00  0.00    -0.198 A  
HETATM   32  C   UNL     1     -11.909  13.589  68.476  1.00  0.00    -0.362 A  
BRANCH  29  33
HETATM   33  O   UNL     1     -10.255  16.849  68.053  1.00  0.00    -0.282 OA 
HETATM   34  C   UNL     1     -10.284  17.911  67.104  1.00  0.00    -0.353 C  
ENDBRANCH  29  33
BRANCH  30  35
HETATM   35  O   UNL     1     -10.643  15.111  69.971  1.00  0.00    -0.256 OA 
HETATM   36  C   UNL     1     -11.496  15.601  70.996  1.00  0.00    -0.395 C  
ENDBRANCH  30  35
BRANCH  32  37
HETATM   37  O   UNL     1     -12.119  12.693  69.490  1.00  0.00    -0.271 OA 
HETATM   38  C   UNL     1     -11.507  11.412  69.400  1.00  0.00    -0.310 C  
ENDBRANCH  32  37
ENDBRANCH  25  27
ENDBRANCH  24  25
ENDBRANCH  23  24
ENDBRANCH  22  23
ENDBRANCH  21  22
ENDBRANCH  19  21
ENDBRANCH  18  19
ENDBRANCH  17  18
ENDBRANCH  15  17
ENDBRANCH  14  15
ENDBRANCH  13  14
ENDBRANCH  12  13
ENDBRANCH  11  12
ENDBRANCH   9  11
ENDBRANCH   5   9
BRANCH   8  39
HETATM   39  O   UNL     1     -11.484   6.250  68.931  1.00  0.00    -0.331 OA 
HETATM   40  C   UNL     1     -11.082   6.293  67.571  1.00  0.00    -0.279 C  
ENDBRANCH   8  39
BRANCH   7  41
HETATM   41  O   UNL     1     -12.185   6.775  71.677  1.00  0.00    -0.336 OA 
HETATM   42  C   UNL     1     -13.102   7.856  71.630  1.00  0.00    -0.332 C  
ENDBRANCH   7  41
ENDBRANCH   2   3
TORSDOF 21
ENDMDL
MODEL       95
REMARK 921   NORMALIZED FREE ENERGY PREDICTED BY IDOCK:   -4.53 KCAL/MOL
REMARK 922        TOTAL FREE ENERGY PREDICTED BY IDOCK:  -12.94 KCAL/MOL
REMARK 923 INTER-LIGAND FREE ENERGY PREDICTED BY IDOCK:  -10.32 KCAL/MOL
REMARK 924 INTRA-LIGAND FREE ENERGY PREDICTED BY IDOCK:   -2.62 KCAL/MOL
REMARK 927      BINDING AFFINITY PREDICTED BY RF-SCORE:    0.00 PKD
ROOT
HETATM    1  C   UNL     1      -6.988   8.091  70.119  1.00  0.00    -0.048 C  
HETATM    2  O   UNL     1      -6.946   9.115  69.127  1.00  0.00    -0.057 OA 
ENDROOT
BRANCH   2   3
HETATM    3  C   UNL     1      -7.794   8.974  68.057  1.00  0.00    -0.101 A  
HETATM    4  C   UNL     1      -8.048   7.708  67.515  1.00  0.00    -0.120 A  
HETATM    5  C   UNL     1      -8.906   7.537  66.428  1.00  0.00    -0.178 A  
HETATM    6  C   UNL     1      -9.529   8.651  65.876  1.00  0.00    -0.243 A  
HETATM    7  C   UNL     1      -8.453  10.108  67.528  1.00  0.00    -0.118 A  
HETATM    8  C   UNL     1      -9.319   9.932  66.418  1.00  0.00    -0.167 A  
BRANCH   5   9
HETATM    9  C   UNL     1      -9.086   6.151  65.930  1.00  0.00    -0.085 C  
HETATM   10  O   UNL     1      -8.531   5.741  64.921  1.00  0.00    -0.144 OA 
BRANCH   9  11
HETATM   11  O   UNL     1      -9.953   5.445  66.697  1.00  0.00    -0.159 OA 
BRANCH  11  12
HETATM   12  C   UNL     1      -9.678   4.033  66.746  1.00  0.00    -0.190 C  
BRANCH  12  13
HETATM   13  C   UNL     1      -9.481   3.600  68.196  1.00  0.00    -0.215 C  
BRANCH  13  14
HETATM   14  C   UNL     1      -9.598   4.782  69.159  1.00  0.00    -0.167 C  
BRANCH  14  15
HETATM   15  N   UNL     1     -10.107   4.404  70.495  1.00  0.00    -0.184 NA 
HETATM   16  C   UNL     1      -9.349   3.279  71.058  1.00  0.00    -0.143 C  
BRANCH  15  17
HETATM   17  C   UNL     1     -10.056   5.598  71.380  1.00  0.00    -0.200 C  
BRANCH  17  18
HETATM   18  C   UNL     1     -11.413   6.323  71.545  1.00  0.00    -0.293 C  
BRANCH  18  19
HETATM   19  N   UNL     1     -11.495   7.314  72.643  1.00  0.00    -0.285 NA 
HETATM   20  C   UNL     1     -10.189   7.933  72.896  1.00  0.00    -0.330 C  
BRANCH  19  21
HETATM   21  C   UNL     1     -12.480   8.370  72.319  1.00  0.00    -0.361 C  
BRANCH  21  22
HETATM   22  C   UNL     1     -11.914   9.475  71.421  1.00  0.00    -0.464 C  
BRANCH  22  23
HETATM   23  C   UNL     1     -13.012  10.384  70.882  1.00  0.00    -0.387 C  
BRANCH  23  24
HETATM   24  O   UNL     1     -12.455  11.669  70.556  1.00  0.00    -0.308 OA 
BRANCH  24  25
HETATM   25  C   UNL     1     -12.077  11.834  69.264  1.00  0.00    -0.229 C  
HETATM   26  O   UNL     1     -12.199  11.014  68.368  1.00  0.00    -0.586 OA 
BRANCH  25  27
HETATM   27  C   UNL     1     -11.498  13.189  69.062  1.00  0.00    -0.345 A  
HETATM   28  C   UNL     1     -11.660  14.130  70.079  1.00  0.00    -0.315 A  
HETATM   29  C   UNL     1     -11.175  15.428  69.919  1.00  0.00    -0.299 A  
HETATM   30  C   UNL     1     -10.528  15.803  68.716  1.00  0.00    -0.228 A  
HETATM   31  C   UNL     1     -10.822  13.540  67.889  1.00  0.00    -0.262 A  
HETATM   32  C   UNL     1     -10.342  14.844  67.695  1.00  0.00    -0.242 A  
BRANCH  29  33
HETATM   33  O   UNL     1     -11.337  16.406  70.875  1.00  0.00    -0.373 OA 
HETATM   34  C   UNL     1     -11.952  16.002  72.095  1.00  0.00    -0.538 C  
ENDBRANCH  29  33
BRANCH  30  35
HETATM   35  O   UNL     1     -10.185  17.132  68.640  1.00  0.00    -0.294 OA 
HETATM   36  C   UNL     1     -10.845  17.948  67.683  1.00  0.00    -0.229 C  
ENDBRANCH  30  35
BRANCH  32  37
HETATM   37  O   UNL     1      -9.724  15.231  66.536  1.00  0.00    -0.240 OA 
HETATM   38  C   UNL     1     -10.221  14.725  65.302  1.00  0.00    -0.384 C  
ENDBRANCH  32  37
ENDBRANCH  25  27
ENDBRANCH  24  25
ENDBRANCH  23  24
ENDBRANCH  22  23
ENDBRANCH  21  22
ENDBRANCH  19  21
ENDBRANCH  18  19
ENDBRANCH  17  18
ENDBRANCH  15  17
ENDBRANCH  14  15
ENDBRANCH  13  14
ENDBRANCH  12  13
ENDBRANCH  11  12
ENDBRANCH   9  11
ENDBRANCH   5   9
BRANCH   8  39
HETATM   39  O   UNL     1     -10.041  10.881  65.733  1.00  0.00    -0.233 OA 
HETATM   40  C   UNL     1      -9.800  11.090  64.350  1.00  0.00    -0.298 C  
ENDBRANCH   8  39
BRANCH   7  41
HETATM   41  O   UNL     1      -8.320  11.391  67.988  1.00  0.00    -0.130 OA 
HETATM   42  C   UNL     1      -7.339  12.262  67.450  1.00  0.00    -0.151 C  
ENDBRANCH   7  41
ENDBRANCH   2   3
TORSDOF 21
ENDMDL
MODEL       96
REMARK 921   NORMALIZED FREE ENERGY PREDICTED BY IDOCK:   -4.52 KCAL/MOL
REMARK 922        TOTAL FREE ENERGY PREDICTED BY IDOCK:  -12.93 KCAL/MOL
REMARK 923 INTER-LIGAND FREE ENERGY PREDICTED BY IDOCK:   -9.93 KCAL/MOL
REMARK 924 INTRA-LIGAND FREE ENERGY PREDICTED BY IDOCK:   -3.01 KCAL/MOL
REMARK 927      BINDING AFFINITY PREDICTED BY RF-SCORE:    0.00 PKD
ROOT
HETATM    1  C   UNL     1     -12.633  15.129  64.537  1.00  0.00     0.073 C  
HETATM    2  O   UNL     1     -11.215  15.262  64.463  1.00  0.00    -0.356 OA 
ENDROOT
BRANCH   2   3
HETATM    3  C   UNL     1     -10.470  14.308  65.112  1.00  0.00    -0.411 A  
HETATM    4  C   UNL     1     -10.470  12.982  64.661  1.00  0.00    -0.400 A  
HETATM    5  C   UNL     1      -9.721  11.994  65.301  1.00  0.00    -0.183 A  
HETATM    6  C   UNL     1      -8.951  12.337  66.407  1.00  0.00    -0.117 A  
HETATM    7  C   UNL     1      -9.661  14.676  66.212  1.00  0.00    -0.308 A  
HETATM    8  C   UNL     1      -8.907  13.668  66.864  1.00  0.00    -0.187 A  
BRANCH   5   9
HETATM    9  C   UNL     1      -9.810  10.622  64.744  1.00  0.00    -0.310 C  
HETATM   10  O   UNL     1      -9.789  10.402  63.541  1.00  0.00    -0.309 OA 
BRANCH   9  11
HETATM   11  O   UNL     1      -9.955   9.687  65.715  1.00  0.00    -0.293 OA 
BRANCH  11  12
HETATM   12  C   UNL     1      -8.907   8.702  65.744  1.00  0.00    -0.193 C  
BRANCH  12  13
HETATM   13  C   UNL     1      -7.901   9.058  66.835  1.00  0.00    -0.101 C  
BRANCH  13  14
HETATM   14  C   UNL     1      -7.844   7.986  67.924  1.00  0.00    -0.126 C  
BRANCH  14  15
HETATM   15  N   UNL     1      -8.406   8.430  69.216  1.00  0.00    -0.120 NA 
HETATM   16  C   UNL     1      -7.392   8.405  70.279  1.00  0.00    -0.055 C  
BRANCH  15  17
HETATM   17  C   UNL     1      -8.984   9.790  69.043  1.00  0.00    -0.154 C  
BRANCH  17  18
HETATM   18  C   UNL     1     -10.514   9.860  69.260  1.00  0.00    -0.221 C  
BRANCH  18  19
HETATM   19  N   UNL     1     -11.091  11.217  69.414  1.00  0.00    -0.244 NA 
HETATM   20  C   UNL     1     -11.899  11.582  68.246  1.00  0.00    -0.256 C  
BRANCH  19  21
HETATM   21  C   UNL     1     -11.931  11.291  70.630  1.00  0.00    -0.336 C  
BRANCH  21  22
HETATM   22  C   UNL     1     -13.089  10.287  70.632  1.00  0.00    -0.292 C  
BRANCH  22  23
HETATM   23  C   UNL     1     -13.406   9.792  72.037  1.00  0.00    -0.451 C  
BRANCH  23  24
HETATM   24  O   UNL     1     -12.667   8.587  72.301  1.00  0.00    -0.356 OA 
BRANCH  24  25
HETATM   25  C   UNL     1     -13.058   7.494  71.598  1.00  0.00    -0.358 C  
HETATM   26  O   UNL     1     -14.207   7.188  71.325  1.00  0.00    -0.355 OA 
BRANCH  25  27
HETATM   27  C   UNL     1     -11.875   6.703  71.170  1.00  0.00    -0.414 A  
HETATM   28  C   UNL     1     -10.957   6.312  72.146  1.00  0.00    -0.298 A  
HETATM   29  C   UNL     1      -9.808   5.606  71.788  1.00  0.00    -0.168 A  
HETATM   30  C   UNL     1      -9.557   5.297  70.428  1.00  0.00    -0.179 A  
HETATM   31  C   UNL     1     -11.655   6.363  69.831  1.00  0.00    -0.422 A  
HETATM   32  C   UNL     1     -10.497   5.672  69.441  1.00  0.00    -0.297 A  
BRANCH  29  33
HETATM   33  O   UNL     1      -8.853   5.226  72.704  1.00  0.00    -0.123 OA 
HETATM   34  C   UNL     1      -8.249   6.272  73.460  1.00  0.00    -0.117 C  
ENDBRANCH  29  33
BRANCH  30  35
HETATM   35  O   UNL     1      -8.347   4.689  70.193  1.00  0.00    -0.070 OA 
HETATM   36  C   UNL     1      -8.326   3.287  69.964  1.00  0.00    -0.048 C  
ENDBRANCH  30  35
BRANCH  32  37
HETATM   37  O   UNL     1     -10.229   5.372  68.133  1.00  0.00    -0.176 OA 
HETATM   38  C   UNL     1     -10.891   6.118  67.118  1.00  0.00    -0.360 C  
ENDBRANCH  32  37
ENDBRANCH  25  27
ENDBRANCH  24  25
ENDBRANCH  23  24
ENDBRANCH  22  23
ENDBRANCH  21  22
ENDBRANCH  19  21
ENDBRANCH  18  19
ENDBRANCH  17  18
ENDBRANCH  15  17
ENDBRANCH  14  15
ENDBRANCH  13  14
ENDBRANCH  12  13
ENDBRANCH  11  12
ENDBRANCH   9  11
ENDBRANCH   5   9
BRANCH   8  39
HETATM   39  O   UNL     1      -8.076  13.786  67.954  1.00  0.00    -0.138 OA 
HETATM   40  C   UNL     1      -6.713  14.133  67.769  1.00  0.00    -0.177 C  
ENDBRANCH   8  39
BRANCH   7  41
HETATM   41  O   UNL     1      -9.545  15.940  66.726  1.00  0.00    -0.221 OA 
HETATM   42  C   UNL     1     -10.448  16.413  67.711  1.00  0.00    -0.300 C  
ENDBRANCH   7  41
ENDBRANCH   2   3
TORSDOF 21
ENDMDL
MODEL       97
REMARK 921   NORMALIZED FREE ENERGY PREDICTED BY IDOCK:   -4.52 KCAL/MOL
REMARK 922        TOTAL FREE ENERGY PREDICTED BY IDOCK:  -12.92 KCAL/MOL
REMARK 923 INTER-LIGAND FREE ENERGY PREDICTED BY IDOCK:  -10.42 KCAL/MOL
REMARK 924 INTRA-LIGAND FREE ENERGY PREDICTED BY IDOCK:   -2.51 KCAL/MOL
REMARK 927      BINDING AFFINITY PREDICTED BY RF-SCORE:    0.00 PKD
ROOT
HETATM    1  C   UNL     1     -10.780   6.335  68.147  1.00  0.00    -0.293 C  
HETATM    2  O   UNL     1     -11.267   5.667  69.309  1.00  0.00    -0.206 OA 
ENDROOT
BRANCH   2   3
HETATM    3  C   UNL     1     -11.324   6.403  70.467  1.00  0.00    -0.375 A  
HETATM    4  C   UNL     1     -12.337   7.351  70.655  1.00  0.00    -0.081 A  
HETATM    5  C   UNL     1     -12.418   8.111  71.823  1.00  0.00    -0.363 A  
HETATM    6  C   UNL     1     -11.475   7.915  72.826  1.00  0.00    -0.428 A  
HETATM    7  C   UNL     1     -10.383   6.168  71.496  1.00  0.00    -0.209 A  
HETATM    8  C   UNL     1     -10.464   6.947  72.679  1.00  0.00    -0.216 A  
BRANCH   5   9
HETATM    9  C   UNL     1     -13.525   9.095  71.904  1.00  0.00    -0.430 C  
HETATM   10  O   UNL     1     -14.396   9.032  72.761  1.00  0.00    -0.596 OA 
BRANCH   9  11
HETATM   11  O   UNL     1     -13.463  10.013  70.908  1.00  0.00    -0.352 OA 
BRANCH  11  12
HETATM   12  C   UNL     1     -12.478  11.041  71.117  1.00  0.00    -0.397 C  
BRANCH  12  13
HETATM   13  C   UNL     1     -11.850  11.426  69.780  1.00  0.00    -0.435 C  
BRANCH  13  14
HETATM   14  C   UNL     1     -10.948  10.317  69.239  1.00  0.00    -0.241 C  
BRANCH  14  15
HETATM   15  N   UNL     1     -10.271  10.674  67.974  1.00  0.00    -0.169 NA 
HETATM   16  C   UNL     1     -11.181  11.376  67.060  1.00  0.00    -0.283 C  
BRANCH  15  17
HETATM   17  C   UNL     1      -9.071  11.495  68.290  1.00  0.00    -0.185 C  
BRANCH  17  18
HETATM   18  C   UNL     1      -7.812  10.667  68.640  1.00  0.00    -0.121 C  
BRANCH  18  19
HETATM   19  N   UNL     1      -7.489  10.546  70.082  1.00  0.00    -0.144 NA 
HETATM   20  C   UNL     1      -7.675   9.169  70.551  1.00  0.00    -0.134 C  
BRANCH  19  21
HETATM   21  C   UNL     1      -6.093  10.965  70.339  1.00  0.00    -0.129 C  
BRANCH  21  22
HETATM   22  C   UNL     1      -5.516  11.867  69.243  1.00  0.00    -0.057 C  
BRANCH  22  23
HETATM   23  C   UNL     1      -5.414  13.317  69.699  1.00  0.00    -0.094 C  
BRANCH  23  24
HETATM   24  O   UNL     1      -6.704  13.943  69.602  1.00  0.00    -0.110 OA 
BRANCH  24  25
HETATM   25  C   UNL     1      -6.709  15.296  69.714  1.00  0.00    -0.176 C  
HETATM   26  O   UNL     1      -6.033  15.956  70.485  1.00  0.00    -0.084 OA 
BRANCH  25  27
HETATM   27  C   UNL     1      -7.654  15.893  68.734  1.00  0.00    -0.178 A  
HETATM   28  C   UNL     1      -9.022  15.731  68.957  1.00  0.00    -0.246 A  
HETATM   29  C   UNL     1      -9.948  16.235  68.043  1.00  0.00    -0.240 A  
HETATM   30  C   UNL     1      -9.504  16.900  66.874  1.00  0.00    -0.251 A  
HETATM   31  C   UNL     1      -7.210  16.586  67.603  1.00  0.00    -0.158 A  
HETATM   32  C   UNL     1      -8.120  17.085  66.658  1.00  0.00    -0.262 A  
BRANCH  29  33
HETATM   33  O   UNL     1     -11.307  16.074  68.196  1.00  0.00    -0.342 OA 
HETATM   34  C   UNL     1     -11.784  14.732  68.245  1.00  0.00    -0.311 C  
ENDBRANCH  29  33
BRANCH  30  35
HETATM   35  O   UNL     1     -10.507  17.260  66.004  1.00  0.00    -0.356 OA 
HETATM   36  C   UNL     1     -10.847  16.365  64.955  1.00  0.00    -0.273 C  
ENDBRANCH  30  35
BRANCH  32  37
HETATM   37  O   UNL     1      -7.713  17.720  65.515  1.00  0.00    -0.486 OA 
HETATM   38  C   UNL     1      -6.434  18.344  65.506  1.00  0.00    -0.268 C  
ENDBRANCH  32  37
ENDBRANCH  25  27
ENDBRANCH  24  25
ENDBRANCH  23  24
ENDBRANCH  22  23
ENDBRANCH  21  22
ENDBRANCH  19  21
ENDBRANCH  18  19
ENDBRANCH  17  18
ENDBRANCH  15  17
ENDBRANCH  14  15
ENDBRANCH  13  14
ENDBRANCH  12  13
ENDBRANCH  11  12
ENDBRANCH   9  11
ENDBRANCH   5   9
BRANCH   8  39
HETATM   39  O   UNL     1      -9.654   6.909  73.790  1.00  0.00    -0.180 OA 
HETATM   40  C   UNL     1      -8.547   7.791  73.888  1.00  0.00    -0.259 C  
ENDBRANCH   8  39
BRANCH   7  41
HETATM   41  O   UNL     1      -9.369   5.247  71.451  1.00  0.00    -0.143 OA 
HETATM   42  C   UNL     1      -9.604   3.886  71.771  1.00  0.00    -0.158 C  
ENDBRANCH   7  41
ENDBRANCH   2   3
TORSDOF 21
ENDMDL
MODEL       98
REMARK 921   NORMALIZED FREE ENERGY PREDICTED BY IDOCK:   -4.51 KCAL/MOL
REMARK 922        TOTAL FREE ENERGY PREDICTED BY IDOCK:  -12.91 KCAL/MOL
REMARK 923 INTER-LIGAND FREE ENERGY PREDICTED BY IDOCK:  -10.16 KCAL/MOL
REMARK 924 INTRA-LIGAND FREE ENERGY PREDICTED BY IDOCK:   -2.75 KCAL/MOL
REMARK 927      BINDING AFFINITY PREDICTED BY RF-SCORE:    0.00 PKD
ROOT
HETATM    1  C   UNL     1      -8.943   7.110  74.418  1.00  0.00    -0.194 C  
HETATM    2  O   UNL     1      -9.901   7.684  73.531  1.00  0.00    -0.298 OA 
ENDROOT
BRANCH   2   3
HETATM    3  C   UNL     1      -9.508   7.864  72.228  1.00  0.00    -0.189 A  
HETATM    4  C   UNL     1      -8.183   8.205  71.927  1.00  0.00    -0.180 A  
HETATM    5  C   UNL     1      -7.758   8.393  70.612  1.00  0.00    -0.083 A  
HETATM    6  C   UNL     1      -8.670   8.228  69.575  1.00  0.00    -0.138 A  
HETATM    7  C   UNL     1     -10.434   7.656  71.179  1.00  0.00    -0.208 A  
HETATM    8  C   UNL     1     -10.000   7.854  69.844  1.00  0.00    -0.192 A  
BRANCH   5   9
HETATM    9  C   UNL     1      -6.335   8.767  70.416  1.00  0.00    -0.040 C  
HETATM   10  O   UNL     1      -5.540   8.039  69.839  1.00  0.00    -0.023 OA 
BRANCH   9  11
HETATM   11  O   UNL     1      -6.043   9.963  70.983  1.00  0.00    -0.114 OA 
BRANCH  11  12
HETATM   12  C   UNL     1      -6.379  11.099  70.166  1.00  0.00    -0.137 C  
BRANCH  12  13
HETATM   13  C   UNL     1      -5.593  11.038  68.859  1.00  0.00    -0.040 C  
BRANCH  13  14
HETATM   14  C   UNL     1      -6.253  11.876  67.763  1.00  0.00    -0.070 C  
BRANCH  14  15
HETATM   15  N   UNL     1      -7.121  12.951  68.289  1.00  0.00    -0.091 NA 
HETATM   16  C   UNL     1      -6.693  14.270  67.805  1.00  0.00    -0.176 C  
BRANCH  15  17
HETATM   17  C   UNL     1      -8.529  12.657  67.906  1.00  0.00    -0.173 C  
BRANCH  17  18
HETATM   18  C   UNL     1      -8.684  12.019  66.505  1.00  0.00    -0.138 C  
BRANCH  18  19
HETATM   19  N   UNL     1      -9.302  10.673  66.466  1.00  0.00    -0.164 NA 
HETATM   20  C   UNL     1     -10.580  10.657  67.185  1.00  0.00    -0.260 C  
BRANCH  19  21
HETATM   21  C   UNL     1      -9.525  10.243  65.067  1.00  0.00    -0.257 C  
BRANCH  21  22
HETATM   22  C   UNL     1      -9.720  11.411  64.095  1.00  0.00    -0.267 C  
BRANCH  22  23
HETATM   23  C   UNL     1     -11.108  11.401  63.468  1.00  0.00    -0.285 C  
BRANCH  23  24
HETATM   24  O   UNL     1     -12.025  12.111  64.317  1.00  0.00    -0.380 OA 
BRANCH  24  25
HETATM   25  C   UNL     1     -12.156  13.437  64.061  1.00  0.00    -0.449 C  
HETATM   26  O   UNL     1     -12.602  13.930  63.038  1.00  0.00    -0.694 OA 
BRANCH  25  27
HETATM   27  C   UNL     1     -11.696  14.238  65.226  1.00  0.00    -0.357 A  
HETATM   28  C   UNL     1     -12.194  13.909  66.487  1.00  0.00    -0.482 A  
HETATM   29  C   UNL     1     -11.828  14.660  67.604  1.00  0.00    -0.337 A  
HETATM   30  C   UNL     1     -10.960  15.770  67.463  1.00  0.00    -0.293 A  
HETATM   31  C   UNL     1     -10.805  15.307  65.085  1.00  0.00    -0.441 A  
HETATM   32  C   UNL     1     -10.436  16.090  66.190  1.00  0.00    -0.326 A  
BRANCH  29  33
HETATM   33  O   UNL     1     -12.316  14.401  68.866  1.00  0.00    -0.229 OA 
HETATM   34  C   UNL     1     -11.717  13.315  69.566  1.00  0.00    -0.322 C  
ENDBRANCH  29  33
BRANCH  30  35
HETATM   35  O   UNL     1     -10.754  16.487  68.618  1.00  0.00    -0.294 OA 
HETATM   36  C   UNL     1      -9.515  16.336  69.297  1.00  0.00    -0.202 C  
ENDBRANCH  30  35
BRANCH  32  37
HETATM   37  O   UNL     1      -9.608  17.174  66.074  1.00  0.00    -0.443 OA 
HETATM   38  C   UNL     1      -8.203  16.966  66.167  1.00  0.00    -0.260 C  
ENDBRANCH  32  37
ENDBRANCH  25  27
ENDBRANCH  24  25
ENDBRANCH  23  24
ENDBRANCH  22  23
ENDBRANCH  21  22
ENDBRANCH  19  21
ENDBRANCH  18  19
ENDBRANCH  17  18
ENDBRANCH  15  17
ENDBRANCH  14  15
ENDBRANCH  13  14
ENDBRANCH  12  13
ENDBRANCH  11  12
ENDBRANCH   9  11
ENDBRANCH   5   9
BRANCH   8  39
HETATM   39  O   UNL     1     -10.721   7.732  68.679  1.00  0.00    -0.159 OA 
HETATM   40  C   UNL     1     -10.227   6.923  67.623  1.00  0.00    -0.185 C  
ENDBRANCH   8  39
BRANCH   7  41
HETATM   41  O   UNL     1     -11.743   7.286  71.337  1.00  0.00    -0.263 OA 
HETATM   42  C   UNL     1     -12.747   8.251  71.603  1.00  0.00    -0.327 C  
ENDBRANCH   7  41
ENDBRANCH   2   3
TORSDOF 21
ENDMDL
MODEL       99
REMARK 921   NORMALIZED FREE ENERGY PREDICTED BY IDOCK:   -4.50 KCAL/MOL
REMARK 922        TOTAL FREE ENERGY PREDICTED BY IDOCK:  -12.88 KCAL/MOL
REMARK 923 INTER-LIGAND FREE ENERGY PREDICTED BY IDOCK:  -10.70 KCAL/MOL
REMARK 924 INTRA-LIGAND FREE ENERGY PREDICTED BY IDOCK:   -2.19 KCAL/MOL
REMARK 927      BINDING AFFINITY PREDICTED BY RF-SCORE:    0.00 PKD
ROOT
HETATM    1  C   UNL     1     -10.560  19.088  65.603  1.00  0.00    -0.207 C  
HETATM    2  O   UNL     1      -9.900  17.831  65.728  1.00  0.00    -0.541 OA 
ENDROOT
BRANCH   2   3
HETATM    3  C   UNL     1     -10.491  16.900  66.547  1.00  0.00    -0.253 A  
HETATM    4  C   UNL     1     -10.924  15.673  66.028  1.00  0.00    -0.213 A  
HETATM    5  C   UNL     1     -11.527  14.710  66.838  1.00  0.00    -0.372 A  
HETATM    6  C   UNL     1     -11.694  14.972  68.193  1.00  0.00    -0.335 A  
HETATM    7  C   UNL     1     -10.620  17.161  67.930  1.00  0.00    -0.376 A  
HETATM    8  C   UNL     1     -11.240  16.183  68.749  1.00  0.00    -0.365 A  
BRANCH   5   9
HETATM    9  C   UNL     1     -11.959  13.455  66.175  1.00  0.00    -0.413 C  
HETATM   10  O   UNL     1     -12.071  13.361  64.961  1.00  0.00    -0.362 OA 
BRANCH   9  11
HETATM   11  O   UNL     1     -12.241  12.478  67.072  1.00  0.00    -0.490 OA 
BRANCH  11  12
HETATM   12  C   UNL     1     -11.210  11.482  67.201  1.00  0.00    -0.301 C  
BRANCH  12  13
HETATM   13  C   UNL     1     -10.635  11.523  68.614  1.00  0.00    -0.236 C  
BRANCH  13  14
HETATM   14  C   UNL     1     -11.568  10.852  69.623  1.00  0.00    -0.322 C  
BRANCH  14  15
HETATM   15  N   UNL     1     -11.011   9.611  70.203  1.00  0.00    -0.258 NA 
HETATM   16  C   UNL     1      -9.544   9.596  70.127  1.00  0.00    -0.254 C  
BRANCH  15  17
HETATM   17  C   UNL     1     -11.489   9.483  71.605  1.00  0.00    -0.363 C  
BRANCH  17  18
HETATM   18  C   UNL     1     -11.794   8.030  72.041  1.00  0.00    -0.326 C  
BRANCH  18  19
HETATM   19  N   UNL     1     -10.620   7.172  72.323  1.00  0.00    -0.209 NA 
HETATM   20  C   UNL     1     -10.489   6.911  73.760  1.00  0.00    -0.357 C  
BRANCH  19  21
HETATM   21  C   UNL     1     -10.730   5.885  71.601  1.00  0.00    -0.252 C  
BRANCH  21  22
HETATM   22  C   UNL     1     -11.177   6.040  70.144  1.00  0.00    -0.412 C  
BRANCH  22  23
HETATM   23  C   UNL     1     -10.138   5.495  69.172  1.00  0.00    -0.216 C  
BRANCH  23  24
HETATM   24  O   UNL     1      -9.743   6.532  68.259  1.00  0.00    -0.130 OA 
BRANCH  24  25
HETATM   25  C   UNL     1      -9.968   6.275  66.946  1.00  0.00    -0.169 C  
HETATM   26  O   UNL     1     -10.756   5.457  66.498  1.00  0.00    -0.301 OA 
BRANCH  25  27
HETATM   27  C   UNL     1      -9.129   7.156  66.093  1.00  0.00    -0.155 A  
HETATM   28  C   UNL     1      -9.048   8.509  66.426  1.00  0.00    -0.229 A  
HETATM   29  C   UNL     1      -8.309   9.386  65.631  1.00  0.00    -0.124 A  
HETATM   30  C   UNL     1      -7.649   8.910  64.471  1.00  0.00    -0.109 A  
HETATM   31  C   UNL     1      -8.444   6.673  64.973  1.00  0.00    -0.007 A  
HETATM   32  C   UNL     1      -7.711   7.536  64.146  1.00  0.00    -0.132 A  
BRANCH  29  33
HETATM   33  O   UNL     1      -8.224  10.735  65.893  1.00  0.00    -0.157 OA 
HETATM   34  C   UNL     1      -7.358  11.119  66.957  1.00  0.00    -0.128 C  
ENDBRANCH  29  33
BRANCH  30  35
HETATM   35  O   UNL     1      -7.039   9.886  63.719  1.00  0.00    -0.119 OA 
HETATM   36  C   UNL     1      -5.627  10.017  63.796  1.00  0.00    -0.116 C  
ENDBRANCH  30  35
BRANCH  32  37
HETATM   37  O   UNL     1      -7.074   7.101  63.015  1.00  0.00    -0.055 OA 
HETATM   38  C   UNL     1      -5.899   6.313  63.160  1.00  0.00    -0.026 C  
ENDBRANCH  32  37
ENDBRANCH  25  27
ENDBRANCH  24  25
ENDBRANCH  23  24
ENDBRANCH  22  23
ENDBRANCH  21  22
ENDBRANCH  19  21
ENDBRANCH  18  19
ENDBRANCH  17  18
ENDBRANCH  15  17
ENDBRANCH  14  15
ENDBRANCH  13  14
ENDBRANCH  12  13
ENDBRANCH  11  12
ENDBRANCH   9  11
ENDBRANCH   5   9
BRANCH   8  39
HETATM   39  O   UNL     1     -11.490  16.227  70.101  1.00  0.00    -0.327 OA 
HETATM   40  C   UNL     1     -12.630  15.568  70.631  1.00  0.00    -0.443 C  
ENDBRANCH   8  39
BRANCH   7  41
HETATM   41  O   UNL     1     -10.206  18.302  68.566  1.00  0.00    -0.381 OA 
HETATM   42  C   UNL     1      -8.844  18.493  68.907  1.00  0.00    -0.157 C  
ENDBRANCH   7  41
ENDBRANCH   2   3
TORSDOF 21
ENDMDL
MODEL      100
REMARK 921   NORMALIZED FREE ENERGY PREDICTED BY IDOCK:   -4.49 KCAL/MOL
REMARK 922        TOTAL FREE ENERGY PREDICTED BY IDOCK:  -12.87 KCAL/MOL
REMARK 923 INTER-LIGAND FREE ENERGY PREDICTED BY IDOCK:   -9.56 KCAL/MOL
REMARK 924 INTRA-LIGAND FREE ENERGY PREDICTED BY IDOCK:   -3.31 KCAL/MOL
REMARK 927      BINDING AFFINITY PREDICTED BY RF-SCORE:    0.00 PKD
ROOT
HETATM    1  C   UNL     1     -12.807  12.086  63.319  1.00  0.00    -0.190 C  
HETATM    2  O   UNL     1     -11.558  12.766  63.412  1.00  0.00    -0.499 OA 
ENDROOT
BRANCH   2   3
HETATM    3  C   UNL     1     -10.635  12.249  64.288  1.00  0.00    -0.354 A  
HETATM    4  C   UNL     1      -9.959  11.061  63.986  1.00  0.00    -0.390 A  
HETATM    5  C   UNL     1      -9.016  10.514  64.858  1.00  0.00    -0.222 A  
HETATM    6  C   UNL     1      -8.737  11.171  66.051  1.00  0.00    -0.185 A  
HETATM    7  C   UNL     1     -10.330  12.946  65.481  1.00  0.00    -0.291 A  
HETATM    8  C   UNL     1      -9.377  12.384  66.368  1.00  0.00    -0.219 A  
BRANCH   5   9
HETATM    9  C   UNL     1      -8.375   9.244  64.438  1.00  0.00    -0.171 C  
HETATM   10  O   UNL     1      -7.734   9.146  63.402  1.00  0.00    -0.112 OA 
BRANCH   9  11
HETATM   11  O   UNL     1      -8.626   8.236  65.310  1.00  0.00    -0.171 OA 
BRANCH  11  12
HETATM   12  C   UNL     1      -7.445   7.649  65.885  1.00  0.00    -0.082 C  
BRANCH  12  13
HETATM   13  C   UNL     1      -7.644   7.469  67.388  1.00  0.00    -0.109 C  
BRANCH  13  14
HETATM   14  C   UNL     1      -6.900   8.537  68.188  1.00  0.00    -0.069 C  
BRANCH  14  15
HETATM   15  N   UNL     1      -7.618   8.965  69.408  1.00  0.00    -0.079 NA 
HETATM   16  C   UNL     1      -6.941  10.094  70.060  1.00  0.00    -0.145 C  
BRANCH  15  17
HETATM   17  C   UNL     1      -9.019   9.304  69.041  1.00  0.00    -0.140 C  
BRANCH  17  18
HETATM   18  C   UNL     1      -9.914   9.685  70.245  1.00  0.00    -0.270 C  
BRANCH  18  19
HETATM   19  N   UNL     1     -10.929  10.735  69.998  1.00  0.00    -0.252 NA 
HETATM   20  C   UNL     1     -11.585  10.541  68.700  1.00  0.00    -0.171 C  
BRANCH  19  21
HETATM   21  C   UNL     1     -11.953  10.732  71.066  1.00  0.00    -0.304 C  
BRANCH  21  22
HETATM   22  C   UNL     1     -13.195   9.906  70.717  1.00  0.00    -0.231 C  
BRANCH  22  23
HETATM   23  C   UNL     1     -13.467   8.826  71.756  1.00  0.00    -0.393 C  
BRANCH  23  24
HETATM   24  O   UNL     1     -12.879   7.587  71.327  1.00  0.00    -0.334 OA 
BRANCH  24  25
HETATM   25  C   UNL     1     -11.782   7.186  72.019  1.00  0.00    -0.289 C  
HETATM   26  O   UNL     1     -11.493   7.512  73.159  1.00  0.00    -0.282 OA 
BRANCH  25  27
HETATM   27  C   UNL     1     -10.964   6.253  71.200  1.00  0.00    -0.336 A  
HETATM   28  C   UNL     1     -11.107   6.299  69.813  1.00  0.00    -0.473 A  
HETATM   29  C   UNL     1     -10.394   5.414  69.004  1.00  0.00    -0.212 A  
HETATM   30  C   UNL     1      -9.533   4.452  69.587  1.00  0.00    -0.182 A  
HETATM   31  C   UNL     1     -10.083   5.335  71.780  1.00  0.00    -0.257 A  
HETATM   32  C   UNL     1      -9.370   4.420  70.991  1.00  0.00    -0.149 A  
BRANCH  29  33
HETATM   33  O   UNL     1     -10.523   5.392  67.633  1.00  0.00    -0.196 OA 
HETATM   34  C   UNL     1     -11.159   6.519  67.039  1.00  0.00    -0.339 C  
ENDBRANCH  29  33
BRANCH  30  35
HETATM   35  O   UNL     1      -8.966   3.574  68.694  1.00  0.00    -0.106 OA 
HETATM   36  C   UNL     1      -9.523   2.272  68.578  1.00  0.00    -0.149 C  
ENDBRANCH  30  35
BRANCH  32  37
HETATM   37  O   UNL     1      -8.541   3.475  71.534  1.00  0.00    -0.074 OA 
HETATM   38  C   UNL     1      -8.954   2.816  72.725  1.00  0.00    -0.085 C  
ENDBRANCH  32  37
ENDBRANCH  25  27
ENDBRANCH  24  25
ENDBRANCH  23  24
ENDBRANCH  22  23
ENDBRANCH  21  22
ENDBRANCH  19  21
ENDBRANCH  18  19
ENDBRANCH  17  18
ENDBRANCH  15  17
ENDBRANCH  14  15
ENDBRANCH  13  14
ENDBRANCH  12  13
ENDBRANCH  11  12
ENDBRANCH   9  11
ENDBRANCH   5   9
BRANCH   8  39
HETATM   39  O   UNL     1      -8.943  12.867  67.581  1.00  0.00    -0.172 OA 
HETATM   40  C   UNL     1      -7.553  12.938  67.856  1.00  0.00    -0.138 C  
ENDBRANCH   8  39
BRANCH   7  41
HETATM   41  O   UNL     1     -10.892  14.131  65.874  1.00  0.00    -0.287 OA 
HETATM   42  C   UNL     1     -12.087  14.155  66.637  1.00  0.00    -0.451 C  
ENDBRANCH   7  41
ENDBRANCH   2   3
TORSDOF 21
ENDMDL
MODEL      101
REMARK 921   NORMALIZED FREE ENERGY PREDICTED BY IDOCK:   -4.49 KCAL/MOL
REMARK 922        TOTAL FREE ENERGY PREDICTED BY IDOCK:  -12.86 KCAL/MOL
REMARK 923 INTER-LIGAND FREE ENERGY PREDICTED BY IDOCK:  -10.13 KCAL/MOL
REMARK 924 INTRA-LIGAND FREE ENERGY PREDICTED BY IDOCK:   -2.73 KCAL/MOL
REMARK 927      BINDING AFFINITY PREDICTED BY RF-SCORE:    0.00 PKD
ROOT
HETATM    1  C   UNL     1      -7.289   5.537  64.486  1.00  0.00    -0.064 C  
HETATM    2  O   UNL     1      -7.905   6.807  64.282  1.00  0.00    -0.108 OA 
ENDROOT
BRANCH   2   3
HETATM    3  C   UNL     1      -8.472   7.404  65.380  1.00  0.00    -0.092 A  
HETATM    4  C   UNL     1      -9.042   6.626  66.395  1.00  0.00    -0.172 A  
HETATM    5  C   UNL     1      -9.624   7.207  67.523  1.00  0.00    -0.159 A  
HETATM    6  C   UNL     1      -9.630   8.593  67.643  1.00  0.00    -0.190 A  
HETATM    7  C   UNL     1      -8.438   8.812  65.511  1.00  0.00    -0.165 A  
HETATM    8  C   UNL     1      -9.037   9.400  66.654  1.00  0.00    -0.149 A  
BRANCH   5   9
HETATM    9  C   UNL     1     -10.209   6.283  68.524  1.00  0.00    -0.176 C  
HETATM   10  O   UNL     1     -11.351   6.409  68.943  1.00  0.00    -0.341 OA 
BRANCH   9  11
HETATM   11  O   UNL     1      -9.320   5.341  68.927  1.00  0.00    -0.114 OA 
BRANCH  11  12
HETATM   12  C   UNL     1      -8.395   5.797  69.930  1.00  0.00    -0.119 C  
BRANCH  12  13
HETATM   13  C   UNL     1      -8.352   4.793  71.079  1.00  0.00    -0.102 C  
BRANCH  13  14
HETATM   14  C   UNL     1      -9.753   4.326  71.474  1.00  0.00    -0.174 C  
BRANCH  14  15
HETATM   15  N   UNL     1      -9.962   4.267  72.937  1.00  0.00    -0.142 NA 
HETATM   16  C   UNL     1      -8.795   4.782  73.666  1.00  0.00    -0.105 C  
BRANCH  15  17
HETATM   17  C   UNL     1     -11.197   5.025  73.273  1.00  0.00    -0.338 C  
BRANCH  17  18
HETATM   18  C   UNL     1     -11.545   6.148  72.266  1.00  0.00    -0.313 C  
BRANCH  18  19
HETATM   19  N   UNL     1     -11.408   7.537  72.763  1.00  0.00    -0.346 NA 
HETATM   20  C   UNL     1     -10.037   8.027  72.590  1.00  0.00    -0.301 C  
BRANCH  19  21
HETATM   21  C   UNL     1     -12.341   8.439  72.052  1.00  0.00    -0.361 C  
BRANCH  21  22
HETATM   22  C   UNL     1     -11.683   9.733  71.564  1.00  0.00    -0.450 C  
BRANCH  22  23
HETATM   23  C   UNL     1     -12.717  10.764  71.128  1.00  0.00    -0.431 C  
BRANCH  23  24
HETATM   24  O   UNL     1     -12.069  11.809  70.383  1.00  0.00    -0.350 OA 
BRANCH  24  25
HETATM   25  C   UNL     1     -12.029  11.634  69.038  1.00  0.00    -0.305 C  
HETATM   26  O   UNL     1     -12.268  10.597  68.441  1.00  0.00    -0.372 OA 
BRANCH  25  27
HETATM   27  C   UNL     1     -11.672  12.907  68.359  1.00  0.00    -0.382 A  
HETATM   28  C   UNL     1     -11.944  13.024  66.996  1.00  0.00    -0.409 A  
HETATM   29  C   UNL     1     -11.587  14.182  66.305  1.00  0.00    -0.370 A  
HETATM   30  C   UNL     1     -10.930  15.240  66.980  1.00  0.00    -0.324 A  
HETATM   31  C   UNL     1     -11.062  13.966  69.041  1.00  0.00    -0.302 A  
HETATM   32  C   UNL     1     -10.674  15.132  68.366  1.00  0.00    -0.248 A  
BRANCH  29  33
HETATM   33  O   UNL     1     -11.801  14.337  64.954  1.00  0.00    -0.369 OA 
HETATM   34  C   UNL     1     -11.234  13.343  64.105  1.00  0.00    -0.350 C  
ENDBRANCH  29  33
BRANCH  30  35
HETATM   35  O   UNL     1     -10.541  16.282  66.171  1.00  0.00    -0.312 OA 
HETATM   36  C   UNL     1      -9.180  16.355  65.770  1.00  0.00    -0.075 C  
ENDBRANCH  30  35
BRANCH  32  37
HETATM   37  O   UNL     1     -10.028  16.162  68.995  1.00  0.00    -0.218 OA 
HETATM   38  C   UNL     1      -8.628  16.047  69.220  1.00  0.00    -0.224 C  
ENDBRANCH  32  37
ENDBRANCH  25  27
ENDBRANCH  24  25
ENDBRANCH  23  24
ENDBRANCH  22  23
ENDBRANCH  21  22
ENDBRANCH  19  21
ENDBRANCH  18  19
ENDBRANCH  17  18
ENDBRANCH  15  17
ENDBRANCH  14  15
ENDBRANCH  13  14
ENDBRANCH  12  13
ENDBRANCH  11  12
ENDBRANCH   9  11
ENDBRANCH   5   9
BRANCH   8  39
HETATM   39  O   UNL     1      -9.142  10.732  66.980  1.00  0.00    -0.144 OA 
HETATM   40  C   UNL     1      -8.426  11.246  68.092  1.00  0.00    -0.145 C  
ENDBRANCH   8  39
BRANCH   7  41
HETATM   41  O   UNL     1      -7.881   9.681  64.610  1.00  0.00    -0.121 OA 
HETATM   42  C   UNL     1      -8.658  10.252  63.572  1.00  0.00    -0.195 C  
ENDBRANCH   7  41
ENDBRANCH   2   3
TORSDOF 21
ENDMDL
MODEL      102
REMARK 921   NORMALIZED FREE ENERGY PREDICTED BY IDOCK:   -4.49 KCAL/MOL
REMARK 922        TOTAL FREE ENERGY PREDICTED BY IDOCK:  -12.85 KCAL/MOL
REMARK 923 INTER-LIGAND FREE ENERGY PREDICTED BY IDOCK:  -10.27 KCAL/MOL
REMARK 924 INTRA-LIGAND FREE ENERGY PREDICTED BY IDOCK:   -2.58 KCAL/MOL
REMARK 927      BINDING AFFINITY PREDICTED BY RF-SCORE:    0.00 PKD
ROOT
HETATM    1  C   UNL     1     -12.281  13.763  64.906  1.00  0.00    -0.415 C  
HETATM    2  O   UNL     1     -10.944  13.637  64.427  1.00  0.00    -0.386 OA 
ENDROOT
BRANCH   2   3
HETATM    3  C   UNL     1     -10.045  13.015  65.257  1.00  0.00    -0.231 A  
HETATM    4  C   UNL     1      -9.329  13.753  66.208  1.00  0.00    -0.166 A  
HETATM    5  C   UNL     1      -8.410  13.146  67.064  1.00  0.00    -0.094 A  
HETATM    6  C   UNL     1      -8.207  11.774  66.976  1.00  0.00    -0.172 A  
HETATM    7  C   UNL     1      -9.874  11.612  65.186  1.00  0.00    -0.249 A  
HETATM    8  C   UNL     1      -8.934  10.999  66.053  1.00  0.00    -0.197 A  
BRANCH   5   9
HETATM    9  C   UNL     1      -7.701  14.032  68.020  1.00  0.00    -0.149 C  
HETATM   10  O   UNL     1      -7.691  13.822  69.224  1.00  0.00     0.069 OA 
BRANCH   9  11
HETATM   11  O   UNL     1      -7.124  15.091  67.399  1.00  0.00    -0.191 OA 
BRANCH  11  12
HETATM   12  C   UNL     1      -5.823  15.434  67.909  1.00  0.00    -0.147 C  
BRANCH  12  13
HETATM   13  C   UNL     1      -5.970  16.434  69.052  1.00  0.00    -0.143 C  
BRANCH  13  14
HETATM   14  C   UNL     1      -6.042  17.873  68.538  1.00  0.00    -0.186 C  
BRANCH  14  15
HETATM   15  N   UNL     1      -7.332  18.535  68.825  1.00  0.00    -0.291 NA 
HETATM   16  C   UNL     1      -7.588  19.637  67.888  1.00  0.00    -0.296 C  
BRANCH  15  17
HETATM   17  C   UNL     1      -8.413  17.514  68.780  1.00  0.00    -0.213 C  
BRANCH  17  18
HETATM   18  C   UNL     1      -9.841  18.106  68.730  1.00  0.00    -0.350 C  
BRANCH  18  19
HETATM   19  N   UNL     1     -10.672  17.713  67.567  1.00  0.00    -0.335 NA 
HETATM   20  C   UNL     1      -9.840  17.204  66.473  1.00  0.00    -0.296 C  
BRANCH  19  21
HETATM   21  C   UNL     1     -11.655  16.677  67.956  1.00  0.00     0.247 C  
BRANCH  21  22
HETATM   22  C   UNL     1     -11.062  15.578  68.843  1.00  0.00    -0.282 C  
BRANCH  22  23
HETATM   23  C   UNL     1     -11.933  14.329  68.855  1.00  0.00    -0.320 C  
BRANCH  23  24
HETATM   24  O   UNL     1     -11.117  13.176  69.126  1.00  0.00    -0.245 OA 
BRANCH  24  25
HETATM   25  C   UNL     1     -11.654  11.981  68.771  1.00  0.00    -0.311 C  
HETATM   26  O   UNL     1     -12.283  11.750  67.752  1.00  0.00    -0.536 OA 
BRANCH  25  27
HETATM   27  C   UNL     1     -11.351  10.952  69.800  1.00  0.00    -0.374 A  
HETATM   28  C   UNL     1     -10.092  10.350  69.776  1.00  0.00    -0.201 A  
HETATM   29  C   UNL     1      -9.776   9.346  70.692  1.00  0.00    -0.273 A  
HETATM   30  C   UNL     1     -10.737   8.921  71.642  1.00  0.00    -0.347 A  
HETATM   31  C   UNL     1     -12.290  10.566  70.763  1.00  0.00    -0.474 A  
HETATM   32  C   UNL     1     -12.004   9.545  71.682  1.00  0.00    -0.401 A  
BRANCH  29  33
HETATM   33  O   UNL     1      -8.563   8.696  70.692  1.00  0.00    -0.136 OA 
HETATM   34  C   UNL     1      -7.582   9.183  69.781  1.00  0.00    -0.079 C  
ENDBRANCH  29  33
BRANCH  30  35
HETATM   35  O   UNL     1     -10.341   7.860  72.421  1.00  0.00    -0.227 OA 
HETATM   36  C   UNL     1     -10.890   6.578  72.149  1.00  0.00    -0.232 C  
ENDBRANCH  30  35
BRANCH  32  37
HETATM   37  O   UNL     1     -12.921   9.110  72.601  1.00  0.00    -0.388 OA 
HETATM   38  C   UNL     1     -14.243   8.826  72.156  1.00  0.00    -0.426 C  
ENDBRANCH  32  37
ENDBRANCH  25  27
ENDBRANCH  24  25
ENDBRANCH  23  24
ENDBRANCH  22  23
ENDBRANCH  21  22
ENDBRANCH  19  21
ENDBRANCH  18  19
ENDBRANCH  17  18
ENDBRANCH  15  17
ENDBRANCH  14  15
ENDBRANCH  13  14
ENDBRANCH  12  13
ENDBRANCH  11  12
ENDBRANCH   9  11
ENDBRANCH   5   9
BRANCH   8  39
HETATM   39  O   UNL     1      -8.590   9.671  66.146  1.00  0.00    -0.124 OA 
HETATM   40  C   UNL     1      -9.594   8.696  66.379  1.00  0.00    -0.247 C  
ENDBRANCH   8  39
BRANCH   7  41
HETATM   41  O   UNL     1     -10.537  10.774  64.329  1.00  0.00    -0.350 OA 
HETATM   42  C   UNL     1     -10.017  10.486  63.042  1.00  0.00    -0.104 C  
ENDBRANCH   7  41
ENDBRANCH   2   3
TORSDOF 21
ENDMDL
MODEL      103
REMARK 921   NORMALIZED FREE ENERGY PREDICTED BY IDOCK:   -4.48 KCAL/MOL
REMARK 922        TOTAL FREE ENERGY PREDICTED BY IDOCK:  -12.85 KCAL/MOL
REMARK 923 INTER-LIGAND FREE ENERGY PREDICTED BY IDOCK:  -10.77 KCAL/MOL
REMARK 924 INTRA-LIGAND FREE ENERGY PREDICTED BY IDOCK:   -2.08 KCAL/MOL
REMARK 927      BINDING AFFINITY PREDICTED BY RF-SCORE:    0.00 PKD
ROOT
HETATM    1  C   UNL     1     -10.507   4.774  66.470  1.00  0.00    -0.204 C  
HETATM    2  O   UNL     1      -9.794   4.159  67.540  1.00  0.00    -0.168 OA 
ENDROOT
BRANCH   2   3
HETATM    3  C   UNL     1      -9.338   4.987  68.537  1.00  0.00    -0.127 A  
HETATM    4  C   UNL     1     -10.114   5.212  69.681  1.00  0.00    -0.332 A  
HETATM    5  C   UNL     1      -9.675   6.048  70.708  1.00  0.00    -0.208 A  
HETATM    6  C   UNL     1      -8.434   6.666  70.596  1.00  0.00    -0.138 A  
HETATM    7  C   UNL     1      -8.058   5.579  68.430  1.00  0.00    -0.099 A  
HETATM    8  C   UNL     1      -7.618   6.434  69.472  1.00  0.00    -0.095 A  
BRANCH   5   9
HETATM    9  C   UNL     1     -10.588   6.223  71.864  1.00  0.00    -0.219 C  
HETATM   10  O   UNL     1     -11.476   5.422  72.124  1.00  0.00    -0.161 OA 
BRANCH   9  11
HETATM   11  O   UNL     1     -10.339   7.371  72.541  1.00  0.00    -0.201 OA 
BRANCH  11  12
HETATM   12  C   UNL     1     -11.508   8.172  72.791  1.00  0.00    -0.329 C  
BRANCH  12  13
HETATM   13  C   UNL     1     -11.611   9.269  71.735  1.00  0.00    -0.458 C  
BRANCH  13  14
HETATM   14  C   UNL     1     -13.014   9.876  71.687  1.00  0.00    -0.434 C  
BRANCH  14  15
HETATM   15  N   UNL     1     -13.058  11.203  71.036  1.00  0.00    -0.224 NA 
HETATM   16  C   UNL     1     -13.341  12.267  72.008  1.00  0.00    -0.386 C  
BRANCH  15  17
HETATM   17  C   UNL     1     -11.768  11.432  70.332  1.00  0.00    -0.268 C  
BRANCH  17  18
HETATM   18  C   UNL     1     -11.839  12.492  69.207  1.00  0.00    -0.304 C  
BRANCH  18  19
HETATM   19  N   UNL     1     -10.782  12.417  68.171  1.00  0.00    -0.213 NA 
HETATM   20  C   UNL     1      -9.864  11.304  68.432  1.00  0.00    -0.199 C  
BRANCH  19  21
HETATM   21  C   UNL     1     -11.381  12.252  66.828  1.00  0.00    -0.339 C  
BRANCH  21  22
HETATM   22  C   UNL     1     -12.396  13.343  66.475  1.00  0.00    -0.354 C  
BRANCH  22  23
HETATM   23  C   UNL     1     -12.512  13.542  64.969  1.00  0.00    -0.417 C  
BRANCH  23  24
HETATM   24  O   UNL     1     -11.337  14.209  64.479  1.00  0.00    -0.372 OA 
BRANCH  24  25
HETATM   25  C   UNL     1     -11.367  15.565  64.530  1.00  0.00    -0.314 C  
HETATM   26  O   UNL     1     -12.153  16.289  63.941  1.00  0.00    -0.986 OA 
BRANCH  25  27
HETATM   27  C   UNL     1     -10.307  16.073  65.440  1.00  0.00    -0.386 A  
HETATM   28  C   UNL     1     -10.354  17.416  65.818  1.00  0.00    -0.226 A  
HETATM   29  C   UNL     1      -9.356  17.951  66.633  1.00  0.00    -0.286 A  
HETATM   30  C   UNL     1      -8.281  17.139  67.069  1.00  0.00    -0.207 A  
HETATM   31  C   UNL     1      -9.271  15.255  65.902  1.00  0.00    -0.236 A  
HETATM   32  C   UNL     1      -8.245  15.774  66.706  1.00  0.00    -0.267 A  
BRANCH  29  33
HETATM   33  O   UNL     1      -9.335  19.276  67.008  1.00  0.00    -0.302 OA 
HETATM   34  C   UNL     1     -10.326  20.116  66.424  1.00  0.00    -0.389 C  
ENDBRANCH  29  33
BRANCH  30  35
HETATM   35  O   UNL     1      -7.313  17.805  67.783  1.00  0.00    -0.195 OA 
HETATM   36  C   UNL     1      -7.142  17.485  69.156  1.00  0.00    -0.195 C  
ENDBRANCH  30  35
BRANCH  32  37
HETATM   37  O   UNL     1      -7.190  15.010  67.130  1.00  0.00    -0.177 OA 
HETATM   38  C   UNL     1      -7.457  13.895  67.972  1.00  0.00    -0.135 C  
ENDBRANCH  32  37
ENDBRANCH  25  27
ENDBRANCH  24  25
ENDBRANCH  23  24
ENDBRANCH  22  23
ENDBRANCH  21  22
ENDBRANCH  19  21
ENDBRANCH  18  19
ENDBRANCH  17  18
ENDBRANCH  15  17
ENDBRANCH  14  15
ENDBRANCH  13  14
ENDBRANCH  12  13
ENDBRANCH  11  12
ENDBRANCH   9  11
ENDBRANCH   5   9
BRANCH   8  39
HETATM   39  O   UNL     1      -6.435   7.127  69.573  1.00  0.00    -0.038 OA 
HETATM   40  C   UNL     1      -6.366   8.475  69.134  1.00  0.00    -0.043 C  
ENDBRANCH   8  39
BRANCH   7  41
HETATM   41  O   UNL     1      -7.190   5.411  67.384  1.00  0.00    -0.072 OA 
HETATM   42  C   UNL     1      -7.228   6.273  66.258  1.00  0.00    -0.069 C  
ENDBRANCH   7  41
ENDBRANCH   2   3
TORSDOF 21
ENDMDL
MODEL      104
REMARK 921   NORMALIZED FREE ENERGY PREDICTED BY IDOCK:   -4.48 KCAL/MOL
REMARK 922        TOTAL FREE ENERGY PREDICTED BY IDOCK:  -12.83 KCAL/MOL
REMARK 923 INTER-LIGAND FREE ENERGY PREDICTED BY IDOCK:   -9.92 KCAL/MOL
REMARK 924 INTRA-LIGAND FREE ENERGY PREDICTED BY IDOCK:   -2.91 KCAL/MOL
REMARK 927      BINDING AFFINITY PREDICTED BY RF-SCORE:    0.00 PKD
ROOT
HETATM    1  C   UNL     1     -10.642   8.941  71.762  1.00  0.00    -0.362 C  
HETATM    2  O   UNL     1      -9.282   9.337  71.597  1.00  0.00    -0.313 OA 
ENDROOT
BRANCH   2   3
HETATM    3  C   UNL     1      -8.520   8.588  70.734  1.00  0.00    -0.149 A  
HETATM    4  C   UNL     1      -8.674   7.198  70.676  1.00  0.00    -0.148 A  
HETATM    5  C   UNL     1      -7.914   6.414  69.807  1.00  0.00    -0.119 A  
HETATM    6  C   UNL     1      -6.987   7.030  68.975  1.00  0.00    -0.078 A  
HETATM    7  C   UNL     1      -7.608   9.229  69.863  1.00  0.00    -0.093 A  
HETATM    8  C   UNL     1      -6.832   8.429  68.987  1.00  0.00    -0.056 A  
BRANCH   5   9
HETATM    9  C   UNL     1      -8.154   4.950  69.845  1.00  0.00    -0.073 C  
HETATM   10  O   UNL     1      -7.988   4.285  70.858  1.00  0.00    -0.065 OA 
BRANCH   9  11
HETATM   11  O   UNL     1      -8.526   4.465  68.634  1.00  0.00    -0.083 OA 
BRANCH  11  12
HETATM   12  C   UNL     1      -9.943   4.528  68.387  1.00  0.00    -0.033 C  
BRANCH  12  13
HETATM   13  C   UNL     1     -10.191   4.998  66.956  1.00  0.00    -0.253 C  
BRANCH  13  14
HETATM   14  C   UNL     1     -10.500   6.495  66.898  1.00  0.00    -0.277 C  
BRANCH  14  15
HETATM   15  N   UNL     1      -9.312   7.329  66.621  1.00  0.00    -0.165 NA 
HETATM   16  C   UNL     1      -8.471   6.734  65.574  1.00  0.00    -0.119 C  
BRANCH  15  17
HETATM   17  C   UNL     1      -9.766   8.696  66.248  1.00  0.00    -0.251 C  
BRANCH  17  18
HETATM   18  C   UNL     1      -8.616   9.707  66.026  1.00  0.00    -0.132 C  
BRANCH  18  19
HETATM   19  N   UNL     1      -8.742  10.591  64.843  1.00  0.00    -0.180 NA 
HETATM   20  C   UNL     1      -8.664   9.820  63.598  1.00  0.00    -0.221 C  
BRANCH  19  21
HETATM   21  C   UNL     1     -10.023  11.330  64.880  1.00  0.00    -0.274 C  
BRANCH  21  22
HETATM   22  C   UNL     1     -10.807  11.255  63.565  1.00  0.00    -0.373 C  
BRANCH  22  23
HETATM   23  C   UNL     1     -11.656  12.499  63.341  1.00  0.00    -0.473 C  
BRANCH  23  24
HETATM   24  O   UNL     1     -12.267  12.895  64.581  1.00  0.00    -0.388 OA 
BRANCH  24  25
HETATM   25  C   UNL     1     -12.273  14.228  64.833  1.00  0.00    -0.440 C  
HETATM   26  O   UNL     1     -12.601  15.106  64.051  1.00  0.00    -0.791 OA 
BRANCH  25  27
HETATM   27  C   UNL     1     -11.839  14.494  66.230  1.00  0.00    -0.354 A  
HETATM   28  C   UNL     1     -12.028  13.488  67.179  1.00  0.00    -0.426 A  
HETATM   29  C   UNL     1     -11.678  13.705  68.512  1.00  0.00    -0.357 A  
HETATM   30  C   UNL     1     -11.145  14.955  68.913  1.00  0.00    -0.257 A  
HETATM   31  C   UNL     1     -11.273  15.715  66.612  1.00  0.00    -0.067 A  
HETATM   32  C   UNL     1     -10.932  15.966  67.949  1.00  0.00    -0.327 A  
BRANCH  29  33
HETATM   33  O   UNL     1     -11.874  12.761  69.495  1.00  0.00    -0.308 OA 
HETATM   34  C   UNL     1     -11.688  11.402  69.113  1.00  0.00    -0.342 C  
ENDBRANCH  29  33
BRANCH  30  35
HETATM   35  O   UNL     1     -10.935  15.080  70.266  1.00  0.00    -0.252 OA 
HETATM   36  C   UNL     1     -11.937  15.712  71.051  1.00  0.00    -0.400 C  
ENDBRANCH  30  35
BRANCH  32  37
HETATM   37  O   UNL     1     -10.427  17.170  68.362  1.00  0.00    -0.334 OA 
HETATM   38  C   UNL     1      -9.014  17.327  68.417  1.00  0.00    -0.269 C  
ENDBRANCH  32  37
ENDBRANCH  25  27
ENDBRANCH  24  25
ENDBRANCH  23  24
ENDBRANCH  22  23
ENDBRANCH  21  22
ENDBRANCH  19  21
ENDBRANCH  18  19
ENDBRANCH  17  18
ENDBRANCH  15  17
ENDBRANCH  14  15
ENDBRANCH  13  14
ENDBRANCH  12  13
ENDBRANCH  11  12
ENDBRANCH   9  11
ENDBRANCH   5   9
BRANCH   8  39
HETATM   39  O   UNL     1      -5.878   8.826  68.079  1.00  0.00    -0.044 OA 
HETATM   40  C   UNL     1      -5.298   7.873  67.202  1.00  0.00    -0.032 C  
ENDBRANCH   8  39
BRANCH   7  41
HETATM   41  O   UNL     1      -7.390  10.580  69.796  1.00  0.00    -0.145 OA 
HETATM   42  C   UNL     1      -6.274  11.172  70.439  1.00  0.00    -0.094 C  
ENDBRANCH   7  41
ENDBRANCH   2   3
TORSDOF 21
ENDMDL
MODEL      105
REMARK 921   NORMALIZED FREE ENERGY PREDICTED BY IDOCK:   -4.44 KCAL/MOL
REMARK 922        TOTAL FREE ENERGY PREDICTED BY IDOCK:  -12.75 KCAL/MOL
REMARK 923 INTER-LIGAND FREE ENERGY PREDICTED BY IDOCK:   -9.56 KCAL/MOL
REMARK 924 INTRA-LIGAND FREE ENERGY PREDICTED BY IDOCK:   -3.19 KCAL/MOL
REMARK 927      BINDING AFFINITY PREDICTED BY RF-SCORE:    0.00 PKD
ROOT
HETATM    1  C   UNL     1     -14.107  14.273  72.197  1.00  0.00    -0.540 C  
HETATM    2  O   UNL     1     -13.649  12.928  72.308  1.00  0.00    -0.560 OA 
ENDROOT
BRANCH   2   3
HETATM    3  C   UNL     1     -12.903  12.440  71.263  1.00  0.00    -0.240 A  
HETATM    4  C   UNL     1     -12.515  13.283  70.215  1.00  0.00    -0.255 A  
HETATM    5  C   UNL     1     -11.756  12.814  69.142  1.00  0.00    -0.375 A  
HETATM    6  C   UNL     1     -11.371  11.478  69.118  1.00  0.00    -0.351 A  
HETATM    7  C   UNL     1     -12.483  11.090  71.269  1.00  0.00    -0.370 A  
HETATM    8  C   UNL     1     -11.719  10.613  70.174  1.00  0.00    -0.332 A  
BRANCH   5   9
HETATM    9  C   UNL     1     -11.418  13.795  68.082  1.00  0.00    -0.313 C  
HETATM   10  O   UNL     1     -12.262  14.273  67.338  1.00  0.00    -0.378 OA 
BRANCH   9  11
HETATM   11  O   UNL     1     -10.086  14.046  68.029  1.00  0.00    -0.227 OA 
BRANCH  11  12
HETATM   12  C   UNL     1      -9.473  13.704  66.772  1.00  0.00    -0.270 C  
BRANCH  12  13
HETATM   13  C   UNL     1      -8.691  12.402  66.923  1.00  0.00    -0.191 C  
BRANCH  13  14
HETATM   14  C   UNL     1      -9.218  11.315  65.986  1.00  0.00    -0.208 C  
BRANCH  14  15
HETATM   15  N   UNL     1      -8.262  10.207  65.775  1.00  0.00    -0.138 NA 
HETATM   16  C   UNL     1      -7.413  10.000  66.956  1.00  0.00    -0.092 C  
BRANCH  15  17
HETATM   17  C   UNL     1      -9.025   8.978  65.427  1.00  0.00    -0.200 C  
BRANCH  17  18
HETATM   18  C   UNL     1     -10.002   8.505  66.530  1.00  0.00    -0.280 C  
BRANCH  18  19
HETATM   19  N   UNL     1      -9.735   7.168  67.109  1.00  0.00    -0.154 NA 
HETATM   20  C   UNL     1     -10.978   6.524  67.546  1.00  0.00    -0.359 C  
BRANCH  19  21
HETATM   21  C   UNL     1      -9.057   6.298  66.122  1.00  0.00    -0.138 C  
BRANCH  21  22
HETATM   22  C   UNL     1      -9.740   4.940  65.936  1.00  0.00    -0.197 C  
BRANCH  22  23
HETATM   23  C   UNL     1      -8.779   3.784  66.182  1.00  0.00    -0.117 C  
BRANCH  23  24
HETATM   24  O   UNL     1      -8.211   3.903  67.497  1.00  0.00    -0.093 OA 
BRANCH  24  25
HETATM   25  C   UNL     1      -8.957   3.387  68.507  1.00  0.00    -0.134 C  
HETATM   26  O   UNL     1      -9.599   2.350  68.470  1.00  0.00    -0.185 OA 
BRANCH  25  27
HETATM   27  C   UNL     1      -8.873   4.257  69.710  1.00  0.00    -0.133 A  
HETATM   28  C   UNL     1      -7.976   5.325  69.687  1.00  0.00    -0.084 A  
HETATM   29  C   UNL     1      -7.828   6.143  70.807  1.00  0.00    -0.103 A  
HETATM   30  C   UNL     1      -8.576   5.884  71.982  1.00  0.00    -0.137 A  
HETATM   31  C   UNL     1      -9.646   4.021  70.852  1.00  0.00    -0.253 A  
HETATM   32  C   UNL     1      -9.501   4.815  71.999  1.00  0.00    -0.141 A  
BRANCH  29  33
HETATM   33  O   UNL     1      -6.934   7.190  70.851  1.00  0.00    -0.056 OA 
HETATM   34  C   UNL     1      -6.383   7.604  69.605  1.00  0.00    -0.031 C  
ENDBRANCH  29  33
BRANCH  30  35
HETATM   35  O   UNL     1      -8.269   6.696  73.048  1.00  0.00    -0.113 OA 
HETATM   36  C   UNL     1      -9.187   7.719  73.405  1.00  0.00    -0.284 C  
ENDBRANCH  30  35
BRANCH  32  37
HETATM   37  O   UNL     1     -10.206   4.576  73.148  1.00  0.00    -0.149 OA 
HETATM   38  C   UNL     1     -11.621   4.719  73.118  1.00  0.00    -0.197 C  
ENDBRANCH  32  37
ENDBRANCH  25  27
ENDBRANCH  24  25
ENDBRANCH  23  24
ENDBRANCH  22  23
ENDBRANCH  21  22
ENDBRANCH  19  21
ENDBRANCH  18  19
ENDBRANCH  17  18
ENDBRANCH  15  17
ENDBRANCH  14  15
ENDBRANCH  13  14
ENDBRANCH  12  13
ENDBRANCH  11  12
ENDBRANCH   9  11
ENDBRANCH   5   9
BRANCH   8  39
HETATM   39  O   UNL     1     -11.224   9.349  69.956  1.00  0.00    -0.240 OA 
HETATM   40  C   UNL     1      -9.843   9.086  70.154  1.00  0.00    -0.187 C  
ENDBRANCH   8  39
BRANCH   7  41
HETATM   41  O   UNL     1     -12.764  10.174  72.249  1.00  0.00    -0.307 OA 
HETATM   42  C   UNL     1     -13.783   9.205  72.072  1.00  0.00    -0.448 C  
ENDBRANCH   7  41
ENDBRANCH   2   3
TORSDOF 21
ENDMDL
MODEL      106
REMARK 921   NORMALIZED FREE ENERGY PREDICTED BY IDOCK:   -4.42 KCAL/MOL
REMARK 922        TOTAL FREE ENERGY PREDICTED BY IDOCK:  -12.71 KCAL/MOL
REMARK 923 INTER-LIGAND FREE ENERGY PREDICTED BY IDOCK:  -10.17 KCAL/MOL
REMARK 924 INTRA-LIGAND FREE ENERGY PREDICTED BY IDOCK:   -2.54 KCAL/MOL
REMARK 927      BINDING AFFINITY PREDICTED BY RF-SCORE:    0.00 PKD
ROOT
HETATM    1  C   UNL     1     -10.728   3.184  63.191  1.00  0.00    -0.225 C  
HETATM    2  O   UNL     1      -9.958   2.771  64.317  1.00  0.00    -0.148 OA 
ENDROOT
BRANCH   2   3
HETATM    3  C   UNL     1      -9.365   3.762  65.059  1.00  0.00    -0.157 A  
HETATM    4  C   UNL     1     -10.130   4.555  65.923  1.00  0.00    -0.279 A  
HETATM    5  C   UNL     1      -9.553   5.569  66.689  1.00  0.00    -0.163 A  
HETATM    6  C   UNL     1      -8.183   5.790  66.597  1.00  0.00    -0.106 A  
HETATM    7  C   UNL     1      -7.965   3.953  64.988  1.00  0.00    -0.093 A  
HETATM    8  C   UNL     1      -7.382   4.989  65.762  1.00  0.00    -0.077 A  
BRANCH   5   9
HETATM    9  C   UNL     1     -10.465   6.353  67.557  1.00  0.00    -0.233 C  
HETATM   10  O   UNL     1     -11.346   7.070  67.102  1.00  0.00    -0.240 OA 
BRANCH   9  11
HETATM   11  O   UNL     1     -10.170   6.202  68.872  1.00  0.00    -0.159 OA 
BRANCH  11  12
HETATM   12  C   UNL     1     -11.321   6.012  69.715  1.00  0.00    -0.273 C  
BRANCH  12  13
HETATM   13  C   UNL     1     -11.138   6.791  71.014  1.00  0.00    -0.317 C  
BRANCH  13  14
HETATM   14  C   UNL     1     -11.436   8.279  70.827  1.00  0.00    -0.252 C  
BRANCH  14  15
HETATM   15  N   UNL     1     -10.337   9.160  71.277  1.00  0.00    -0.311 NA 
HETATM   16  C   UNL     1      -9.540   8.524  72.335  1.00  0.00    -0.286 C  
BRANCH  15  17
HETATM   17  C   UNL     1      -9.500   9.517  70.100  1.00  0.00    -0.246 C  
BRANCH  17  18
HETATM   18  C   UNL     1     -10.287  10.166  68.937  1.00  0.00    -0.206 C  
BRANCH  18  19
HETATM   19  N   UNL     1      -9.496  10.541  67.741  1.00  0.00    -0.148 NA 
HETATM   20  C   UNL     1      -8.308   9.691  67.607  1.00  0.00    -0.121 C  
BRANCH  19  21
HETATM   21  C   UNL     1     -10.318  10.426  66.516  1.00  0.00    -0.224 C  
BRANCH  21  22
HETATM   22  C   UNL     1      -9.817  11.302  65.363  1.00  0.00    -0.281 C  
BRANCH  22  23
HETATM   23  C   UNL     1     -10.925  12.182  64.798  1.00  0.00    -0.310 C  
BRANCH  23  24
HETATM   24  O   UNL     1     -12.032  12.209  65.715  1.00  0.00    -0.536 OA 
BRANCH  24  25
HETATM   25  C   UNL     1     -12.543  13.438  65.982  1.00  0.00    -0.296 C  
HETATM   26  O   UNL     1     -13.344  14.048  65.294  1.00  0.00    -0.741 OA 
BRANCH  25  27
HETATM   27  C   UNL     1     -12.006  13.954  67.269  1.00  0.00    -0.446 A  
HETATM   28  C   UNL     1     -12.150  13.160  68.407  1.00  0.00    -0.216 A  
HETATM   29  C   UNL     1     -11.702  13.620  69.646  1.00  0.00    -0.320 A  
HETATM   30  C   UNL     1     -11.114  14.903  69.758  1.00  0.00    -0.274 A  
HETATM   31  C   UNL     1     -11.386  15.205  67.366  1.00  0.00    -0.309 A  
HETATM   32  C   UNL     1     -10.946  15.699  68.603  1.00  0.00    -0.294 A  
BRANCH  29  33
HETATM   33  O   UNL     1     -11.850  12.893  70.806  1.00  0.00    -0.152 OA 
HETATM   34  C   UNL     1     -13.145  12.903  71.399  1.00  0.00    -0.242 C  
ENDBRANCH  29  33
BRANCH  30  35
HETATM   35  O   UNL     1     -10.806  15.282  71.044  1.00  0.00    -0.295 OA 
HETATM   36  C   UNL     1     -11.702  16.147  71.728  1.00  0.00    -0.488 C  
ENDBRANCH  30  35
BRANCH  32  37
HETATM   37  O   UNL     1     -10.385  16.941  68.737  1.00  0.00    -0.282 OA 
HETATM   38  C   UNL     1      -9.839  17.565  67.581  1.00  0.00    -0.291 C  
ENDBRANCH  32  37
ENDBRANCH  25  27
ENDBRANCH  24  25
ENDBRANCH  23  24
ENDBRANCH  22  23
ENDBRANCH  21  22
ENDBRANCH  19  21
ENDBRANCH  18  19
ENDBRANCH  17  18
ENDBRANCH  15  17
ENDBRANCH  14  15
ENDBRANCH  13  14
ENDBRANCH  12  13
ENDBRANCH  11  12
ENDBRANCH   9  11
ENDBRANCH   5   9
BRANCH   8  39
HETATM   39  O   UNL     1      -6.062   5.368  65.835  1.00  0.00    -0.031 OA 
HETATM   40  C   UNL     1      -5.699   6.520  66.579  1.00  0.00    -0.014 C  
ENDBRANCH   8  39
BRANCH   7  41
HETATM   41  O   UNL     1      -7.103   3.224  64.213  1.00  0.00    -0.054 OA 
HETATM   42  C   UNL     1      -6.754   1.895  64.561  1.00  0.00    -0.030 C  
ENDBRANCH   7  41
ENDBRANCH   2   3
TORSDOF 21
ENDMDL
MODEL      107
REMARK 921   NORMALIZED FREE ENERGY PREDICTED BY IDOCK:   -4.42 KCAL/MOL
REMARK 922        TOTAL FREE ENERGY PREDICTED BY IDOCK:  -12.70 KCAL/MOL
REMARK 923 INTER-LIGAND FREE ENERGY PREDICTED BY IDOCK:  -10.37 KCAL/MOL
REMARK 924 INTRA-LIGAND FREE ENERGY PREDICTED BY IDOCK:   -2.33 KCAL/MOL
REMARK 927      BINDING AFFINITY PREDICTED BY RF-SCORE:    0.00 PKD
ROOT
HETATM    1  C   UNL     1     -11.381   5.256  72.923  1.00  0.00    -0.301 C  
HETATM    2  O   UNL     1     -12.297   6.077  72.203  1.00  0.00    -0.254 OA 
ENDROOT
BRANCH   2   3
HETATM    3  C   UNL     1     -11.781   6.825  71.173  1.00  0.00    -0.345 A  
HETATM    4  C   UNL     1     -11.321   6.203  70.007  1.00  0.00    -0.443 A  
HETATM    5  C   UNL     1     -10.792   6.940  68.945  1.00  0.00    -0.247 A  
HETATM    6  C   UNL     1     -10.729   8.325  69.048  1.00  0.00    -0.098 A  
HETATM    7  C   UNL     1     -11.757   8.236  71.272  1.00  0.00    -0.283 A  
HETATM    8  C   UNL     1     -11.213   8.981  70.195  1.00  0.00    -0.171 A  
BRANCH   5   9
HETATM    9  C   UNL     1     -10.323   6.171  67.767  1.00  0.00    -0.198 C  
HETATM   10  O   UNL     1     -10.303   6.647  66.640  1.00  0.00    -0.201 OA 
BRANCH   9  11
HETATM   11  O   UNL     1      -9.973   4.902  68.094  1.00  0.00    -0.150 OA 
BRANCH  11  12
HETATM   12  C   UNL     1      -8.696   4.491  67.574  1.00  0.00    -0.104 C  
BRANCH  12  13
HETATM   13  C   UNL     1      -8.901   3.426  66.500  1.00  0.00    -0.140 C  
BRANCH  13  14
HETATM   14  C   UNL     1      -8.154   3.772  65.211  1.00  0.00    -0.097 C  
BRANCH  14  15
HETATM   15  N   UNL     1      -7.484   5.089  65.256  1.00  0.00    -0.075 NA 
HETATM   16  C   UNL     1      -6.024   4.950  65.174  1.00  0.00    -0.022 C  
BRANCH  15  17
HETATM   17  C   UNL     1      -8.017   5.934  64.155  1.00  0.00    -0.122 C  
BRANCH  17  18
HETATM   18  C   UNL     1      -7.412   7.357  64.097  1.00  0.00    -0.099 C  
BRANCH  18  19
HETATM   19  N   UNL     1      -8.030   8.367  64.988  1.00  0.00    -0.131 NA 
HETATM   20  C   UNL     1      -7.021   9.015  65.832  1.00  0.00    -0.088 C  
BRANCH  19  21
HETATM   21  C   UNL     1      -8.738   9.397  64.195  1.00  0.00    -0.198 C  
BRANCH  21  22
HETATM   22  C   UNL     1      -9.907  10.044  64.945  1.00  0.00    -0.352 C  
BRANCH  22  23
HETATM   23  C   UNL     1      -9.925  11.557  64.766  1.00  0.00    -0.260 C  
BRANCH  23  24
HETATM   24  O   UNL     1     -10.486  12.173  65.938  1.00  0.00    -0.240 OA 
BRANCH  24  25
HETATM   25  C   UNL     1      -9.595  12.762  66.775  1.00  0.00    -0.244 C  
HETATM   26  O   UNL     1      -8.608  12.235  67.261  1.00  0.00    -0.167 OA 
BRANCH  25  27
HETATM   27  C   UNL     1      -9.971  14.180  67.017  1.00  0.00    -0.260 A  
HETATM   28  C   UNL     1      -9.317  15.167  66.278  1.00  0.00    -0.348 A  
HETATM   29  C   UNL     1      -9.602  16.515  66.500  1.00  0.00    -0.271 A  
HETATM   30  C   UNL     1     -10.545  16.890  67.488  1.00  0.00    -0.307 A  
HETATM   31  C   UNL     1     -10.934  14.542  67.964  1.00  0.00    -0.269 A  
HETATM   32  C   UNL     1     -11.224  15.890  68.221  1.00  0.00    -0.354 A  
BRANCH  29  33
HETATM   33  O   UNL     1      -8.964  17.531  65.824  1.00  0.00    -0.512 OA 
HETATM   34  C   UNL     1      -7.573  17.689  66.088  1.00  0.00    -0.280 C  
ENDBRANCH  29  33
BRANCH  30  35
HETATM   35  O   UNL     1     -10.664  18.246  67.681  1.00  0.00    -0.419 OA 
HETATM   36  C   UNL     1      -9.971  18.838  68.771  1.00  0.00    -0.391 C  
ENDBRANCH  30  35
BRANCH  32  37
HETATM   37  O   UNL     1     -12.123  16.275  69.179  1.00  0.00    -0.143 OA 
HETATM   38  C   UNL     1     -12.265  15.464  70.340  1.00  0.00    -0.391 C  
ENDBRANCH  32  37
ENDBRANCH  25  27
ENDBRANCH  24  25
ENDBRANCH  23  24
ENDBRANCH  22  23
ENDBRANCH  21  22
ENDBRANCH  19  21
ENDBRANCH  18  19
ENDBRANCH  17  18
ENDBRANCH  15  17
ENDBRANCH  14  15
ENDBRANCH  13  14
ENDBRANCH  12  13
ENDBRANCH  11  12
ENDBRANCH   9  11
ENDBRANCH   5   9
BRANCH   8  39
HETATM   39  O   UNL     1     -11.068  10.344  70.080  1.00  0.00    -0.272 OA 
HETATM   40  C   UNL     1     -11.878  11.065  69.164  1.00  0.00    -0.337 C  
ENDBRANCH   8  39
BRANCH   7  41
HETATM   41  O   UNL     1     -12.208   8.965  72.340  1.00  0.00    -0.358 OA 
HETATM   42  C   UNL     1     -13.564   9.370  72.427  1.00  0.00    -0.429 C  
ENDBRANCH   7  41
ENDBRANCH   2   3
TORSDOF 21
ENDMDL
MODEL      108
REMARK 921   NORMALIZED FREE ENERGY PREDICTED BY IDOCK:   -4.41 KCAL/MOL
REMARK 922        TOTAL FREE ENERGY PREDICTED BY IDOCK:  -12.69 KCAL/MOL
REMARK 923 INTER-LIGAND FREE ENERGY PREDICTED BY IDOCK:  -10.09 KCAL/MOL
REMARK 924 INTRA-LIGAND FREE ENERGY PREDICTED BY IDOCK:   -2.59 KCAL/MOL
REMARK 927      BINDING AFFINITY PREDICTED BY RF-SCORE:    0.00 PKD
ROOT
HETATM    1  C   UNL     1     -11.929  16.571  73.010  1.00  0.00    -0.389 C  
HETATM    2  O   UNL     1     -12.319  15.327  72.435  1.00  0.00    -0.326 OA 
ENDROOT
BRANCH   2   3
HETATM    3  C   UNL     1     -11.969  15.114  71.124  1.00  0.00    -0.333 A  
HETATM    4  C   UNL     1     -11.321  16.116  70.392  1.00  0.00    -0.377 A  
HETATM    5  C   UNL     1     -10.954  15.926  69.059  1.00  0.00    -0.277 A  
HETATM    6  C   UNL     1     -11.232  14.708  68.447  1.00  0.00    -0.290 A  
HETATM    7  C   UNL     1     -12.222  13.858  70.523  1.00  0.00    -0.373 A  
HETATM    8  C   UNL     1     -11.854  13.671  69.167  1.00  0.00    -0.348 A  
BRANCH   5   9
HETATM    9  C   UNL     1     -10.286  17.064  68.381  1.00  0.00    -0.351 C  
HETATM   10  O   UNL     1     -10.522  18.228  68.670  1.00  0.00    -0.322 OA 
BRANCH   9  11
HETATM   11  O   UNL     1      -9.443  16.649  67.403  1.00  0.00    -0.228 OA 
BRANCH  11  12
HETATM   12  C   UNL     1      -9.296  17.582  66.318  1.00  0.00    -0.209 C  
BRANCH  12  13
HETATM   13  C   UNL     1      -7.881  18.153  66.322  1.00  0.00    -0.280 C  
BRANCH  13  14
HETATM   14  C   UNL     1      -6.868  17.146  66.868  1.00  0.00    -0.207 C  
BRANCH  14  15
HETATM   15  N   UNL     1      -5.990  17.706  67.917  1.00  0.00    -0.150 NA 
HETATM   16  C   UNL     1      -6.746  18.542  68.859  1.00  0.00    -0.268 C  
BRANCH  15  17
HETATM   17  C   UNL     1      -5.300  16.586  68.611  1.00  0.00    -0.117 C  
BRANCH  17  18
HETATM   18  C   UNL     1      -5.646  15.185  68.051  1.00  0.00    -0.137 C  
BRANCH  18  19
HETATM   19  N   UNL     1      -6.174  14.203  69.027  1.00  0.00    -0.089 NA 
HETATM   20  C   UNL     1      -5.848  14.597  70.401  1.00  0.00    -0.156 C  
BRANCH  19  21
HETATM   21  C   UNL     1      -7.642  14.073  68.892  1.00  0.00    -0.080 C  
BRANCH  21  22
HETATM   22  C   UNL     1      -8.079  13.453  67.561  1.00  0.00    -0.183 C  
BRANCH  22  23
HETATM   23  C   UNL     1      -7.630  12.003  67.438  1.00  0.00    -0.151 C  
BRANCH  23  24
HETATM   24  O   UNL     1      -8.547  11.154  68.150  1.00  0.00    -0.128 OA 
BRANCH  24  25
HETATM   25  C   UNL     1      -8.023  10.478  69.203  1.00  0.00    -0.145 C  
HETATM   26  O   UNL     1      -6.916  10.648  69.688  1.00  0.00    -0.105 OA 
BRANCH  25  27
HETATM   27  C   UNL     1      -9.004   9.489  69.724  1.00  0.00    -0.214 A  
HETATM   28  C   UNL     1      -8.666   8.136  69.668  1.00  0.00    -0.142 A  
HETATM   29  C   UNL     1      -9.571   7.168  70.104  1.00  0.00    -0.168 A  
HETATM   30  C   UNL     1     -10.845   7.551  70.590  1.00  0.00    -0.240 A  
HETATM   31  C   UNL     1     -10.244   9.877  70.243  1.00  0.00    -0.322 A  
HETATM   32  C   UNL     1     -11.179   8.922  70.668  1.00  0.00    -0.266 A  
BRANCH  29  33
HETATM   33  O   UNL     1      -9.303   5.819  70.040  1.00  0.00    -0.143 OA 
HETATM   34  C   UNL     1      -8.139   5.371  70.727  1.00  0.00    -0.111 C  
ENDBRANCH  29  33
BRANCH  30  35
HETATM   35  O   UNL     1     -11.681   6.503  70.893  1.00  0.00    -0.346 OA 
HETATM   36  C   UNL     1     -11.766   6.073  72.245  1.00  0.00    -0.284 C  
ENDBRANCH  30  35
BRANCH  32  37
HETATM   37  O   UNL     1     -12.420   9.269  71.130  1.00  0.00    -0.306 OA 
HETATM   38  C   UNL     1     -12.566   9.580  72.511  1.00  0.00    -0.066 C  
ENDBRANCH  32  37
ENDBRANCH  25  27
ENDBRANCH  24  25
ENDBRANCH  23  24
ENDBRANCH  22  23
ENDBRANCH  21  22
ENDBRANCH  19  21
ENDBRANCH  18  19
ENDBRANCH  17  18
ENDBRANCH  15  17
ENDBRANCH  14  15
ENDBRANCH  13  14
ENDBRANCH  12  13
ENDBRANCH  11  12
ENDBRANCH   9  11
ENDBRANCH   5   9
BRANCH   8  39
HETATM   39  O   UNL     1     -12.019  12.556  68.378  1.00  0.00    -0.322 OA 
HETATM   40  C   UNL     1     -11.624  12.590  67.015  1.00  0.00    -0.368 C  
ENDBRANCH   8  39
BRANCH   7  41
HETATM   41  O   UNL     1     -12.814  12.788  71.139  1.00  0.00    -0.323 OA 
HETATM   42  C   UNL     1     -13.752  12.975  72.186  1.00  0.00    -0.455 C  
ENDBRANCH   7  41
ENDBRANCH   2   3
TORSDOF 21
ENDMDL
MODEL      109
REMARK 921   NORMALIZED FREE ENERGY PREDICTED BY IDOCK:   -4.40 KCAL/MOL
REMARK 922        TOTAL FREE ENERGY PREDICTED BY IDOCK:  -12.67 KCAL/MOL
REMARK 923 INTER-LIGAND FREE ENERGY PREDICTED BY IDOCK:  -10.52 KCAL/MOL
REMARK 924 INTRA-LIGAND FREE ENERGY PREDICTED BY IDOCK:   -2.15 KCAL/MOL
REMARK 927      BINDING AFFINITY PREDICTED BY RF-SCORE:    0.00 PKD
ROOT
HETATM    1  C   UNL     1      -7.546   5.114  65.349  1.00  0.00    -0.085 C  
HETATM    2  O   UNL     1      -8.588   6.080  65.235  1.00  0.00    -0.151 OA 
ENDROOT
BRANCH   2   3
HETATM    3  C   UNL     1      -8.797   6.896  66.321  1.00  0.00    -0.148 A  
HETATM    4  C   UNL     1      -8.943   6.348  67.601  1.00  0.00    -0.113 A  
HETATM    5  C   UNL     1      -9.155   7.153  68.721  1.00  0.00    -0.134 A  
HETATM    6  C   UNL     1      -9.216   8.533  68.560  1.00  0.00    -0.135 A  
HETATM    7  C   UNL     1      -8.818   8.299  66.152  1.00  0.00    -0.167 A  
HETATM    8  C   UNL     1      -9.042   9.115  67.290  1.00  0.00    -0.126 A  
BRANCH   5   9
HETATM    9  C   UNL     1      -9.310   6.460  70.023  1.00  0.00    -0.156 C  
HETATM   10  O   UNL     1      -8.481   6.554  70.917  1.00  0.00    -0.131 OA 
BRANCH   9  11
HETATM   11  O   UNL     1     -10.433   5.702  70.065  1.00  0.00    -0.246 OA 
BRANCH  11  12
HETATM   12  C   UNL     1     -11.641   6.452  70.291  1.00  0.00    -0.383 C  
BRANCH  12  13
HETATM   13  C   UNL     1     -11.900   6.563  71.791  1.00  0.00    -0.384 C  
BRANCH  13  14
HETATM   14  C   UNL     1     -12.035   8.020  72.235  1.00  0.00    -0.358 C  
BRANCH  14  15
HETATM   15  N   UNL     1     -13.024   8.785  71.445  1.00  0.00    -0.301 NA 
HETATM   16  C   UNL     1     -14.395   8.512  71.895  1.00  0.00    -0.448 C  
BRANCH  15  17
HETATM   17  C   UNL     1     -12.694  10.232  71.541  1.00  0.00    -0.452 C  
BRANCH  17  18
HETATM   18  C   UNL     1     -11.880  10.777  70.343  1.00  0.00    -0.358 C  
BRANCH  18  19
HETATM   19  N   UNL     1     -12.352  12.053  69.758  1.00  0.00    -0.115 NA 
HETATM   20  C   UNL     1     -12.177  13.163  70.700  1.00  0.00    -0.321 C  
BRANCH  19  21
HETATM   21  C   UNL     1     -11.620  12.355  68.507  1.00  0.00    -0.313 C  
BRANCH  21  22
HETATM   22  C   UNL     1     -11.005  13.758  68.486  1.00  0.00    -0.283 C  
BRANCH  22  23
HETATM   23  C   UNL     1     -11.552  14.599  67.339  1.00  0.00    -0.389 C  
BRANCH  23  24
HETATM   24  O   UNL     1     -10.603  14.615  66.260  1.00  0.00    -0.293 OA 
BRANCH  24  25
HETATM   25  C   UNL     1     -10.460  15.804  65.622  1.00  0.00    -0.383 C  
HETATM   26  O   UNL     1     -11.131  16.202  64.684  1.00  0.00    -0.598 OA 
BRANCH  25  27
HETATM   27  C   UNL     1      -9.365  16.597  66.242  1.00  0.00    -0.323 A  
HETATM   28  C   UNL     1      -9.660  17.886  66.689  1.00  0.00    -0.311 A  
HETATM   29  C   UNL     1      -8.657  18.685  67.237  1.00  0.00    -0.266 A  
HETATM   30  C   UNL     1      -7.329  18.200  67.327  1.00  0.00    -0.206 A  
HETATM   31  C   UNL     1      -8.065  16.096  66.367  1.00  0.00    -0.305 A  
HETATM   32  C   UNL     1      -7.034  16.887  66.895  1.00  0.00    -0.216 A  
BRANCH  29  33
HETATM   33  O   UNL     1      -8.884  19.975  67.663  1.00  0.00    -0.323 OA 
HETATM   34  C   UNL     1     -10.229  20.303  68.001  1.00  0.00    -0.284 C  
ENDBRANCH  29  33
BRANCH  30  35
HETATM   35  O   UNL     1      -6.415  19.116  67.791  1.00  0.00    -0.210 OA 
HETATM   36  C   UNL     1      -5.697  19.895  66.844  1.00  0.00    -0.171 C  
ENDBRANCH  30  35
BRANCH  32  37
HETATM   37  O   UNL     1      -5.742  16.443  66.981  1.00  0.00    -0.279 OA 
HETATM   38  C   UNL     1      -5.369  15.659  68.109  1.00  0.00    -0.117 C  
ENDBRANCH  32  37
ENDBRANCH  25  27
ENDBRANCH  24  25
ENDBRANCH  23  24
ENDBRANCH  22  23
ENDBRANCH  21  22
ENDBRANCH  19  21
ENDBRANCH  18  19
ENDBRANCH  17  18
ENDBRANCH  15  17
ENDBRANCH  14  15
ENDBRANCH  13  14
ENDBRANCH  12  13
ENDBRANCH  11  12
ENDBRANCH   9  11
ENDBRANCH   5   9
BRANCH   8  39
HETATM   39  O   UNL     1      -9.123  10.486  67.363  1.00  0.00    -0.139 OA 
HETATM   40  C   UNL     1      -8.007  11.237  67.813  1.00  0.00    -0.117 C  
ENDBRANCH   8  39
BRANCH   7  41
HETATM   41  O   UNL     1      -8.653   8.960  64.963  1.00  0.00    -0.168 OA 
HETATM   42  C   UNL     1      -7.395   9.502  64.598  1.00  0.00    -0.113 C  
ENDBRANCH   7  41
ENDBRANCH   2   3
TORSDOF 21
ENDMDL
MODEL      110
REMARK 921   NORMALIZED FREE ENERGY PREDICTED BY IDOCK:   -4.40 KCAL/MOL
REMARK 922        TOTAL FREE ENERGY PREDICTED BY IDOCK:  -12.67 KCAL/MOL
REMARK 923 INTER-LIGAND FREE ENERGY PREDICTED BY IDOCK:   -9.38 KCAL/MOL
REMARK 924 INTRA-LIGAND FREE ENERGY PREDICTED BY IDOCK:   -3.29 KCAL/MOL
REMARK 927      BINDING AFFINITY PREDICTED BY RF-SCORE:    0.00 PKD
ROOT
HETATM    1  C   UNL     1     -10.837  16.329  68.339  1.00  0.00    -0.334 C  
HETATM    2  O   UNL     1     -11.825  15.890  69.269  1.00  0.00    -0.371 OA 
ENDROOT
BRANCH   2   3
HETATM    3  C   UNL     1     -11.949  14.534  69.447  1.00  0.00    -0.322 A  
HETATM    4  C   UNL     1     -11.602  13.649  68.418  1.00  0.00    -0.377 A  
HETATM    5  C   UNL     1     -11.718  12.267  68.573  1.00  0.00    -0.381 A  
HETATM    6  C   UNL     1     -12.181  11.758  69.781  1.00  0.00    -0.270 A  
HETATM    7  C   UNL     1     -12.384  14.025  70.693  1.00  0.00    -0.375 A  
HETATM    8  C   UNL     1     -12.508  12.620  70.844  1.00  0.00    -0.278 A  
BRANCH   5   9
HETATM    9  C   UNL     1     -11.335  11.430  67.410  1.00  0.00    -0.288 C  
HETATM   10  O   UNL     1     -11.047  11.912  66.323  1.00  0.00    -0.290 OA 
BRANCH   9  11
HETATM   11  O   UNL     1     -11.388  10.106  67.697  1.00  0.00    -0.282 OA 
BRANCH  11  12
HETATM   12  C   UNL     1     -10.100   9.494  67.889  1.00  0.00    -0.191 C  
BRANCH  12  13
HETATM   13  C   UNL     1      -9.670   8.795  66.602  1.00  0.00    -0.309 C  
BRANCH  13  14
HETATM   14  C   UNL     1     -10.025   7.308  66.621  1.00  0.00    -0.176 C  
BRANCH  14  15
HETATM   15  N   UNL     1      -9.833   6.675  67.943  1.00  0.00    -0.122 NA 
HETATM   16  C   UNL     1     -11.089   6.106  68.453  1.00  0.00    -0.248 C  
BRANCH  15  17
HETATM   17  C   UNL     1      -8.771   5.640  67.827  1.00  0.00    -0.107 C  
BRANCH  17  18
HETATM   18  C   UNL     1      -8.148   5.528  66.415  1.00  0.00    -0.105 C  
BRANCH  18  19
HETATM   19  N   UNL     1      -6.708   5.860  66.308  1.00  0.00    -0.058 NA 
HETATM   20  C   UNL     1      -6.453   6.744  65.166  1.00  0.00    -0.043 C  
BRANCH  19  21
HETATM   21  C   UNL     1      -6.230   6.514  67.547  1.00  0.00    -0.032 C  
BRANCH  21  22
HETATM   22  C   UNL     1      -5.773   7.961  67.334  1.00  0.00    -0.037 C  
BRANCH  22  23
HETATM   23  C   UNL     1      -6.409   8.910  68.342  1.00  0.00    -0.055 C  
BRANCH  23  24
HETATM   24  O   UNL     1      -6.686   8.201  69.561  1.00  0.00    -0.038 OA 
BRANCH  24  25
HETATM   25  C   UNL     1      -7.562   8.804  70.404  1.00  0.00    -0.082 C  
HETATM   26  O   UNL     1      -7.650  10.003  70.614  1.00  0.00    -0.286 OA 
BRANCH  25  27
HETATM   27  C   UNL     1      -8.446   7.793  71.043  1.00  0.00    -0.122 A  
HETATM   28  C   UNL     1      -7.960   6.493  71.187  1.00  0.00    -0.112 A  
HETATM   29  C   UNL     1      -8.767   5.498  71.740  1.00  0.00    -0.136 A  
HETATM   30  C   UNL     1     -10.091   5.798  72.143  1.00  0.00    -0.183 A  
HETATM   31  C   UNL     1      -9.738   8.106  71.479  1.00  0.00    -0.230 A  
HETATM   32  C   UNL     1     -10.577   7.120  72.019  1.00  0.00    -0.210 A  
BRANCH  29  33
HETATM   33  O   UNL     1      -8.352   4.192  71.873  1.00  0.00    -0.096 OA 
HETATM   34  C   UNL     1      -7.220   3.970  72.710  1.00  0.00    -0.066 C  
ENDBRANCH  29  33
BRANCH  30  35
HETATM   35  O   UNL     1     -10.818   4.715  72.578  1.00  0.00    -0.186 OA 
HETATM   36  C   UNL     1     -10.897   4.469  73.975  1.00  0.00    -0.250 C  
ENDBRANCH  30  35
BRANCH  32  37
HETATM   37  O   UNL     1     -11.863   7.385  72.405  1.00  0.00    -0.284 OA 
HETATM   38  C   UNL     1     -12.921   7.050  71.514  1.00  0.00    -0.359 C  
ENDBRANCH  32  37
ENDBRANCH  25  27
ENDBRANCH  24  25
ENDBRANCH  23  24
ENDBRANCH  22  23
ENDBRANCH  21  22
ENDBRANCH  19  21
ENDBRANCH  18  19
ENDBRANCH  17  18
ENDBRANCH  15  17
ENDBRANCH  14  15
ENDBRANCH  13  14
ENDBRANCH  12  13
ENDBRANCH  11  12
ENDBRANCH   9  11
ENDBRANCH   5   9
BRANCH   8  39
HETATM   39  O   UNL     1     -12.927  11.908  71.944  1.00  0.00    -0.409 OA 
HETATM   40  C   UNL     1     -13.242  10.531  71.815  1.00  0.00    -0.417 C  
ENDBRANCH   8  39
BRANCH   7  41
HETATM   41  O   UNL     1     -12.718  14.779  71.786  1.00  0.00    -0.302 OA 
HETATM   42  C   UNL     1     -14.037  15.271  71.959  1.00  0.00    -0.562 C  
ENDBRANCH   7  41
ENDBRANCH   2   3
TORSDOF 21
ENDMDL
MODEL      111
REMARK 921   NORMALIZED FREE ENERGY PREDICTED BY IDOCK:   -4.40 KCAL/MOL
REMARK 922        TOTAL FREE ENERGY PREDICTED BY IDOCK:  -12.67 KCAL/MOL
REMARK 923 INTER-LIGAND FREE ENERGY PREDICTED BY IDOCK:   -9.96 KCAL/MOL
REMARK 924 INTRA-LIGAND FREE ENERGY PREDICTED BY IDOCK:   -2.71 KCAL/MOL
REMARK 927      BINDING AFFINITY PREDICTED BY RF-SCORE:    0.00 PKD
ROOT
HETATM    1  C   UNL     1      -9.041  10.767  63.018  1.00  0.00    -0.284 C  
HETATM    2  O   UNL     1      -7.795  10.101  63.210  1.00  0.00    -0.149 OA 
ENDROOT
BRANCH   2   3
HETATM    3  C   UNL     1      -7.364   9.955  64.505  1.00  0.00    -0.140 A  
HETATM    4  C   UNL     1      -7.623  10.952  65.454  1.00  0.00     0.132 A  
HETATM    5  C   UNL     1      -7.196  10.829  66.777  1.00  0.00    -0.128 A  
HETATM    6  C   UNL     1      -6.505   9.685  67.163  1.00  0.00    -0.070 A  
HETATM    7  C   UNL     1      -6.696   8.771  64.895  1.00  0.00    -0.069 A  
HETATM    8  C   UNL     1      -6.258   8.653  66.239  1.00  0.00    -0.060 A  
BRANCH   5   9
HETATM    9  C   UNL     1      -7.515  11.955  67.690  1.00  0.00    -0.127 C  
HETATM   10  O   UNL     1      -7.754  11.787  68.877  1.00  0.00    -0.116 OA 
BRANCH   9  11
HETATM   11  O   UNL     1      -7.545  13.143  67.038  1.00  0.00    -0.050 OA 
BRANCH  11  12
HETATM   12  C   UNL     1      -8.392  14.131  67.654  1.00  0.00    -0.182 C  
BRANCH  12  13
HETATM   13  C   UNL     1      -8.745  15.209  66.634  1.00  0.00    -0.308 C  
BRANCH  13  14
HETATM   14  C   UNL     1     -10.143  15.779  66.877  1.00  0.00    -0.266 C  
BRANCH  14  15
HETATM   15  N   UNL     1     -10.239  16.597  68.104  1.00  0.00    -0.267 NA 
HETATM   16  C   UNL     1     -10.565  17.995  67.793  1.00  0.00    -0.394 C  
BRANCH  15  17
HETATM   17  C   UNL     1     -11.252  15.986  69.007  1.00  0.00    -0.347 C  
BRANCH  17  18
HETATM   18  C   UNL     1     -11.007  16.258  70.510  1.00  0.00    -0.219 C  
BRANCH  18  19
HETATM   19  N   UNL     1     -11.877  15.522  71.457  1.00  0.00    -0.361 NA 
HETATM   20  C   UNL     1     -12.128  16.313  72.667  1.00  0.00    -0.534 C  
BRANCH  19  21
HETATM   21  C   UNL     1     -13.169  15.181  70.821  1.00  0.00    -0.382 C  
BRANCH  21  22
HETATM   22  C   UNL     1     -14.169  14.534  71.783  1.00  0.00    -0.592 C  
BRANCH  22  23
HETATM   23  C   UNL     1     -13.631  13.236  72.371  1.00  0.00    -0.594 C  
BRANCH  23  24
HETATM   24  O   UNL     1     -13.009  12.460  71.333  1.00  0.00    -0.361 OA 
BRANCH  24  25
HETATM   25  C   UNL     1     -12.956  11.121  71.552  1.00  0.00    -0.437 C  
HETATM   26  O   UNL     1     -13.516  10.518  72.453  1.00  0.00    -0.258 OA 
BRANCH  25  27
HETATM   27  C   UNL     1     -12.125  10.458  70.513  1.00  0.00    -0.423 A  
HETATM   28  C   UNL     1     -11.425   9.305  70.870  1.00  0.00    -0.367 A  
HETATM   29  C   UNL     1     -10.596   8.671  69.943  1.00  0.00    -0.224 A  
HETATM   30  C   UNL     1     -10.447   9.205  68.640  1.00  0.00    -0.207 A  
HETATM   31  C   UNL     1     -12.016  10.966  69.215  1.00  0.00    -0.382 A  
HETATM   32  C   UNL     1     -11.173  10.360  68.270  1.00  0.00    -0.267 A  
BRANCH  29  33
HETATM   33  O   UNL     1      -9.857   7.551  70.251  1.00  0.00    -0.183 OA 
HETATM   34  C   UNL     1     -10.288   6.799  71.382  1.00  0.00    -0.202 C  
ENDBRANCH  29  33
BRANCH  30  35
HETATM   35  O   UNL     1      -9.529   8.550  67.854  1.00  0.00    -0.138 OA 
HETATM   36  C   UNL     1     -10.005   7.724  66.800  1.00  0.00    -0.261 C  
ENDBRANCH  30  35
BRANCH  32  37
HETATM   37  O   UNL     1     -11.005  10.865  67.009  1.00  0.00    -0.273 OA 
HETATM   38  C   UNL     1     -11.267  12.247  66.792  1.00  0.00    -0.318 C  
ENDBRANCH  32  37
ENDBRANCH  25  27
ENDBRANCH  24  25
ENDBRANCH  23  24
ENDBRANCH  22  23
ENDBRANCH  21  22
ENDBRANCH  19  21
ENDBRANCH  18  19
ENDBRANCH  17  18
ENDBRANCH  15  17
ENDBRANCH  14  15
ENDBRANCH  13  14
ENDBRANCH  12  13
ENDBRANCH  11  12
ENDBRANCH   9  11
ENDBRANCH   5   9
BRANCH   8  39
HETATM   39  O   UNL     1      -5.578   7.615  66.832  1.00  0.00    -0.029 OA 
HETATM   40  C   UNL     1      -5.344   7.632  68.232  1.00  0.00    -0.027 C  
ENDBRANCH   8  39
BRANCH   7  41
HETATM   41  O   UNL     1      -6.415   7.711  64.075  1.00  0.00    -0.052 OA 
HETATM   42  C   UNL     1      -5.271   7.719  63.238  1.00  0.00    -0.042 C  
ENDBRANCH   7  41
ENDBRANCH   2   3
TORSDOF 21
ENDMDL
MODEL      112
REMARK 921   NORMALIZED FREE ENERGY PREDICTED BY IDOCK:   -4.40 KCAL/MOL
REMARK 922        TOTAL FREE ENERGY PREDICTED BY IDOCK:  -12.66 KCAL/MOL
REMARK 923 INTER-LIGAND FREE ENERGY PREDICTED BY IDOCK:  -10.20 KCAL/MOL
REMARK 924 INTRA-LIGAND FREE ENERGY PREDICTED BY IDOCK:   -2.46 KCAL/MOL
REMARK 927      BINDING AFFINITY PREDICTED BY RF-SCORE:    0.00 PKD
ROOT
HETATM    1  C   UNL     1     -13.912  14.961  72.130  1.00  0.00    -0.496 C  
HETATM    2  O   UNL     1     -12.562  14.572  71.888  1.00  0.00    -0.324 OA 
ENDROOT
BRANCH   2   3
HETATM    3  C   UNL     1     -12.125  14.631  70.587  1.00  0.00    -0.317 A  
HETATM    4  C   UNL     1     -11.498  15.786  70.102  1.00  0.00    -0.366 A  
HETATM    5  C   UNL     1     -11.044  15.872  68.785  1.00  0.00    -0.328 A  
HETATM    6  C   UNL     1     -11.211  14.782  67.939  1.00  0.00    -0.318 A  
HETATM    7  C   UNL     1     -12.265  13.503  69.746  1.00  0.00    -0.269 A  
HETATM    8  C   UNL     1     -11.809  13.596  68.407  1.00  0.00    -0.372 A  
BRANCH   5   9
HETATM    9  C   UNL     1     -10.409  17.150  68.380  1.00  0.00    -0.362 C  
HETATM   10  O   UNL     1     -10.957  17.944  67.628  1.00  0.00    -0.310 OA 
BRANCH   9  11
HETATM   11  O   UNL     1      -9.166  17.289  68.904  1.00  0.00    -0.256 OA 
BRANCH  11  12
HETATM   12  C   UNL     1      -8.104  16.931  68.002  1.00  0.00    -0.194 C  
BRANCH  12  13
HETATM   13  C   UNL     1      -7.329  15.745  68.570  1.00  0.00    -0.124 C  
BRANCH  13  14
HETATM   14  C   UNL     1      -7.525  14.485  67.726  1.00  0.00    -0.169 C  
BRANCH  14  15
HETATM   15  N   UNL     1      -6.257  13.826  67.351  1.00  0.00    -0.322 NA 
HETATM   16  C   UNL     1      -5.144  14.287  68.191  1.00  0.00    -0.116 C  
BRANCH  15  17
HETATM   17  C   UNL     1      -6.439  12.352  67.443  1.00  0.00    -0.154 C  
BRANCH  17  18
HETATM   18  C   UNL     1      -7.544  11.912  68.433  1.00  0.00    -0.120 C  
BRANCH  18  19
HETATM   19  N   UNL     1      -7.986  10.502  68.333  1.00  0.00    -0.111 NA 
HETATM   20  C   UNL     1      -8.883  10.150  69.439  1.00  0.00    -0.185 C  
BRANCH  19  21
HETATM   21  C   UNL     1      -8.681  10.263  67.048  1.00  0.00    -0.129 C  
BRANCH  21  22
HETATM   22  C   UNL     1     -10.058   9.612  67.213  1.00  0.00    -0.267 C  
BRANCH  22  23
HETATM   23  C   UNL     1     -10.150   8.287  66.467  1.00  0.00    -0.233 C  
BRANCH  23  24
HETATM   24  O   UNL     1      -9.556   7.246  67.261  1.00  0.00    -0.140 OA 
BRANCH  24  25
HETATM   25  C   UNL     1     -10.319   6.138  67.442  1.00  0.00    -0.211 C  
HETATM   26  O   UNL     1     -10.787   5.436  66.561  1.00  0.00    -0.287 OA 
BRANCH  25  27
HETATM   27  C   UNL     1     -10.499   5.864  68.892  1.00  0.00    -0.325 A  
HETATM   28  C   UNL     1      -9.830   4.770  69.442  1.00  0.00    -0.282 A  
HETATM   29  C   UNL     1     -10.002   4.445  70.788  1.00  0.00    -0.177 A  
HETATM   30  C   UNL     1     -10.870   5.215  71.601  1.00  0.00    -0.054 A  
HETATM   31  C   UNL     1     -11.324   6.654  69.700  1.00  0.00    -0.387 A  
HETATM   32  C   UNL     1     -11.530   6.337  71.051  1.00  0.00    -0.306 A  
BRANCH  29  33
HETATM   33  O   UNL     1      -9.394   3.358  71.374  1.00  0.00    -0.113 OA 
HETATM   34  C   UNL     1      -7.991   3.462  71.600  1.00  0.00    -0.058 C  
ENDBRANCH  29  33
BRANCH  30  35
HETATM   35  O   UNL     1     -11.032   4.736  72.879  1.00  0.00    -0.232 OA 
HETATM   36  C   UNL     1     -10.293   5.344  73.929  1.00  0.00    -0.259 C  
ENDBRANCH  30  35
BRANCH  32  37
HETATM   37  O   UNL     1     -12.373   7.060  71.852  1.00  0.00    -0.324 OA 
HETATM   38  C   UNL     1     -11.855   8.203  72.523  1.00  0.00    -0.376 C  
ENDBRANCH  32  37
ENDBRANCH  25  27
ENDBRANCH  24  25
ENDBRANCH  23  24
ENDBRANCH  22  23
ENDBRANCH  21  22
ENDBRANCH  19  21
ENDBRANCH  18  19
ENDBRANCH  17  18
ENDBRANCH  15  17
ENDBRANCH  14  15
ENDBRANCH  13  14
ENDBRANCH  12  13
ENDBRANCH  11  12
ENDBRANCH   9  11
ENDBRANCH   5   9
BRANCH   8  39
HETATM   39  O   UNL     1     -11.859  12.646  67.414  1.00  0.00    -0.364 OA 
HETATM   40  C   UNL     1     -12.270  13.012  66.106  1.00  0.00    -0.360 C  
ENDBRANCH   8  39
BRANCH   7  41
HETATM   41  O   UNL     1     -12.824  12.306  70.109  1.00  0.00     0.172 OA 
HETATM   42  C   UNL     1     -12.095  11.360  70.871  1.00  0.00    -0.277 C  
ENDBRANCH   7  41
ENDBRANCH   2   3
TORSDOF 21
ENDMDL
MODEL      113
REMARK 921   NORMALIZED FREE ENERGY PREDICTED BY IDOCK:   -4.40 KCAL/MOL
REMARK 922        TOTAL FREE ENERGY PREDICTED BY IDOCK:  -12.66 KCAL/MOL
REMARK 923 INTER-LIGAND FREE ENERGY PREDICTED BY IDOCK:  -10.31 KCAL/MOL
REMARK 924 INTRA-LIGAND FREE ENERGY PREDICTED BY IDOCK:   -2.35 KCAL/MOL
REMARK 927      BINDING AFFINITY PREDICTED BY RF-SCORE:    0.00 PKD
ROOT
HETATM    1  C   UNL     1     -11.271  15.457  69.156  1.00  0.00    -0.287 C  
HETATM    2  O   UNL     1     -12.273  14.891  69.998  1.00  0.00    -0.313 OA 
ENDROOT
BRANCH   2   3
HETATM    3  C   UNL     1     -12.314  13.520  70.076  1.00  0.00    -0.249 A  
HETATM    4  C   UNL     1     -11.765  12.736  69.054  1.00  0.00    -0.371 A  
HETATM    5  C   UNL     1     -11.792  11.342  69.108  1.00  0.00    -0.423 A  
HETATM    6  C   UNL     1     -12.372  10.718  70.207  1.00  0.00    -0.423 A  
HETATM    7  C   UNL     1     -12.871  12.897  71.216  1.00  0.00    -0.270 A  
HETATM    8  C   UNL     1     -12.904  11.480  71.265  1.00  0.00    -0.360 A  
BRANCH   5   9
HETATM    9  C   UNL     1     -11.193  10.616  67.961  1.00  0.00    -0.307 C  
HETATM   10  O   UNL     1     -11.027  11.141  66.869  1.00  0.00    -0.278 OA 
BRANCH   9  11
HETATM   11  O   UNL     1     -10.905   9.327  68.269  1.00  0.00    -0.179 OA 
BRANCH  11  12
HETATM   12  C   UNL     1      -9.668   8.851  67.709  1.00  0.00    -0.160 C  
BRANCH  12  13
HETATM   13  C   UNL     1      -9.963   7.826  66.617  1.00  0.00    -0.299 C  
BRANCH  13  14
HETATM   14  C   UNL     1      -9.584   6.411  67.053  1.00  0.00    -0.142 C  
BRANCH  14  15
HETATM   15  N   UNL     1      -8.519   6.377  68.078  1.00  0.00    -0.118 NA 
HETATM   16  C   UNL     1      -8.828   5.412  69.141  1.00  0.00    -0.101 C  
BRANCH  15  17
HETATM   17  C   UNL     1      -7.226   6.064  67.412  1.00  0.00    -0.076 C  
BRANCH  17  18
HETATM   18  C   UNL     1      -7.299   6.039  65.867  1.00  0.00    -0.076 C  
BRANCH  18  19
HETATM   19  N   UNL     1      -6.481   7.050  65.157  1.00  0.00    -0.042 NA 
HETATM   20  C   UNL     1      -7.247   7.689  64.082  1.00  0.00    -0.080 C  
BRANCH  19  21
HETATM   21  C   UNL     1      -6.004   8.088  66.099  1.00  0.00    -0.041 C  
BRANCH  21  22
HETATM   22  C   UNL     1      -6.526   9.491  65.773  1.00  0.00    -0.074 C  
BRANCH  22  23
HETATM   23  C   UNL     1      -6.669  10.347  67.025  1.00  0.00    -0.080 C  
BRANCH  23  24
HETATM   24  O   UNL     1      -7.322  11.583  66.690  1.00  0.00    -0.133 OA 
BRANCH  24  25
HETATM   25  C   UNL     1      -7.765  12.317  67.742  1.00  0.00    -0.139 C  
HETATM   26  O   UNL     1      -7.812  11.950  68.905  1.00  0.00    -0.090 OA 
BRANCH  25  27
HETATM   27  C   UNL     1      -8.177  13.673  67.292  1.00  0.00    -0.164 A  
HETATM   28  C   UNL     1      -9.321  13.783  66.501  1.00  0.00    -0.249 A  
HETATM   29  C   UNL     1      -9.723  15.028  66.017  1.00  0.00    -0.328 A  
HETATM   30  C   UNL     1      -8.963  16.186  66.312  1.00  0.00    -0.344 A  
HETATM   31  C   UNL     1      -7.445  14.818  67.622  1.00  0.00    -0.203 A  
HETATM   32  C   UNL     1      -7.816  16.079  67.131  1.00  0.00    -0.209 A  
BRANCH  29  33
HETATM   33  O   UNL     1     -10.824  15.190  65.205  1.00  0.00    -0.347 OA 
HETATM   34  C   UNL     1     -11.421  13.998  64.703  1.00  0.00    -0.383 C  
ENDBRANCH  29  33
BRANCH  30  35
HETATM   35  O   UNL     1      -9.404  17.333  65.696  1.00  0.00    -0.506 OA 
HETATM   36  C   UNL     1     -10.479  18.049  66.288  1.00  0.00    -0.335 C  
ENDBRANCH  30  35
BRANCH  32  37
HETATM   37  O   UNL     1      -7.090  17.209  67.394  1.00  0.00    -0.144 OA 
HETATM   38  C   UNL     1      -5.771  17.304  66.869  1.00  0.00    -0.178 C  
ENDBRANCH  32  37
ENDBRANCH  25  27
ENDBRANCH  24  25
ENDBRANCH  23  24
ENDBRANCH  22  23
ENDBRANCH  21  22
ENDBRANCH  19  21
ENDBRANCH  18  19
ENDBRANCH  17  18
ENDBRANCH  15  17
ENDBRANCH  14  15
ENDBRANCH  13  14
ENDBRANCH  12  13
ENDBRANCH  11  12
ENDBRANCH   9  11
ENDBRANCH   5   9
BRANCH   8  39
HETATM   39  O   UNL     1     -13.410  10.666  72.251  1.00  0.00    -0.386 OA 
HETATM   40  C   UNL     1     -13.557   9.274  72.012  1.00  0.00    -0.452 C  
ENDBRANCH   8  39
BRANCH   7  41
HETATM   41  O   UNL     1     -13.406  13.548  72.296  1.00  0.00    -0.460 OA 
HETATM   42  C   UNL     1     -14.403  14.542  72.128  1.00  0.00    -0.510 C  
ENDBRANCH   7  41
ENDBRANCH   2   3
TORSDOF 21
ENDMDL
MODEL      114
REMARK 921   NORMALIZED FREE ENERGY PREDICTED BY IDOCK:   -4.39 KCAL/MOL
REMARK 922        TOTAL FREE ENERGY PREDICTED BY IDOCK:  -12.65 KCAL/MOL
REMARK 923 INTER-LIGAND FREE ENERGY PREDICTED BY IDOCK:   -9.27 KCAL/MOL
REMARK 924 INTRA-LIGAND FREE ENERGY PREDICTED BY IDOCK:   -3.38 KCAL/MOL
REMARK 927      BINDING AFFINITY PREDICTED BY RF-SCORE:    0.00 PKD
ROOT
HETATM    1  C   UNL     1     -11.847  12.644  68.872  1.00  0.00    -0.302 C  
HETATM    2  O   UNL     1     -12.265  12.639  67.509  1.00  0.00    -0.389 OA 
ENDROOT
BRANCH   2   3
HETATM    3  C   UNL     1     -11.511  11.896  66.633  1.00  0.00    -0.314 A  
HETATM    4  C   UNL     1     -11.023  10.639  67.008  1.00  0.00    -0.274 A  
HETATM    5  C   UNL     1     -10.256   9.863  66.138  1.00  0.00    -0.277 A  
HETATM    6  C   UNL     1      -9.977  10.349  64.865  1.00  0.00    -0.409 A  
HETATM    7  C   UNL     1     -11.266  12.383  65.328  1.00  0.00    -0.318 A  
HETATM    8  C   UNL     1     -10.480  11.596  64.448  1.00  0.00    -0.322 A  
BRANCH   5   9
HETATM    9  C   UNL     1      -9.782   8.554  66.651  1.00  0.00    -0.249 C  
HETATM   10  O   UNL     1      -8.654   8.135  66.432  1.00  0.00    -0.125 OA 
BRANCH   9  11
HETATM   11  O   UNL     1     -10.751   7.895  67.333  1.00  0.00    -0.272 OA 
BRANCH  11  12
HETATM   12  C   UNL     1     -10.543   6.474  67.424  1.00  0.00    -0.298 C  
BRANCH  12  13
HETATM   13  C   UNL     1     -10.427   6.067  68.890  1.00  0.00    -0.309 C  
BRANCH  13  14
HETATM   14  C   UNL     1      -9.896   4.641  69.040  1.00  0.00    -0.154 C  
BRANCH  14  15
HETATM   15  N   UNL     1      -9.075   4.445  70.254  1.00  0.00    -0.092 NA 
HETATM   16  C   UNL     1      -9.678   3.453  71.154  1.00  0.00    -0.152 C  
BRANCH  15  17
HETATM   17  C   UNL     1      -7.702   4.048  69.842  1.00  0.00    -0.052 C  
BRANCH  17  18
HETATM   18  C   UNL     1      -6.702   5.226  69.752  1.00  0.00    -0.051 C  
BRANCH  18  19
HETATM   19  N   UNL     1      -5.752   5.191  68.615  1.00  0.00    -0.015 NA 
HETATM   20  C   UNL     1      -6.232   4.301  67.553  1.00  0.00    -0.036 C  
BRANCH  19  21
HETATM   21  C   UNL     1      -5.554   6.549  68.060  1.00  0.00    -0.008 C  
BRANCH  21  22
HETATM   22  C   UNL     1      -5.523   7.645  69.130  1.00  0.00    -0.019 C  
BRANCH  22  23
HETATM   23  C   UNL     1      -6.099   8.957  68.614  1.00  0.00    -0.045 C  
BRANCH  23  24
HETATM   24  O   UNL     1      -6.550   9.754  69.723  1.00  0.00    -0.048 OA 
BRANCH  24  25
HETATM   25  C   UNL     1      -7.809  10.248  69.617  1.00  0.00    -0.160 C  
HETATM   26  O   UNL     1      -8.149  11.214  68.954  1.00  0.00    -0.144 OA 
BRANCH  25  27
HETATM   27  C   UNL     1      -8.757   9.426  70.414  1.00  0.00    -0.278 A  
HETATM   28  C   UNL     1     -10.121   9.704  70.305  1.00  0.00    -0.331 A  
HETATM   29  C   UNL     1     -11.046   8.991  71.067  1.00  0.00    -0.289 A  
HETATM   30  C   UNL     1     -10.607   7.990  71.968  1.00  0.00    -0.248 A  
HETATM   31  C   UNL     1      -8.320   8.410  71.271  1.00  0.00    -0.174 A  
HETATM   32  C   UNL     1      -9.229   7.692  72.063  1.00  0.00    -0.138 A  
BRANCH  29  33
HETATM   33  O   UNL     1     -12.398   9.247  71.024  1.00  0.00    -0.291 OA 
HETATM   34  C   UNL     1     -12.841  10.426  71.690  1.00  0.00    -0.474 C  
ENDBRANCH  29  33
BRANCH  30  35
HETATM   35  O   UNL     1     -11.603   7.430  72.732  1.00  0.00    -0.286 OA 
HETATM   36  C   UNL     1     -11.765   6.019  72.704  1.00  0.00    -0.175 C  
ENDBRANCH  30  35
BRANCH  32  37
HETATM   37  O   UNL     1      -8.825   6.729  72.948  1.00  0.00    -0.125 OA 
HETATM   38  C   UNL     1      -8.245   7.142  74.180  1.00  0.00    -0.139 C  
ENDBRANCH  32  37
ENDBRANCH  25  27
ENDBRANCH  24  25
ENDBRANCH  23  24
ENDBRANCH  22  23
ENDBRANCH  21  22
ENDBRANCH  19  21
ENDBRANCH  18  19
ENDBRANCH  17  18
ENDBRANCH  15  17
ENDBRANCH  14  15
ENDBRANCH  13  14
ENDBRANCH  12  13
ENDBRANCH  11  12
ENDBRANCH   9  11
ENDBRANCH   5   9
BRANCH   8  39
HETATM   39  O   UNL     1     -10.099  11.873  63.156  1.00  0.00    -0.425 OA 
HETATM   40  C   UNL     1      -9.200  11.004  62.483  1.00  0.00    -0.299 C  
ENDBRANCH   8  39
BRANCH   7  41
HETATM   41  O   UNL     1     -11.716  13.576  64.827  1.00  0.00    -0.343 OA 
HETATM   42  C   UNL     1     -10.891  14.729  64.838  1.00  0.00    -0.416 C  
ENDBRANCH   7  41
ENDBRANCH   2   3
TORSDOF 21
ENDMDL
MODEL      115
REMARK 921   NORMALIZED FREE ENERGY PREDICTED BY IDOCK:   -4.39 KCAL/MOL
REMARK 922        TOTAL FREE ENERGY PREDICTED BY IDOCK:  -12.63 KCAL/MOL
REMARK 923 INTER-LIGAND FREE ENERGY PREDICTED BY IDOCK:   -9.97 KCAL/MOL
REMARK 924 INTRA-LIGAND FREE ENERGY PREDICTED BY IDOCK:   -2.66 KCAL/MOL
REMARK 927      BINDING AFFINITY PREDICTED BY RF-SCORE:    0.00 PKD
ROOT
HETATM    1  C   UNL     1     -12.465  14.422  64.314  1.00  0.00    -0.272 C  
HETATM    2  O   UNL     1     -11.524  15.472  64.526  1.00  0.00    -0.408 OA 
ENDROOT
BRANCH   2   3
HETATM    3  C   UNL     1     -10.482  15.208  65.381  1.00  0.00    -0.393 A  
HETATM    4  C   UNL     1     -10.191  13.890  65.756  1.00  0.00    -0.331 A  
HETATM    5  C   UNL     1      -9.138  13.594  66.623  1.00  0.00    -0.189 A  
HETATM    6  C   UNL     1      -8.356  14.631  67.117  1.00  0.00    -0.236 A  
HETATM    7  C   UNL     1      -9.668  16.266  65.847  1.00  0.00    -0.321 A  
HETATM    8  C   UNL     1      -8.604  15.962  66.733  1.00  0.00    -0.266 A  
BRANCH   5   9
HETATM    9  C   UNL     1      -8.934  12.164  66.961  1.00  0.00    -0.201 C  
HETATM   10  O   UNL     1      -9.849  11.352  66.953  1.00  0.00    -0.190 OA 
BRANCH   9  11
HETATM   11  O   UNL     1      -7.650  11.902  67.309  1.00  0.00    -0.137 OA 
BRANCH  11  12
HETATM   12  C   UNL     1      -7.470  11.592  68.703  1.00  0.00    -0.116 C  
BRANCH  12  13
HETATM   13  C   UNL     1      -7.311  10.084  68.874  1.00  0.00    -0.080 C  
BRANCH  13  14
HETATM   14  C   UNL     1      -7.414   9.668  70.342  1.00  0.00    -0.158 C  
BRANCH  14  15
HETATM   15  N   UNL     1      -8.589   8.819  70.631  1.00  0.00    -0.160 NA 
HETATM   16  C   UNL     1      -8.649   8.453  72.052  1.00  0.00    -0.191 C  
BRANCH  15  17
HETATM   17  C   UNL     1      -9.816   9.541  70.199  1.00  0.00    -0.244 C  
BRANCH  17  18
HETATM   18  C   UNL     1     -10.922   9.612  71.278  1.00  0.00    -0.329 C  
BRANCH  18  19
HETATM   19  N   UNL     1     -11.977  10.631  71.066  1.00  0.00    -0.350 NA 
HETATM   20  C   UNL     1     -11.817  11.295  69.769  1.00  0.00    -0.364 C  
BRANCH  19  21
HETATM   21  C   UNL     1     -13.320  10.012  71.134  1.00  0.00    -0.305 C  
BRANCH  21  22
HETATM   22  C   UNL     1     -13.490   9.056  72.319  1.00  0.00    -0.529 C  
BRANCH  22  23
HETATM   23  C   UNL     1     -14.123   7.736  71.895  1.00  0.00    -0.360 C  
BRANCH  23  24
HETATM   24  O   UNL     1     -13.226   7.032  71.020  1.00  0.00    -0.273 OA 
BRANCH  24  25
HETATM   25  C   UNL     1     -12.316   6.233  71.632  1.00  0.00    -0.022 C  
HETATM   26  O   UNL     1     -12.398   5.786  72.764  1.00  0.00    -0.045 OA 
BRANCH  25  27
HETATM   27  C   UNL     1     -11.182   5.941  70.715  1.00  0.00    -0.281 A  
HETATM   28  C   UNL     1     -10.069   5.280  71.236  1.00  0.00    -0.278 A  
HETATM   29  C   UNL     1      -8.962   5.023  70.427  1.00  0.00    -0.124 A  
HETATM   30  C   UNL     1      -8.954   5.447  69.075  1.00  0.00    -0.107 A  
HETATM   31  C   UNL     1     -11.198   6.325  69.370  1.00  0.00    -0.489 A  
HETATM   32  C   UNL     1     -10.090   6.097  68.540  1.00  0.00    -0.162 A  
BRANCH  29  33
HETATM   33  O   UNL     1      -7.825   4.405  70.897  1.00  0.00    -0.065 OA 
HETATM   34  C   UNL     1      -7.017   5.162  71.793  1.00  0.00    -0.065 C  
ENDBRANCH  29  33
BRANCH  30  35
HETATM   35  O   UNL     1      -7.770   5.226  68.412  1.00  0.00    -0.079 OA 
HETATM   36  C   UNL     1      -6.923   6.336  68.152  1.00  0.00    -0.080 C  
ENDBRANCH  30  35
BRANCH  32  37
HETATM   37  O   UNL     1     -10.056   6.509  67.235  1.00  0.00    -0.136 OA 
HETATM   38  C   UNL     1     -10.473   7.835  66.932  1.00  0.00    -0.317 C  
ENDBRANCH  32  37
ENDBRANCH  25  27
ENDBRANCH  24  25
ENDBRANCH  23  24
ENDBRANCH  22  23
ENDBRANCH  21  22
ENDBRANCH  19  21
ENDBRANCH  18  19
ENDBRANCH  17  18
ENDBRANCH  15  17
ENDBRANCH  14  15
ENDBRANCH  13  14
ENDBRANCH  12  13
ENDBRANCH  11  12
ENDBRANCH   9  11
ENDBRANCH   5   9
BRANCH   8  39
HETATM   39  O   UNL     1      -7.706  16.820  67.324  1.00  0.00    -0.156 OA 
HETATM   40  C   UNL     1      -7.616  16.884  68.739  1.00  0.00    -0.243 C  
ENDBRANCH   8  39
BRANCH   7  41
HETATM   41  O   UNL     1      -9.824  17.589  65.526  1.00  0.00    -0.508 OA 
HETATM   42  C   UNL     1     -10.507  18.475  66.397  1.00  0.00    -0.406 C  
ENDBRANCH   7  41
ENDBRANCH   2   3
TORSDOF 21
ENDMDL
MODEL      116
REMARK 921   NORMALIZED FREE ENERGY PREDICTED BY IDOCK:   -4.37 KCAL/MOL
REMARK 922        TOTAL FREE ENERGY PREDICTED BY IDOCK:  -12.59 KCAL/MOL
REMARK 923 INTER-LIGAND FREE ENERGY PREDICTED BY IDOCK:  -10.26 KCAL/MOL
REMARK 924 INTRA-LIGAND FREE ENERGY PREDICTED BY IDOCK:   -2.33 KCAL/MOL
REMARK 927      BINDING AFFINITY PREDICTED BY RF-SCORE:    0.00 PKD
ROOT
HETATM    1  C   UNL     1      -9.222  17.091  68.836  1.00  0.00    -0.215 C  
HETATM    2  O   UNL     1     -10.514  17.017  69.436  1.00  0.00    -0.321 OA 
ENDROOT
BRANCH   2   3
HETATM    3  C   UNL     1     -11.126  15.788  69.436  1.00  0.00    -0.314 A  
HETATM    4  C   UNL     1     -11.347  15.106  68.232  1.00  0.00    -0.338 A  
HETATM    5  C   UNL     1     -11.967  13.856  68.204  1.00  0.00    -0.385 A  
HETATM    6  C   UNL     1     -12.367  13.271  69.400  1.00  0.00    -0.086 A  
HETATM    7  C   UNL     1     -11.494  15.185  70.661  1.00  0.00    -0.305 A  
HETATM    8  C   UNL     1     -12.130  13.918  70.628  1.00  0.00    -0.347 A  
BRANCH   5   9
HETATM    9  C   UNL     1     -12.161  13.237  66.870  1.00  0.00    -0.257 C  
HETATM   10  O   UNL     1     -12.256  13.901  65.848  1.00  0.00    -0.412 OA 
BRANCH   9  11
HETATM   11  O   UNL     1     -12.259  11.886  66.946  1.00  0.00    -0.493 OA 
BRANCH  11  12
HETATM   12  C   UNL     1     -11.102  11.244  67.512  1.00  0.00    -0.286 C  
BRANCH  12  13
HETATM   13  C   UNL     1     -10.023  11.100  66.442  1.00  0.00    -0.257 C  
BRANCH  13  14
HETATM   14  C   UNL     1     -10.083   9.733  65.761  1.00  0.00    -0.238 C  
BRANCH  14  15
HETATM   15  N   UNL     1      -9.353   8.677  66.494  1.00  0.00    -0.183 NA 
HETATM   16  C   UNL     1     -10.276   7.702  67.090  1.00  0.00    -0.290 C  
BRANCH  15  17
HETATM   17  C   UNL     1      -8.393   8.026  65.563  1.00  0.00    -0.147 C  
BRANCH  17  18
HETATM   18  C   UNL     1      -7.632   9.013  64.646  1.00  0.00    -0.107 C  
BRANCH  18  19
HETATM   19  N   UNL     1      -6.191   9.198  64.937  1.00  0.00    -0.065 NA 
HETATM   20  C   UNL     1      -5.698  10.462  64.382  1.00  0.00    -0.132 C  
BRANCH  19  21
HETATM   21  C   UNL     1      -5.948   9.178  66.397  1.00  0.00    -0.059 C  
BRANCH  21  22
HETATM   22  C   UNL     1      -5.786  10.575  67.005  1.00  0.00    -0.047 C  
BRANCH  22  23
HETATM   23  C   UNL     1      -6.975  10.953  67.879  1.00  0.00    -0.073 C  
BRANCH  23  24
HETATM   24  O   UNL     1      -7.304   9.854  68.745  1.00  0.00    -0.074 OA 
BRANCH  24  25
HETATM   25  C   UNL     1      -7.181  10.098  70.075  1.00  0.00    -0.161 C  
HETATM   26  O   UNL     1      -6.319  10.780  70.604  1.00  0.00    -0.305 OA 
BRANCH  25  27
HETATM   27  C   UNL     1      -8.275   9.429  70.827  1.00  0.00    -0.173 A  
HETATM   28  C   UNL     1      -7.932   8.659  71.940  1.00  0.00    -0.133 A  
HETATM   29  C   UNL     1      -8.918   7.975  72.652  1.00  0.00    -0.218 A  
HETATM   30  C   UNL     1     -10.271   8.045  72.241  1.00  0.00    -0.260 A  
HETATM   31  C   UNL     1      -9.616   9.537  70.442  1.00  0.00    -0.326 A  
HETATM   32  C   UNL     1     -10.623   8.843  71.128  1.00  0.00    -0.265 A  
BRANCH  29  33
HETATM   33  O   UNL     1      -8.632   7.175  73.735  1.00  0.00    -0.133 OA 
HETATM   34  C   UNL     1      -7.720   6.104  73.508  1.00  0.00    -0.095 C  
ENDBRANCH  29  33
BRANCH  30  35
HETATM   35  O   UNL     1     -11.131   7.250  72.961  1.00  0.00    -0.324 OA 
HETATM   36  C   UNL     1     -11.516   5.998  72.412  1.00  0.00    -0.308 C  
ENDBRANCH  30  35
BRANCH  32  37
HETATM   37  O   UNL     1     -11.936   8.887  70.742  1.00  0.00    -0.253 OA 
HETATM   38  C   UNL     1     -12.812   9.779  71.421  1.00  0.00    -0.392 C  
ENDBRANCH  32  37
ENDBRANCH  25  27
ENDBRANCH  24  25
ENDBRANCH  23  24
ENDBRANCH  22  23
ENDBRANCH  21  22
ENDBRANCH  19  21
ENDBRANCH  18  19
ENDBRANCH  17  18
ENDBRANCH  15  17
ENDBRANCH  14  15
ENDBRANCH  13  14
ENDBRANCH  12  13
ENDBRANCH  11  12
ENDBRANCH   9  11
ENDBRANCH   5   9
BRANCH   8  39
HETATM   39  O   UNL     1     -12.589  13.159  71.680  1.00  0.00    -0.247 OA 
HETATM   40  C   UNL     1     -13.877  13.408  72.221  1.00  0.00    -0.573 C  
ENDBRANCH   8  39
BRANCH   7  41
HETATM   41  O   UNL     1     -11.301  15.728  71.903  1.00  0.00    -0.380 OA 
HETATM   42  C   UNL     1     -12.341  16.431  72.562  1.00  0.00    -0.285 C  
ENDBRANCH   7  41
ENDBRANCH   2   3
TORSDOF 21
ENDMDL
MODEL      117
REMARK 921   NORMALIZED FREE ENERGY PREDICTED BY IDOCK:   -4.37 KCAL/MOL
REMARK 922        TOTAL FREE ENERGY PREDICTED BY IDOCK:  -12.58 KCAL/MOL
REMARK 923 INTER-LIGAND FREE ENERGY PREDICTED BY IDOCK:   -9.04 KCAL/MOL
REMARK 924 INTRA-LIGAND FREE ENERGY PREDICTED BY IDOCK:   -3.54 KCAL/MOL
REMARK 927      BINDING AFFINITY PREDICTED BY RF-SCORE:    0.00 PKD
ROOT
HETATM    1  C   UNL     1     -13.102  11.121  71.485  1.00  0.00    -0.385 C  
HETATM    2  O   UNL     1     -12.095  11.963  70.927  1.00  0.00    -0.321 OA 
ENDROOT
BRANCH   2   3
HETATM    3  C   UNL     1     -11.757  11.738  69.615  1.00  0.00    -0.344 A  
HETATM    4  C   UNL     1     -11.299  10.480  69.207  1.00  0.00    -0.325 A  
HETATM    5  C   UNL     1     -10.949  10.225  67.880  1.00  0.00    -0.350 A  
HETATM    6  C   UNL     1     -11.068  11.244  66.941  1.00  0.00    -0.339 A  
HETATM    7  C   UNL     1     -11.918  12.770  68.661  1.00  0.00    -0.233 A  
HETATM    8  C   UNL     1     -11.556  12.510  67.315  1.00  0.00    -0.367 A  
BRANCH   5   9
HETATM    9  C   UNL     1     -10.463   8.859  67.568  1.00  0.00    -0.269 C  
HETATM   10  O   UNL     1     -10.217   8.496  66.426  1.00  0.00    -0.273 OA 
BRANCH   9  11
HETATM   11  O   UNL     1     -10.373   8.086  68.678  1.00  0.00    -0.204 OA 
BRANCH  11  12
HETATM   12  C   UNL     1     -11.056   6.823  68.573  1.00  0.00    -0.142 C  
BRANCH  12  13
HETATM   13  C   UNL     1     -10.061   5.685  68.779  1.00  0.00    -0.245 C  
BRANCH  13  14
HETATM   14  C   UNL     1      -9.913   4.829  67.520  1.00  0.00    -0.144 C  
BRANCH  14  15
HETATM   15  N   UNL     1      -8.787   3.873  67.589  1.00  0.00    -0.107 NA 
HETATM   16  C   UNL     1      -9.264   2.484  67.587  1.00  0.00    -0.184 C  
BRANCH  15  17
HETATM   17  C   UNL     1      -7.866   4.139  66.451  1.00  0.00    -0.094 C  
BRANCH  17  18
HETATM   18  C   UNL     1      -6.820   5.245  66.728  1.00  0.00    -0.063 C  
BRANCH  18  19
HETATM   19  N   UNL     1      -6.807   6.383  65.780  1.00  0.00    -0.052 NA 
HETATM   20  C   UNL     1      -7.919   6.291  64.828  1.00  0.00    -0.124 C  
BRANCH  19  21
HETATM   21  C   UNL     1      -6.895   7.669  66.509  1.00  0.00    -0.062 C  
BRANCH  21  22
HETATM   22  C   UNL     1      -6.944   7.503  68.031  1.00  0.00    -0.072 C  
BRANCH  22  23
HETATM   23  C   UNL     1      -6.025   8.490  68.739  1.00  0.00    -0.044 C  
BRANCH  23  24
HETATM   24  O   UNL     1      -6.223   8.398  70.160  1.00  0.00    -0.031 OA 
BRANCH  24  25
HETATM   25  C   UNL     1      -7.306   9.056  70.645  1.00  0.00    -0.098 C  
HETATM   26  O   UNL     1      -7.604  10.217  70.416  1.00  0.00    -0.228 OA 
BRANCH  25  27
HETATM   27  C   UNL     1      -8.121   8.153  71.499  1.00  0.00    -0.141 A  
HETATM   28  C   UNL     1      -9.453   8.496  71.734  1.00  0.00    -0.328 A  
HETATM   29  C   UNL     1     -10.247   7.704  72.564  1.00  0.00    -0.243 A  
HETATM   30  C   UNL     1      -9.701   6.556  73.187  1.00  0.00    -0.158 A  
HETATM   31  C   UNL     1      -7.588   6.996  72.077  1.00  0.00    -0.091 A  
HETATM   32  C   UNL     1      -8.359   6.194  72.932  1.00  0.00    -0.116 A  
BRANCH  29  33
HETATM   33  O   UNL     1     -11.556   8.015  72.858  1.00  0.00    -0.397 OA 
HETATM   34  C   UNL     1     -12.522   7.691  71.862  1.00  0.00    -0.308 C  
ENDBRANCH  29  33
BRANCH  30  35
HETATM   35  O   UNL     1     -10.551   5.917  74.058  1.00  0.00    -0.270 OA 
HETATM   36  C   UNL     1     -11.128   4.682  73.658  1.00  0.00    -0.300 C  
ENDBRANCH  30  35
BRANCH  32  37
HETATM   37  O   UNL     1      -7.848   5.086  73.553  1.00  0.00    -0.098 OA 
HETATM   38  C   UNL     1      -7.571   3.934  72.764  1.00  0.00    -0.073 C  
ENDBRANCH  32  37
ENDBRANCH  25  27
ENDBRANCH  24  25
ENDBRANCH  23  24
ENDBRANCH  22  23
ENDBRANCH  21  22
ENDBRANCH  19  21
ENDBRANCH  18  19
ENDBRANCH  17  18
ENDBRANCH  15  17
ENDBRANCH  14  15
ENDBRANCH  13  14
ENDBRANCH  12  13
ENDBRANCH  11  12
ENDBRANCH   9  11
ENDBRANCH   5   9
BRANCH   8  39
HETATM   39  O   UNL     1     -11.606  13.357  66.233  1.00  0.00    -0.318 OA 
HETATM   40  C   UNL     1     -12.474  13.067  65.149  1.00  0.00    -0.496 C  
ENDBRANCH   8  39
BRANCH   7  41
HETATM   41  O   UNL     1     -12.389  14.029  68.924  1.00  0.00    -0.299 OA 
HETATM   42  C   UNL     1     -11.528  15.043  69.415  1.00  0.00    -0.300 C  
ENDBRANCH   7  41
ENDBRANCH   2   3
TORSDOF 21
ENDMDL
MODEL      118
REMARK 921   NORMALIZED FREE ENERGY PREDICTED BY IDOCK:   -4.36 KCAL/MOL
REMARK 922        TOTAL FREE ENERGY PREDICTED BY IDOCK:  -12.58 KCAL/MOL
REMARK 923 INTER-LIGAND FREE ENERGY PREDICTED BY IDOCK:   -9.70 KCAL/MOL
REMARK 924 INTRA-LIGAND FREE ENERGY PREDICTED BY IDOCK:   -2.88 KCAL/MOL
REMARK 927      BINDING AFFINITY PREDICTED BY RF-SCORE:    0.00 PKD
ROOT
HETATM    1  C   UNL     1     -14.214  14.177  72.244  1.00  0.00    -0.504 C  
HETATM    2  O   UNL     1     -13.741  12.838  72.375  1.00  0.00    -0.546 OA 
ENDROOT
BRANCH   2   3
HETATM    3  C   UNL     1     -12.946  12.360  71.362  1.00  0.00    -0.250 A  
HETATM    4  C   UNL     1     -12.497  13.217  70.350  1.00  0.00    -0.295 A  
HETATM    5  C   UNL     1     -11.688  12.758  69.309  1.00  0.00    -0.376 A  
HETATM    6  C   UNL     1     -11.313  11.419  69.284  1.00  0.00    -0.355 A  
HETATM    7  C   UNL     1     -12.538  11.006  71.367  1.00  0.00    -0.393 A  
HETATM    8  C   UNL     1     -11.722  10.541  70.305  1.00  0.00    -0.332 A  
BRANCH   5   9
HETATM    9  C   UNL     1     -11.287  13.754  68.286  1.00  0.00    -0.285 C  
HETATM   10  O   UNL     1     -12.104  14.384  67.630  1.00  0.00    -0.363 OA 
BRANCH   9  11
HETATM   11  O   UNL     1      -9.939  13.832  68.154  1.00  0.00    -0.228 OA 
BRANCH  11  12
HETATM   12  C   UNL     1      -9.459  13.525  66.833  1.00  0.00    -0.258 C  
BRANCH  12  13
HETATM   13  C   UNL     1      -8.549  12.301  66.892  1.00  0.00    -0.182 C  
BRANCH  13  14
HETATM   14  C   UNL     1      -9.062  11.173  65.996  1.00  0.00    -0.203 C  
BRANCH  14  15
HETATM   15  N   UNL     1      -8.069  10.100  65.776  1.00  0.00    -0.136 NA 
HETATM   16  C   UNL     1      -7.219   9.906  66.958  1.00  0.00    -0.090 C  
BRANCH  15  17
HETATM   17  C   UNL     1      -8.789   8.851  65.407  1.00  0.00    -0.193 C  
BRANCH  17  18
HETATM   18  C   UNL     1      -9.864   8.415  66.431  1.00  0.00    -0.240 C  
BRANCH  18  19
HETATM   19  N   UNL     1      -9.728   7.044  66.977  1.00  0.00    -0.157 NA 
HETATM   20  C   UNL     1     -11.036   6.488  67.340  1.00  0.00    -0.378 C  
BRANCH  19  21
HETATM   21  C   UNL     1      -9.077   6.153  65.990  1.00  0.00    -0.121 C  
BRANCH  21  22
HETATM   22  C   UNL     1      -9.653   4.733  65.979  1.00  0.00    -0.187 C  
BRANCH  22  23
HETATM   23  C   UNL     1      -8.650   3.712  66.500  1.00  0.00    -0.115 C  
BRANCH  23  24
HETATM   24  O   UNL     1      -8.293   4.036  67.854  1.00  0.00    -0.092 OA 
BRANCH  24  25
HETATM   25  C   UNL     1      -8.977   3.368  68.817  1.00  0.00    -0.129 C  
HETATM   26  O   UNL     1      -9.471   2.258  68.709  1.00  0.00    -0.170 OA 
BRANCH  25  27
HETATM   27  C   UNL     1      -9.031   4.172  70.067  1.00  0.00    -0.158 A  
HETATM   28  C   UNL     1     -10.006   3.852  71.012  1.00  0.00    -0.149 A  
HETATM   29  C   UNL     1     -10.126   4.606  72.180  1.00  0.00    -0.193 A  
HETATM   30  C   UNL     1      -9.269   5.710  72.406  1.00  0.00    -0.144 A  
HETATM   31  C   UNL     1      -8.153   5.236  70.303  1.00  0.00    -0.091 A  
HETATM   32  C   UNL     1      -8.266   6.022  71.460  1.00  0.00    -0.123 A  
BRANCH  29  33
HETATM   33  O   UNL     1     -11.091   4.356  73.130  1.00  0.00    -0.241 OA 
HETATM   34  C   UNL     1     -11.062   3.068  73.738  1.00  0.00    -0.203 C  
ENDBRANCH  29  33
BRANCH  30  35
HETATM   35  O   UNL     1      -9.551   6.432  73.542  1.00  0.00    -0.142 OA 
HETATM   36  C   UNL     1     -10.402   7.565  73.430  1.00  0.00    -0.350 C  
ENDBRANCH  30  35
BRANCH  32  37
HETATM   37  O   UNL     1      -7.456   7.100  71.693  1.00  0.00    -0.084 OA 
HETATM   38  C   UNL     1      -6.106   7.042  71.249  1.00  0.00    -0.037 C  
ENDBRANCH  32  37
ENDBRANCH  25  27
ENDBRANCH  24  25
ENDBRANCH  23  24
ENDBRANCH  22  23
ENDBRANCH  21  22
ENDBRANCH  19  21
ENDBRANCH  18  19
ENDBRANCH  17  18
ENDBRANCH  15  17
ENDBRANCH  14  15
ENDBRANCH  13  14
ENDBRANCH  12  13
ENDBRANCH  11  12
ENDBRANCH   9  11
ENDBRANCH   5   9
BRANCH   8  39
HETATM   39  O   UNL     1     -11.227   9.275  70.092  1.00  0.00    -0.248 OA 
HETATM   40  C   UNL     1      -9.826   9.071  69.999  1.00  0.00    -0.184 C  
ENDBRANCH   8  39
BRANCH   7  41
HETATM   41  O   UNL     1     -12.877  10.078  72.316  1.00  0.00    -0.354 OA 
HETATM   42  C   UNL     1     -13.874   9.103  72.059  1.00  0.00    -0.420 C  
ENDBRANCH   7  41
ENDBRANCH   2   3
TORSDOF 21
ENDMDL
MODEL      119
REMARK 921   NORMALIZED FREE ENERGY PREDICTED BY IDOCK:   -4.35 KCAL/MOL
REMARK 922        TOTAL FREE ENERGY PREDICTED BY IDOCK:  -12.56 KCAL/MOL
REMARK 923 INTER-LIGAND FREE ENERGY PREDICTED BY IDOCK:   -9.55 KCAL/MOL
REMARK 924 INTRA-LIGAND FREE ENERGY PREDICTED BY IDOCK:   -3.01 KCAL/MOL
REMARK 927      BINDING AFFINITY PREDICTED BY RF-SCORE:    0.00 PKD
ROOT
HETATM    1  C   UNL     1     -10.027  11.352  63.095  1.00  0.00    -0.372 C  
HETATM    2  O   UNL     1      -9.596  10.003  63.265  1.00  0.00    -0.270 OA 
ENDROOT
BRANCH   2   3
HETATM    3  C   UNL     1      -8.841   9.730  64.379  1.00  0.00    -0.227 A  
HETATM    4  C   UNL     1      -8.879  10.584  65.488  1.00  0.00    -0.200 A  
HETATM    5  C   UNL     1      -8.122  10.330  66.632  1.00  0.00    -0.119 A  
HETATM    6  C   UNL     1      -7.318   9.196  66.674  1.00  0.00    -0.086 A  
HETATM    7  C   UNL     1      -8.057   8.554  64.426  1.00  0.00    -0.163 A  
HETATM    8  C   UNL     1      -7.283   8.302  65.587  1.00  0.00    -0.071 A  
BRANCH   5   9
HETATM    9  C   UNL     1      -8.232  11.313  67.738  1.00  0.00    -0.120 C  
HETATM   10  O   UNL     1      -8.245  10.976  68.914  1.00  0.00    -0.145 OA 
BRANCH   9  11
HETATM   11  O   UNL     1      -8.354  12.583  67.278  1.00  0.00    -0.171 OA 
BRANCH  11  12
HETATM   12  C   UNL     1      -9.490  13.292  67.806  1.00  0.00    -0.208 C  
BRANCH  12  13
HETATM   13  C   UNL     1     -10.558  13.422  66.724  1.00  0.00    -0.277 C  
BRANCH  13  14
HETATM   14  C   UNL     1     -11.513  14.581  67.010  1.00  0.00    -0.370 C  
BRANCH  14  15
HETATM   15  N   UNL     1     -10.952  15.591  67.932  1.00  0.00    -0.307 NA 
HETATM   16  C   UNL     1     -10.665  16.853  67.235  1.00  0.00    -0.208 C  
BRANCH  15  17
HETATM   17  C   UNL     1     -11.904  15.791  69.058  1.00  0.00    -0.355 C  
BRANCH  17  18
HETATM   18  C   UNL     1     -11.224  16.011  70.430  1.00  0.00    -0.387 C  
BRANCH  18  19
HETATM   19  N   UNL     1     -11.442  14.953  71.445  1.00  0.00    -0.310 NA 
HETATM   20  C   UNL     1     -12.307  15.431  72.529  1.00  0.00    -0.384 C  
BRANCH  19  21
HETATM   21  C   UNL     1     -12.053  13.756  70.825  1.00  0.00    -0.319 C  
BRANCH  21  22
HETATM   22  C   UNL     1     -13.366  13.330  71.490  1.00  0.00    -0.330 C  
BRANCH  22  23
HETATM   23  C   UNL     1     -13.282  11.919  72.056  1.00  0.00    -0.356 C  
BRANCH  23  24
HETATM   24  O   UNL     1     -12.546  11.080  71.150  1.00  0.00    -0.370 OA 
BRANCH  24  25
HETATM   25  C   UNL     1     -12.624   9.746  71.390  1.00  0.00    -0.386 C  
HETATM   26  O   UNL     1     -13.595   9.150  71.827  1.00  0.00    -0.379 OA 
BRANCH  25  27
HETATM   27  C   UNL     1     -11.349   9.078  71.020  1.00  0.00    -0.362 A  
HETATM   28  C   UNL     1     -10.320   9.059  71.963  1.00  0.00    -0.287 A  
HETATM   29  C   UNL     1      -9.089   8.483  71.648  1.00  0.00    -0.229 A  
HETATM   30  C   UNL     1      -8.871   7.928  70.364  1.00  0.00    -0.142 A  
HETATM   31  C   UNL     1     -11.154   8.493  69.765  1.00  0.00    -0.067 A  
HETATM   32  C   UNL     1      -9.919   7.926  69.416  1.00  0.00    -0.189 A  
BRANCH  29  33
HETATM   33  O   UNL     1      -8.029   8.468  72.527  1.00  0.00    -0.278 OA 
HETATM   34  C   UNL     1      -8.349   8.277  73.902  1.00  0.00    -0.194 C  
ENDBRANCH  29  33
BRANCH  30  35
HETATM   35  O   UNL     1      -7.589   7.483  70.142  1.00  0.00    -0.084 OA 
HETATM   36  C   UNL     1      -7.326   6.091  70.259  1.00  0.00    -0.088 C  
ENDBRANCH  30  35
BRANCH  32  37
HETATM   37  O   UNL     1      -9.682   7.394  68.177  1.00  0.00    -0.147 OA 
HETATM   38  C   UNL     1     -10.685   7.535  67.177  1.00  0.00    -0.309 C  
ENDBRANCH  32  37
ENDBRANCH  25  27
ENDBRANCH  24  25
ENDBRANCH  23  24
ENDBRANCH  22  23
ENDBRANCH  21  22
ENDBRANCH  19  21
ENDBRANCH  18  19
ENDBRANCH  17  18
ENDBRANCH  15  17
ENDBRANCH  14  15
ENDBRANCH  13  14
ENDBRANCH  12  13
ENDBRANCH  11  12
ENDBRANCH   9  11
ENDBRANCH   5   9
BRANCH   8  39
HETATM   39  O   UNL     1      -6.440   7.247  65.846  1.00  0.00    -0.043 OA 
HETATM   40  C   UNL     1      -5.707   7.209  67.061  1.00  0.00    -0.022 C  
ENDBRANCH   8  39
BRANCH   7  41
HETATM   41  O   UNL     1      -7.962   7.622  63.426  1.00  0.00    -0.134 OA 
HETATM   42  C   UNL     1      -7.008   7.761  62.387  1.00  0.00    -0.081 C  
ENDBRANCH   7  41
ENDBRANCH   2   3
TORSDOF 21
ENDMDL
MODEL      120
REMARK 921   NORMALIZED FREE ENERGY PREDICTED BY IDOCK:   -4.35 KCAL/MOL
REMARK 922        TOTAL FREE ENERGY PREDICTED BY IDOCK:  -12.56 KCAL/MOL
REMARK 923 INTER-LIGAND FREE ENERGY PREDICTED BY IDOCK:  -10.41 KCAL/MOL
REMARK 924 INTRA-LIGAND FREE ENERGY PREDICTED BY IDOCK:   -2.14 KCAL/MOL
REMARK 927      BINDING AFFINITY PREDICTED BY RF-SCORE:    0.00 PKD
ROOT
HETATM    1  C   UNL     1     -11.128   6.454  67.068  1.00  0.00    -0.329 C  
HETATM    2  O   UNL     1     -10.015   5.583  67.250  1.00  0.00    -0.138 OA 
ENDROOT
BRANCH   2   3
HETATM    3  C   UNL     1      -9.376   5.639  68.464  1.00  0.00    -0.123 A  
HETATM    4  C   UNL     1      -9.802   4.834  69.527  1.00  0.00    -0.292 A  
HETATM    5  C   UNL     1      -9.170   4.871  70.771  1.00  0.00    -0.196 A  
HETATM    6  C   UNL     1      -8.088   5.724  70.956  1.00  0.00    -0.120 A  
HETATM    7  C   UNL     1      -8.252   6.481  68.629  1.00  0.00    -0.118 A  
HETATM    8  C   UNL     1      -7.617   6.523  69.897  1.00  0.00    -0.100 A  
BRANCH   5   9
HETATM    9  C   UNL     1      -9.718   3.983  71.826  1.00  0.00    -0.171 C  
HETATM   10  O   UNL     1      -9.995   2.811  71.616  1.00  0.00    -0.163 OA 
BRANCH   9  11
HETATM   11  O   UNL     1      -9.902   4.640  72.998  1.00  0.00    -0.138 OA 
BRANCH  11  12
HETATM   12  C   UNL     1     -11.154   5.344  73.087  1.00  0.00    -0.308 C  
BRANCH  12  13
HETATM   13  C   UNL     1     -10.892   6.845  73.172  1.00  0.00    -0.328 C  
BRANCH  13  14
HETATM   14  C   UNL     1     -11.933   7.645  72.388  1.00  0.00    -0.253 C  
BRANCH  14  15
HETATM   15  N   UNL     1     -11.448   8.971  71.951  1.00  0.00    -0.367 NA 
HETATM   16  C   UNL     1     -10.176   8.863  71.223  1.00  0.00    -0.291 C  
BRANCH  15  17
HETATM   17  C   UNL     1     -12.501   9.615  71.121  1.00  0.00    -0.332 C  
BRANCH  17  18
HETATM   18  C   UNL     1     -12.522  11.159  71.210  1.00  0.00    -0.360 C  
BRANCH  18  19
HETATM   19  N   UNL     1     -11.755  11.884  70.170  1.00  0.00    -0.295 NA 
HETATM   20  C   UNL     1     -11.810  11.178  68.886  1.00  0.00    -0.337 C  
BRANCH  19  21
HETATM   21  C   UNL     1     -12.283  13.256  69.995  1.00  0.00    -0.275 C  
BRANCH  21  22
HETATM   22  C   UNL     1     -11.340  14.176  69.213  1.00  0.00    -0.324 C  
BRANCH  22  23
HETATM   23  C   UNL     1     -11.986  14.695  67.935  1.00  0.00    -0.264 C  
BRANCH  23  24
HETATM   24  O   UNL     1     -11.245  14.225  66.797  1.00  0.00    -0.313 OA 
BRANCH  24  25
HETATM   25  C   UNL     1     -11.083  15.121  65.791  1.00  0.00    -0.330 C  
HETATM   26  O   UNL     1     -11.700  15.140  64.738  1.00  0.00    -0.384 OA 
BRANCH  25  27
HETATM   27  C   UNL     1     -10.044  16.122  66.151  1.00  0.00    -0.356 A  
HETATM   28  C   UNL     1      -8.736  15.674  66.337  1.00  0.00    -0.354 A  
HETATM   29  C   UNL     1      -7.735  16.567  66.720  1.00  0.00    -0.259 A  
HETATM   30  C   UNL     1      -8.044  17.932  66.938  1.00  0.00    -0.229 A  
HETATM   31  C   UNL     1     -10.347  17.477  66.323  1.00  0.00    -0.335 A  
HETATM   32  C   UNL     1      -9.364  18.392  66.727  1.00  0.00    -0.296 A  
BRANCH  29  33
HETATM   33  O   UNL     1      -6.436  16.173  66.951  1.00  0.00    -0.283 OA 
HETATM   34  C   UNL     1      -6.246  15.165  67.939  1.00  0.00    -0.156 C  
ENDBRANCH  29  33
BRANCH  30  35
HETATM   35  O   UNL     1      -6.997  18.689  67.408  1.00  0.00    -0.203 OA 
HETATM   36  C   UNL     1      -6.792  18.763  68.811  1.00  0.00    -0.285 C  
ENDBRANCH  30  35
BRANCH  32  37
HETATM   37  O   UNL     1      -9.642  19.713  66.955  1.00  0.00    -0.320 OA 
HETATM   38  C   UNL     1     -10.196  20.082  68.212  1.00  0.00    -0.392 C  
ENDBRANCH  32  37
ENDBRANCH  25  27
ENDBRANCH  24  25
ENDBRANCH  23  24
ENDBRANCH  22  23
ENDBRANCH  21  22
ENDBRANCH  19  21
ENDBRANCH  18  19
ENDBRANCH  17  18
ENDBRANCH  15  17
ENDBRANCH  14  15
ENDBRANCH  13  14
ENDBRANCH  12  13
ENDBRANCH  11  12
ENDBRANCH   9  11
ENDBRANCH   5   9
BRANCH   8  39
HETATM   39  O   UNL     1      -6.534   7.273  70.291  1.00  0.00    -0.041 OA 
HETATM   40  C   UNL     1      -6.401   7.662  71.650  1.00  0.00    -0.038 C  
ENDBRANCH   8  39
BRANCH   7  41
HETATM   41  O   UNL     1      -7.716   7.289  67.662  1.00  0.00    -0.107 OA 
HETATM   42  C   UNL     1      -8.132   8.637  67.523  1.00  0.00    -0.106 C  
ENDBRANCH   7  41
ENDBRANCH   2   3
TORSDOF 21
ENDMDL
MODEL      121
REMARK 921   NORMALIZED FREE ENERGY PREDICTED BY IDOCK:   -4.35 KCAL/MOL
REMARK 922        TOTAL FREE ENERGY PREDICTED BY IDOCK:  -12.55 KCAL/MOL
REMARK 923 INTER-LIGAND FREE ENERGY PREDICTED BY IDOCK:  -10.10 KCAL/MOL
REMARK 924 INTRA-LIGAND FREE ENERGY PREDICTED BY IDOCK:   -2.45 KCAL/MOL
REMARK 927      BINDING AFFINITY PREDICTED BY RF-SCORE:    0.00 PKD
ROOT
HETATM    1  C   UNL     1     -10.714   3.569  63.849  1.00  0.00    -0.241 C  
HETATM    2  O   UNL     1      -9.721   3.519  64.871  1.00  0.00    -0.165 OA 
ENDROOT
BRANCH   2   3
HETATM    3  C   UNL     1      -9.519   4.669  65.594  1.00  0.00    -0.174 A  
HETATM    4  C   UNL     1     -10.023   4.786  66.895  1.00  0.00    -0.245 A  
HETATM    5  C   UNL     1      -9.831   5.943  67.652  1.00  0.00    -0.133 A  
HETATM    6  C   UNL     1      -9.115   7.000  67.102  1.00  0.00    -0.137 A  
HETATM    7  C   UNL     1      -8.755   5.723  65.040  1.00  0.00    -0.031 A  
HETATM    8  C   UNL     1      -8.568   6.900  65.809  1.00  0.00    -0.131 A  
BRANCH   5   9
HETATM    9  C   UNL     1     -10.424   5.957  69.012  1.00  0.00    -0.265 C  
HETATM   10  O   UNL     1     -11.568   6.334  69.223  1.00  0.00    -0.363 OA 
BRANCH   9  11
HETATM   11  O   UNL     1      -9.540   5.551  69.956  1.00  0.00    -0.151 OA 
BRANCH  11  12
HETATM   12  C   UNL     1      -9.785   4.225  70.459  1.00  0.00    -0.212 C  
BRANCH  12  13
HETATM   13  C   UNL     1      -9.831   4.258  71.984  1.00  0.00    -0.241 C  
BRANCH  13  14
HETATM   14  C   UNL     1     -10.935   5.183  72.496  1.00  0.00    -0.215 C  
BRANCH  14  15
HETATM   15  N   UNL     1     -10.627   5.798  73.805  1.00  0.00    -0.267 NA 
HETATM   16  C   UNL     1      -9.489   5.133  74.454  1.00  0.00    -0.130 C  
BRANCH  15  17
HETATM   17  C   UNL     1     -10.372   7.249  73.602  1.00  0.00    -0.352 C  
BRANCH  17  18
HETATM   18  C   UNL     1     -11.093   7.853  72.374  1.00  0.00    -0.333 C  
BRANCH  18  19
HETATM   19  N   UNL     1     -10.472   9.060  71.780  1.00  0.00    -0.354 NA 
HETATM   20  C   UNL     1      -9.118   8.773  71.295  1.00  0.00    -0.234 C  
BRANCH  19  21
HETATM   21  C   UNL     1     -11.293   9.571  70.660  1.00  0.00    -0.301 C  
BRANCH  21  22
HETATM   22  C   UNL     1     -10.469  10.249  69.560  1.00  0.00    -0.268 C  
BRANCH  22  23
HETATM   23  C   UNL     1     -11.197  10.243  68.222  1.00  0.00    -0.232 C  
BRANCH  23  24
HETATM   24  O   UNL     1     -12.100  11.359  68.161  1.00  0.00    -0.623 OA 
BRANCH  24  25
HETATM   25  C   UNL     1     -11.851  12.264  67.181  1.00  0.00    -0.258 C  
HETATM   26  O   UNL     1     -12.284  12.227  66.041  1.00  0.00    -0.646 OA 
BRANCH  25  27
HETATM   27  C   UNL     1     -10.974  13.352  67.691  1.00  0.00    -0.277 A  
HETATM   28  C   UNL     1     -11.463  14.162  68.716  1.00  0.00    -0.333 A  
HETATM   29  C   UNL     1     -10.696  15.224  69.198  1.00  0.00    -0.251 A  
HETATM   30  C   UNL     1      -9.424  15.496  68.637  1.00  0.00    -0.204 A  
HETATM   31  C   UNL     1      -9.701  13.588  67.163  1.00  0.00    -0.244 A  
HETATM   32  C   UNL     1      -8.919  14.661  67.615  1.00  0.00    -0.187 A  
BRANCH  29  33
HETATM   33  O   UNL     1     -11.143  16.076  70.183  1.00  0.00    -0.320 OA 
HETATM   34  C   UNL     1     -12.285  15.649  70.920  1.00  0.00    -0.419 C  
ENDBRANCH  29  33
BRANCH  30  35
HETATM   35  O   UNL     1      -8.812  16.625  69.126  1.00  0.00    -0.235 OA 
HETATM   36  C   UNL     1      -8.766  17.781  68.302  1.00  0.00    -0.277 C  
ENDBRANCH  30  35
BRANCH  32  37
HETATM   37  O   UNL     1      -7.692  14.948  67.080  1.00  0.00    -0.185 OA 
HETATM   38  C   UNL     1      -6.550  14.286  67.610  1.00  0.00    -0.153 C  
ENDBRANCH  32  37
ENDBRANCH  25  27
ENDBRANCH  24  25
ENDBRANCH  23  24
ENDBRANCH  22  23
ENDBRANCH  21  22
ENDBRANCH  19  21
ENDBRANCH  18  19
ENDBRANCH  17  18
ENDBRANCH  15  17
ENDBRANCH  14  15
ENDBRANCH  13  14
ENDBRANCH  12  13
ENDBRANCH  11  12
ENDBRANCH   9  11
ENDBRANCH   5   9
BRANCH   8  39
HETATM   39  O   UNL     1      -7.889   8.048  65.472  1.00  0.00    -0.094 OA 
HETATM   40  C   UNL     1      -6.644   8.338  66.088  1.00  0.00    -0.050 C  
ENDBRANCH   8  39
BRANCH   7  41
HETATM   41  O   UNL     1      -8.179   5.719  63.798  1.00  0.00    -0.122 OA 
HETATM   42  C   UNL     1      -6.873   5.204  63.601  1.00  0.00    -0.046 C  
ENDBRANCH   7  41
ENDBRANCH   2   3
TORSDOF 21
ENDMDL
MODEL      122
REMARK 921   NORMALIZED FREE ENERGY PREDICTED BY IDOCK:   -4.33 KCAL/MOL
REMARK 922        TOTAL FREE ENERGY PREDICTED BY IDOCK:  -12.51 KCAL/MOL
REMARK 923 INTER-LIGAND FREE ENERGY PREDICTED BY IDOCK:  -10.55 KCAL/MOL
REMARK 924 INTRA-LIGAND FREE ENERGY PREDICTED BY IDOCK:   -1.96 KCAL/MOL
REMARK 927      BINDING AFFINITY PREDICTED BY RF-SCORE:    0.00 PKD
ROOT
HETATM    1  C   UNL     1      -9.222   7.135  67.447  1.00  0.00    -0.127 C  
HETATM    2  O   UNL     1      -8.251   6.250  68.000  1.00  0.00    -0.113 OA 
ENDROOT
BRANCH   2   3
HETATM    3  C   UNL     1      -8.565   5.657  69.199  1.00  0.00    -0.105 A  
HETATM    4  C   UNL     1      -8.730   6.435  70.351  1.00  0.00    -0.147 A  
HETATM    5  C   UNL     1      -9.050   5.858  71.582  1.00  0.00    -0.149 A  
HETATM    6  C   UNL     1      -9.215   4.480  71.661  1.00  0.00    -0.183 A  
HETATM    7  C   UNL     1      -8.769   4.259  69.260  1.00  0.00    -0.084 A  
HETATM    8  C   UNL     1      -9.086   3.676  70.513  1.00  0.00    -0.116 A  
BRANCH   5   9
HETATM    9  C   UNL     1      -9.186   6.780  72.736  1.00  0.00    -0.135 C  
HETATM   10  O   UNL     1      -8.300   7.559  73.060  1.00  0.00    -0.114 OA 
BRANCH   9  11
HETATM   11  O   UNL     1     -10.366   6.613  73.383  1.00  0.00    -0.224 OA 
BRANCH  11  12
HETATM   12  C   UNL     1     -11.523   6.920  72.583  1.00  0.00    -0.196 C  
BRANCH  12  13
HETATM   13  C   UNL     1     -11.621   8.430  72.383  1.00  0.00    -0.450 C  
BRANCH  13  14
HETATM   14  C   UNL     1     -12.542   8.787  71.217  1.00  0.00    -0.246 C  
BRANCH  14  15
HETATM   15  N   UNL     1     -12.423  10.195  70.783  1.00  0.00    -0.323 NA 
HETATM   16  C   UNL     1     -12.998  11.112  71.777  1.00  0.00    -0.421 C  
BRANCH  15  17
HETATM   17  C   UNL     1     -10.989  10.495  70.526  1.00  0.00    -0.096 C  
BRANCH  17  18
HETATM   18  C   UNL     1     -10.491  10.057  69.128  1.00  0.00    -0.219 C  
BRANCH  18  19
HETATM   19  N   UNL     1     -10.336  11.134  68.122  1.00  0.00    -0.181 NA 
HETATM   20  C   UNL     1      -8.921  11.363  67.809  1.00  0.00    -0.147 C  
BRANCH  19  21
HETATM   21  C   UNL     1     -11.062  10.794  66.878  1.00  0.00    -0.133 C  
BRANCH  21  22
HETATM   22  C   UNL     1     -10.212  10.955  65.614  1.00  0.00    -0.323 C  
BRANCH  22  23
HETATM   23  C   UNL     1     -10.993  11.618  64.487  1.00  0.00    -0.314 C  
BRANCH  23  24
HETATM   24  O   UNL     1     -12.001  12.480  65.043  1.00  0.00    -0.386 OA 
BRANCH  24  25
HETATM   25  C   UNL     1     -11.998  13.757  64.586  1.00  0.00    -0.416 C  
HETATM   26  O   UNL     1     -12.424  14.137  63.508  1.00  0.00    -0.817 OA 
BRANCH  25  27
HETATM   27  C   UNL     1     -11.414  14.670  65.604  1.00  0.00    -0.340 A  
HETATM   28  C   UNL     1     -10.939  15.911  65.178  1.00  0.00    -0.389 A  
HETATM   29  C   UNL     1     -10.341  16.785  66.087  1.00  0.00    -0.330 A  
HETATM   30  C   UNL     1     -10.198  16.410  67.446  1.00  0.00    -0.281 A  
HETATM   31  C   UNL     1     -11.314  14.312  66.953  1.00  0.00    -0.354 A  
HETATM   32  C   UNL     1     -10.699  15.163  67.883  1.00  0.00    -0.268 A  
BRANCH  29  33
HETATM   33  O   UNL     1      -9.825  18.006  65.716  1.00  0.00    -0.539 OA 
HETATM   34  C   UNL     1     -10.645  19.143  65.967  1.00  0.00    -0.442 C  
ENDBRANCH  29  33
BRANCH  30  35
HETATM   35  O   UNL     1      -9.505  17.311  68.219  1.00  0.00    -0.264 OA 
HETATM   36  C   UNL     1      -8.138  17.050  68.502  1.00  0.00    -0.251 C  
ENDBRANCH  30  35
BRANCH  32  37
HETATM   37  O   UNL     1     -10.540  14.816  69.198  1.00  0.00    -0.238 OA 
HETATM   38  C   UNL     1     -11.525  15.240  70.134  1.00  0.00    -0.292 C  
ENDBRANCH  32  37
ENDBRANCH  25  27
ENDBRANCH  24  25
ENDBRANCH  23  24
ENDBRANCH  22  23
ENDBRANCH  21  22
ENDBRANCH  19  21
ENDBRANCH  18  19
ENDBRANCH  17  18
ENDBRANCH  15  17
ENDBRANCH  14  15
ENDBRANCH  13  14
ENDBRANCH  12  13
ENDBRANCH  11  12
ENDBRANCH   9  11
ENDBRANCH   5   9
BRANCH   8  39
HETATM   39  O   UNL     1      -9.305   2.351  70.813  1.00  0.00    -0.119 OA 
HETATM   40  C   UNL     1     -10.116   2.004  71.924  1.00  0.00    -0.133 C  
ENDBRANCH   8  39
BRANCH   7  41
HETATM   41  O   UNL     1      -8.673   3.395  68.202  1.00  0.00    -0.093 OA 
HETATM   42  C   UNL     1      -7.429   2.817  67.842  1.00  0.00    -0.056 C  
ENDBRANCH   7  41
ENDBRANCH   2   3
TORSDOF 21
ENDMDL
MODEL      123
REMARK 921   NORMALIZED FREE ENERGY PREDICTED BY IDOCK:   -4.33 KCAL/MOL
REMARK 922        TOTAL FREE ENERGY PREDICTED BY IDOCK:  -12.50 KCAL/MOL
REMARK 923 INTER-LIGAND FREE ENERGY PREDICTED BY IDOCK:  -10.03 KCAL/MOL
REMARK 924 INTRA-LIGAND FREE ENERGY PREDICTED BY IDOCK:   -2.47 KCAL/MOL
REMARK 927      BINDING AFFINITY PREDICTED BY RF-SCORE:    0.00 PKD
ROOT
HETATM    1  C   UNL     1     -10.570   3.912  64.110  1.00  0.00    -0.229 C  
HETATM    2  O   UNL     1      -9.532   3.778  65.079  1.00  0.00    -0.149 OA 
ENDROOT
BRANCH   2   3
HETATM    3  C   UNL     1      -9.311   4.854  65.903  1.00  0.00    -0.159 A  
HETATM    4  C   UNL     1      -9.972   4.952  67.133  1.00  0.00    -0.229 A  
HETATM    5  C   UNL     1      -9.765   6.034  67.990  1.00  0.00    -0.126 A  
HETATM    6  C   UNL     1      -8.875   7.035  67.614  1.00  0.00    -0.119 A  
HETATM    7  C   UNL     1      -8.375   5.846  65.528  1.00  0.00    -0.145 A  
HETATM    8  C   UNL     1      -8.173   6.948  66.397  1.00  0.00    -0.117 A  
BRANCH   5   9
HETATM    9  C   UNL     1     -10.531   6.037  69.260  1.00  0.00    -0.264 C  
HETATM   10  O   UNL     1     -11.703   6.380  69.317  1.00  0.00    -0.277 OA 
BRANCH   9  11
HETATM   11  O   UNL     1      -9.766   5.662  70.315  1.00  0.00    -0.164 OA 
BRANCH  11  12
HETATM   12  C   UNL     1      -9.714   4.240  70.528  1.00  0.00    -0.212 C  
BRANCH  12  13
HETATM   13  C   UNL     1     -10.048   3.928  71.984  1.00  0.00    -0.220 C  
BRANCH  13  14
HETATM   14  C   UNL     1     -10.806   5.078  72.649  1.00  0.00    -0.226 C  
BRANCH  14  15
HETATM   15  N   UNL     1     -10.326   5.387  74.013  1.00  0.00    -0.250 NA 
HETATM   16  C   UNL     1      -9.015   4.776  74.271  1.00  0.00    -0.111 C  
BRANCH  15  17
HETATM   17  C   UNL     1     -10.286   6.864  74.181  1.00  0.00    -0.296 C  
BRANCH  17  18
HETATM   18  C   UNL     1     -10.709   7.657  72.921  1.00  0.00    -0.371 C  
BRANCH  18  19
HETATM   19  N   UNL     1      -9.742   8.667  72.429  1.00  0.00    -0.283 NA 
HETATM   20  C   UNL     1      -8.381   8.122  72.394  1.00  0.00    -0.170 C  
BRANCH  19  21
HETATM   21  C   UNL     1     -10.117   9.130  71.075  1.00  0.00    -0.303 C  
BRANCH  21  22
HETATM   22  C   UNL     1      -8.915   9.538  70.217  1.00  0.00    -0.288 C  
BRANCH  22  23
HETATM   23  C   UNL     1      -9.319  10.476  69.086  1.00  0.00    -0.187 C  
BRANCH  23  24
HETATM   24  O   UNL     1     -10.695  10.859  69.248  1.00  0.00    -0.214 OA 
BRANCH  24  25
HETATM   25  C   UNL     1     -11.299  11.359  68.140  1.00  0.00    -0.304 C  
HETATM   26  O   UNL     1     -11.750  10.709  67.211  1.00  0.00    -0.317 OA 
BRANCH  25  27
HETATM   27  C   UNL     1     -11.365  12.843  68.211  1.00  0.00    -0.326 A  
HETATM   28  C   UNL     1     -10.932  13.574  67.104  1.00  0.00    -0.302 A  
HETATM   29  C   UNL     1     -10.932  14.968  67.139  1.00  0.00    -0.329 A  
HETATM   30  C   UNL     1     -11.357  15.651  68.305  1.00  0.00    -0.356 A  
HETATM   31  C   UNL     1     -11.826  13.511  69.350  1.00  0.00    -0.389 A  
HETATM   32  C   UNL     1     -11.818  14.913  69.419  1.00  0.00    -0.324 A  
BRANCH  29  33
HETATM   33  O   UNL     1     -10.484  15.738  66.090  1.00  0.00    -0.294 OA 
HETATM   34  C   UNL     1     -11.197  15.613  64.863  1.00  0.00    -0.369 C  
ENDBRANCH  29  33
BRANCH  30  35
HETATM   35  O   UNL     1     -11.217  17.018  68.252  1.00  0.00    -0.267 OA 
HETATM   36  C   UNL     1     -10.119  17.612  68.931  1.00  0.00    -0.351 C  
ENDBRANCH  30  35
BRANCH  32  37
HETATM   37  O   UNL     1     -12.213  15.593  70.539  1.00  0.00    -0.372 OA 
HETATM   38  C   UNL     1     -11.905  15.038  71.813  1.00  0.00    -0.388 C  
ENDBRANCH  32  37
ENDBRANCH  25  27
ENDBRANCH  24  25
ENDBRANCH  23  24
ENDBRANCH  22  23
ENDBRANCH  21  22
ENDBRANCH  19  21
ENDBRANCH  18  19
ENDBRANCH  17  18
ENDBRANCH  15  17
ENDBRANCH  14  15
ENDBRANCH  13  14
ENDBRANCH  12  13
ENDBRANCH  11  12
ENDBRANCH   9  11
ENDBRANCH   5   9
BRANCH   8  39
HETATM   39  O   UNL     1      -7.339   8.030  66.233  1.00  0.00    -0.076 OA 
HETATM   40  C   UNL     1      -6.486   8.431  67.293  1.00  0.00    -0.058 C  
ENDBRANCH   8  39
BRANCH   7  41
HETATM   41  O   UNL     1      -7.640   5.849  64.372  1.00  0.00    -0.075 OA 
HETATM   42  C   UNL     1      -8.099   6.530  63.217  1.00  0.00    -0.024 C  
ENDBRANCH   7  41
ENDBRANCH   2   3
TORSDOF 21
ENDMDL
MODEL      124
REMARK 921   NORMALIZED FREE ENERGY PREDICTED BY IDOCK:   -4.33 KCAL/MOL
REMARK 922        TOTAL FREE ENERGY PREDICTED BY IDOCK:  -12.50 KCAL/MOL
REMARK 923 INTER-LIGAND FREE ENERGY PREDICTED BY IDOCK:  -10.42 KCAL/MOL
REMARK 924 INTRA-LIGAND FREE ENERGY PREDICTED BY IDOCK:   -2.08 KCAL/MOL
REMARK 927      BINDING AFFINITY PREDICTED BY RF-SCORE:    0.00 PKD
ROOT
HETATM    1  C   UNL     1      -7.611   8.298  73.274  1.00  0.00    -0.119 C  
HETATM    2  O   UNL     1      -8.734   8.822  72.569  1.00  0.00    -0.406 OA 
ENDROOT
BRANCH   2   3
HETATM    3  C   UNL     1      -9.711   7.927  72.209  1.00  0.00    -0.209 A  
HETATM    4  C   UNL     1      -9.489   6.549  72.328  1.00  0.00    -0.144 A  
HETATM    5  C   UNL     1     -10.465   5.619  71.970  1.00  0.00    -0.270 A  
HETATM    6  C   UNL     1     -11.689   6.071  71.490  1.00  0.00    -0.172 A  
HETATM    7  C   UNL     1     -10.965   8.399  71.758  1.00  0.00    -0.291 A  
HETATM    8  C   UNL     1     -11.952   7.450  71.388  1.00  0.00    -0.310 A  
BRANCH   5   9
HETATM    9  C   UNL     1     -10.112   4.186  72.126  1.00  0.00    -0.178 C  
HETATM   10  O   UNL     1      -9.904   3.679  73.219  1.00  0.00    -0.111 OA 
BRANCH   9  11
HETATM   11  O   UNL     1     -10.013   3.554  70.931  1.00  0.00    -0.131 OA 
BRANCH  11  12
HETATM   12  C   UNL     1      -8.849   3.919  70.167  1.00  0.00    -0.081 C  
BRANCH  12  13
HETATM   13  C   UNL     1      -9.273   4.367  68.772  1.00  0.00    -0.193 C  
BRANCH  13  14
HETATM   14  C   UNL     1      -8.942   5.840  68.526  1.00  0.00    -0.112 C  
BRANCH  14  15
HETATM   15  N   UNL     1      -9.569   6.387  67.304  1.00  0.00    -0.121 NA 
HETATM   16  C   UNL     1     -11.031   6.252  67.346  1.00  0.00    -0.356 C  
BRANCH  15  17
HETATM   17  C   UNL     1      -9.154   7.807  67.150  1.00  0.00    -0.134 C  
BRANCH  17  18
HETATM   18  C   UNL     1     -10.311   8.770  66.791  1.00  0.00    -0.258 C  
BRANCH  18  19
HETATM   19  N   UNL     1      -9.926  10.166  66.478  1.00  0.00    -0.214 NA 
HETATM   20  C   UNL     1      -8.472  10.342  66.549  1.00  0.00    -0.125 C  
BRANCH  19  21
HETATM   21  C   UNL     1     -10.398  10.546  65.128  1.00  0.00    -0.240 C  
BRANCH  21  22
HETATM   22  C   UNL     1     -10.525  12.060  64.932  1.00  0.00    -0.325 C  
BRANCH  22  23
HETATM   23  C   UNL     1     -11.915  12.564  65.300  1.00  0.00    -0.438 C  
BRANCH  23  24
HETATM   24  O   UNL     1     -11.850  13.964  65.619  1.00  0.00    -0.342 OA 
BRANCH  24  25
HETATM   25  C   UNL     1     -11.326  14.265  66.834  1.00  0.00    -0.343 C  
HETATM   26  O   UNL     1     -11.678  13.798  67.904  1.00  0.00    -0.319 OA 
BRANCH  25  27
HETATM   27  C   UNL     1     -10.219  15.248  66.692  1.00  0.00    -0.275 A  
HETATM   28  C   UNL     1      -8.922  14.823  66.982  1.00  0.00    -0.258 A  
HETATM   29  C   UNL     1      -7.856  15.719  66.907  1.00  0.00    -0.236 A  
HETATM   30  C   UNL     1      -8.085  17.071  66.551  1.00  0.00    -0.285 A  
HETATM   31  C   UNL     1     -10.447  16.571  66.298  1.00  0.00    -0.285 A  
HETATM   32  C   UNL     1      -9.395  17.497  66.235  1.00  0.00    -0.209 A  
BRANCH  29  33
HETATM   33  O   UNL     1      -6.562  15.363  67.215  1.00  0.00    -0.265 OA 
HETATM   34  C   UNL     1      -6.387  14.099  67.849  1.00  0.00    -0.164 C  
ENDBRANCH  29  33
BRANCH  30  35
HETATM   35  O   UNL     1      -6.973  17.876  66.610  1.00  0.00    -0.183 OA 
HETATM   36  C   UNL     1      -6.281  18.164  65.403  1.00  0.00    -0.170 C  
ENDBRANCH  30  35
BRANCH  32  37
HETATM   37  O   UNL     1      -9.596  18.811  65.904  1.00  0.00    -0.476 OA 
HETATM   38  C   UNL     1     -10.175  19.673  66.877  1.00  0.00    -0.442 C  
ENDBRANCH  32  37
ENDBRANCH  25  27
ENDBRANCH  24  25
ENDBRANCH  23  24
ENDBRANCH  22  23
ENDBRANCH  21  22
ENDBRANCH  19  21
ENDBRANCH  18  19
ENDBRANCH  17  18
ENDBRANCH  15  17
ENDBRANCH  14  15
ENDBRANCH  13  14
ENDBRANCH  12  13
ENDBRANCH  11  12
ENDBRANCH   9  11
ENDBRANCH   5   9
BRANCH   8  39
HETATM   39  O   UNL     1     -13.222   7.674  70.908  1.00  0.00    -0.080 OA 
HETATM   40  C   UNL     1     -14.321   7.704  71.805  1.00  0.00    -0.452 C  
ENDBRANCH   8  39
BRANCH   7  41
HETATM   41  O   UNL     1     -11.320   9.716  71.631  1.00  0.00    -0.374 OA 
HETATM   42  C   UNL     1     -11.221  10.381  70.383  1.00  0.00    -0.321 C  
ENDBRANCH   7  41
ENDBRANCH   2   3
TORSDOF 21
ENDMDL
MODEL      125
REMARK 921   NORMALIZED FREE ENERGY PREDICTED BY IDOCK:   -4.30 KCAL/MOL
REMARK 922        TOTAL FREE ENERGY PREDICTED BY IDOCK:  -12.44 KCAL/MOL
REMARK 923 INTER-LIGAND FREE ENERGY PREDICTED BY IDOCK:  -10.42 KCAL/MOL
REMARK 924 INTRA-LIGAND FREE ENERGY PREDICTED BY IDOCK:   -2.02 KCAL/MOL
REMARK 927      BINDING AFFINITY PREDICTED BY RF-SCORE:    0.00 PKD
ROOT
HETATM    1  C   UNL     1     -10.534   7.508  67.091  1.00  0.00    -0.336 C  
HETATM    2  O   UNL     1      -9.518   6.527  67.288  1.00  0.00    -0.121 OA 
ENDROOT
BRANCH   2   3
HETATM    3  C   UNL     1      -9.624   5.743  68.411  1.00  0.00    -0.125 A  
HETATM    4  C   UNL     1      -9.891   6.323  69.657  1.00  0.00    -0.192 A  
HETATM    5  C   UNL     1     -10.004   5.550  70.814  1.00  0.00    -0.263 A  
HETATM    6  C   UNL     1      -9.855   4.171  70.723  1.00  0.00    -0.248 A  
HETATM    7  C   UNL     1      -9.510   4.338  68.301  1.00  0.00    -0.154 A  
HETATM    8  C   UNL     1      -9.618   3.556  69.479  1.00  0.00    -0.109 A  
BRANCH   5   9
HETATM    9  C   UNL     1     -10.274   6.276  72.079  1.00  0.00    -0.189 C  
HETATM   10  O   UNL     1      -9.407   6.903  72.671  1.00  0.00    -0.139 OA 
BRANCH   9  11
HETATM   11  O   UNL     1     -11.555   6.117  72.492  1.00  0.00    -0.286 OA 
BRANCH  11  12
HETATM   12  C   UNL     1     -12.504   6.947  71.798  1.00  0.00    -0.356 C  
BRANCH  12  13
HETATM   13  C   UNL     1     -12.193   8.416  72.070  1.00  0.00    -0.419 C  
BRANCH  13  14
HETATM   14  C   UNL     1     -13.376   9.319  71.720  1.00  0.00    -0.409 C  
BRANCH  14  15
HETATM   15  N   UNL     1     -12.981  10.565  71.031  1.00  0.00    -0.385 NA 
HETATM   16  C   UNL     1     -13.245  11.745  71.866  1.00  0.00    -0.362 C  
BRANCH  15  17
HETATM   17  C   UNL     1     -11.544  10.469  70.657  1.00  0.00    -0.352 C  
BRANCH  17  18
HETATM   18  C   UNL     1     -11.290  10.408  69.133  1.00  0.00    -0.226 C  
BRANCH  18  19
HETATM   19  N   UNL     1     -10.686  11.615  68.522  1.00  0.00    -0.208 NA 
HETATM   20  C   UNL     1      -9.675  11.253  67.524  1.00  0.00    -0.177 C  
BRANCH  19  21
HETATM   21  C   UNL     1     -11.726  12.451  67.881  1.00  0.00    -0.360 C  
BRANCH  21  22
HETATM   22  C   UNL     1     -11.771  12.303  66.357  1.00  0.00    -0.431 C  
BRANCH  22  23
HETATM   23  C   UNL     1     -12.499  13.467  65.697  1.00  0.00    -0.479 C  
BRANCH  23  24
HETATM   24  O   UNL     1     -12.067  14.703  66.290  1.00  0.00    -0.319 OA 
BRANCH  24  25
HETATM   25  C   UNL     1     -11.186  15.430  65.557  1.00  0.00    -0.234 C  
HETATM   26  O   UNL     1     -11.249  15.635  64.355  1.00  0.00    -0.363 OA 
BRANCH  25  27
HETATM   27  C   UNL     1     -10.116  15.981  66.429  1.00  0.00    -0.314 A  
HETATM   28  C   UNL     1      -9.252  15.083  67.056  1.00  0.00    -0.246 A  
HETATM   29  C   UNL     1      -8.260  15.549  67.919  1.00  0.00    -0.143 A  
HETATM   30  C   UNL     1      -8.134  16.936  68.177  1.00  0.00    -0.201 A  
HETATM   31  C   UNL     1      -9.970  17.356  66.645  1.00  0.00    -0.308 A  
HETATM   32  C   UNL     1      -8.994  17.849  67.524  1.00  0.00    -0.248 A  
BRANCH  29  33
HETATM   33  O   UNL     1      -7.403  14.706  68.591  1.00  0.00    -0.111 OA 
HETATM   34  C   UNL     1      -6.819  13.656  67.826  1.00  0.00    -0.168 C  
ENDBRANCH  29  33
BRANCH  30  35
HETATM   35  O   UNL     1      -7.187  17.261  69.119  1.00  0.00    -0.242 OA 
HETATM   36  C   UNL     1      -5.932  17.757  68.675  1.00  0.00    -0.189 C  
ENDBRANCH  30  35
BRANCH  32  37
HETATM   37  O   UNL     1      -8.862  19.184  67.796  1.00  0.00    -0.290 OA 
HETATM   38  C   UNL     1      -8.355  20.036  66.775  1.00  0.00    -0.323 C  
ENDBRANCH  32  37
ENDBRANCH  25  27
ENDBRANCH  24  25
ENDBRANCH  23  24
ENDBRANCH  22  23
ENDBRANCH  21  22
ENDBRANCH  19  21
ENDBRANCH  18  19
ENDBRANCH  17  18
ENDBRANCH  15  17
ENDBRANCH  14  15
ENDBRANCH  13  14
ENDBRANCH  12  13
ENDBRANCH  11  12
ENDBRANCH   9  11
ENDBRANCH   5   9
BRANCH   8  39
HETATM   39  O   UNL     1      -9.520   2.191  69.616  1.00  0.00    -0.110 OA 
HETATM   40  C   UNL     1      -8.281   1.604  69.985  1.00  0.00    -0.041 C  
ENDBRANCH   8  39
BRANCH   7  41
HETATM   41  O   UNL     1      -9.286   3.647  67.140  1.00  0.00    -0.159 OA 
HETATM   42  C   UNL     1      -7.968   3.415  66.671  1.00  0.00    -0.081 C  
ENDBRANCH   7  41
ENDBRANCH   2   3
TORSDOF 21
ENDMDL
MODEL      126
REMARK 921   NORMALIZED FREE ENERGY PREDICTED BY IDOCK:   -4.30 KCAL/MOL
REMARK 922        TOTAL FREE ENERGY PREDICTED BY IDOCK:  -12.43 KCAL/MOL
REMARK 923 INTER-LIGAND FREE ENERGY PREDICTED BY IDOCK:  -10.08 KCAL/MOL
REMARK 924 INTRA-LIGAND FREE ENERGY PREDICTED BY IDOCK:   -2.35 KCAL/MOL
REMARK 927      BINDING AFFINITY PREDICTED BY RF-SCORE:    0.00 PKD
ROOT
HETATM    1  C   UNL     1     -10.312   5.436  66.661  1.00  0.00    -0.275 C  
HETATM    2  O   UNL     1     -10.496   4.652  67.838  1.00  0.00     0.055 OA 
ENDROOT
BRANCH   2   3
HETATM    3  C   UNL     1     -10.127   5.227  69.029  1.00  0.00    -0.202 A  
HETATM    4  C   UNL     1     -11.061   5.937  69.793  1.00  0.00    -0.422 A  
HETATM    5  C   UNL     1     -10.713   6.531  71.007  1.00  0.00    -0.289 A  
HETATM    6  C   UNL     1      -9.408   6.407  71.471  1.00  0.00    -0.152 A  
HETATM    7  C   UNL     1      -8.808   5.062  69.511  1.00  0.00    -0.095 A  
HETATM    8  C   UNL     1      -8.455   5.672  70.741  1.00  0.00    -0.124 A  
BRANCH   5   9
HETATM    9  C   UNL     1     -11.783   7.270  71.721  1.00  0.00    -0.286 C  
HETATM   10  O   UNL     1     -12.886   6.785  71.930  1.00  0.00    -0.338 OA 
BRANCH   9  11
HETATM   11  O   UNL     1     -11.395   8.525  72.058  1.00  0.00    -0.307 OA 
BRANCH  11  12
HETATM   12  C   UNL     1     -12.296   9.557  71.616  1.00  0.00    -0.398 C  
BRANCH  12  13
HETATM   13  C   UNL     1     -11.554  10.522  70.696  1.00  0.00    -0.445 C  
BRANCH  13  14
HETATM   14  C   UNL     1     -11.100   9.838  69.406  1.00  0.00    -0.170 C  
BRANCH  14  15
HETATM   15  N   UNL     1      -9.691  10.119  69.057  1.00  0.00    -0.195 NA 
HETATM   16  C   UNL     1      -8.780   9.709  70.135  1.00  0.00    -0.231 C  
BRANCH  15  17
HETATM   17  C   UNL     1      -9.371   9.431  67.778  1.00  0.00    -0.128 C  
BRANCH  17  18
HETATM   18  C   UNL     1     -10.347   9.755  66.622  1.00  0.00    -0.206 C  
BRANCH  18  19
HETATM   19  N   UNL     1     -10.143  11.054  65.939  1.00  0.00    -0.240 NA 
HETATM   20  C   UNL     1      -8.720  11.406  65.888  1.00  0.00    -0.101 C  
BRANCH  19  21
HETATM   21  C   UNL     1     -10.684  11.010  64.563  1.00  0.00    -0.264 C  
BRANCH  21  22
HETATM   22  C   UNL     1     -11.456  12.273  64.171  1.00  0.00    -0.453 C  
BRANCH  22  23
HETATM   23  C   UNL     1     -12.186  12.883  65.361  1.00  0.00    -0.478 C  
BRANCH  23  24
HETATM   24  O   UNL     1     -11.566  14.130  65.718  1.00  0.00    -0.328 OA 
BRANCH  24  25
HETATM   25  C   UNL     1     -11.423  14.355  67.049  1.00  0.00    -0.361 C  
HETATM   26  O   UNL     1     -12.072  13.831  67.940  1.00  0.00    -0.365 OA 
BRANCH  25  27
HETATM   27  C   UNL     1     -10.331  15.332  67.295  1.00  0.00    -0.264 A  
HETATM   28  C   UNL     1     -10.403  16.573  66.660  1.00  0.00    -0.298 A  
HETATM   29  C   UNL     1      -9.380  17.507  66.824  1.00  0.00    -0.265 A  
HETATM   30  C   UNL     1      -8.253  17.195  67.624  1.00  0.00    -0.187 A  
HETATM   31  C   UNL     1      -9.241  15.034  68.120  1.00  0.00    -0.183 A  
HETATM   32  C   UNL     1      -8.189  15.948  68.286  1.00  0.00    -0.152 A  
BRANCH  29  33
HETATM   33  O   UNL     1      -9.383  18.731  66.195  1.00  0.00    -0.433 OA 
HETATM   34  C   UNL     1     -10.531  19.548  66.405  1.00  0.00    -0.498 C  
ENDBRANCH  29  33
BRANCH  30  35
HETATM   35  O   UNL     1      -7.269  18.155  67.626  1.00  0.00    -0.204 OA 
HETATM   36  C   UNL     1      -7.227  19.079  68.705  1.00  0.00    -0.316 C  
ENDBRANCH  30  35
BRANCH  32  37
HETATM   37  O   UNL     1      -7.085  15.663  69.044  1.00  0.00    -0.129 OA 
HETATM   38  C   UNL     1      -6.045  14.887  68.462  1.00  0.00    -0.093 C  
ENDBRANCH  32  37
ENDBRANCH  25  27
ENDBRANCH  24  25
ENDBRANCH  23  24
ENDBRANCH  22  23
ENDBRANCH  21  22
ENDBRANCH  19  21
ENDBRANCH  18  19
ENDBRANCH  17  18
ENDBRANCH  15  17
ENDBRANCH  14  15
ENDBRANCH  13  14
ENDBRANCH  12  13
ENDBRANCH  11  12
ENDBRANCH   9  11
ENDBRANCH   5   9
BRANCH   8  39
HETATM   39  O   UNL     1      -7.240   5.665  71.387  1.00  0.00    -0.073 OA 
HETATM   40  C   UNL     1      -7.027   6.519  72.500  1.00  0.00    -0.069 C  
ENDBRANCH   8  39
BRANCH   7  41
HETATM   41  O   UNL     1      -7.813   4.363  68.879  1.00  0.00    -0.069 OA 
HETATM   42  C   UNL     1      -7.626   2.979  69.122  1.00  0.00    -0.047 C  
ENDBRANCH   7  41
ENDBRANCH   2   3
TORSDOF 21
ENDMDL
MODEL      127
REMARK 921   NORMALIZED FREE ENERGY PREDICTED BY IDOCK:   -4.28 KCAL/MOL
REMARK 922        TOTAL FREE ENERGY PREDICTED BY IDOCK:  -12.39 KCAL/MOL
REMARK 923 INTER-LIGAND FREE ENERGY PREDICTED BY IDOCK:  -10.39 KCAL/MOL
REMARK 924 INTRA-LIGAND FREE ENERGY PREDICTED BY IDOCK:   -2.00 KCAL/MOL
REMARK 927      BINDING AFFINITY PREDICTED BY RF-SCORE:    0.00 PKD
ROOT
HETATM    1  C   UNL     1     -11.556   8.452  72.114  1.00  0.00    -0.374 C  
HETATM    2  O   UNL     1     -11.355   7.328  72.967  1.00  0.00    -0.285 OA 
ENDROOT
BRANCH   2   3
HETATM    3  C   UNL     1     -10.061   6.892  73.123  1.00  0.00    -0.215 A  
HETATM    4  C   UNL     1      -8.991   7.677  72.677  1.00  0.00    -0.205 A  
HETATM    5  C   UNL     1      -7.668   7.259  72.823  1.00  0.00    -0.097 A  
HETATM    6  C   UNL     1      -7.407   6.037  73.433  1.00  0.00    -0.089 A  
HETATM    7  C   UNL     1      -9.806   5.666  73.780  1.00  0.00    -0.175 A  
HETATM    8  C   UNL     1      -8.461   5.241  73.920  1.00  0.00    -0.113 A  
BRANCH   5   9
HETATM    9  C   UNL     1      -6.618   8.168  72.299  1.00  0.00    -0.075 C  
HETATM   10  O   UNL     1      -6.394   9.263  72.795  1.00  0.00    -0.308 OA 
BRANCH   9  11
HETATM   11  O   UNL     1      -5.996   7.651  71.211  1.00  0.00    -0.035 OA 
BRANCH  11  12
HETATM   12  C   UNL     1      -6.875   7.385  70.103  1.00  0.00    -0.055 C  
BRANCH  12  13
HETATM   13  C   UNL     1      -7.179   8.688  69.368  1.00  0.00    -0.057 C  
BRANCH  13  14
HETATM   14  C   UNL     1      -8.649   8.774  68.955  1.00  0.00    -0.136 C  
BRANCH  14  15
HETATM   15  N   UNL     1      -9.137   7.562  68.262  1.00  0.00    -0.133 NA 
HETATM   16  C   UNL     1     -10.383   7.067  68.862  1.00  0.00    -0.190 C  
BRANCH  15  17
HETATM   17  C   UNL     1      -9.310   7.875  66.818  1.00  0.00    -0.184 C  
BRANCH  17  18
HETATM   18  C   UNL     1     -10.227   9.089  66.539  1.00  0.00    -0.248 C  
BRANCH  18  19
HETATM   19  N   UNL     1      -9.647  10.168  65.706  1.00  0.00    -0.211 NA 
HETATM   20  C   UNL     1      -9.136   9.640  64.437  1.00  0.00    -0.229 C  
BRANCH  19  21
HETATM   21  C   UNL     1     -10.658  11.212  65.428  1.00  0.00    -0.227 C  
BRANCH  21  22
HETATM   22  C   UNL     1     -10.901  11.441  63.933  1.00  0.00    -0.463 C  
BRANCH  22  23
HETATM   23  C   UNL     1     -12.292  12.002  63.665  1.00  0.00    -0.539 C  
BRANCH  23  24
HETATM   24  O   UNL     1     -12.671  12.881  64.737  1.00  0.00    -0.647 OA 
BRANCH  24  25
HETATM   25  C   UNL     1     -12.344  14.187  64.568  1.00  0.00    -0.392 C  
HETATM   26  O   UNL     1     -12.611  14.875  63.596  1.00  0.00    -0.724 OA 
BRANCH  25  27
HETATM   27  C   UNL     1     -11.618  14.699  65.760  1.00  0.00    -0.328 A  
HETATM   28  C   UNL     1     -10.579  15.608  65.556  1.00  0.00    -0.422 A  
HETATM   29  C   UNL     1      -9.838  16.083  66.639  1.00  0.00    -0.260 A  
HETATM   30  C   UNL     1     -10.127  15.633  67.951  1.00  0.00    -0.225 A  
HETATM   31  C   UNL     1     -11.936  14.284  67.057  1.00  0.00    -0.463 A  
HETATM   32  C   UNL     1     -11.194  14.730  68.161  1.00  0.00    -0.294 A  
BRANCH  29  33
HETATM   33  O   UNL     1      -8.781  16.953  66.493  1.00  0.00    -0.229 OA 
HETATM   34  C   UNL     1      -9.113  18.324  66.298  1.00  0.00    -0.190 C  
ENDBRANCH  29  33
BRANCH  30  35
HETATM   35  O   UNL     1      -9.265  16.095  68.918  1.00  0.00    -0.211 OA 
HETATM   36  C   UNL     1      -8.106  15.329  69.213  1.00  0.00    -0.236 C  
ENDBRANCH  30  35
BRANCH  32  37
HETATM   37  O   UNL     1     -11.448  14.300  69.436  1.00  0.00    -0.262 OA 
HETATM   38  C   UNL     1     -11.765  12.928  69.637  1.00  0.00    -0.299 C  
ENDBRANCH  32  37
ENDBRANCH  25  27
ENDBRANCH  24  25
ENDBRANCH  23  24
ENDBRANCH  22  23
ENDBRANCH  21  22
ENDBRANCH  19  21
ENDBRANCH  18  19
ENDBRANCH  17  18
ENDBRANCH  15  17
ENDBRANCH  14  15
ENDBRANCH  13  14
ENDBRANCH  12  13
ENDBRANCH  11  12
ENDBRANCH   9  11
ENDBRANCH   5   9
BRANCH   8  39
HETATM   39  O   UNL     1      -7.980   4.089  74.497  1.00  0.00    -0.084 OA 
HETATM   40  C   UNL     1      -7.148   3.217  73.747  1.00  0.00    -0.042 C  
ENDBRANCH   8  39
BRANCH   7  41
HETATM   41  O   UNL     1     -10.759   4.826  74.292  1.00  0.00    -0.289 OA 
HETATM   42  C   UNL     1     -11.300   3.774  73.511  1.00  0.00    -0.148 C  
ENDBRANCH   7  41
ENDBRANCH   2   3
TORSDOF 21
ENDMDL
MODEL      128
REMARK 921   NORMALIZED FREE ENERGY PREDICTED BY IDOCK:   -4.24 KCAL/MOL
REMARK 922        TOTAL FREE ENERGY PREDICTED BY IDOCK:  -12.31 KCAL/MOL
REMARK 923 INTER-LIGAND FREE ENERGY PREDICTED BY IDOCK:  -10.66 KCAL/MOL
REMARK 924 INTRA-LIGAND FREE ENERGY PREDICTED BY IDOCK:   -1.65 KCAL/MOL
REMARK 927      BINDING AFFINITY PREDICTED BY RF-SCORE:    0.00 PKD
ROOT
HETATM    1  C   UNL     1     -11.915   8.280  72.353  1.00  0.00    -0.384 C  
HETATM    2  O   UNL     1     -11.611   7.105  73.100  1.00  0.00    -0.090 OA 
ENDROOT
BRANCH   2   3
HETATM    3  C   UNL     1     -10.307   6.677  73.078  1.00  0.00    -0.222 A  
HETATM    4  C   UNL     1      -9.298   7.504  72.568  1.00  0.00    -0.200 A  
HETATM    5  C   UNL     1      -7.965   7.094  72.534  1.00  0.00    -0.103 A  
HETATM    6  C   UNL     1      -7.630   5.837  73.025  1.00  0.00    -0.100 A  
HETATM    7  C   UNL     1      -9.972   5.413  73.616  1.00  0.00    -0.177 A  
HETATM    8  C   UNL     1      -8.617   4.996  73.573  1.00  0.00    -0.108 A  
BRANCH   5   9
HETATM    9  C   UNL     1      -6.986   8.049  71.957  1.00  0.00    -0.075 C  
HETATM   10  O   UNL     1      -6.917   9.214  72.321  1.00  0.00    -0.317 OA 
BRANCH   9  11
HETATM   11  O   UNL     1      -6.238   7.482  70.979  1.00  0.00    -0.035 OA 
BRANCH  11  12
HETATM   12  C   UNL     1      -6.914   7.367  69.714  1.00  0.00    -0.056 C  
BRANCH  12  13
HETATM   13  C   UNL     1      -7.338   8.753  69.234  1.00  0.00    -0.070 C  
BRANCH  13  14
HETATM   14  C   UNL     1      -8.793   8.768  68.766  1.00  0.00    -0.134 C  
BRANCH  14  15
HETATM   15  N   UNL     1      -9.200   7.529  68.070  1.00  0.00    -0.137 NA 
HETATM   16  C   UNL     1     -10.436   6.975  68.640  1.00  0.00    -0.204 C  
BRANCH  15  17
HETATM   17  C   UNL     1      -9.349   7.823  66.620  1.00  0.00    -0.188 C  
BRANCH  17  18
HETATM   18  C   UNL     1     -10.255   9.038  66.310  1.00  0.00    -0.167 C  
BRANCH  18  19
HETATM   19  N   UNL     1      -9.612  10.170  65.603  1.00  0.00    -0.223 NA 
HETATM   20  C   UNL     1      -9.035   9.736  64.326  1.00  0.00    -0.237 C  
BRANCH  19  21
HETATM   21  C   UNL     1     -10.591  11.252  65.352  1.00  0.00    -0.250 C  
BRANCH  21  22
HETATM   22  C   UNL     1     -10.869  11.488  63.864  1.00  0.00    -0.469 C  
BRANCH  22  23
HETATM   23  C   UNL     1     -12.317  11.890  63.616  1.00  0.00    -0.481 C  
BRANCH  23  24
HETATM   24  O   UNL     1     -12.833  12.568  64.774  1.00  0.00    -0.755 OA 
BRANCH  24  25
HETATM   25  C   UNL     1     -12.529  13.888  64.865  1.00  0.00    -0.391 C  
HETATM   26  O   UNL     1     -12.680  14.723  63.989  1.00  0.00    -0.786 OA 
BRANCH  25  27
HETATM   27  C   UNL     1     -11.992  14.203  66.216  1.00  0.00    -0.448 A  
HETATM   28  C   UNL     1     -12.357  13.374  67.278  1.00  0.00    -0.157 A  
HETATM   29  C   UNL     1     -11.916  13.655  68.571  1.00  0.00    -0.361 A  
HETATM   30  C   UNL     1     -11.109  14.792  68.817  1.00  0.00    -0.265 A  
HETATM   31  C   UNL     1     -11.160  15.304  66.445  1.00  0.00    -0.273 A  
HETATM   32  C   UNL     1     -10.720  15.619  67.739  1.00  0.00    -0.297 A  
BRANCH  29  33
HETATM   33  O   UNL     1     -12.273  12.891  69.660  1.00  0.00    -0.245 OA 
HETATM   34  C   UNL     1     -11.701  11.589  69.735  1.00  0.00    -0.353 C  
ENDBRANCH  29  33
BRANCH  30  35
HETATM   35  O   UNL     1     -10.823  15.016  70.143  1.00  0.00    -0.240 OA 
HETATM   36  C   UNL     1     -11.536  16.038  70.826  1.00  0.00    -0.414 C  
ENDBRANCH  30  35
BRANCH  32  37
HETATM   37  O   UNL     1      -9.948  16.719  68.001  1.00  0.00    -0.256 OA 
HETATM   38  C   UNL     1     -10.501  18.008  67.759  1.00  0.00    -0.408 C  
ENDBRANCH  32  37
ENDBRANCH  25  27
ENDBRANCH  24  25
ENDBRANCH  23  24
ENDBRANCH  22  23
ENDBRANCH  21  22
ENDBRANCH  19  21
ENDBRANCH  18  19
ENDBRANCH  17  18
ENDBRANCH  15  17
ENDBRANCH  14  15
ENDBRANCH  13  14
ENDBRANCH  12  13
ENDBRANCH  11  12
ENDBRANCH   9  11
ENDBRANCH   5   9
BRANCH   8  39
HETATM   39  O   UNL     1      -8.067   3.814  74.011  1.00  0.00    -0.081 OA 
HETATM   40  C   UNL     1      -7.248   3.050  73.140  1.00  0.00    -0.045 C  
ENDBRANCH   8  39
BRANCH   7  41
HETATM   41  O   UNL     1     -10.855   4.528  74.174  1.00  0.00    -0.272 OA 
HETATM   42  C   UNL     1     -11.281   3.376  73.465  1.00  0.00    -0.180 C  
ENDBRANCH   7  41
ENDBRANCH   2   3
TORSDOF 21
ENDMDL
MODEL      129
REMARK 921   NORMALIZED FREE ENERGY PREDICTED BY IDOCK:   -4.24 KCAL/MOL
REMARK 922        TOTAL FREE ENERGY PREDICTED BY IDOCK:  -12.30 KCAL/MOL
REMARK 923 INTER-LIGAND FREE ENERGY PREDICTED BY IDOCK:   -9.30 KCAL/MOL
REMARK 924 INTRA-LIGAND FREE ENERGY PREDICTED BY IDOCK:   -3.00 KCAL/MOL
REMARK 927      BINDING AFFINITY PREDICTED BY RF-SCORE:    0.00 PKD
ROOT
HETATM    1  C   UNL     1     -10.490  16.012  65.400  1.00  0.00    -0.392 C  
HETATM    2  O   UNL     1     -11.204  14.802  65.158  1.00  0.00    -0.346 OA 
ENDROOT
BRANCH   2   3
HETATM    3  C   UNL     1     -10.551  13.629  65.449  1.00  0.00    -0.317 A  
HETATM    4  C   UNL     1      -9.778  13.518  66.611  1.00  0.00    -0.281 A  
HETATM    5  C   UNL     1      -9.105  12.338  66.932  1.00  0.00    -0.208 A  
HETATM    6  C   UNL     1      -9.213  11.245  66.079  1.00  0.00    -0.224 A  
HETATM    7  C   UNL     1     -10.699  12.511  64.596  1.00  0.00    -0.311 A  
HETATM    8  C   UNL     1     -10.008  11.316  64.920  1.00  0.00    -0.274 A  
BRANCH   5   9
HETATM    9  C   UNL     1      -8.305  12.343  68.181  1.00  0.00    -0.178 C  
HETATM   10  O   UNL     1      -7.653  13.314  68.537  1.00  0.00    -0.128 OA 
BRANCH   9  11
HETATM   11  O   UNL     1      -8.362  11.151  68.825  1.00  0.00    -0.150 OA 
BRANCH  11  12
HETATM   12  C   UNL     1      -7.118  10.747  69.425  1.00  0.00    -0.122 C  
BRANCH  12  13
HETATM   13  C   UNL     1      -7.366   9.588  70.387  1.00  0.00    -0.146 C  
BRANCH  13  14
HETATM   14  C   UNL     1      -6.845   8.266  69.825  1.00  0.00    -0.044 C  
BRANCH  14  15
HETATM   15  N   UNL     1      -7.576   7.808  68.624  1.00  0.00    -0.103 NA 
HETATM   16  C   UNL     1      -6.785   6.840  67.852  1.00  0.00    -0.068 C  
BRANCH  15  17
HETATM   17  C   UNL     1      -8.881   7.235  69.050  1.00  0.00    -0.132 C  
BRANCH  17  18
HETATM   18  C   UNL     1      -8.813   5.746  69.466  1.00  0.00    -0.117 C  
BRANCH  18  19
HETATM   19  N   UNL     1      -9.865   4.863  68.908  1.00  0.00    -0.173 NA 
HETATM   20  C   UNL     1     -10.027   5.081  67.467  1.00  0.00    -0.167 C  
BRANCH  19  21
HETATM   21  C   UNL     1      -9.535   3.442  69.153  1.00  0.00    -0.141 C  
BRANCH  21  22
HETATM   22  C   UNL     1      -8.660   3.224  70.392  1.00  0.00    -0.110 C  
BRANCH  22  23
HETATM   23  C   UNL     1      -9.345   2.330  71.418  1.00  0.00    -0.125 C  
BRANCH  23  24
HETATM   24  O   UNL     1     -10.453   3.033  72.004  1.00  0.00    -0.024 OA 
BRANCH  24  25
HETATM   25  C   UNL     1     -10.146   3.852  73.042  1.00  0.00    -0.150 C  
HETATM   26  O   UNL     1      -9.673   3.509  74.113  1.00  0.00    -0.099 OA 
BRANCH  25  27
HETATM   27  C   UNL     1     -10.445   5.266  72.692  1.00  0.00    -0.265 A  
HETATM   28  C   UNL     1      -9.554   6.251  73.121  1.00  0.00    -0.154 A  
HETATM   29  C   UNL     1      -9.814   7.596  72.856  1.00  0.00    -0.242 A  
HETATM   30  C   UNL     1     -10.991   7.971  72.164  1.00  0.00    -0.295 A  
HETATM   31  C   UNL     1     -11.588   5.626  71.970  1.00  0.00    -0.148 A  
HETATM   32  C   UNL     1     -11.882   6.973  71.709  1.00  0.00    -0.312 A  
BRANCH  29  33
HETATM   33  O   UNL     1      -8.988   8.610  73.285  1.00  0.00    -0.288 OA 
HETATM   34  C   UNL     1      -8.051   8.276  74.305  1.00  0.00    -0.217 C  
ENDBRANCH  29  33
BRANCH  30  35
HETATM   35  O   UNL     1     -11.183   9.328  72.053  1.00  0.00    -0.343 OA 
HETATM   36  C   UNL     1     -11.041   9.929  70.774  1.00  0.00    -0.347 C  
ENDBRANCH  30  35
BRANCH  32  37
HETATM   37  O   UNL     1     -13.020   7.358  71.051  1.00  0.00    -0.269 OA 
HETATM   38  C   UNL     1     -14.204   7.566  71.812  1.00  0.00    -0.416 C  
ENDBRANCH  32  37
ENDBRANCH  25  27
ENDBRANCH  24  25
ENDBRANCH  23  24
ENDBRANCH  22  23
ENDBRANCH  21  22
ENDBRANCH  19  21
ENDBRANCH  18  19
ENDBRANCH  17  18
ENDBRANCH  15  17
ENDBRANCH  14  15
ENDBRANCH  13  14
ENDBRANCH  12  13
ENDBRANCH  11  12
ENDBRANCH   9  11
ENDBRANCH   5   9
BRANCH   8  39
HETATM   39  O   UNL     1      -9.986  10.123  64.235  1.00  0.00    -0.298 OA 
HETATM   40  C   UNL     1      -9.040   9.923  63.196  1.00  0.00    -0.266 C  
ENDBRANCH   8  39
BRANCH   7  41
HETATM   41  O   UNL     1     -11.452  12.478  63.452  1.00  0.00    -0.472 OA 
HETATM   42  C   UNL     1     -12.775  11.968  63.464  1.00  0.00    -0.443 C  
ENDBRANCH   7  41
ENDBRANCH   2   3
TORSDOF 21
ENDMDL
MODEL      130
REMARK 921   NORMALIZED FREE ENERGY PREDICTED BY IDOCK:   -4.23 KCAL/MOL
REMARK 922        TOTAL FREE ENERGY PREDICTED BY IDOCK:  -12.27 KCAL/MOL
REMARK 923 INTER-LIGAND FREE ENERGY PREDICTED BY IDOCK:   -8.68 KCAL/MOL
REMARK 924 INTRA-LIGAND FREE ENERGY PREDICTED BY IDOCK:   -3.59 KCAL/MOL
REMARK 927      BINDING AFFINITY PREDICTED BY RF-SCORE:    0.00 PKD
ROOT
HETATM    1  C   UNL     1     -10.838   5.704  71.823  1.00  0.00    -0.239 C  
HETATM    2  O   UNL     1     -11.722   6.779  71.514  1.00  0.00    -0.282 OA 
ENDROOT
BRANCH   2   3
HETATM    3  C   UNL     1     -11.367   7.592  70.467  1.00  0.00    -0.260 A  
HETATM    4  C   UNL     1     -11.017   7.040  69.228  1.00  0.00    -0.211 A  
HETATM    5  C   UNL     1     -10.652   7.844  68.147  1.00  0.00    -0.179 A  
HETATM    6  C   UNL     1     -10.644   9.225  68.303  1.00  0.00    -0.237 A  
HETATM    7  C   UNL     1     -11.400   8.997  70.624  1.00  0.00    -0.265 A  
HETATM    8  C   UNL     1     -11.022   9.811  69.526  1.00  0.00    -0.227 A  
BRANCH   5   9
HETATM    9  C   UNL     1     -10.287   7.146  66.889  1.00  0.00    -0.279 C  
HETATM   10  O   UNL     1      -9.448   7.586  66.117  1.00  0.00    -0.136 OA 
BRANCH   9  11
HETATM   11  O   UNL     1     -11.018   6.019  66.703  1.00  0.00    -0.293 OA 
BRANCH  11  12
HETATM   12  C   UNL     1     -10.259   4.801  66.815  1.00  0.00    -0.213 C  
BRANCH  12  13
HETATM   13  C   UNL     1      -9.859   4.319  65.424  1.00  0.00    -0.218 C  
BRANCH  13  14
HETATM   14  C   UNL     1      -8.884   3.143  65.493  1.00  0.00    -0.138 C  
BRANCH  14  15
HETATM   15  N   UNL     1      -8.007   3.175  66.682  1.00  0.00    -0.080 NA 
HETATM   16  C   UNL     1      -7.815   1.831  67.243  1.00  0.00    -0.064 C  
BRANCH  15  17
HETATM   17  C   UNL     1      -6.712   3.801  66.304  1.00  0.00    -0.049 C  
BRANCH  17  18
HETATM   18  C   UNL     1      -6.133   4.754  67.376  1.00  0.00    -0.031 C  
BRANCH  18  19
HETATM   19  N   UNL     1      -6.961   5.934  67.719  1.00  0.00    -0.067 NA 
HETATM   20  C   UNL     1      -7.425   5.867  69.109  1.00  0.00    -0.085 C  
BRANCH  19  21
HETATM   21  C   UNL     1      -6.195   7.184  67.521  1.00  0.00    -0.046 C  
BRANCH  21  22
HETATM   22  C   UNL     1      -6.792   8.388  68.257  1.00  0.00    -0.066 C  
BRANCH  22  23
HETATM   23  C   UNL     1      -5.906   9.621  68.137  1.00  0.00    -0.040 C  
BRANCH  23  24
HETATM   24  O   UNL     1      -6.506  10.557  67.225  1.00  0.00    -0.067 OA 
BRANCH  24  25
HETATM   25  C   UNL     1      -7.538  11.284  67.724  1.00  0.00    -0.104 C  
HETATM   26  O   UNL     1      -7.696  11.599  68.892  1.00  0.00    -0.125 OA 
BRANCH  25  27
HETATM   27  C   UNL     1      -8.467  11.681  66.633  1.00  0.00    -0.165 A  
HETATM   28  C   UNL     1      -9.091  12.926  66.723  1.00  0.00    -0.211 A  
HETATM   29  C   UNL     1     -10.005  13.325  65.748  1.00  0.00    -0.251 A  
HETATM   30  C   UNL     1     -10.319  12.461  64.670  1.00  0.00    -0.307 A  
HETATM   31  C   UNL     1      -8.741  10.841  65.549  1.00  0.00    -0.196 A  
HETATM   32  C   UNL     1      -9.672  11.209  64.566  1.00  0.00    -0.265 A  
BRANCH  29  33
HETATM   33  O   UNL     1     -10.675  14.527  65.804  1.00  0.00    -0.293 OA 
HETATM   34  C   UNL     1     -10.503  15.292  66.994  1.00  0.00    -0.292 C  
ENDBRANCH  29  33
BRANCH  30  35
HETATM   35  O   UNL     1     -11.306  12.925  63.833  1.00  0.00    -0.391 OA 
HETATM   36  C   UNL     1     -12.596  12.333  63.913  1.00  0.00    -0.440 C  
ENDBRANCH  30  35
BRANCH  32  37
HETATM   37  O   UNL     1      -9.999  10.386  63.522  1.00  0.00    -0.277 OA 
HETATM   38  C   UNL     1      -9.201  10.435  62.345  1.00  0.00    -0.277 C  
ENDBRANCH  32  37
ENDBRANCH  25  27
ENDBRANCH  24  25
ENDBRANCH  23  24
ENDBRANCH  22  23
ENDBRANCH  21  22
ENDBRANCH  19  21
ENDBRANCH  18  19
ENDBRANCH  17  18
ENDBRANCH  15  17
ENDBRANCH  14  15
ENDBRANCH  13  14
ENDBRANCH  12  13
ENDBRANCH  11  12
ENDBRANCH   9  11
ENDBRANCH   5   9
BRANCH   8  39
HETATM   39  O   UNL     1     -10.958  11.183  69.455  1.00  0.00    -0.238 OA 
HETATM   40  C   UNL     1     -11.963  11.901  68.758  1.00  0.00    -0.249 C  
ENDBRANCH   8  39
BRANCH   7  41
HETATM   41  O   UNL     1     -11.757   9.660  71.768  1.00  0.00    -0.388 OA 
HETATM   42  C   UNL     1     -13.101  10.051  71.996  1.00  0.00    -0.441 C  
ENDBRANCH   7  41
ENDBRANCH   2   3
TORSDOF 21
ENDMDL
MODEL      131
REMARK 921   NORMALIZED FREE ENERGY PREDICTED BY IDOCK:   -4.23 KCAL/MOL
REMARK 922        TOTAL FREE ENERGY PREDICTED BY IDOCK:  -12.27 KCAL/MOL
REMARK 923 INTER-LIGAND FREE ENERGY PREDICTED BY IDOCK:  -10.19 KCAL/MOL
REMARK 924 INTRA-LIGAND FREE ENERGY PREDICTED BY IDOCK:   -2.08 KCAL/MOL
REMARK 927      BINDING AFFINITY PREDICTED BY RF-SCORE:    0.00 PKD
ROOT
HETATM    1  C   UNL     1     -11.919   9.318  71.766  1.00  0.00    -0.385 C  
HETATM    2  O   UNL     1     -11.573   8.206  72.589  1.00  0.00    -0.397 OA 
ENDROOT
BRANCH   2   3
HETATM    3  C   UNL     1     -10.271   7.772  72.527  1.00  0.00    -0.260 A  
HETATM    4  C   UNL     1      -9.313   8.504  71.816  1.00  0.00    -0.323 A  
HETATM    5  C   UNL     1      -7.984   8.086  71.738  1.00  0.00    -0.133 A  
HETATM    6  C   UNL     1      -7.603   6.918  72.389  1.00  0.00    -0.091 A  
HETATM    7  C   UNL     1      -9.886   6.604  73.225  1.00  0.00    -0.179 A  
HETATM    8  C   UNL     1      -8.537   6.177  73.137  1.00  0.00    -0.117 A  
BRANCH   5   9
HETATM    9  C   UNL     1      -7.061   8.934  70.944  1.00  0.00    -0.085 C  
HETATM   10  O   UNL     1      -7.138  10.155  70.937  1.00  0.00    -0.325 OA 
BRANCH   9  11
HETATM   11  O   UNL     1      -6.184   8.194  70.222  1.00  0.00    -0.032 OA 
BRANCH  11  12
HETATM   12  C   UNL     1      -6.760   7.566  69.062  1.00  0.00    -0.049 C  
BRANCH  12  13
HETATM   13  C   UNL     1      -6.746   8.545  67.891  1.00  0.00    -0.066 C  
BRANCH  13  14
HETATM   14  C   UNL     1      -8.160   8.958  67.482  1.00  0.00    -0.109 C  
BRANCH  14  15
HETATM   15  N   UNL     1      -8.717   8.139  66.385  1.00  0.00    -0.140 NA 
HETATM   16  C   UNL     1      -9.779   7.246  66.868  1.00  0.00    -0.194 C  
BRANCH  15  17
HETATM   17  C   UNL     1      -9.209   9.047  65.314  1.00  0.00    -0.140 C  
BRANCH  17  18
HETATM   18  C   UNL     1     -10.099  10.205  65.825  1.00  0.00    -0.254 C  
BRANCH  18  19
HETATM   19  N   UNL     1     -10.088  11.444  65.014  1.00  0.00    -0.259 NA 
HETATM   20  C   UNL     1      -9.855  11.146  63.597  1.00  0.00    -0.345 C  
BRANCH  19  21
HETATM   21  C   UNL     1     -11.370  12.170  65.155  1.00  0.00    -0.327 C  
BRANCH  21  22
HETATM   22  C   UNL     1     -11.921  12.696  63.826  1.00  0.00    -0.588 C  
BRANCH  22  23
HETATM   23  C   UNL     1     -12.585  14.058  63.987  1.00  0.00    -0.025 C  
BRANCH  23  24
HETATM   24  O   UNL     1     -12.033  14.729  65.132  1.00  0.00    -0.346 OA 
BRANCH  24  25
HETATM   25  C   UNL     1     -11.430  15.918  64.881  1.00  0.00    -0.162 C  
HETATM   26  O   UNL     1     -11.734  16.707  64.001  1.00  0.00    -1.143 OA 
BRANCH  25  27
HETATM   27  C   UNL     1     -10.333  16.160  65.856  1.00  0.00    -0.384 A  
HETATM   28  C   UNL     1      -9.410  15.136  66.073  1.00  0.00    -0.326 A  
HETATM   29  C   UNL     1      -8.390  15.298  67.011  1.00  0.00    -0.234 A  
HETATM   30  C   UNL     1      -8.294  16.496  67.759  1.00  0.00    -0.170 A  
HETATM   31  C   UNL     1     -10.219  17.362  66.561  1.00  0.00    -0.329 A  
HETATM   32  C   UNL     1      -9.215  17.543  67.524  1.00  0.00    -0.242 A  
BRANCH  29  33
HETATM   33  O   UNL     1      -7.474  14.309  67.290  1.00  0.00    -0.174 OA 
HETATM   34  C   UNL     1      -8.005  13.031  67.629  1.00  0.00    -0.169 C  
ENDBRANCH  29  33
BRANCH  30  35
HETATM   35  O   UNL     1      -7.310  16.495  68.720  1.00  0.00    -0.182 OA 
HETATM   36  C   UNL     1      -6.075  17.130  68.424  1.00  0.00    -0.146 C  
ENDBRANCH  30  35
BRANCH  32  37
HETATM   37  O   UNL     1      -9.110  18.688  68.267  1.00  0.00    -0.303 OA 
HETATM   38  C   UNL     1      -8.648  19.871  67.626  1.00  0.00    -0.330 C  
ENDBRANCH  32  37
ENDBRANCH  25  27
ENDBRANCH  24  25
ENDBRANCH  23  24
ENDBRANCH  22  23
ENDBRANCH  21  22
ENDBRANCH  19  21
ENDBRANCH  18  19
ENDBRANCH  17  18
ENDBRANCH  15  17
ENDBRANCH  14  15
ENDBRANCH  13  14
ENDBRANCH  12  13
ENDBRANCH  11  12
ENDBRANCH   9  11
ENDBRANCH   5   9
BRANCH   8  39
HETATM   39  O   UNL     1      -7.945   5.074  73.707  1.00  0.00    -0.101 OA 
HETATM   40  C   UNL     1      -7.214   4.167  72.897  1.00  0.00    -0.068 C  
ENDBRANCH   8  39
BRANCH   7  41
HETATM   41  O   UNL     1     -10.716   5.821  73.983  1.00  0.00    -0.251 OA 
HETATM   42  C   UNL     1     -11.381   4.703  73.419  1.00  0.00    -0.305 C  
ENDBRANCH   7  41
ENDBRANCH   2   3
TORSDOF 21
ENDMDL
MODEL      132
REMARK 921   NORMALIZED FREE ENERGY PREDICTED BY IDOCK:   -4.22 KCAL/MOL
REMARK 922        TOTAL FREE ENERGY PREDICTED BY IDOCK:  -12.27 KCAL/MOL
REMARK 923 INTER-LIGAND FREE ENERGY PREDICTED BY IDOCK:  -10.00 KCAL/MOL
REMARK 924 INTRA-LIGAND FREE ENERGY PREDICTED BY IDOCK:   -2.27 KCAL/MOL
REMARK 927      BINDING AFFINITY PREDICTED BY RF-SCORE:    0.00 PKD
ROOT
HETATM    1  C   UNL     1     -11.594   4.494  73.333  1.00  0.00    -0.147 C  
HETATM    2  O   UNL     1     -11.027   5.514  74.153  1.00  0.00    -0.161 OA 
ENDROOT
BRANCH   2   3
HETATM    3  C   UNL     1     -10.538   6.624  73.509  1.00  0.00    -0.311 A  
HETATM    4  C   UNL     1     -11.383   7.419  72.726  1.00  0.00    -0.356 A  
HETATM    5  C   UNL     1     -10.912   8.552  72.062  1.00  0.00    -0.410 A  
HETATM    6  C   UNL     1      -9.573   8.904  72.189  1.00  0.00    -0.210 A  
HETATM    7  C   UNL     1      -9.184   6.994  73.677  1.00  0.00    -0.179 A  
HETATM    8  C   UNL     1      -8.706   8.142  72.996  1.00  0.00    -0.243 A  
BRANCH   5   9
HETATM    9  C   UNL     1     -11.896   9.308  71.249  1.00  0.00    -0.343 C  
HETATM   10  O   UNL     1     -13.100   9.111  71.329  1.00  0.00    -0.311 OA 
BRANCH   9  11
HETATM   11  O   UNL     1     -11.294  10.184  70.407  1.00  0.00    -0.278 OA 
BRANCH  11  12
HETATM   12  C   UNL     1     -12.128  11.289  70.013  1.00  0.00    -0.348 C  
BRANCH  12  13
HETATM   13  C   UNL     1     -11.350  12.207  69.074  1.00  0.00    -0.329 C  
BRANCH  13  14
HETATM   14  C   UNL     1     -11.552  13.680  69.430  1.00  0.00    -0.312 C  
BRANCH  14  15
HETATM   15  N   UNL     1     -11.788  14.542  68.252  1.00  0.00    -0.326 NA 
HETATM   16  C   UNL     1     -10.998  15.778  68.325  1.00  0.00    -0.325 C  
BRANCH  15  17
HETATM   17  C   UNL     1     -11.477  13.765  67.022  1.00  0.00    -0.346 C  
BRANCH  17  18
HETATM   18  C   UNL     1     -12.625  13.732  65.986  1.00  0.00    -0.408 C  
BRANCH  18  19
HETATM   19  N   UNL     1     -12.242  13.993  64.578  1.00  0.00    -0.534 NA 
HETATM   20  C   UNL     1     -10.984  14.742  64.503  1.00  0.00    -0.210 C  
BRANCH  19  21
HETATM   21  C   UNL     1     -12.098  12.723  63.833  1.00  0.00    -0.486 C  
BRANCH  21  22
HETATM   22  C   UNL     1     -10.646  12.384  63.482  1.00  0.00    -0.451 C  
BRANCH  22  23
HETATM   23  C   UNL     1      -9.934  11.684  64.632  1.00  0.00    -0.253 C  
BRANCH  23  24
HETATM   24  O   UNL     1     -10.237  10.279  64.602  1.00  0.00    -0.322 OA 
BRANCH  24  25
HETATM   25  C   UNL     1      -9.189   9.458  64.342  1.00  0.00    -0.052 C  
HETATM   26  O   UNL     1      -8.614   9.342  63.271  1.00  0.00    -0.194 OA 
BRANCH  25  27
HETATM   27  C   UNL     1      -8.799   8.711  65.566  1.00  0.00    -0.220 A  
HETATM   28  C   UNL     1      -8.764   7.317  65.502  1.00  0.00    -0.047 A  
HETATM   29  C   UNL     1      -8.447   6.569  66.637  1.00  0.00    -0.116 A  
HETATM   30  C   UNL     1      -8.177   7.220  67.865  1.00  0.00    -0.119 A  
HETATM   31  C   UNL     1      -8.491   9.361  66.766  1.00  0.00    -0.129 A  
HETATM   32  C   UNL     1      -8.190   8.632  67.926  1.00  0.00    -0.115 A  
BRANCH  29  33
HETATM   33  O   UNL     1      -8.431   5.193  66.639  1.00  0.00    -0.108 OA 
HETATM   34  C   UNL     1      -9.671   4.544  66.368  1.00  0.00    -0.208 C  
ENDBRANCH  29  33
BRANCH  30  35
HETATM   35  O   UNL     1      -7.978   6.374  68.930  1.00  0.00    -0.107 OA 
HETATM   36  C   UNL     1      -9.114   5.905  69.644  1.00  0.00    -0.137 C  
ENDBRANCH  30  35
BRANCH  32  37
HETATM   37  O   UNL     1      -7.936   9.240  69.127  1.00  0.00    -0.092 OA 
HETATM   38  C   UNL     1      -7.896  10.661  69.171  1.00  0.00    -0.142 C  
ENDBRANCH  32  37
ENDBRANCH  25  27
ENDBRANCH  24  25
ENDBRANCH  23  24
ENDBRANCH  22  23
ENDBRANCH  21  22
ENDBRANCH  19  21
ENDBRANCH  18  19
ENDBRANCH  17  18
ENDBRANCH  15  17
ENDBRANCH  14  15
ENDBRANCH  13  14
ENDBRANCH  12  13
ENDBRANCH  11  12
ENDBRANCH   9  11
ENDBRANCH   5   9
BRANCH   8  39
HETATM   39  O   UNL     1      -7.437   8.674  72.992  1.00  0.00    -0.341 OA 
HETATM   40  C   UNL     1      -6.475   8.199  72.065  1.00  0.00    -0.060 C  
ENDBRANCH   8  39
BRANCH   7  41
HETATM   41  O   UNL     1      -8.266   6.324  74.443  1.00  0.00    -0.120 OA 
HETATM   42  C   UNL     1      -7.580   5.192  73.936  1.00  0.00    -0.091 C  
ENDBRANCH   7  41
ENDBRANCH   2   3
TORSDOF 21
ENDMDL
MODEL      133
REMARK 921   NORMALIZED FREE ENERGY PREDICTED BY IDOCK:   -4.22 KCAL/MOL
REMARK 922        TOTAL FREE ENERGY PREDICTED BY IDOCK:  -12.26 KCAL/MOL
REMARK 923 INTER-LIGAND FREE ENERGY PREDICTED BY IDOCK:  -10.50 KCAL/MOL
REMARK 924 INTRA-LIGAND FREE ENERGY PREDICTED BY IDOCK:   -1.76 KCAL/MOL
REMARK 927      BINDING AFFINITY PREDICTED BY RF-SCORE:    0.00 PKD
ROOT
HETATM    1  C   UNL     1     -11.781   9.003  72.023  1.00  0.00    -0.347 C  
HETATM    2  O   UNL     1     -11.518   7.985  72.986  1.00  0.00    -0.370 OA 
ENDROOT
BRANCH   2   3
HETATM    3  C   UNL     1     -10.257   7.440  72.982  1.00  0.00    -0.286 A  
HETATM    4  C   UNL     1      -9.194   8.119  72.374  1.00  0.00    -0.292 A  
HETATM    5  C   UNL     1      -7.903   7.588  72.357  1.00  0.00    -0.112 A  
HETATM    6  C   UNL     1      -7.667   6.360  72.965  1.00  0.00    -0.098 A  
HETATM    7  C   UNL     1     -10.020   6.209  73.638  1.00  0.00    -0.203 A  
HETATM    8  C   UNL     1      -8.709   5.670  73.612  1.00  0.00    -0.122 A  
BRANCH   5   9
HETATM    9  C   UNL     1      -6.860   8.390  71.671  1.00  0.00    -0.076 C  
HETATM   10  O   UNL     1      -6.523   9.498  72.063  1.00  0.00    -0.300 OA 
BRANCH   9  11
HETATM   11  O   UNL     1      -6.383   7.764  70.567  1.00  0.00    -0.037 OA 
BRANCH  11  12
HETATM   12  C   UNL     1      -7.378   7.507  69.560  1.00  0.00    -0.084 C  
BRANCH  12  13
HETATM   13  C   UNL     1      -7.805   8.823  68.916  1.00  0.00    -0.104 C  
BRANCH  13  14
HETATM   14  C   UNL     1      -9.247   8.763  68.410  1.00  0.00    -0.137 C  
BRANCH  14  15
HETATM   15  N   UNL     1      -9.434   7.831  67.278  1.00  0.00    -0.142 NA 
HETATM   16  C   UNL     1     -10.640   7.011  67.452  1.00  0.00    -0.302 C  
BRANCH  15  17
HETATM   17  C   UNL     1      -9.483   8.618  66.016  1.00  0.00    -0.208 C  
BRANCH  17  18
HETATM   18  C   UNL     1     -10.068  10.041  66.179  1.00  0.00    -0.247 C  
BRANCH  18  19
HETATM   19  N   UNL     1      -9.346  11.129  65.480  1.00  0.00    -0.219 NA 
HETATM   20  C   UNL     1      -9.037  10.753  64.096  1.00  0.00    -0.196 C  
BRANCH  19  21
HETATM   21  C   UNL     1     -10.149  12.372  65.480  1.00  0.00    -0.267 C  
BRANCH  21  22
HETATM   22  C   UNL     1     -10.830  12.656  64.137  1.00  0.00    -0.431 C  
BRANCH  22  23
HETATM   23  C   UNL     1     -11.930  13.701  64.270  1.00  0.00    -0.445 C  
BRANCH  23  24
HETATM   24  O   UNL     1     -11.592  14.623  65.320  1.00  0.00    -0.345 OA 
BRANCH  24  25
HETATM   25  C   UNL     1     -11.240  15.870  64.915  1.00  0.00    -0.337 C  
HETATM   26  O   UNL     1     -11.751  16.502  64.006  1.00  0.00    -1.111 OA 
BRANCH  25  27
HETATM   27  C   UNL     1     -10.134  16.395  65.759  1.00  0.00    -0.352 A  
HETATM   28  C   UNL     1     -10.223  17.711  66.215  1.00  0.00    -0.362 A  
HETATM   29  C   UNL     1      -9.190  18.263  66.972  1.00  0.00    -0.274 A  
HETATM   30  C   UNL     1      -8.036  17.497  67.269  1.00  0.00    -0.205 A  
HETATM   31  C   UNL     1      -9.016  15.619  66.084  1.00  0.00    -0.362 A  
HETATM   32  C   UNL     1      -7.954  16.157  66.827  1.00  0.00    -0.272 A  
BRANCH  29  33
HETATM   33  O   UNL     1      -9.210  19.566  67.419  1.00  0.00    -0.301 OA 
HETATM   34  C   UNL     1     -10.249  19.905  68.332  1.00  0.00    -0.433 C  
ENDBRANCH  29  33
BRANCH  30  35
HETATM   35  O   UNL     1      -7.048  18.184  67.934  1.00  0.00    -0.210 OA 
HETATM   36  C   UNL     1      -6.879  17.949  69.325  1.00  0.00    -0.183 C  
ENDBRANCH  30  35
BRANCH  32  37
HETATM   37  O   UNL     1      -6.825  15.439  67.115  1.00  0.00    -0.244 OA 
HETATM   38  C   UNL     1      -6.912  14.400  68.082  1.00  0.00    -0.124 C  
ENDBRANCH  32  37
ENDBRANCH  25  27
ENDBRANCH  24  25
ENDBRANCH  23  24
ENDBRANCH  22  23
ENDBRANCH  21  22
ENDBRANCH  19  21
ENDBRANCH  18  19
ENDBRANCH  17  18
ENDBRANCH  15  17
ENDBRANCH  14  15
ENDBRANCH  13  14
ENDBRANCH  12  13
ENDBRANCH  11  12
ENDBRANCH   9  11
ENDBRANCH   5   9
BRANCH   8  39
HETATM   39  O   UNL     1      -8.254   4.491  74.157  1.00  0.00    -0.098 OA 
HETATM   40  C   UNL     1      -7.107   3.858  73.612  1.00  0.00    -0.059 C  
ENDBRANCH   8  39
BRANCH   7  41
HETATM   41  O   UNL     1     -10.963   5.467  74.298  1.00  0.00    -0.200 OA 
HETATM   42  C   UNL     1     -11.596   4.364  73.669  1.00  0.00    -0.004 C  
ENDBRANCH   7  41
ENDBRANCH   2   3
TORSDOF 21
ENDMDL
MODEL      134
REMARK 921   NORMALIZED FREE ENERGY PREDICTED BY IDOCK:   -4.21 KCAL/MOL
REMARK 922        TOTAL FREE ENERGY PREDICTED BY IDOCK:  -12.23 KCAL/MOL
REMARK 923 INTER-LIGAND FREE ENERGY PREDICTED BY IDOCK:   -9.75 KCAL/MOL
REMARK 924 INTRA-LIGAND FREE ENERGY PREDICTED BY IDOCK:   -2.48 KCAL/MOL
REMARK 927      BINDING AFFINITY PREDICTED BY RF-SCORE:    0.00 PKD
ROOT
HETATM    1  C   UNL     1      -7.369   8.080  73.577  1.00  0.00    -0.143 C  
HETATM    2  O   UNL     1      -8.260   8.798  72.726  1.00  0.00    -0.407 OA 
ENDROOT
BRANCH   2   3
HETATM    3  C   UNL     1      -8.375   8.352  71.433  1.00  0.00    -0.145 A  
HETATM    4  C   UNL     1      -7.261   8.342  70.585  1.00  0.00    -0.049 A  
HETATM    5  C   UNL     1      -7.350   7.893  69.266  1.00  0.00    -0.082 A  
HETATM    6  C   UNL     1      -8.573   7.438  68.787  1.00  0.00    -0.129 A  
HETATM    7  C   UNL     1      -9.615   7.855  70.968  1.00  0.00    -0.159 A  
HETATM    8  C   UNL     1      -9.704   7.406  69.626  1.00  0.00    -0.163 A  
BRANCH   5   9
HETATM    9  C   UNL     1      -6.107   7.942  68.458  1.00  0.00    -0.040 C  
HETATM   10  O   UNL     1      -5.983   7.325  67.410  1.00  0.00    -0.034 OA 
BRANCH   9  11
HETATM   11  O   UNL     1      -5.150   8.704  69.044  1.00  0.00    -0.031 OA 
BRANCH  11  12
HETATM   12  C   UNL     1      -5.252  10.108  68.746  1.00  0.00    -0.035 C  
BRANCH  12  13
HETATM   13  C   UNL     1      -5.361  10.303  67.236  1.00  0.00    -0.041 C  
BRANCH  13  14
HETATM   14  C   UNL     1      -6.323  11.437  66.881  1.00  0.00    -0.137 C  
BRANCH  14  15
HETATM   15  N   UNL     1      -6.841  12.160  68.062  1.00  0.00    -0.074 NA 
HETATM   16  C   UNL     1      -6.427  13.569  68.053  1.00  0.00    -0.135 C  
BRANCH  15  17
HETATM   17  C   UNL     1      -8.322  12.024  68.093  1.00  0.00    -0.165 C  
BRANCH  17  18
HETATM   18  C   UNL     1      -8.956  11.691  66.722  1.00  0.00    -0.189 C  
BRANCH  18  19
HETATM   19  N   UNL     1      -9.591  10.357  66.602  1.00  0.00    -0.172 NA 
HETATM   20  C   UNL     1     -10.828  10.289  67.387  1.00  0.00    -0.277 C  
BRANCH  19  21
HETATM   21  C   UNL     1      -9.896  10.051  65.186  1.00  0.00    -0.318 C  
BRANCH  21  22
HETATM   22  C   UNL     1      -9.686  11.243  64.247  1.00  0.00    -0.295 C  
BRANCH  22  23
HETATM   23  C   UNL     1     -10.970  11.628  63.524  1.00  0.00    -0.407 C  
BRANCH  23  24
HETATM   24  O   UNL     1     -11.903  12.185  64.466  1.00  0.00    -0.362 OA 
BRANCH  24  25
HETATM   25  C   UNL     1     -12.068  13.530  64.403  1.00  0.00    -0.420 C  
HETATM   26  O   UNL     1     -12.566  14.151  63.478  1.00  0.00    -0.834 OA 
BRANCH  25  27
HETATM   27  C   UNL     1     -11.574  14.172  65.650  1.00  0.00    -0.339 A  
HETATM   28  C   UNL     1     -10.696  15.250  65.530  1.00  0.00    -0.385 A  
HETATM   29  C   UNL     1     -10.169  15.857  66.670  1.00  0.00    -0.288 A  
HETATM   30  C   UNL     1     -10.510  15.373  67.957  1.00  0.00    -0.257 A  
HETATM   31  C   UNL     1     -11.948  13.716  66.918  1.00  0.00    -0.454 A  
HETATM   32  C   UNL     1     -11.417  14.295  68.080  1.00  0.00    -0.308 A  
BRANCH  29  33
HETATM   33  O   UNL     1      -9.273  16.901  66.610  1.00  0.00    -0.232 OA 
HETATM   34  C   UNL     1      -7.912  16.554  66.376  1.00  0.00    -0.317 C  
ENDBRANCH  29  33
BRANCH  30  35
HETATM   35  O   UNL     1      -9.850  15.988  68.994  1.00  0.00    -0.214 OA 
HETATM   36  C   UNL     1      -8.816  15.274  69.658  1.00  0.00    -0.108 C  
ENDBRANCH  30  35
BRANCH  32  37
HETATM   37  O   UNL     1     -11.723  13.836  69.333  1.00  0.00    -0.283 OA 
HETATM   38  C   UNL     1     -12.535  14.648  70.172  1.00  0.00    -0.317 C  
ENDBRANCH  32  37
ENDBRANCH  25  27
ENDBRANCH  24  25
ENDBRANCH  23  24
ENDBRANCH  22  23
ENDBRANCH  21  22
ENDBRANCH  19  21
ENDBRANCH  18  19
ENDBRANCH  17  18
ENDBRANCH  15  17
ENDBRANCH  14  15
ENDBRANCH  13  14
ENDBRANCH  12  13
ENDBRANCH  11  12
ENDBRANCH   9  11
ENDBRANCH   5   9
BRANCH   8  39
HETATM   39  O   UNL     1     -10.798   6.908  68.957  1.00  0.00    -0.227 OA 
HETATM   40  C   UNL     1     -10.704   6.610  67.573  1.00  0.00    -0.317 C  
ENDBRANCH   8  39
BRANCH   7  41
HETATM   41  O   UNL     1     -10.767   7.777  71.705  1.00  0.00    -0.216 OA 
HETATM   42  C   UNL     1     -11.005   6.682  72.574  1.00  0.00    -0.247 C  
ENDBRANCH   7  41
ENDBRANCH   2   3
TORSDOF 21
ENDMDL
MODEL      135
REMARK 921   NORMALIZED FREE ENERGY PREDICTED BY IDOCK:   -4.19 KCAL/MOL
REMARK 922        TOTAL FREE ENERGY PREDICTED BY IDOCK:  -12.19 KCAL/MOL
REMARK 923 INTER-LIGAND FREE ENERGY PREDICTED BY IDOCK:  -10.08 KCAL/MOL
REMARK 924 INTRA-LIGAND FREE ENERGY PREDICTED BY IDOCK:   -2.11 KCAL/MOL
REMARK 927      BINDING AFFINITY PREDICTED BY RF-SCORE:    0.00 PKD
ROOT
HETATM    1  C   UNL     1     -10.540   5.309  66.364  1.00  0.00    -0.276 C  
HETATM    2  O   UNL     1      -9.494   4.458  66.829  1.00  0.00    -0.152 OA 
ENDROOT
BRANCH   2   3
HETATM    3  C   UNL     1      -8.877   4.820  68.000  1.00  0.00    -0.105 A  
HETATM    4  C   UNL     1      -9.494   4.573  69.233  1.00  0.00    -0.242 A  
HETATM    5  C   UNL     1      -8.888   4.930  70.438  1.00  0.00    -0.135 A  
HETATM    6  C   UNL     1      -7.638   5.538  70.413  1.00  0.00    -0.081 A  
HETATM    7  C   UNL     1      -7.589   5.403  67.966  1.00  0.00    -0.081 A  
HETATM    8  C   UNL     1      -6.979   5.771  69.192  1.00  0.00    -0.064 A  
BRANCH   5   9
HETATM    9  C   UNL     1      -9.643   4.632  71.680  1.00  0.00    -0.161 C  
HETATM   10  O   UNL     1      -9.920   3.490  72.020  1.00  0.00    -0.165 OA 
BRANCH   9  11
HETATM   11  O   UNL     1     -10.007   5.761  72.336  1.00  0.00    -0.167 OA 
BRANCH  11  12
HETATM   12  C   UNL     1     -11.411   5.834  72.647  1.00  0.00    -0.300 C  
BRANCH  12  13
HETATM   13  C   UNL     1     -11.976   7.160  72.146  1.00  0.00    -0.304 C  
BRANCH  13  14
HETATM   14  C   UNL     1     -11.775   7.328  70.640  1.00  0.00    -0.275 C  
BRANCH  14  15
HETATM   15  N   UNL     1     -11.138   8.610  70.271  1.00  0.00    -0.241 NA 
HETATM   16  C   UNL     1     -10.653   9.328  71.457  1.00  0.00    -0.335 C  
BRANCH  15  17
HETATM   17  C   UNL     1     -10.038   8.336  69.308  1.00  0.00    -0.199 C  
BRANCH  17  18
HETATM   18  C   UNL     1     -10.383   8.679  67.839  1.00  0.00    -0.229 C  
BRANCH  18  19
HETATM   19  N   UNL     1      -9.562   9.738  67.205  1.00  0.00    -0.164 NA 
HETATM   20  C   UNL     1      -8.249   9.844  67.849  1.00  0.00    -0.113 C  
BRANCH  19  21
HETATM   21  C   UNL     1      -9.377   9.461  65.763  1.00  0.00    -0.239 C  
BRANCH  21  22
HETATM   22  C   UNL     1      -9.823  10.615  64.859  1.00  0.00    -0.363 C  
BRANCH  22  23
HETATM   23  C   UNL     1     -10.748  11.580  65.589  1.00  0.00    -0.267 C  
BRANCH  23  24
HETATM   24  O   UNL     1     -11.034  12.705  64.741  1.00  0.00    -0.282 OA 
BRANCH  24  25
HETATM   25  C   UNL     1     -12.035  13.519  65.163  1.00  0.00    -0.368 C  
HETATM   26  O   UNL     1     -13.224  13.375  64.932  1.00  0.00    -0.679 OA 
BRANCH  25  27
HETATM   27  C   UNL     1     -11.487  14.629  65.987  1.00  0.00    -0.332 A  
HETATM   28  C   UNL     1     -11.652  14.562  67.371  1.00  0.00    -0.406 A  
HETATM   29  C   UNL     1     -11.195  15.601  68.184  1.00  0.00    -0.345 A  
HETATM   30  C   UNL     1     -10.576  16.736  67.607  1.00  0.00    -0.325 A  
HETATM   31  C   UNL     1     -10.837  15.727  65.415  1.00  0.00    -0.376 A  
HETATM   32  C   UNL     1     -10.387  16.794  66.207  1.00  0.00    -0.310 A  
BRANCH  29  33
HETATM   33  O   UNL     1     -11.362  15.603  69.550  1.00  0.00    -0.278 OA 
HETATM   34  C   UNL     1     -12.353  14.720  70.069  1.00  0.00    -0.316 C  
ENDBRANCH  29  33
BRANCH  30  35
HETATM   35  O   UNL     1     -10.261  17.733  68.500  1.00  0.00    -0.349 OA 
HETATM   36  C   UNL     1      -8.890  18.015  68.744  1.00  0.00    -0.199 C  
ENDBRANCH  30  35
BRANCH  32  37
HETATM   37  O   UNL     1      -9.796  17.906  65.670  1.00  0.00    -0.512 OA 
HETATM   38  C   UNL     1     -10.551  19.110  65.604  1.00  0.00    -0.229 C  
ENDBRANCH  32  37
ENDBRANCH  25  27
ENDBRANCH  24  25
ENDBRANCH  23  24
ENDBRANCH  22  23
ENDBRANCH  21  22
ENDBRANCH  19  21
ENDBRANCH  18  19
ENDBRANCH  17  18
ENDBRANCH  15  17
ENDBRANCH  14  15
ENDBRANCH  13  14
ENDBRANCH  12  13
ENDBRANCH  11  12
ENDBRANCH   9  11
ENDBRANCH   5   9
BRANCH   8  39
HETATM   39  O   UNL     1      -5.755   6.364  69.399  1.00  0.00    -0.013 OA 
HETATM   40  C   UNL     1      -5.157   6.320  70.685  1.00  0.00    -0.014 C  
ENDBRANCH   8  39
BRANCH   7  41
HETATM   41  O   UNL     1      -6.865   5.663  66.832  1.00  0.00    -0.060 OA 
HETATM   42  C   UNL     1      -6.055   4.663  66.238  1.00  0.00    -0.031 C  
ENDBRANCH   7  41
ENDBRANCH   2   3
TORSDOF 21
ENDMDL
MODEL      136
REMARK 921   NORMALIZED FREE ENERGY PREDICTED BY IDOCK:   -4.18 KCAL/MOL
REMARK 922        TOTAL FREE ENERGY PREDICTED BY IDOCK:  -12.18 KCAL/MOL
REMARK 923 INTER-LIGAND FREE ENERGY PREDICTED BY IDOCK:  -10.03 KCAL/MOL
REMARK 924 INTRA-LIGAND FREE ENERGY PREDICTED BY IDOCK:   -2.15 KCAL/MOL
REMARK 927      BINDING AFFINITY PREDICTED BY RF-SCORE:    0.00 PKD
ROOT
HETATM    1  C   UNL     1     -10.673   5.070  66.336  1.00  0.00    -0.178 C  
HETATM    2  O   UNL     1      -9.851   4.047  66.892  1.00  0.00    -0.217 OA 
ENDROOT
BRANCH   2   3
HETATM    3  C   UNL     1      -9.089   4.389  67.982  1.00  0.00    -0.127 A  
HETATM    4  C   UNL     1      -9.569   4.169  69.279  1.00  0.00    -0.256 A  
HETATM    5  C   UNL     1      -8.815   4.506  70.404  1.00  0.00    -0.129 A  
HETATM    6  C   UNL     1      -7.554   5.067  70.231  1.00  0.00    -0.063 A  
HETATM    7  C   UNL     1      -7.793   4.922  67.795  1.00  0.00    -0.094 A  
HETATM    8  C   UNL     1      -7.032   5.271  68.940  1.00  0.00    -0.056 A  
BRANCH   5   9
HETATM    9  C   UNL     1      -9.432   4.240  71.727  1.00  0.00    -0.145 C  
HETATM   10  O   UNL     1      -9.565   3.109  72.172  1.00  0.00    -0.119 OA 
BRANCH   9  11
HETATM   11  O   UNL     1      -9.851   5.380  72.330  1.00  0.00    -0.160 OA 
BRANCH  11  12
HETATM   12  C   UNL     1     -11.281   5.485  72.460  1.00  0.00    -0.274 C  
BRANCH  12  13
HETATM   13  C   UNL     1     -11.722   6.905  72.117  1.00  0.00    -0.327 C  
BRANCH  13  14
HETATM   14  C   UNL     1     -11.590   7.192  70.620  1.00  0.00    -0.314 C  
BRANCH  14  15
HETATM   15  N   UNL     1     -11.011   8.520  70.325  1.00  0.00    -0.243 NA 
HETATM   16  C   UNL     1     -10.073   8.941  71.375  1.00  0.00    -0.309 C  
BRANCH  15  17
HETATM   17  C   UNL     1     -10.353   8.467  68.992  1.00  0.00    -0.216 C  
BRANCH  17  18
HETATM   18  C   UNL     1     -10.896   9.501  67.977  1.00  0.00    -0.168 C  
BRANCH  18  19
HETATM   19  N   UNL     1      -9.882  10.328  67.281  1.00  0.00    -0.176 NA 
HETATM   20  C   UNL     1      -8.561   9.693  67.326  1.00  0.00    -0.132 C  
BRANCH  19  21
HETATM   21  C   UNL     1     -10.269  10.548  65.870  1.00  0.00    -0.245 C  
BRANCH  21  22
HETATM   22  C   UNL     1      -9.640  11.803  65.255  1.00  0.00    -0.189 C  
BRANCH  22  23
HETATM   23  C   UNL     1      -9.895  13.039  66.107  1.00  0.00    -0.273 C  
BRANCH  23  24
HETATM   24  O   UNL     1     -10.832  13.900  65.439  1.00  0.00    -0.298 OA 
BRANCH  24  25
HETATM   25  C   UNL     1     -12.044  14.024  66.037  1.00  0.00    -0.439 C  
HETATM   26  O   UNL     1     -13.128  13.828  65.512  1.00  0.00    -0.671 OA 
BRANCH  25  27
HETATM   27  C   UNL     1     -11.882  14.417  67.461  1.00  0.00    -0.418 A  
HETATM   28  C   UNL     1     -11.372  15.686  67.738  1.00  0.00    -0.261 A  
HETATM   29  C   UNL     1     -11.159  16.085  69.058  1.00  0.00    -0.320 A  
HETATM   30  C   UNL     1     -11.444  15.198  70.125  1.00  0.00    -0.281 A  
HETATM   31  C   UNL     1     -12.206  13.552  68.512  1.00  0.00    -0.160 A  
HETATM   32  C   UNL     1     -11.982  13.921  69.847  1.00  0.00    -0.341 A  
BRANCH  29  33
HETATM   33  O   UNL     1     -10.627  17.312  69.387  1.00  0.00    -0.300 OA 
HETATM   34  C   UNL     1      -9.953  18.010  68.344  1.00  0.00    -0.378 C  
ENDBRANCH  29  33
BRANCH  30  35
HETATM   35  O   UNL     1     -11.099  15.669  71.370  1.00  0.00    -0.348 OA 
HETATM   36  C   UNL     1     -12.136  16.079  72.250  1.00  0.00    -0.527 C  
ENDBRANCH  30  35
BRANCH  32  37
HETATM   37  O   UNL     1     -12.239  13.075  70.892  1.00  0.00    -0.354 OA 
HETATM   38  C   UNL     1     -12.381  11.686  70.621  1.00  0.00    -0.344 C  
ENDBRANCH  32  37
ENDBRANCH  25  27
ENDBRANCH  24  25
ENDBRANCH  23  24
ENDBRANCH  22  23
ENDBRANCH  21  22
ENDBRANCH  19  21
ENDBRANCH  18  19
ENDBRANCH  17  18
ENDBRANCH  15  17
ENDBRANCH  14  15
ENDBRANCH  13  14
ENDBRANCH  12  13
ENDBRANCH  11  12
ENDBRANCH   9  11
ENDBRANCH   5   9
BRANCH   8  39
HETATM   39  O   UNL     1      -5.772   5.819  69.001  1.00  0.00    -0.010 OA 
HETATM   40  C   UNL     1      -5.609   7.175  69.383  1.00  0.00    -0.015 C  
ENDBRANCH   8  39
BRANCH   7  41
HETATM   41  O   UNL     1      -7.195   5.152  66.584  1.00  0.00    -0.077 OA 
HETATM   42  C   UNL     1      -7.298   6.415  65.947  1.00  0.00    -0.080 C  
ENDBRANCH   7  41
ENDBRANCH   2   3
TORSDOF 21
ENDMDL
MODEL      137
REMARK 921   NORMALIZED FREE ENERGY PREDICTED BY IDOCK:   -4.18 KCAL/MOL
REMARK 922        TOTAL FREE ENERGY PREDICTED BY IDOCK:  -12.16 KCAL/MOL
REMARK 923 INTER-LIGAND FREE ENERGY PREDICTED BY IDOCK:   -9.59 KCAL/MOL
REMARK 924 INTRA-LIGAND FREE ENERGY PREDICTED BY IDOCK:   -2.57 KCAL/MOL
REMARK 927      BINDING AFFINITY PREDICTED BY RF-SCORE:    0.00 PKD
ROOT
HETATM    1  C   UNL     1     -10.717   2.878  63.111  1.00  0.00    -0.220 C  
HETATM    2  O   UNL     1      -9.882   2.541  64.216  1.00  0.00    -0.145 OA 
ENDROOT
BRANCH   2   3
HETATM    3  C   UNL     1      -9.283   3.583  64.881  1.00  0.00    -0.144 A  
HETATM    4  C   UNL     1     -10.045   4.446  65.678  1.00  0.00    -0.256 A  
HETATM    5  C   UNL     1      -9.461   5.512  66.364  1.00  0.00    -0.167 A  
HETATM    6  C   UNL     1      -8.090   5.716  66.259  1.00  0.00    -0.107 A  
HETATM    7  C   UNL     1      -7.882   3.758  64.798  1.00  0.00    -0.085 A  
HETATM    8  C   UNL     1      -7.294   4.846  65.490  1.00  0.00    -0.073 A  
BRANCH   5   9
HETATM    9  C   UNL     1     -10.370   6.367  67.166  1.00  0.00    -0.232 C  
HETATM   10  O   UNL     1     -11.471   6.712  66.762  1.00  0.00    -0.139 OA 
BRANCH   9  11
HETATM   11  O   UNL     1      -9.812   6.735  68.347  1.00  0.00    -0.134 OA 
BRANCH  11  12
HETATM   12  C   UNL     1      -9.863   5.717  69.363  1.00  0.00    -0.175 C  
BRANCH  12  13
HETATM   13  C   UNL     1     -11.027   5.996  70.308  1.00  0.00    -0.412 C  
BRANCH  13  14
HETATM   14  C   UNL     1     -11.115   7.479  70.673  1.00  0.00    -0.265 C  
BRANCH  14  15
HETATM   15  N   UNL     1     -11.644   7.719  72.032  1.00  0.00    -0.285 NA 
HETATM   16  C   UNL     1     -10.569   7.726  73.033  1.00  0.00    -0.379 C  
BRANCH  15  17
HETATM   17  C   UNL     1     -12.400   9.000  72.031  1.00  0.00    -0.384 C  
BRANCH  17  18
HETATM   18  C   UNL     1     -11.794  10.092  71.117  1.00  0.00    -0.393 C  
BRANCH  18  19
HETATM   19  N   UNL     1     -12.696  11.205  70.741  1.00  0.00    -0.320 NA 
HETATM   20  C   UNL     1     -13.119  11.964  71.922  1.00  0.00    -0.369 C  
BRANCH  19  21
HETATM   21  C   UNL     1     -12.028  12.118  69.787  1.00  0.00    -0.302 C  
BRANCH  21  22
HETATM   22  C   UNL     1     -12.090  13.590  70.209  1.00  0.00    -0.425 C  
BRANCH  22  23
HETATM   23  C   UNL     1     -11.975  14.526  69.013  1.00  0.00    -0.299 C  
BRANCH  23  24
HETATM   24  O   UNL     1     -10.590  14.710  68.677  1.00  0.00    -0.237 OA 
BRANCH  24  25
HETATM   25  C   UNL     1     -10.310  14.769  67.351  1.00  0.00    -0.242 C  
HETATM   26  O   UNL     1     -10.218  15.784  66.680  1.00  0.00    -0.269 OA 
BRANCH  25  27
HETATM   27  C   UNL     1     -10.101  13.403  66.804  1.00  0.00    -0.260 A  
HETATM   28  C   UNL     1     -10.754  13.062  65.619  1.00  0.00    -0.293 A  
HETATM   29  C   UNL     1     -10.625  11.778  65.089  1.00  0.00    -0.283 A  
HETATM   30  C   UNL     1      -9.843  10.806  65.761  1.00  0.00    -0.240 A  
HETATM   31  C   UNL     1      -9.292  12.461  67.449  1.00  0.00    -0.181 A  
HETATM   32  C   UNL     1      -9.162  11.157  66.949  1.00  0.00    -0.169 A  
BRANCH  29  33
HETATM   33  O   UNL     1     -11.274  11.378  63.943  1.00  0.00    -0.386 OA 
HETATM   34  C   UNL     1     -12.378  12.177  63.529  1.00  0.00    -0.574 C  
ENDBRANCH  29  33
BRANCH  30  35
HETATM   35  O   UNL     1      -9.875   9.554  65.195  1.00  0.00    -0.248 OA 
HETATM   36  C   UNL     1      -8.705   9.072  64.549  1.00  0.00    -0.120 C  
ENDBRANCH  30  35
BRANCH  32  37
HETATM   37  O   UNL     1      -8.420  10.199  67.587  1.00  0.00    -0.118 OA 
HETATM   38  C   UNL     1      -8.471  10.138  69.007  1.00  0.00    -0.151 C  
ENDBRANCH  32  37
ENDBRANCH  25  27
ENDBRANCH  24  25
ENDBRANCH  23  24
ENDBRANCH  22  23
ENDBRANCH  21  22
ENDBRANCH  19  21
ENDBRANCH  18  19
ENDBRANCH  17  18
ENDBRANCH  15  17
ENDBRANCH  14  15
ENDBRANCH  13  14
ENDBRANCH  12  13
ENDBRANCH  11  12
ENDBRANCH   9  11
ENDBRANCH   5   9
BRANCH   8  39
HETATM   39  O   UNL     1      -5.971   5.221  65.537  1.00  0.00    -0.024 OA 
HETATM   40  C   UNL     1      -5.609   6.569  65.283  1.00  0.00    -0.025 C  
ENDBRANCH   8  39
BRANCH   7  41
HETATM   41  O   UNL     1      -7.024   2.964  64.083  1.00  0.00    -0.039 OA 
HETATM   42  C   UNL     1      -6.503   3.391  62.836  1.00  0.00    -0.022 C  
ENDBRANCH   7  41
ENDBRANCH   2   3
TORSDOF 21
ENDMDL
MODEL      138
REMARK 921   NORMALIZED FREE ENERGY PREDICTED BY IDOCK:   -4.16 KCAL/MOL
REMARK 922        TOTAL FREE ENERGY PREDICTED BY IDOCK:  -12.13 KCAL/MOL
REMARK 923 INTER-LIGAND FREE ENERGY PREDICTED BY IDOCK:  -10.35 KCAL/MOL
REMARK 924 INTRA-LIGAND FREE ENERGY PREDICTED BY IDOCK:   -1.78 KCAL/MOL
REMARK 927      BINDING AFFINITY PREDICTED BY RF-SCORE:    0.00 PKD
ROOT
HETATM    1  C   UNL     1      -6.888   6.676  62.826  1.00  0.00    -0.043 C  
HETATM    2  O   UNL     1      -7.583   7.920  62.796  1.00  0.00    -0.109 OA 
ENDROOT
BRANCH   2   3
HETATM    3  C   UNL     1      -8.133   8.350  63.979  1.00  0.00    -0.142 A  
HETATM    4  C   UNL     1      -7.701   7.813  65.198  1.00  0.00    -0.101 A  
HETATM    5  C   UNL     1      -8.243   8.232  66.414  1.00  0.00    -0.107 A  
HETATM    6  C   UNL     1      -9.228   9.213  66.414  1.00  0.00    -0.233 A  
HETATM    7  C   UNL     1      -9.106   9.376  63.970  1.00  0.00    -0.060 A  
HETATM    8  C   UNL     1      -9.660   9.795  65.207  1.00  0.00    -0.300 A  
BRANCH   5   9
HETATM    9  C   UNL     1      -7.717   7.581  67.639  1.00  0.00    -0.115 C  
HETATM   10  O   UNL     1      -6.975   6.611  67.598  1.00  0.00    -0.077 OA 
BRANCH   9  11
HETATM   11  O   UNL     1      -8.193   8.164  68.768  1.00  0.00    -0.121 OA 
BRANCH  11  12
HETATM   12  C   UNL     1      -9.083   7.329  69.530  1.00  0.00    -0.143 C  
BRANCH  12  13
HETATM   13  C   UNL     1      -8.621   7.284  70.984  1.00  0.00    -0.128 C  
BRANCH  13  14
HETATM   14  C   UNL     1      -9.023   5.975  71.664  1.00  0.00    -0.142 C  
BRANCH  14  15
HETATM   15  N   UNL     1     -10.107   6.136  72.656  1.00  0.00    -0.180 NA 
HETATM   16  C   UNL     1      -9.713   7.051  73.736  1.00  0.00    -0.274 C  
BRANCH  15  17
HETATM   17  C   UNL     1     -11.329   6.612  71.954  1.00  0.00    -0.279 C  
BRANCH  17  18
HETATM   18  C   UNL     1     -11.867   7.968  72.467  1.00  0.00    -0.361 C  
BRANCH  18  19
HETATM   19  N   UNL     1     -12.599   8.797  71.480  1.00  0.00    -0.319 NA 
HETATM   20  C   UNL     1     -14.049   8.691  71.674  1.00  0.00    -0.400 C  
BRANCH  19  21
HETATM   21  C   UNL     1     -12.195  10.216  71.589  1.00  0.00    -0.331 C  
BRANCH  21  22
HETATM   22  C   UNL     1     -12.260  10.972  70.258  1.00  0.00    -0.447 C  
BRANCH  22  23
HETATM   23  C   UNL     1     -12.657  12.429  70.453  1.00  0.00    -0.025 C  
BRANCH  23  24
HETATM   24  O   UNL     1     -11.813  13.270  69.649  1.00  0.00    -0.300 OA 
BRANCH  24  25
HETATM   25  C   UNL     1     -11.677  14.549  70.079  1.00  0.00    -0.301 C  
HETATM   26  O   UNL     1     -12.034  14.985  71.162  1.00  0.00    -0.281 OA 
BRANCH  25  27
HETATM   27  C   UNL     1     -10.998  15.375  69.046  1.00  0.00    -0.252 A  
HETATM   28  C   UNL     1     -10.831  14.827  67.773  1.00  0.00    -0.278 A  
HETATM   29  C   UNL     1     -10.160  15.545  66.782  1.00  0.00    -0.264 A  
HETATM   30  C   UNL     1      -9.630  16.827  67.067  1.00  0.00    -0.239 A  
HETATM   31  C   UNL     1     -10.514  16.658  69.321  1.00  0.00    -0.333 A  
HETATM   32  C   UNL     1      -9.818  17.392  68.349  1.00  0.00    -0.316 A  
BRANCH  29  33
HETATM   33  O   UNL     1      -9.938  15.040  65.521  1.00  0.00    -0.338 OA 
HETATM   34  C   UNL     1     -11.048  14.414  64.884  1.00  0.00    -0.398 C  
ENDBRANCH  29  33
BRANCH  30  35
HETATM   35  O   UNL     1      -8.906  17.388  66.042  1.00  0.00    -0.498 OA 
HETATM   36  C   UNL     1      -7.492  17.455  66.169  1.00  0.00    -0.296 C  
ENDBRANCH  30  35
BRANCH  32  37
HETATM   37  O   UNL     1      -9.287  18.627  68.606  1.00  0.00    -0.335 OA 
HETATM   38  C   UNL     1     -10.017  19.777  68.193  1.00  0.00    -0.440 C  
ENDBRANCH  32  37
ENDBRANCH  25  27
ENDBRANCH  24  25
ENDBRANCH  23  24
ENDBRANCH  22  23
ENDBRANCH  21  22
ENDBRANCH  19  21
ENDBRANCH  18  19
ENDBRANCH  17  18
ENDBRANCH  15  17
ENDBRANCH  14  15
ENDBRANCH  13  14
ENDBRANCH  12  13
ENDBRANCH  11  12
ENDBRANCH   9  11
ENDBRANCH   5   9
BRANCH   8  39
HETATM   39  O   UNL     1     -10.624  10.749  65.438  1.00  0.00    -0.242 OA 
HETATM   40  C   UNL     1     -10.780  11.294  66.739  1.00  0.00    -0.275 C  
ENDBRANCH   8  39
BRANCH   7  41
HETATM   41  O   UNL     1      -9.586  10.007  62.853  1.00  0.00    -0.267 OA 
HETATM   42  C   UNL     1      -8.949  11.163  62.338  1.00  0.00    -0.265 C  
ENDBRANCH   7  41
ENDBRANCH   2   3
TORSDOF 21
ENDMDL
MODEL      139
REMARK 921   NORMALIZED FREE ENERGY PREDICTED BY IDOCK:   -4.16 KCAL/MOL
REMARK 922        TOTAL FREE ENERGY PREDICTED BY IDOCK:  -12.12 KCAL/MOL
REMARK 923 INTER-LIGAND FREE ENERGY PREDICTED BY IDOCK:   -8.67 KCAL/MOL
REMARK 924 INTRA-LIGAND FREE ENERGY PREDICTED BY IDOCK:   -3.45 KCAL/MOL
REMARK 927      BINDING AFFINITY PREDICTED BY RF-SCORE:    0.00 PKD
ROOT
HETATM    1  C   UNL     1     -12.708  11.965  63.212  1.00  0.00    -0.271 C  
HETATM    2  O   UNL     1     -11.467  12.624  63.453  1.00  0.00    -0.487 OA 
ENDROOT
BRANCH   2   3
HETATM    3  C   UNL     1     -11.021  12.648  64.751  1.00  0.00    -0.302 A  
HETATM    4  C   UNL     1     -10.214  11.615  65.243  1.00  0.00    -0.316 A  
HETATM    5  C   UNL     1      -9.746  11.616  66.558  1.00  0.00    -0.227 A  
HETATM    6  C   UNL     1     -10.084  12.673  67.396  1.00  0.00    -0.218 A  
HETATM    7  C   UNL     1     -11.338  13.747  65.583  1.00  0.00    -0.305 A  
HETATM    8  C   UNL     1     -10.867  13.742  66.921  1.00  0.00    -0.285 A  
BRANCH   5   9
HETATM    9  C   UNL     1      -8.912  10.461  66.971  1.00  0.00    -0.139 C  
HETATM   10  O   UNL     1      -7.851  10.192  66.426  1.00  0.00    -0.108 OA 
BRANCH   9  11
HETATM   11  O   UNL     1      -9.490   9.748  67.969  1.00  0.00    -0.131 OA 
BRANCH  11  12
HETATM   12  C   UNL     1     -10.430   8.757  67.516  1.00  0.00    -0.271 C  
BRANCH  12  13
HETATM   13  C   UNL     1      -9.771   7.381  67.534  1.00  0.00    -0.186 C  
BRANCH  13  14
HETATM   14  C   UNL     1     -10.747   6.281  67.117  1.00  0.00    -0.359 C  
BRANCH  14  15
HETATM   15  N   UNL     1     -10.105   4.962  66.936  1.00  0.00    -0.216 NA 
HETATM   16  C   UNL     1     -10.342   4.430  65.588  1.00  0.00    -0.225 C  
BRANCH  15  17
HETATM   17  C   UNL     1      -8.652   5.096  67.224  1.00  0.00    -0.104 C  
BRANCH  17  18
HETATM   18  C   UNL     1      -7.919   3.748  67.426  1.00  0.00    -0.090 C  
BRANCH  18  19
HETATM   19  N   UNL     1      -6.636   3.806  68.166  1.00  0.00    -0.041 NA 
HETATM   20  C   UNL     1      -6.367   5.163  68.651  1.00  0.00    -0.035 C  
BRANCH  19  21
HETATM   21  C   UNL     1      -6.655   2.873  69.315  1.00  0.00    -0.033 C  
BRANCH  21  22
HETATM   22  C   UNL     1      -6.576   3.578  70.673  1.00  0.00    -0.032 C  
BRANCH  22  23
HETATM   23  C   UNL     1      -7.774   3.245  71.554  1.00  0.00    -0.056 C  
BRANCH  23  24
HETATM   24  O   UNL     1      -8.570   4.426  71.749  1.00  0.00    -0.110 OA 
BRANCH  24  25
HETATM   25  C   UNL     1      -9.609   4.581  70.890  1.00  0.00    -0.180 C  
HETATM   26  O   UNL     1     -10.082   3.717  70.170  1.00  0.00    -0.015 OA 
BRANCH  25  27
HETATM   27  C   UNL     1     -10.130   5.972  70.953  1.00  0.00    -0.246 A  
HETATM   28  C   UNL     1      -9.218   7.006  71.172  1.00  0.00    -0.157 A  
HETATM   29  C   UNL     1      -9.664   8.323  71.284  1.00  0.00    -0.176 A  
HETATM   30  C   UNL     1     -11.046   8.618  71.192  1.00  0.00    -0.266 A  
HETATM   31  C   UNL     1     -11.492   6.261  70.819  1.00  0.00    -0.383 A  
HETATM   32  C   UNL     1     -11.968   7.575  70.948  1.00  0.00    -0.251 A  
BRANCH  29  33
HETATM   33  O   UNL     1      -8.813   9.377  71.534  1.00  0.00    -0.268 OA 
HETATM   34  C   UNL     1      -7.419   9.086  71.502  1.00  0.00     0.006 C  
ENDBRANCH  29  33
BRANCH  30  35
HETATM   35  O   UNL     1     -11.368   9.935  71.419  1.00  0.00    -0.364 OA 
HETATM   36  C   UNL     1     -11.756  10.737  70.312  1.00  0.00    -0.352 C  
ENDBRANCH  30  35
BRANCH  32  37
HETATM   37  O   UNL     1     -13.301   7.880  70.874  1.00  0.00     0.010 OA 
HETATM   38  C   UNL     1     -14.172   7.353  71.867  1.00  0.00    -0.335 C  
ENDBRANCH  32  37
ENDBRANCH  25  27
ENDBRANCH  24  25
ENDBRANCH  23  24
ENDBRANCH  22  23
ENDBRANCH  21  22
ENDBRANCH  19  21
ENDBRANCH  18  19
ENDBRANCH  17  18
ENDBRANCH  15  17
ENDBRANCH  14  15
ENDBRANCH  13  14
ENDBRANCH  12  13
ENDBRANCH  11  12
ENDBRANCH   9  11
ENDBRANCH   5   9
BRANCH   8  39
HETATM   39  O   UNL     1     -11.066  14.681  67.906  1.00  0.00    -0.271 OA 
HETATM   40  C   UNL     1     -11.671  14.301  69.132  1.00  0.00    -0.320 C  
ENDBRANCH   8  39
BRANCH   7  41
HETATM   41  O   UNL     1     -12.085  14.834  65.213  1.00  0.00    -0.301 OA 
HETATM   42  C   UNL     1     -11.474  15.983  64.651  1.00  0.00    -0.250 C  
ENDBRANCH   7  41
ENDBRANCH   2   3
TORSDOF 21
ENDMDL
MODEL      140
REMARK 921   NORMALIZED FREE ENERGY PREDICTED BY IDOCK:   -4.14 KCAL/MOL
REMARK 922        TOTAL FREE ENERGY PREDICTED BY IDOCK:  -12.09 KCAL/MOL
REMARK 923 INTER-LIGAND FREE ENERGY PREDICTED BY IDOCK:  -10.19 KCAL/MOL
REMARK 924 INTRA-LIGAND FREE ENERGY PREDICTED BY IDOCK:   -1.90 KCAL/MOL
REMARK 927      BINDING AFFINITY PREDICTED BY RF-SCORE:    0.00 PKD
ROOT
HETATM    1  C   UNL     1      -9.851  17.673  67.098  1.00  0.00    -0.306 C  
HETATM    2  O   UNL     1     -10.643  17.173  68.172  1.00  0.00    -0.351 OA 
ENDROOT
BRANCH   2   3
HETATM    3  C   UNL     1     -11.032  15.858  68.095  1.00  0.00    -0.335 A  
HETATM    4  C   UNL     1     -11.276  15.263  66.852  1.00  0.00    -0.256 A  
HETATM    5  C   UNL     1     -11.671  13.929  66.745  1.00  0.00    -0.423 A  
HETATM    6  C   UNL     1     -11.817  13.172  67.902  1.00  0.00    -0.390 A  
HETATM    7  C   UNL     1     -11.140  15.086  69.275  1.00  0.00    -0.272 A  
HETATM    8  C   UNL     1     -11.548  13.733  69.164  1.00  0.00    -0.317 A  
BRANCH   5   9
HETATM    9  C   UNL     1     -11.916  13.412  65.376  1.00  0.00    -0.387 C  
HETATM   10  O   UNL     1     -12.494  14.069  64.522  1.00  0.00    -0.593 OA 
BRANCH   9  11
HETATM   11  O   UNL     1     -11.465  12.142  65.225  1.00  0.00    -0.337 OA 
BRANCH  11  12
HETATM   12  C   UNL     1     -10.172  12.048  64.598  1.00  0.00    -0.282 C  
BRANCH  12  13
HETATM   13  C   UNL     1     -10.047  10.705  63.885  1.00  0.00    -0.356 C  
BRANCH  13  14
HETATM   14  C   UNL     1      -8.876  10.695  62.902  1.00  0.00    -0.245 C  
BRANCH  14  15
HETATM   15  N   UNL     1      -7.974   9.536  63.073  1.00  0.00    -0.128 NA 
HETATM   16  C   UNL     1      -6.697   9.936  63.680  1.00  0.00    -0.125 C  
BRANCH  15  17
HETATM   17  C   UNL     1      -8.671   8.507  63.891  1.00  0.00     0.181 C  
BRANCH  17  18
HETATM   18  C   UNL     1      -7.720   7.569  64.672  1.00  0.00    -0.122 C  
BRANCH  18  19
HETATM   19  N   UNL     1      -7.497   6.227  64.084  1.00  0.00    -0.076 NA 
HETATM   20  C   UNL     1      -6.081   6.018  63.766  1.00  0.00    -0.025 C  
BRANCH  19  21
HETATM   21  C   UNL     1      -7.949   5.169  65.015  1.00  0.00    -0.104 C  
BRANCH  21  22
HETATM   22  C   UNL     1      -9.359   4.652  64.711  1.00  0.00    -0.109 C  
BRANCH  22  23
HETATM   23  C   UNL     1     -10.223   4.595  65.964  1.00  0.00    -0.277 C  
BRANCH  23  24
HETATM   24  O   UNL     1      -9.632   5.406  66.993  1.00  0.00    -0.125 OA 
BRANCH  24  25
HETATM   25  C   UNL     1      -9.475   4.802  68.198  1.00  0.00    -0.141 C  
HETATM   26  O   UNL     1      -9.050   3.674  68.387  1.00  0.00    -0.121 OA 
BRANCH  25  27
HETATM   27  C   UNL     1      -9.874   5.722  69.296  1.00  0.00    -0.220 A  
HETATM   28  C   UNL     1     -10.567   5.187  70.382  1.00  0.00    -0.225 A  
HETATM   29  C   UNL     1     -11.002   6.017  71.415  1.00  0.00    -0.276 A  
HETATM   30  C   UNL     1     -10.757   7.411  71.360  1.00  0.00    -0.219 A  
HETATM   31  C   UNL     1      -9.590   7.092  69.256  1.00  0.00    -0.154 A  
HETATM   32  C   UNL     1     -10.035   7.951  70.272  1.00  0.00    -0.189 A  
BRANCH  29  33
HETATM   33  O   UNL     1     -11.720   5.549  72.493  1.00  0.00    -0.272 OA 
HETATM   34  C   UNL     1     -10.964   5.164  73.638  1.00  0.00    -0.288 C  
ENDBRANCH  29  33
BRANCH  30  35
HETATM   35  O   UNL     1     -11.321   8.134  72.385  1.00  0.00    -0.336 OA 
HETATM   36  C   UNL     1     -12.595   8.727  72.174  1.00  0.00    -0.399 C  
ENDBRANCH  30  35
BRANCH  32  37
HETATM   37  O   UNL     1      -9.819   9.303  70.233  1.00  0.00    -0.190 OA 
HETATM   38  C   UNL     1      -8.482   9.771  70.094  1.00  0.00    -0.174 C  
ENDBRANCH  32  37
ENDBRANCH  25  27
ENDBRANCH  24  25
ENDBRANCH  23  24
ENDBRANCH  22  23
ENDBRANCH  21  22
ENDBRANCH  19  21
ENDBRANCH  18  19
ENDBRANCH  17  18
ENDBRANCH  15  17
ENDBRANCH  14  15
ENDBRANCH  13  14
ENDBRANCH  12  13
ENDBRANCH  11  12
ENDBRANCH   9  11
ENDBRANCH   5   9
BRANCH   8  39
HETATM   39  O   UNL     1     -11.740  12.808  70.164  1.00  0.00    -0.269 OA 
HETATM   40  C   UNL     1     -12.399  11.585  69.878  1.00  0.00    -0.180 C  
ENDBRANCH   8  39
BRANCH   7  41
HETATM   41  O   UNL     1     -10.894  15.538  70.545  1.00  0.00    -0.316 OA 
HETATM   42  C   UNL     1     -11.958  15.896  71.411  1.00  0.00    -0.457 C  
ENDBRANCH   7  41
ENDBRANCH   2   3
TORSDOF 21
ENDMDL
MODEL      141
REMARK 921   NORMALIZED FREE ENERGY PREDICTED BY IDOCK:   -4.14 KCAL/MOL
REMARK 922        TOTAL FREE ENERGY PREDICTED BY IDOCK:  -12.08 KCAL/MOL
REMARK 923 INTER-LIGAND FREE ENERGY PREDICTED BY IDOCK:  -10.91 KCAL/MOL
REMARK 924 INTRA-LIGAND FREE ENERGY PREDICTED BY IDOCK:   -1.17 KCAL/MOL
REMARK 927      BINDING AFFINITY PREDICTED BY RF-SCORE:    0.00 PKD
ROOT
HETATM    1  C   UNL     1     -10.292   7.152  66.912  1.00  0.00    -0.279 C  
HETATM    2  O   UNL     1      -9.204   6.302  67.269  1.00  0.00    -0.118 OA 
ENDROOT
BRANCH   2   3
HETATM    3  C   UNL     1      -9.356   5.544  68.403  1.00  0.00    -0.111 A  
HETATM    4  C   UNL     1      -9.792   6.133  69.596  1.00  0.00    -0.196 A  
HETATM    5  C   UNL     1      -9.956   5.385  70.763  1.00  0.00    -0.269 A  
HETATM    6  C   UNL     1      -9.688   4.021  70.736  1.00  0.00    -0.263 A  
HETATM    7  C   UNL     1      -9.118   4.151  68.355  1.00  0.00    -0.132 A  
HETATM    8  C   UNL     1      -9.279   3.395  69.544  1.00  0.00    -0.155 A  
BRANCH   5   9
HETATM    9  C   UNL     1     -10.409   6.120  71.970  1.00  0.00    -0.199 C  
HETATM   10  O   UNL     1      -9.644   6.779  72.660  1.00  0.00    -0.146 OA 
BRANCH   9  11
HETATM   11  O   UNL     1     -11.729   5.931  72.215  1.00  0.00    -0.307 OA 
BRANCH  11  12
HETATM   12  C   UNL     1     -12.577   6.973  71.700  1.00  0.00    -0.380 C  
BRANCH  12  13
HETATM   13  C   UNL     1     -12.274   8.282  72.423  1.00  0.00    -0.412 C  
BRANCH  13  14
HETATM   14  C   UNL     1     -13.378   9.317  72.205  1.00  0.00    -0.468 C  
BRANCH  14  15
HETATM   15  N   UNL     1     -12.974  10.430  71.319  1.00  0.00    -0.394 NA 
HETATM   16  C   UNL     1     -13.078  11.725  72.003  1.00  0.00    -0.331 C  
BRANCH  15  17
HETATM   17  C   UNL     1     -11.590  10.176  70.835  1.00  0.00    -0.372 C  
BRANCH  17  18
HETATM   18  C   UNL     1     -11.381  10.472  69.331  1.00  0.00    -0.269 C  
BRANCH  18  19
HETATM   19  N   UNL     1     -10.741  11.768  69.003  1.00  0.00    -0.200 NA 
HETATM   20  C   UNL     1      -9.481  11.567  68.280  1.00  0.00    -0.189 C  
BRANCH  19  21
HETATM   21  C   UNL     1     -11.646  12.603  68.183  1.00  0.00    -0.338 C  
BRANCH  21  22
HETATM   22  C   UNL     1     -11.080  12.936  66.799  1.00  0.00    -0.315 C  
BRANCH  22  23
HETATM   23  C   UNL     1     -11.933  13.967  66.071  1.00  0.00    -0.412 C  
BRANCH  23  24
HETATM   24  O   UNL     1     -11.556  15.288  66.493  1.00  0.00    -0.189 OA 
BRANCH  24  25
HETATM   25  C   UNL     1     -10.704  15.948  65.668  1.00  0.00    -0.339 C  
HETATM   26  O   UNL     1     -10.829  16.078  64.461  1.00  0.00    -0.588 OA 
BRANCH  25  27
HETATM   27  C   UNL     1      -9.577  16.529  66.444  1.00  0.00    -0.309 A  
HETATM   28  C   UNL     1      -9.816  17.690  67.180  1.00  0.00    -0.306 A  
HETATM   29  C   UNL     1      -8.779  18.299  67.889  1.00  0.00    -0.265 A  
HETATM   30  C   UNL     1      -7.474  17.751  67.851  1.00  0.00    -0.210 A  
HETATM   31  C   UNL     1      -8.300  15.959  66.438  1.00  0.00    -0.310 A  
HETATM   32  C   UNL     1      -7.235  16.562  67.125  1.00  0.00    -0.188 A  
BRANCH  29  33
HETATM   33  O   UNL     1      -8.951  19.463  68.603  1.00  0.00    -0.365 OA 
HETATM   34  C   UNL     1     -10.283  19.960  68.694  1.00  0.00    -0.378 C  
ENDBRANCH  29  33
BRANCH  30  35
HETATM   35  O   UNL     1      -6.521  18.495  68.505  1.00  0.00    -0.218 OA 
HETATM   36  C   UNL     1      -5.777  19.448  67.760  1.00  0.00    -0.192 C  
ENDBRANCH  30  35
BRANCH  32  37
HETATM   37  O   UNL     1      -5.964  16.056  67.093  1.00  0.00    -0.306 OA 
HETATM   38  C   UNL     1      -5.533  15.239  68.175  1.00  0.00    -0.127 C  
ENDBRANCH  32  37
ENDBRANCH  25  27
ENDBRANCH  24  25
ENDBRANCH  23  24
ENDBRANCH  22  23
ENDBRANCH  21  22
ENDBRANCH  19  21
ENDBRANCH  18  19
ENDBRANCH  17  18
ENDBRANCH  15  17
ENDBRANCH  14  15
ENDBRANCH  13  14
ENDBRANCH  12  13
ENDBRANCH  11  12
ENDBRANCH   9  11
ENDBRANCH   5   9
BRANCH   8  39
HETATM   39  O   UNL     1      -9.085   2.047  69.738  1.00  0.00    -0.085 OA 
HETATM   40  C   UNL     1      -8.125   1.600  70.684  1.00  0.00    -0.041 C  
ENDBRANCH   8  39
BRANCH   7  41
HETATM   41  O   UNL     1      -8.724   3.450  67.246  1.00  0.00    -0.103 OA 
HETATM   42  C   UNL     1      -9.474   3.504  66.044  1.00  0.00    -0.137 C  
ENDBRANCH   7  41
ENDBRANCH   2   3
TORSDOF 21
ENDMDL
MODEL      142
REMARK 921   NORMALIZED FREE ENERGY PREDICTED BY IDOCK:   -4.13 KCAL/MOL
REMARK 922        TOTAL FREE ENERGY PREDICTED BY IDOCK:  -12.06 KCAL/MOL
REMARK 923 INTER-LIGAND FREE ENERGY PREDICTED BY IDOCK:   -9.37 KCAL/MOL
REMARK 924 INTRA-LIGAND FREE ENERGY PREDICTED BY IDOCK:   -2.69 KCAL/MOL
REMARK 927      BINDING AFFINITY PREDICTED BY RF-SCORE:    0.00 PKD
ROOT
HETATM    1  C   UNL     1      -9.775   3.519  71.137  1.00  0.00    -0.167 C  
HETATM    2  O   UNL     1     -10.444   4.335  72.096  1.00  0.00    -0.157 OA 
ENDROOT
BRANCH   2   3
HETATM    3  C   UNL     1     -10.062   5.653  72.162  1.00  0.00    -0.186 A  
HETATM    4  C   UNL     1     -10.347   6.526  71.105  1.00  0.00    -0.237 A  
HETATM    5  C   UNL     1      -9.972   7.870  71.146  1.00  0.00    -0.198 A  
HETATM    6  C   UNL     1      -9.306   8.353  72.267  1.00  0.00    -0.356 A  
HETATM    7  C   UNL     1      -9.420   6.143  73.323  1.00  0.00    -0.142 A  
HETATM    8  C   UNL     1      -9.034   7.507  73.358  1.00  0.00    -0.203 A  
BRANCH   5   9
HETATM    9  C   UNL     1     -10.315   8.695  69.962  1.00  0.00    -0.207 C  
HETATM   10  O   UNL     1     -10.061   9.890  69.901  1.00  0.00    -0.230 OA 
BRANCH   9  11
HETATM   11  O   UNL     1     -10.962   7.977  69.012  1.00  0.00    -0.062 OA 
BRANCH  11  12
HETATM   12  C   UNL     1     -10.587   8.312  67.663  1.00  0.00    -0.194 C  
BRANCH  12  13
HETATM   13  C   UNL     1     -10.564   7.047  66.810  1.00  0.00    -0.297 C  
BRANCH  13  14
HETATM   14  C   UNL     1      -9.776   5.924  67.485  1.00  0.00    -0.115 C  
BRANCH  14  15
HETATM   15  N   UNL     1      -8.419   5.741  66.927  1.00  0.00    -0.108 NA 
HETATM   16  C   UNL     1      -8.331   6.255  65.553  1.00  0.00    -0.147 C  
BRANCH  15  17
HETATM   17  C   UNL     1      -7.440   6.407  67.826  1.00  0.00    -0.093 C  
BRANCH  17  18
HETATM   18  C   UNL     1      -6.789   7.675  67.224  1.00  0.00    -0.069 C  
BRANCH  18  19
HETATM   19  N   UNL     1      -7.027   8.942  67.955  1.00  0.00    -0.077 NA 
HETATM   20  C   UNL     1      -6.123   9.067  69.103  1.00  0.00    -0.042 C  
BRANCH  19  21
HETATM   21  C   UNL     1      -6.839  10.104  67.058  1.00  0.00    -0.083 C  
BRANCH  21  22
HETATM   22  C   UNL     1      -7.659  11.331  67.471  1.00  0.00    -0.110 C  
BRANCH  22  23
HETATM   23  C   UNL     1      -9.099  11.238  66.985  1.00  0.00    -0.163 C  
BRANCH  23  24
HETATM   24  O   UNL     1      -9.767  12.490  67.217  1.00  0.00    -0.197 OA 
BRANCH  24  25
HETATM   25  C   UNL     1     -11.092  12.405  67.497  1.00  0.00    -0.266 C  
HETATM   26  O   UNL     1     -11.913  11.734  66.893  1.00  0.00    -0.605 OA 
BRANCH  25  27
HETATM   27  C   UNL     1     -11.426  13.240  68.681  1.00  0.00    -0.339 A  
HETATM   28  C   UNL     1     -12.148  12.649  69.718  1.00  0.00    -0.301 A  
HETATM   29  C   UNL     1     -12.524  13.403  70.830  1.00  0.00    -0.359 A  
HETATM   30  C   UNL     1     -12.190  14.778  70.905  1.00  0.00    -0.318 A  
HETATM   31  C   UNL     1     -11.055  14.586  68.768  1.00  0.00    -0.267 A  
HETATM   32  C   UNL     1     -11.439  15.372  69.865  1.00  0.00    -0.312 A  
BRANCH  29  33
HETATM   33  O   UNL     1     -13.265  12.881  71.866  1.00  0.00    -0.437 OA 
HETATM   34  C   UNL     1     -13.364  11.460  71.921  1.00  0.00    -0.304 C  
ENDBRANCH  29  33
BRANCH  30  35
HETATM   35  O   UNL     1     -12.702  15.433  72.000  1.00  0.00    -0.324 OA 
HETATM   36  C   UNL     1     -11.821  15.763  73.064  1.00  0.00    -0.443 C  
ENDBRANCH  30  35
BRANCH  32  37
HETATM   37  O   UNL     1     -11.136  16.704  69.953  1.00  0.00    -0.305 OA 
HETATM   38  C   UNL     1     -10.368  17.294  68.911  1.00  0.00    -0.352 C  
ENDBRANCH  32  37
ENDBRANCH  25  27
ENDBRANCH  24  25
ENDBRANCH  23  24
ENDBRANCH  22  23
ENDBRANCH  21  22
ENDBRANCH  19  21
ENDBRANCH  18  19
ENDBRANCH  17  18
ENDBRANCH  15  17
ENDBRANCH  14  15
ENDBRANCH  13  14
ENDBRANCH  12  13
ENDBRANCH  11  12
ENDBRANCH   9  11
ENDBRANCH   5   9
BRANCH   8  39
HETATM   39  O   UNL     1      -8.386   8.190  74.360  1.00  0.00    -0.252 OA 
HETATM   40  C   UNL     1      -7.016   8.531  74.212  1.00  0.00    -0.130 C  
ENDBRANCH   8  39
BRANCH   7  41
HETATM   41  O   UNL     1      -9.118   5.403  74.435  1.00  0.00    -0.117 OA 
HETATM   42  C   UNL     1      -7.885   4.711  74.539  1.00  0.00    -0.095 C  
ENDBRANCH   7  41
ENDBRANCH   2   3
TORSDOF 21
ENDMDL
MODEL      143
REMARK 921   NORMALIZED FREE ENERGY PREDICTED BY IDOCK:   -4.12 KCAL/MOL
REMARK 922        TOTAL FREE ENERGY PREDICTED BY IDOCK:  -12.03 KCAL/MOL
REMARK 923 INTER-LIGAND FREE ENERGY PREDICTED BY IDOCK:  -10.70 KCAL/MOL
REMARK 924 INTRA-LIGAND FREE ENERGY PREDICTED BY IDOCK:   -1.33 KCAL/MOL
REMARK 927      BINDING AFFINITY PREDICTED BY RF-SCORE:    0.00 PKD
ROOT
HETATM    1  C   UNL     1      -6.388   2.035  69.299  1.00  0.00    -0.025 C  
HETATM    2  O   UNL     1      -7.329   1.741  68.269  1.00  0.00    -0.043 OA 
ENDROOT
BRANCH   2   3
HETATM    3  C   UNL     1      -8.161   2.762  67.881  1.00  0.00    -0.074 A  
HETATM    4  C   UNL     1      -8.800   3.559  68.839  1.00  0.00    -0.162 A  
HETATM    5  C   UNL     1      -9.650   4.603  68.472  1.00  0.00    -0.220 A  
HETATM    6  C   UNL     1      -9.860   4.863  67.122  1.00  0.00    -0.215 A  
HETATM    7  C   UNL     1      -8.337   3.042  66.506  1.00  0.00    -0.094 A  
HETATM    8  C   UNL     1      -9.207   4.099  66.136  1.00  0.00    -0.150 A  
BRANCH   5   9
HETATM    9  C   UNL     1     -10.282   5.369  69.574  1.00  0.00    -0.266 C  
HETATM   10  O   UNL     1     -11.370   5.915  69.452  1.00  0.00    -0.346 OA 
BRANCH   9  11
HETATM   11  O   UNL     1      -9.496   5.414  70.678  1.00  0.00    -0.156 OA 
BRANCH  11  12
HETATM   12  C   UNL     1      -9.994   4.641  71.786  1.00  0.00    -0.192 C  
BRANCH  12  13
HETATM   13  C   UNL     1     -11.035   5.455  72.548  1.00  0.00    -0.312 C  
BRANCH  13  14
HETATM   14  C   UNL     1     -10.383   6.470  73.487  1.00  0.00    -0.281 C  
BRANCH  14  15
HETATM   15  N   UNL     1     -10.542   7.871  73.040  1.00  0.00    -0.365 NA 
HETATM   16  C   UNL     1      -9.357   8.337  72.307  1.00  0.00    -0.253 C  
BRANCH  15  17
HETATM   17  C   UNL     1     -11.773   7.970  72.211  1.00  0.00    -0.371 C  
BRANCH  17  18
HETATM   18  C   UNL     1     -12.615   9.241  72.478  1.00  0.00    -0.196 C  
BRANCH  18  19
HETATM   19  N   UNL     1     -12.996  10.034  71.285  1.00  0.00    -0.375 NA 
HETATM   20  C   UNL     1     -13.241  11.436  71.640  1.00  0.00    -0.309 C  
BRANCH  19  21
HETATM   21  C   UNL     1     -11.934   9.970  70.256  1.00  0.00    -0.187 C  
BRANCH  21  22
HETATM   22  C   UNL     1     -12.009  11.107  69.233  1.00  0.00    -0.421 C  
BRANCH  22  23
HETATM   23  C   UNL     1     -11.265  10.764  67.949  1.00  0.00    -0.318 C  
BRANCH  23  24
HETATM   24  O   UNL     1     -10.586  11.933  67.459  1.00  0.00    -0.209 OA 
BRANCH  24  25
HETATM   25  C   UNL     1     -11.367  12.840  66.820  1.00  0.00    -0.313 C  
HETATM   26  O   UNL     1     -12.279  12.587  66.049  1.00  0.00    -0.605 OA 
BRANCH  25  27
HETATM   27  C   UNL     1     -10.976  14.222  67.203  1.00  0.00    -0.305 A  
HETATM   28  C   UNL     1     -10.144  14.933  66.338  1.00  0.00    -0.296 A  
HETATM   29  C   UNL     1      -9.713  16.217  66.674  1.00  0.00    -0.244 A  
HETATM   30  C   UNL     1     -10.105  16.800  67.904  1.00  0.00    -0.284 A  
HETATM   31  C   UNL     1     -11.402  14.808  68.400  1.00  0.00    -0.317 A  
HETATM   32  C   UNL     1     -10.967  16.089  68.771  1.00  0.00    -0.320 A  
BRANCH  29  33
HETATM   33  O   UNL     1      -8.865  16.950  65.875  1.00  0.00    -0.516 OA 
HETATM   34  C   UNL     1      -7.474  16.846  66.166  1.00  0.00    -0.159 C  
ENDBRANCH  29  33
BRANCH  30  35
HETATM   35  O   UNL     1      -9.536  18.024  68.166  1.00  0.00    -0.278 OA 
HETATM   36  C   UNL     1     -10.301  19.194  67.910  1.00  0.00    -0.414 C  
ENDBRANCH  30  35
BRANCH  32  37
HETATM   37  O   UNL     1     -11.324  16.667  69.960  1.00  0.00    -0.165 OA 
HETATM   38  C   UNL     1     -11.910  15.846  70.963  1.00  0.00    -0.428 C  
ENDBRANCH  32  37
ENDBRANCH  25  27
ENDBRANCH  24  25
ENDBRANCH  23  24
ENDBRANCH  22  23
ENDBRANCH  21  22
ENDBRANCH  19  21
ENDBRANCH  18  19
ENDBRANCH  17  18
ENDBRANCH  15  17
ENDBRANCH  14  15
ENDBRANCH  13  14
ENDBRANCH  12  13
ENDBRANCH  11  12
ENDBRANCH   9  11
ENDBRANCH   5   9
BRANCH   8  39
HETATM   39  O   UNL     1      -9.543   4.534  64.875  1.00  0.00    -0.159 OA 
HETATM   40  C   UNL     1     -10.530   3.840  64.128  1.00  0.00    -0.257 C  
ENDBRANCH   8  39
BRANCH   7  41
HETATM   41  O   UNL     1      -7.743   2.364  65.475  1.00  0.00    -0.074 OA 
HETATM   42  C   UNL     1      -6.445   2.711  65.024  1.00  0.00    -0.031 C  
ENDBRANCH   7  41
ENDBRANCH   2   3
TORSDOF 21
ENDMDL
MODEL      144
REMARK 921   NORMALIZED FREE ENERGY PREDICTED BY IDOCK:   -4.11 KCAL/MOL
REMARK 922        TOTAL FREE ENERGY PREDICTED BY IDOCK:  -12.02 KCAL/MOL
REMARK 923 INTER-LIGAND FREE ENERGY PREDICTED BY IDOCK:   -9.28 KCAL/MOL
REMARK 924 INTRA-LIGAND FREE ENERGY PREDICTED BY IDOCK:   -2.74 KCAL/MOL
REMARK 927      BINDING AFFINITY PREDICTED BY RF-SCORE:    0.00 PKD
ROOT
HETATM    1  C   UNL     1     -10.535   8.974  71.656  1.00  0.00    -0.355 C  
HETATM    2  O   UNL     1      -9.184   9.380  71.444  1.00  0.00    -0.277 OA 
ENDROOT
BRANCH   2   3
HETATM    3  C   UNL     1      -8.430   8.604  70.599  1.00  0.00    -0.157 A  
HETATM    4  C   UNL     1      -8.604   7.215  70.567  1.00  0.00    -0.144 A  
HETATM    5  C   UNL     1      -7.851   6.404  69.717  1.00  0.00    -0.114 A  
HETATM    6  C   UNL     1      -6.911   6.991  68.878  1.00  0.00    -0.079 A  
HETATM    7  C   UNL     1      -7.504   9.215  69.722  1.00  0.00    -0.069 A  
HETATM    8  C   UNL     1      -6.735   8.387  68.865  1.00  0.00    -0.053 A  
BRANCH   5   9
HETATM    9  C   UNL     1      -8.114   4.945  69.780  1.00  0.00    -0.069 C  
HETATM   10  O   UNL     1      -7.809   4.266  70.751  1.00  0.00    -0.058 OA 
BRANCH   9  11
HETATM   11  O   UNL     1      -8.678   4.480  68.638  1.00  0.00    -0.094 OA 
BRANCH  11  12
HETATM   12  C   UNL     1     -10.101   4.680  68.561  1.00  0.00    -0.007 C  
BRANCH  12  13
HETATM   13  C   UNL     1     -10.469   5.202  67.175  1.00  0.00    -0.224 C  
BRANCH  13  14
HETATM   14  C   UNL     1     -10.614   6.724  67.164  1.00  0.00    -0.331 C  
BRANCH  14  15
HETATM   15  N   UNL     1      -9.376   7.430  66.772  1.00  0.00    -0.153 NA 
HETATM   16  C   UNL     1      -8.708   6.756  65.651  1.00  0.00    -0.074 C  
BRANCH  15  17
HETATM   17  C   UNL     1      -9.714   8.840  66.441  1.00  0.00    -0.265 C  
BRANCH  17  18
HETATM   18  C   UNL     1      -8.510   9.686  65.966  1.00  0.00    -0.124 C  
BRANCH  18  19
HETATM   19  N   UNL     1      -8.743  10.550  64.785  1.00  0.00    -0.186 NA 
HETATM   20  C   UNL     1      -8.848   9.752  63.559  1.00  0.00    -0.241 C  
BRANCH  19  21
HETATM   21  C   UNL     1      -9.981  11.344  64.957  1.00  0.00    -0.266 C  
BRANCH  21  22
HETATM   22  C   UNL     1     -11.011  11.112  63.848  1.00  0.00    -0.271 C  
BRANCH  22  23
HETATM   23  C   UNL     1     -11.791  12.380  63.525  1.00  0.00    -0.521 C  
BRANCH  23  24
HETATM   24  O   UNL     1     -12.183  13.027  64.748  1.00  0.00    -0.387 OA 
BRANCH  24  25
HETATM   25  C   UNL     1     -12.041  14.377  64.768  1.00  0.00    -0.452 C  
HETATM   26  O   UNL     1     -12.441  15.155  63.918  1.00  0.00    -0.768 OA 
BRANCH  25  27
HETATM   27  C   UNL     1     -11.335  14.805  66.005  1.00  0.00    -0.332 A  
HETATM   28  C   UNL     1     -10.471  15.897  65.924  1.00  0.00    -0.373 A  
HETATM   29  C   UNL     1      -9.752  16.309  67.046  1.00  0.00    -0.239 A  
HETATM   30  C   UNL     1      -9.883  15.611  68.271  1.00  0.00    -0.209 A  
HETATM   31  C   UNL     1     -11.502  14.138  67.223  1.00  0.00    -0.371 A  
HETATM   32  C   UNL     1     -10.776  14.519  68.361  1.00  0.00    -0.243 A  
BRANCH  29  33
HETATM   33  O   UNL     1      -8.860  17.358  67.014  1.00  0.00    -0.222 OA 
HETATM   34  C   UNL     1      -7.730  17.202  66.160  1.00  0.00    -0.267 C  
ENDBRANCH  29  33
BRANCH  30  35
HETATM   35  O   UNL     1      -9.050  16.050  69.273  1.00  0.00    -0.246 OA 
HETATM   36  C   UNL     1      -7.864  15.315  69.538  1.00  0.00    -0.204 C  
ENDBRANCH  30  35
BRANCH  32  37
HETATM   37  O   UNL     1     -10.879  13.852  69.553  1.00  0.00    -0.144 OA 
HETATM   38  C   UNL     1     -12.097  13.952  70.282  1.00  0.00    -0.353 C  
ENDBRANCH  32  37
ENDBRANCH  25  27
ENDBRANCH  24  25
ENDBRANCH  23  24
ENDBRANCH  22  23
ENDBRANCH  21  22
ENDBRANCH  19  21
ENDBRANCH  18  19
ENDBRANCH  17  18
ENDBRANCH  15  17
ENDBRANCH  14  15
ENDBRANCH  13  14
ENDBRANCH  12  13
ENDBRANCH  11  12
ENDBRANCH   9  11
ENDBRANCH   5   9
BRANCH   8  39
HETATM   39  O   UNL     1      -5.771   8.753  67.955  1.00  0.00    -0.035 OA 
HETATM   40  C   UNL     1      -5.193   7.773  67.106  1.00  0.00    -0.031 C  
ENDBRANCH   8  39
BRANCH   7  41
HETATM   41  O   UNL     1      -7.265  10.561  69.631  1.00  0.00    -0.121 OA 
HETATM   42  C   UNL     1      -6.071  11.127  70.146  1.00  0.00    -0.146 C  
ENDBRANCH   7  41
ENDBRANCH   2   3
TORSDOF 21
ENDMDL
MODEL      145
REMARK 921   NORMALIZED FREE ENERGY PREDICTED BY IDOCK:   -4.11 KCAL/MOL
REMARK 922        TOTAL FREE ENERGY PREDICTED BY IDOCK:  -12.01 KCAL/MOL
REMARK 923 INTER-LIGAND FREE ENERGY PREDICTED BY IDOCK:  -10.33 KCAL/MOL
REMARK 924 INTRA-LIGAND FREE ENERGY PREDICTED BY IDOCK:   -1.67 KCAL/MOL
REMARK 927      BINDING AFFINITY PREDICTED BY RF-SCORE:    0.00 PKD
ROOT
HETATM    1  C   UNL     1     -13.004  15.763  73.234  1.00  0.00    -0.565 C  
HETATM    2  O   UNL     1     -13.675  15.251  72.085  1.00  0.00    -0.405 OA 
ENDROOT
BRANCH   2   3
HETATM    3  C   UNL     1     -13.058  14.224  71.414  1.00  0.00    -0.351 A  
HETATM    4  C   UNL     1     -13.214  12.901  71.845  1.00  0.00    -0.521 A  
HETATM    5  C   UNL     1     -12.599  11.839  71.181  1.00  0.00    -0.412 A  
HETATM    6  C   UNL     1     -11.820  12.101  70.060  1.00  0.00    -0.383 A  
HETATM    7  C   UNL     1     -12.300  14.498  70.252  1.00  0.00    -0.349 A  
HETATM    8  C   UNL     1     -11.671  13.417  69.583  1.00  0.00    -0.310 A  
BRANCH   5   9
HETATM    9  C   UNL     1     -12.824  10.482  71.739  1.00  0.00    -0.454 C  
HETATM   10  O   UNL     1     -13.894  10.143  72.225  1.00  0.00    -0.198 OA 
BRANCH   9  11
HETATM   11  O   UNL     1     -11.708   9.715  71.675  1.00  0.00    -0.386 OA 
BRANCH  11  12
HETATM   12  C   UNL     1     -11.858   8.524  70.881  1.00  0.00    -0.217 C  
BRANCH  12  13
HETATM   13  C   UNL     1     -12.073   7.323  71.798  1.00  0.00    -0.353 C  
BRANCH  13  14
HETATM   14  C   UNL     1     -10.956   6.289  71.646  1.00  0.00    -0.261 C  
BRANCH  14  15
HETATM   15  N   UNL     1      -9.910   6.397  72.685  1.00  0.00    -0.166 NA 
HETATM   16  C   UNL     1     -10.366   7.208  73.822  1.00  0.00    -0.347 C  
BRANCH  15  17
HETATM   17  C   UNL     1      -9.518   5.027  73.111  1.00  0.00    -0.134 C  
BRANCH  17  18
HETATM   18  C   UNL     1      -9.738   3.941  72.031  1.00  0.00    -0.164 C  
BRANCH  18  19
HETATM   19  N   UNL     1      -8.676   3.815  71.005  1.00  0.00    -0.076 NA 
HETATM   20  C   UNL     1      -7.407   3.395  71.608  1.00  0.00    -0.043 C  
BRANCH  19  21
HETATM   21  C   UNL     1      -9.069   2.837  69.967  1.00  0.00    -0.119 C  
BRANCH  21  22
HETATM   22  C   UNL     1      -9.036   3.411  68.546  1.00  0.00    -0.206 C  
BRANCH  22  23
HETATM   23  C   UNL     1      -8.707   4.898  68.544  1.00  0.00    -0.097 C  
BRANCH  23  24
HETATM   24  O   UNL     1      -9.145   5.485  67.308  1.00  0.00    -0.112 OA 
BRANCH  24  25
HETATM   25  C   UNL     1      -9.894   6.611  67.426  1.00  0.00    -0.131 C  
HETATM   26  O   UNL     1     -10.773   6.807  68.250  1.00  0.00    -0.214 OA 
BRANCH  25  27
HETATM   27  C   UNL     1      -9.484   7.616  66.410  1.00  0.00    -0.224 A  
HETATM   28  C   UNL     1      -8.588   7.218  65.417  1.00  0.00    -0.047 A  
HETATM   29  C   UNL     1      -8.138   8.136  64.467  1.00  0.00    -0.142 A  
HETATM   30  C   UNL     1      -8.576   9.482  64.516  1.00  0.00    -0.187 A  
HETATM   31  C   UNL     1      -9.954   8.933  66.437  1.00  0.00    -0.354 A  
HETATM   32  C   UNL     1      -9.501   9.881  65.507  1.00  0.00    -0.252 A  
BRANCH  29  33
HETATM   33  O   UNL     1      -7.229   7.806  63.488  1.00  0.00    -0.077 OA 
HETATM   34  C   UNL     1      -7.458   6.582  62.796  1.00  0.00    -0.073 C  
ENDBRANCH  29  33
BRANCH  30  35
HETATM   35  O   UNL     1      -7.986  10.310  63.590  1.00  0.00    -0.160 OA 
HETATM   36  C   UNL     1      -8.762  10.751  62.485  1.00  0.00    -0.279 C  
ENDBRANCH  30  35
BRANCH  32  37
HETATM   37  O   UNL     1      -9.903  11.189  65.541  1.00  0.00    -0.212 OA 
HETATM   38  C   UNL     1     -11.143  11.534  64.935  1.00  0.00    -0.215 C  
ENDBRANCH  32  37
ENDBRANCH  25  27
ENDBRANCH  24  25
ENDBRANCH  23  24
ENDBRANCH  22  23
ENDBRANCH  21  22
ENDBRANCH  19  21
ENDBRANCH  18  19
ENDBRANCH  17  18
ENDBRANCH  15  17
ENDBRANCH  14  15
ENDBRANCH  13  14
ENDBRANCH  12  13
ENDBRANCH  11  12
ENDBRANCH   9  11
ENDBRANCH   5   9
BRANCH   8  39
HETATM   39  O   UNL     1     -10.877  13.446  68.461  1.00  0.00    -0.249 OA 
HETATM   40  C   UNL     1      -9.750  12.589  68.370  1.00  0.00    -0.189 C  
ENDBRANCH   8  39
BRANCH   7  41
HETATM   41  O   UNL     1     -12.102  15.739  69.707  1.00  0.00    -0.353 OA 
HETATM   42  C   UNL     1     -10.830  16.363  69.757  1.00  0.00    -0.343 C  
ENDBRANCH   7  41
ENDBRANCH   2   3
TORSDOF 21
ENDMDL
MODEL      146
REMARK 921   NORMALIZED FREE ENERGY PREDICTED BY IDOCK:   -4.10 KCAL/MOL
REMARK 922        TOTAL FREE ENERGY PREDICTED BY IDOCK:  -12.00 KCAL/MOL
REMARK 923 INTER-LIGAND FREE ENERGY PREDICTED BY IDOCK:   -9.90 KCAL/MOL
REMARK 924 INTRA-LIGAND FREE ENERGY PREDICTED BY IDOCK:   -2.10 KCAL/MOL
REMARK 927      BINDING AFFINITY PREDICTED BY RF-SCORE:    0.00 PKD
ROOT
HETATM    1  C   UNL     1     -10.656  16.850  67.623  1.00  0.00    -0.325 C  
HETATM    2  O   UNL     1     -11.305  16.554  68.857  1.00  0.00    -0.300 OA 
ENDROOT
BRANCH   2   3
HETATM    3  C   UNL     1     -11.501  15.227  69.152  1.00  0.00    -0.316 A  
HETATM    4  C   UNL     1     -10.959  14.232  68.330  1.00  0.00    -0.267 A  
HETATM    5  C   UNL     1     -11.142  12.876  68.607  1.00  0.00    -0.307 A  
HETATM    6  C   UNL     1     -11.875  12.507  69.730  1.00  0.00    -0.380 A  
HETATM    7  C   UNL     1     -12.214  14.864  70.318  1.00  0.00    -0.335 A  
HETATM    8  C   UNL     1     -12.405  13.486  70.592  1.00  0.00    -0.358 A  
BRANCH   5   9
HETATM    9  C   UNL     1     -10.534  11.912  67.658  1.00  0.00    -0.208 C  
HETATM   10  O   UNL     1      -9.459  12.120  67.112  1.00  0.00    -0.183 OA 
BRANCH   9  11
HETATM   11  O   UNL     1     -11.326  10.830  67.456  1.00  0.00    -0.408 OA 
BRANCH  11  12
HETATM   12  C   UNL     1     -10.819   9.614  68.036  1.00  0.00    -0.196 C  
BRANCH  12  13
HETATM   13  C   UNL     1     -10.546   8.596  66.933  1.00  0.00    -0.270 C  
BRANCH  13  14
HETATM   14  C   UNL     1      -9.304   8.963  66.121  1.00  0.00    -0.239 C  
BRANCH  14  15
HETATM   15  N   UNL     1      -8.662   7.800  65.470  1.00  0.00    -0.118 NA 
HETATM   16  C   UNL     1      -7.200   7.936  65.452  1.00  0.00    -0.064 C  
BRANCH  15  17
HETATM   17  C   UNL     1      -9.089   6.563  66.177  1.00  0.00    -0.124 C  
BRANCH  17  18
HETATM   18  C   UNL     1      -8.860   5.262  65.371  1.00  0.00    -0.152 C  
BRANCH  18  19
HETATM   19  N   UNL     1      -9.848   4.179  65.584  1.00  0.00    -0.201 NA 
HETATM   20  C   UNL     1     -10.478   3.782  64.320  1.00  0.00    -0.241 C  
BRANCH  19  21
HETATM   21  C   UNL     1      -9.202   2.998  66.199  1.00  0.00    -0.110 C  
BRANCH  21  22
HETATM   22  C   UNL     1      -9.233   3.015  67.730  1.00  0.00    -0.244 C  
BRANCH  22  23
HETATM   23  C   UNL     1      -7.835   3.129  68.324  1.00  0.00    -0.058 C  
BRANCH  23  24
HETATM   24  O   UNL     1      -7.607   4.480  68.759  1.00  0.00    -0.063 OA 
BRANCH  24  25
HETATM   25  C   UNL     1      -7.302   4.631  70.072  1.00  0.00    -0.054 C  
HETATM   26  O   UNL     1      -6.358   4.122  70.655  1.00  0.00    -0.021 OA 
BRANCH  25  27
HETATM   27  C   UNL     1      -8.278   5.540  70.730  1.00  0.00    -0.117 A  
HETATM   28  C   UNL     1      -9.304   4.968  71.484  1.00  0.00    -0.191 A  
HETATM   29  C   UNL     1     -10.270   5.777  72.083  1.00  0.00    -0.199 A  
HETATM   30  C   UNL     1     -10.225   7.183  71.916  1.00  0.00    -0.190 A  
HETATM   31  C   UNL     1      -8.203   6.931  70.597  1.00  0.00    -0.120 A  
HETATM   32  C   UNL     1      -9.173   7.765  71.172  1.00  0.00    -0.146 A  
BRANCH  29  33
HETATM   33  O   UNL     1     -11.322   5.265  72.808  1.00  0.00    -0.285 OA 
HETATM   34  C   UNL     1     -11.103   4.006  73.440  1.00  0.00    -0.246 C  
ENDBRANCH  29  33
BRANCH  30  35
HETATM   35  O   UNL     1     -11.285   7.860  72.470  1.00  0.00    -0.318 OA 
HETATM   36  C   UNL     1     -12.436   8.087  71.668  1.00  0.00    -0.320 C  
ENDBRANCH  30  35
BRANCH  32  37
HETATM   37  O   UNL     1      -9.155   9.125  71.015  1.00  0.00    -0.236 OA 
HETATM   38  C   UNL     1      -8.066   9.711  70.312  1.00  0.00    -0.183 C  
ENDBRANCH  32  37
ENDBRANCH  25  27
ENDBRANCH  24  25
ENDBRANCH  23  24
ENDBRANCH  22  23
ENDBRANCH  21  22
ENDBRANCH  19  21
ENDBRANCH  18  19
ENDBRANCH  17  18
ENDBRANCH  15  17
ENDBRANCH  14  15
ENDBRANCH  13  14
ENDBRANCH  12  13
ENDBRANCH  11  12
ENDBRANCH   9  11
ENDBRANCH   5   9
BRANCH   8  39
HETATM   39  O   UNL     1     -13.076  12.903  71.642  1.00  0.00    -0.394 OA 
HETATM   40  C   UNL     1     -13.119  11.489  71.757  1.00  0.00    -0.398 C  
ENDBRANCH   8  39
BRANCH   7  41
HETATM   41  O   UNL     1     -12.762  15.737  71.219  1.00  0.00    -0.455 OA 
HETATM   42  C   UNL     1     -12.021  16.189  72.341  1.00  0.00    -0.554 C  
ENDBRANCH   7  41
ENDBRANCH   2   3
TORSDOF 21
ENDMDL
MODEL      147
REMARK 921   NORMALIZED FREE ENERGY PREDICTED BY IDOCK:   -4.10 KCAL/MOL
REMARK 922        TOTAL FREE ENERGY PREDICTED BY IDOCK:  -11.99 KCAL/MOL
REMARK 923 INTER-LIGAND FREE ENERGY PREDICTED BY IDOCK:   -9.98 KCAL/MOL
REMARK 924 INTRA-LIGAND FREE ENERGY PREDICTED BY IDOCK:   -2.00 KCAL/MOL
REMARK 927      BINDING AFFINITY PREDICTED BY RF-SCORE:    0.00 PKD
ROOT
HETATM    1  C   UNL     1     -10.894   5.982  67.977  1.00  0.00    -0.287 C  
HETATM    2  O   UNL     1     -11.355   5.772  69.310  1.00  0.00    -0.225 OA 
ENDROOT
BRANCH   2   3
HETATM    3  C   UNL     1     -11.087   6.763  70.221  1.00  0.00    -0.310 A  
HETATM    4  C   UNL     1     -11.822   7.956  70.208  1.00  0.00     0.149 A  
HETATM    5  C   UNL     1     -11.571   8.979  71.123  1.00  0.00    -0.372 A  
HETATM    6  C   UNL     1     -10.572   8.805  72.075  1.00  0.00    -0.414 A  
HETATM    7  C   UNL     1     -10.097   6.561  71.210  1.00  0.00    -0.186 A  
HETATM    8  C   UNL     1      -9.839   7.605  72.134  1.00  0.00    -0.178 A  
BRANCH   5   9
HETATM    9  C   UNL     1     -12.402  10.202  71.003  1.00  0.00    -0.373 C  
HETATM   10  O   UNL     1     -12.997  10.684  71.956  1.00  0.00    -0.461 OA 
BRANCH   9  11
HETATM   11  O   UNL     1     -12.442  10.665  69.730  1.00  0.00    -0.280 OA 
BRANCH  11  12
HETATM   12  C   UNL     1     -11.260  11.381  69.327  1.00  0.00    -0.277 C  
BRANCH  12  13
HETATM   13  C   UNL     1     -10.631  10.690  68.121  1.00  0.00    -0.237 C  
BRANCH  13  14
HETATM   14  C   UNL     1      -9.117  10.899  68.077  1.00  0.00    -0.152 C  
BRANCH  14  15
HETATM   15  N   UNL     1      -8.359   9.653  67.830  1.00  0.00    -0.120 NA 
HETATM   16  C   UNL     1      -9.258   8.525  67.553  1.00  0.00    -0.133 C  
BRANCH  15  17
HETATM   17  C   UNL     1      -7.411   9.887  66.708  1.00  0.00    -0.095 C  
BRANCH  17  18
HETATM   18  C   UNL     1      -7.780   9.144  65.402  1.00  0.00    -0.098 C  
BRANCH  18  19
HETATM   19  N   UNL     1      -7.557   9.890  64.141  1.00  0.00    -0.135 NA 
HETATM   20  C   UNL     1      -6.714   9.124  63.216  1.00  0.00    -0.090 C  
BRANCH  19  21
HETATM   21  C   UNL     1      -8.846  10.199  63.483  1.00  0.00    -0.231 C  
BRANCH  21  22
HETATM   22  C   UNL     1      -9.873  10.835  64.426  1.00  0.00    -0.374 C  
BRANCH  22  23
HETATM   23  C   UNL     1     -10.833  11.752  63.680  1.00  0.00    -0.440 C  
BRANCH  23  24
HETATM   24  O   UNL     1     -10.761  13.077  64.234  1.00  0.00    -0.367 OA 
BRANCH  24  25
HETATM   25  C   UNL     1     -11.472  13.276  65.373  1.00  0.00    -0.304 C  
HETATM   26  O   UNL     1     -12.549  12.773  65.645  1.00  0.00    -0.596 OA 
BRANCH  25  27
HETATM   27  C   UNL     1     -10.741  14.195  66.286  1.00  0.00    -0.293 A  
HETATM   28  C   UNL     1      -9.519  13.768  66.807  1.00  0.00    -0.281 A  
HETATM   29  C   UNL     1      -8.817  14.576  67.702  1.00  0.00    -0.187 A  
HETATM   30  C   UNL     1      -9.350  15.826  68.101  1.00  0.00    -0.194 A  
HETATM   31  C   UNL     1     -11.252  15.447  66.642  1.00  0.00    -0.175 A  
HETATM   32  C   UNL     1     -10.576  16.269  67.557  1.00  0.00    -0.310 A  
BRANCH  29  33
HETATM   33  O   UNL     1      -7.625  14.190  68.273  1.00  0.00    -0.110 OA 
HETATM   34  C   UNL     1      -6.716  13.489  67.429  1.00  0.00    -0.027 C  
ENDBRANCH  29  33
BRANCH  30  35
HETATM   35  O   UNL     1      -8.616  16.481  69.062  1.00  0.00    -0.246 OA 
HETATM   36  C   UNL     1      -7.656  17.441  68.643  1.00  0.00    -0.265 C  
ENDBRANCH  30  35
BRANCH  32  37
HETATM   37  O   UNL     1     -11.078  17.476  67.965  1.00  0.00    -0.241 OA 
HETATM   38  C   UNL     1     -10.753  18.635  67.207  1.00  0.00    -0.394 C  
ENDBRANCH  32  37
ENDBRANCH  25  27
ENDBRANCH  24  25
ENDBRANCH  23  24
ENDBRANCH  22  23
ENDBRANCH  21  22
ENDBRANCH  19  21
ENDBRANCH  18  19
ENDBRANCH  17  18
ENDBRANCH  15  17
ENDBRANCH  14  15
ENDBRANCH  13  14
ENDBRANCH  12  13
ENDBRANCH  11  12
ENDBRANCH   9  11
ENDBRANCH   5   9
BRANCH   8  39
HETATM   39  O   UNL     1      -8.919   7.641  73.156  1.00  0.00    -0.152 OA 
HETATM   40  C   UNL     1      -9.209   7.004  74.390  1.00  0.00    -0.203 C  
ENDBRANCH   8  39
BRANCH   7  41
HETATM   41  O   UNL     1      -9.336   5.431  71.353  1.00  0.00    -0.144 OA 
HETATM   42  C   UNL     1      -9.842   4.292  72.029  1.00  0.00    -0.175 C  
ENDBRANCH   7  41
ENDBRANCH   2   3
TORSDOF 21
ENDMDL
MODEL      148
REMARK 921   NORMALIZED FREE ENERGY PREDICTED BY IDOCK:   -4.10 KCAL/MOL
REMARK 922        TOTAL FREE ENERGY PREDICTED BY IDOCK:  -11.99 KCAL/MOL
REMARK 923 INTER-LIGAND FREE ENERGY PREDICTED BY IDOCK:   -9.42 KCAL/MOL
REMARK 924 INTRA-LIGAND FREE ENERGY PREDICTED BY IDOCK:   -2.56 KCAL/MOL
REMARK 927      BINDING AFFINITY PREDICTED BY RF-SCORE:    0.00 PKD
ROOT
HETATM    1  C   UNL     1     -11.126   6.317  67.110  1.00  0.00    -0.303 C  
HETATM    2  O   UNL     1      -9.977   5.473  67.160  1.00  0.00    -0.139 OA 
ENDROOT
BRANCH   2   3
HETATM    3  C   UNL     1      -9.363   5.337  68.381  1.00  0.00    -0.118 A  
HETATM    4  C   UNL     1      -9.698   4.274  69.228  1.00  0.00    -0.240 A  
HETATM    5  C   UNL     1      -9.089   4.111  70.473  1.00  0.00    -0.176 A  
HETATM    6  C   UNL     1      -8.120   5.023  70.877  1.00  0.00    -0.096 A  
HETATM    7  C   UNL     1      -8.351   6.247  68.765  1.00  0.00    -0.120 A  
HETATM    8  C   UNL     1      -7.739   6.084  70.033  1.00  0.00    -0.100 A  
BRANCH   5   9
HETATM    9  C   UNL     1      -9.536   2.957  71.291  1.00  0.00    -0.149 C  
HETATM   10  O   UNL     1      -9.834   1.880  70.794  1.00  0.00    -0.084 OA 
BRANCH   9  11
HETATM   11  O   UNL     1      -9.606   3.264  72.609  1.00  0.00    -0.111 OA 
BRANCH  11  12
HETATM   12  C   UNL     1     -10.945   3.477  73.093  1.00  0.00    -0.118 C  
BRANCH  12  13
HETATM   13  C   UNL     1     -11.127   4.946  73.465  1.00  0.00    -0.405 C  
BRANCH  13  14
HETATM   14  C   UNL     1     -11.732   5.749  72.313  1.00  0.00    -0.205 C  
BRANCH  14  15
HETATM   15  N   UNL     1     -11.324   7.170  72.309  1.00  0.00    -0.257 NA 
HETATM   16  C   UNL     1     -10.186   7.403  73.209  1.00  0.00    -0.335 C  
BRANCH  15  17
HETATM   17  C   UNL     1     -11.008   7.572  70.912  1.00  0.00    -0.253 C  
BRANCH  17  18
HETATM   18  C   UNL     1     -11.484   8.997  70.541  1.00  0.00    -0.212 C  
BRANCH  18  19
HETATM   19  N   UNL     1     -10.489   9.861  69.863  1.00  0.00    -0.250 NA 
HETATM   20  C   UNL     1      -9.129   9.564  70.324  1.00  0.00    -0.253 C  
BRANCH  19  21
HETATM   21  C   UNL     1     -10.557   9.681  68.395  1.00  0.00    -0.225 C  
BRANCH  21  22
HETATM   22  C   UNL     1     -10.713  10.997  67.627  1.00  0.00    -0.281 C  
BRANCH  22  23
HETATM   23  C   UNL     1      -9.364  11.612  67.279  1.00  0.00    -0.169 C  
BRANCH  23  24
HETATM   24  O   UNL     1      -9.162  12.802  68.060  1.00  0.00    -0.196 OA 
BRANCH  24  25
HETATM   25  C   UNL     1      -8.241  13.673  67.575  1.00  0.00    -0.184 C  
HETATM   26  O   UNL     1      -7.056  13.441  67.398  1.00  0.00    -0.164 OA 
BRANCH  25  27
HETATM   27  C   UNL     1      -8.878  14.978  67.255  1.00  0.00    -0.216 A  
HETATM   28  C   UNL     1      -8.684  16.039  68.140  1.00  0.00    -0.173 A  
HETATM   29  C   UNL     1      -9.297  17.270  67.907  1.00  0.00    -0.258 A  
HETATM   30  C   UNL     1     -10.135  17.445  66.778  1.00  0.00    -0.313 A  
HETATM   31  C   UNL     1      -9.670  15.157  66.116  1.00  0.00    -0.338 A  
HETATM   32  C   UNL     1     -10.314  16.378  65.869  1.00  0.00    -0.362 A  
BRANCH  29  33
HETATM   33  O   UNL     1      -9.168  18.339  68.764  1.00  0.00    -0.299 OA 
HETATM   34  C   UNL     1      -7.881  18.947  68.829  1.00  0.00    -0.324 C  
ENDBRANCH  29  33
BRANCH  30  35
HETATM   35  O   UNL     1     -10.760  18.668  66.713  1.00  0.00    -0.385 OA 
HETATM   36  C   UNL     1     -10.141  19.705  65.965  1.00  0.00    -0.461 C  
ENDBRANCH  30  35
BRANCH  32  37
HETATM   37  O   UNL     1     -11.137  16.566  64.791  1.00  0.00    -0.624 OA 
HETATM   38  C   UNL     1     -11.913  15.466  64.331  1.00  0.00    -0.228 C  
ENDBRANCH  32  37
ENDBRANCH  25  27
ENDBRANCH  24  25
ENDBRANCH  23  24
ENDBRANCH  22  23
ENDBRANCH  21  22
ENDBRANCH  19  21
ENDBRANCH  18  19
ENDBRANCH  17  18
ENDBRANCH  15  17
ENDBRANCH  14  15
ENDBRANCH  13  14
ENDBRANCH  12  13
ENDBRANCH  11  12
ENDBRANCH   9  11
ENDBRANCH   5   9
BRANCH   8  39
HETATM   39  O   UNL     1      -6.759   6.850  70.620  1.00  0.00    -0.051 OA 
HETATM   40  C   UNL     1      -6.752   7.032  72.028  1.00  0.00    -0.057 C  
ENDBRANCH   8  39
BRANCH   7  41
HETATM   41  O   UNL     1      -7.907   7.304  68.015  1.00  0.00    -0.114 OA 
HETATM   42  C   UNL     1      -6.804   7.162  67.135  1.00  0.00    -0.076 C  
ENDBRANCH   7  41
ENDBRANCH   2   3
TORSDOF 21
ENDMDL
MODEL      149
REMARK 921   NORMALIZED FREE ENERGY PREDICTED BY IDOCK:   -4.07 KCAL/MOL
REMARK 922        TOTAL FREE ENERGY PREDICTED BY IDOCK:  -11.93 KCAL/MOL
REMARK 923 INTER-LIGAND FREE ENERGY PREDICTED BY IDOCK:   -9.92 KCAL/MOL
REMARK 924 INTRA-LIGAND FREE ENERGY PREDICTED BY IDOCK:   -2.01 KCAL/MOL
REMARK 927      BINDING AFFINITY PREDICTED BY RF-SCORE:    0.00 PKD
ROOT
HETATM    1  C   UNL     1     -10.199   8.990  66.206  1.00  0.00    -0.167 C  
HETATM    2  O   UNL     1     -10.101   9.830  65.059  1.00  0.00    -0.225 OA 
ENDROOT
BRANCH   2   3
HETATM    3  C   UNL     1      -9.936  11.174  65.288  1.00  0.00    -0.260 A  
HETATM    4  C   UNL     1      -8.982  11.624  66.209  1.00  0.00    -0.194 A  
HETATM    5  C   UNL     1      -8.793  12.983  66.460  1.00  0.00    -0.009 A  
HETATM    6  C   UNL     1      -9.565  13.913  65.773  1.00  0.00    -0.114 A  
HETATM    7  C   UNL     1     -10.699  12.112  64.555  1.00  0.00    -0.310 A  
HETATM    8  C   UNL     1     -10.510  13.493  64.818  1.00  0.00    -0.413 A  
BRANCH   5   9
HETATM    9  C   UNL     1      -7.764  13.340  67.468  1.00  0.00    -0.171 C  
HETATM   10  O   UNL     1      -6.583  13.051  67.328  1.00  0.00    -0.165 OA 
BRANCH   9  11
HETATM   11  O   UNL     1      -8.301  13.968  68.542  1.00  0.00    -0.154 OA 
BRANCH  11  12
HETATM   12  C   UNL     1      -7.382  14.827  69.242  1.00  0.00    -0.168 C  
BRANCH  12  13
HETATM   13  C   UNL     1      -8.066  16.152  69.564  1.00  0.00     0.036 C  
BRANCH  13  14
HETATM   14  C   UNL     1      -8.998  16.597  68.437  1.00  0.00    -0.223 C  
BRANCH  14  15
HETATM   15  N   UNL     1     -10.206  17.301  68.916  1.00  0.00    -0.338 NA 
HETATM   16  C   UNL     1     -10.156  18.733  68.589  1.00  0.00    -0.380 C  
BRANCH  15  17
HETATM   17  C   UNL     1     -11.405  16.646  68.328  1.00  0.00    -0.121 C  
BRANCH  17  18
HETATM   18  C   UNL     1     -11.549  15.148  68.687  1.00  0.00    -0.338 C  
BRANCH  18  19
HETATM   19  N   UNL     1     -11.665  14.831  70.130  1.00  0.00    -0.284 NA 
HETATM   20  C   UNL     1     -12.823  15.504  70.727  1.00  0.00    -0.458 C  
BRANCH  19  21
HETATM   21  C   UNL     1     -11.792  13.370  70.333  1.00  0.00    -0.208 C  
BRANCH  21  22
HETATM   22  C   UNL     1     -13.066  12.969  71.084  1.00  0.00    -0.185 C  
BRANCH  22  23
HETATM   23  C   UNL     1     -12.845  11.738  71.954  1.00  0.00    -0.232 C  
BRANCH  23  24
HETATM   24  O   UNL     1     -12.602  10.595  71.118  1.00  0.00    -0.350 OA 
BRANCH  24  25
HETATM   25  C   UNL     1     -12.898   9.391  71.669  1.00  0.00    -0.378 C  
HETATM   26  O   UNL     1     -13.998   9.027  72.054  1.00  0.00    -0.414 OA 
BRANCH  25  27
HETATM   27  C   UNL     1     -11.684   8.534  71.727  1.00  0.00    -0.392 A  
HETATM   28  C   UNL     1     -11.799   7.270  72.307  1.00  0.00    -0.287 A  
HETATM   29  C   UNL     1     -10.679   6.447  72.425  1.00  0.00    -0.226 A  
HETATM   30  C   UNL     1      -9.415   6.895  71.971  1.00  0.00    -0.140 A  
HETATM   31  C   UNL     1     -10.447   8.966  71.237  1.00  0.00    -0.357 A  
HETATM   32  C   UNL     1      -9.301   8.166  71.362  1.00  0.00    -0.155 A  
BRANCH  29  33
HETATM   33  O   UNL     1     -10.728   5.206  73.019  1.00  0.00    -0.214 OA 
HETATM   34  C   UNL     1     -10.373   5.149  74.397  1.00  0.00    -0.279 C  
ENDBRANCH  29  33
BRANCH  30  35
HETATM   35  O   UNL     1      -8.374   6.036  72.233  1.00  0.00    -0.113 OA 
HETATM   36  C   UNL     1      -7.877   5.231  71.173  1.00  0.00    -0.103 C  
ENDBRANCH  30  35
BRANCH  32  37
HETATM   37  O   UNL     1      -8.068   8.584  70.941  1.00  0.00    -0.103 OA 
HETATM   38  C   UNL     1      -7.984   9.778  70.172  1.00  0.00    -0.186 C  
ENDBRANCH  32  37
ENDBRANCH  25  27
ENDBRANCH  24  25
ENDBRANCH  23  24
ENDBRANCH  22  23
ENDBRANCH  21  22
ENDBRANCH  19  21
ENDBRANCH  18  19
ENDBRANCH  17  18
ENDBRANCH  15  17
ENDBRANCH  14  15
ENDBRANCH  13  14
ENDBRANCH  12  13
ENDBRANCH  11  12
ENDBRANCH   9  11
ENDBRANCH   5   9
BRANCH   8  39
HETATM   39  O   UNL     1     -11.148  14.571  64.249  1.00  0.00    -0.221 OA 
HETATM   40  C   UNL     1     -11.259  15.787  64.972  1.00  0.00    -0.308 C  
ENDBRANCH   8  39
BRANCH   7  41
HETATM   41  O   UNL     1     -11.636  11.804  63.604  1.00  0.00    -0.434 OA 
HETATM   42  C   UNL     1     -13.017  12.019  63.842  1.00  0.00    -0.180 C  
ENDBRANCH   7  41
ENDBRANCH   2   3
TORSDOF 21
ENDMDL
MODEL      150
REMARK 921   NORMALIZED FREE ENERGY PREDICTED BY IDOCK:   -4.06 KCAL/MOL
REMARK 922        TOTAL FREE ENERGY PREDICTED BY IDOCK:  -11.91 KCAL/MOL
REMARK 923 INTER-LIGAND FREE ENERGY PREDICTED BY IDOCK:   -9.65 KCAL/MOL
REMARK 924 INTRA-LIGAND FREE ENERGY PREDICTED BY IDOCK:   -2.26 KCAL/MOL
REMARK 927      BINDING AFFINITY PREDICTED BY RF-SCORE:    0.00 PKD
ROOT
HETATM    1  C   UNL     1      -7.997  17.083  66.134  1.00  0.00    -0.264 C  
HETATM    2  O   UNL     1      -7.998  16.268  67.304  1.00  0.00    -0.145 OA 
ENDROOT
BRANCH   2   3
HETATM    3  C   UNL     1      -9.181  15.650  67.627  1.00  0.00    -0.193 A  
HETATM    4  C   UNL     1      -9.470  14.371  67.136  1.00  0.00    -0.225 A  
HETATM    5  C   UNL     1     -10.664  13.720  67.448  1.00  0.00    -0.279 A  
HETATM    6  C   UNL     1     -11.585  14.355  68.274  1.00  0.00    -0.359 A  
HETATM    7  C   UNL     1     -10.094  16.288  68.499  1.00  0.00    -0.239 A  
HETATM    8  C   UNL     1     -11.309  15.628  68.809  1.00  0.00    -0.349 A  
BRANCH   5   9
HETATM    9  C   UNL     1     -10.866  12.374  66.858  1.00  0.00    -0.251 C  
HETATM   10  O   UNL     1     -10.173  11.949  65.944  1.00  0.00    -0.222 OA 
BRANCH   9  11
HETATM   11  O   UNL     1     -11.913  11.723  67.424  1.00  0.00    -0.617 OA 
BRANCH  11  12
HETATM   12  C   UNL     1     -11.532  10.643  68.295  1.00  0.00    -0.245 C  
BRANCH  12  13
HETATM   13  C   UNL     1     -11.537  11.128  69.742  1.00  0.00    -0.409 C  
BRANCH  13  14
HETATM   14  C   UNL     1     -12.259  10.145  70.664  1.00  0.00    -0.302 C  
BRANCH  14  15
HETATM   15  N   UNL     1     -11.450   8.955  71.004  1.00  0.00    -0.282 NA 
HETATM   16  C   UNL     1     -10.069   9.324  71.341  1.00  0.00    -0.278 C  
BRANCH  15  17
HETATM   17  C   UNL     1     -12.113   8.231  72.122  1.00  0.00    -0.367 C  
BRANCH  17  18
HETATM   18  C   UNL     1     -12.099   6.690  71.975  1.00  0.00    -0.310 C  
BRANCH  18  19
HETATM   19  N   UNL     1     -11.012   5.976  72.685  1.00  0.00    -0.249 NA 
HETATM   20  C   UNL     1     -11.487   4.701  73.231  1.00  0.00    -0.254 C  
BRANCH  19  21
HETATM   21  C   UNL     1      -9.874   5.722  71.774  1.00  0.00    -0.166 C  
BRANCH  21  22
HETATM   22  C   UNL     1     -10.303   5.398  70.339  1.00  0.00    -0.353 C  
BRANCH  22  23
HETATM   23  C   UNL     1      -9.647   4.122  69.827  1.00  0.00    -0.211 C  
BRANCH  23  24
HETATM   24  O   UNL     1      -8.594   4.458  68.909  1.00  0.00    -0.082 OA 
BRANCH  24  25
HETATM   25  C   UNL     1      -8.871   4.250  67.597  1.00  0.00    -0.111 C  
HETATM   26  O   UNL     1      -9.255   3.204  67.099  1.00  0.00    -0.167 OA 
BRANCH  25  27
HETATM   27  C   UNL     1      -8.665   5.501  66.819  1.00  0.00    -0.114 A  
HETATM   28  C   UNL     1      -8.343   5.387  65.466  1.00  0.00    -0.133 A  
HETATM   29  C   UNL     1      -8.096   6.530  64.705  1.00  0.00    -0.092 A  
HETATM   30  C   UNL     1      -8.155   7.812  65.305  1.00  0.00    -0.133 A  
HETATM   31  C   UNL     1      -8.767   6.766  67.408  1.00  0.00    -0.119 A  
HETATM   32  C   UNL     1      -8.503   7.929  66.669  1.00  0.00    -0.131 A  
BRANCH  29  33
HETATM   33  O   UNL     1      -7.741   6.475  63.376  1.00  0.00    -0.095 OA 
HETATM   34  C   UNL     1      -7.546   5.176  62.826  1.00  0.00    -0.059 C  
ENDBRANCH  29  33
BRANCH  30  35
HETATM   35  O   UNL     1      -7.794   8.849  64.477  1.00  0.00    -0.113 OA 
HETATM   36  C   UNL     1      -8.822   9.626  63.879  1.00  0.00    -0.228 C  
ENDBRANCH  30  35
BRANCH  32  37
HETATM   37  O   UNL     1      -8.543   9.177  67.232  1.00  0.00    -0.117 OA 
HETATM   38  C   UNL     1      -7.611   9.486  68.261  1.00  0.00    -0.078 C  
ENDBRANCH  32  37
ENDBRANCH  25  27
ENDBRANCH  24  25
ENDBRANCH  23  24
ENDBRANCH  22  23
ENDBRANCH  21  22
ENDBRANCH  19  21
ENDBRANCH  18  19
ENDBRANCH  17  18
ENDBRANCH  15  17
ENDBRANCH  14  15
ENDBRANCH  13  14
ENDBRANCH  12  13
ENDBRANCH  11  12
ENDBRANCH   9  11
ENDBRANCH   5   9
BRANCH   8  39
HETATM   39  O   UNL     1     -12.343  16.059  69.607  1.00  0.00    -0.192 OA 
HETATM   40  C   UNL     1     -12.472  15.558  70.928  1.00  0.00    -0.440 C  
ENDBRANCH   8  39
BRANCH   7  41
HETATM   41  O   UNL     1      -9.915  17.519  69.074  1.00  0.00    -0.307 OA 
HETATM   42  C   UNL     1     -10.268  18.705  68.383  1.00  0.00    -0.371 C  
ENDBRANCH   7  41
ENDBRANCH   2   3
TORSDOF 21
ENDMDL
MODEL      151
REMARK 921   NORMALIZED FREE ENERGY PREDICTED BY IDOCK:   -4.06 KCAL/MOL
REMARK 922        TOTAL FREE ENERGY PREDICTED BY IDOCK:  -11.91 KCAL/MOL
REMARK 923 INTER-LIGAND FREE ENERGY PREDICTED BY IDOCK:   -8.49 KCAL/MOL
REMARK 924 INTRA-LIGAND FREE ENERGY PREDICTED BY IDOCK:   -3.42 KCAL/MOL
REMARK 927      BINDING AFFINITY PREDICTED BY RF-SCORE:    0.00 PKD
ROOT
HETATM    1  C   UNL     1     -10.751   5.542  71.798  1.00  0.00    -0.226 C  
HETATM    2  O   UNL     1     -11.684   6.573  71.484  1.00  0.00    -0.298 OA 
ENDROOT
BRANCH   2   3
HETATM    3  C   UNL     1     -11.335   7.437  70.475  1.00  0.00    -0.271 A  
HETATM    4  C   UNL     1     -10.996   6.947  69.208  1.00  0.00    -0.260 A  
HETATM    5  C   UNL     1     -10.639   7.803  68.165  1.00  0.00    -0.182 A  
HETATM    6  C   UNL     1     -10.627   9.175  68.389  1.00  0.00    -0.217 A  
HETATM    7  C   UNL     1     -11.363   8.833  70.702  1.00  0.00    -0.254 A  
HETATM    8  C   UNL     1     -10.992   9.699  69.643  1.00  0.00    -0.229 A  
BRANCH   5   9
HETATM    9  C   UNL     1     -10.286   7.169  66.871  1.00  0.00    -0.260 C  
HETATM   10  O   UNL     1      -9.536   7.700  66.065  1.00  0.00    -0.099 OA 
BRANCH   9  11
HETATM   11  O   UNL     1     -10.921   5.983  66.696  1.00  0.00    -0.293 OA 
BRANCH  11  12
HETATM   12  C   UNL     1     -10.038   4.851  66.605  1.00  0.00    -0.249 C  
BRANCH  12  13
HETATM   13  C   UNL     1     -10.018   4.332  65.170  1.00  0.00    -0.215 C  
BRANCH  13  14
HETATM   14  C   UNL     1      -8.807   3.436  64.910  1.00  0.00    -0.123 C  
BRANCH  14  15
HETATM   15  N   UNL     1      -7.725   3.608  65.903  1.00  0.00    -0.088 NA 
HETATM   16  C   UNL     1      -7.187   2.312  66.339  1.00  0.00    -0.060 C  
BRANCH  15  17
HETATM   17  C   UNL     1      -6.667   4.470  65.312  1.00  0.00    -0.049 C  
BRANCH  17  18
HETATM   18  C   UNL     1      -5.908   5.339  66.343  1.00  0.00    -0.018 C  
BRANCH  18  19
HETATM   19  N   UNL     1      -6.718   6.344  67.072  1.00  0.00    -0.058 NA 
HETATM   20  C   UNL     1      -6.729   6.069  68.512  1.00  0.00    -0.061 C  
BRANCH  19  21
HETATM   21  C   UNL     1      -6.188   7.706  66.840  1.00  0.00    -0.049 C  
BRANCH  21  22
HETATM   22  C   UNL     1      -6.619   8.717  67.908  1.00  0.00    -0.061 C  
BRANCH  22  23
HETATM   23  C   UNL     1      -5.740   9.961  67.898  1.00  0.00    -0.039 C  
BRANCH  23  24
HETATM   24  O   UNL     1      -6.501  11.083  67.421  1.00  0.00    -0.061 OA 
BRANCH  24  25
HETATM   25  C   UNL     1      -7.243  11.729  68.356  1.00  0.00    -0.089 C  
HETATM   26  O   UNL     1      -7.019  11.760  69.556  1.00  0.00    -0.079 OA 
BRANCH  25  27
HETATM   27  C   UNL     1      -8.383  12.436  67.716  1.00  0.00    -0.164 A  
HETATM   28  C   UNL     1      -8.958  11.862  66.582  1.00  0.00    -0.198 A  
HETATM   29  C   UNL     1     -10.002  12.509  65.919  1.00  0.00    -0.257 A  
HETATM   30  C   UNL     1     -10.473  13.761  66.384  1.00  0.00    -0.284 A  
HETATM   31  C   UNL     1      -8.873  13.651  68.206  1.00  0.00    -0.179 A  
HETATM   32  C   UNL     1      -9.907  14.332  67.546  1.00  0.00    -0.231 A  
BRANCH  29  33
HETATM   33  O   UNL     1     -10.582  12.005  64.777  1.00  0.00    -0.272 OA 
HETATM   34  C   UNL     1     -10.144  10.715  64.360  1.00  0.00    -0.349 C  
ENDBRANCH  29  33
BRANCH  30  35
HETATM   35  O   UNL     1     -11.433  14.343  65.590  1.00  0.00    -0.326 OA 
HETATM   36  C   UNL     1     -11.043  15.394  64.718  1.00  0.00    -0.403 C  
ENDBRANCH  30  35
BRANCH  32  37
HETATM   37  O   UNL     1     -10.370  15.548  67.972  1.00  0.00    -0.240 OA 
HETATM   38  C   UNL     1     -11.438  15.575  68.911  1.00  0.00    -0.354 C  
ENDBRANCH  32  37
ENDBRANCH  25  27
ENDBRANCH  24  25
ENDBRANCH  23  24
ENDBRANCH  22  23
ENDBRANCH  21  22
ENDBRANCH  19  21
ENDBRANCH  18  19
ENDBRANCH  17  18
ENDBRANCH  15  17
ENDBRANCH  14  15
ENDBRANCH  13  14
ENDBRANCH  12  13
ENDBRANCH  11  12
ENDBRANCH   9  11
ENDBRANCH   5   9
BRANCH   8  39
HETATM   39  O   UNL     1     -10.926  11.073  69.640  1.00  0.00    -0.251 OA 
HETATM   40  C   UNL     1     -11.988  11.831  69.080  1.00  0.00    -0.293 C  
ENDBRANCH   8  39
BRANCH   7  41
HETATM   41  O   UNL     1     -11.710   9.439  71.881  1.00  0.00    -0.374 OA 
HETATM   42  C   UNL     1     -13.065   9.728  72.182  1.00  0.00    -0.422 C  
ENDBRANCH   7  41
ENDBRANCH   2   3
TORSDOF 21
ENDMDL
MODEL      152
REMARK 921   NORMALIZED FREE ENERGY PREDICTED BY IDOCK:   -4.06 KCAL/MOL
REMARK 922        TOTAL FREE ENERGY PREDICTED BY IDOCK:  -11.90 KCAL/MOL
REMARK 923 INTER-LIGAND FREE ENERGY PREDICTED BY IDOCK:   -9.49 KCAL/MOL
REMARK 924 INTRA-LIGAND FREE ENERGY PREDICTED BY IDOCK:   -2.41 KCAL/MOL
REMARK 927      BINDING AFFINITY PREDICTED BY RF-SCORE:    0.00 PKD
ROOT
HETATM    1  C   UNL     1      -6.517   6.288  62.582  1.00  0.00    -0.033 C  
HETATM    2  O   UNL     1      -7.333   7.454  62.660  1.00  0.00    -0.082 OA 
ENDROOT
BRANCH   2   3
HETATM    3  C   UNL     1      -7.674   7.888  63.917  1.00  0.00    -0.138 A  
HETATM    4  C   UNL     1      -8.018   6.969  64.916  1.00  0.00    -0.127 A  
HETATM    5  C   UNL     1      -8.367   7.383  66.202  1.00  0.00    -0.139 A  
HETATM    6  C   UNL     1      -8.365   8.741  66.499  1.00  0.00    -0.112 A  
HETATM    7  C   UNL     1      -7.630   9.269  64.220  1.00  0.00    -0.112 A  
HETATM    8  C   UNL     1      -7.993   9.687  65.526  1.00  0.00    -0.115 A  
BRANCH   5   9
HETATM    9  C   UNL     1      -8.728   6.320  67.172  1.00  0.00    -0.109 C  
HETATM   10  O   UNL     1      -7.906   5.811  67.920  1.00  0.00    -0.096 OA 
BRANCH   9  11
HETATM   11  O   UNL     1     -10.036   5.975  67.084  1.00  0.00    -0.139 OA 
BRANCH  11  12
HETATM   12  C   UNL     1     -10.911   6.775  67.901  1.00  0.00    -0.247 C  
BRANCH  12  13
HETATM   13  C   UNL     1     -11.050   6.135  69.279  1.00  0.00    -0.463 C  
BRANCH  13  14
HETATM   14  C   UNL     1     -10.245   6.890  70.337  1.00  0.00    -0.192 C  
BRANCH  14  15
HETATM   15  N   UNL     1     -11.082   7.482  71.402  1.00  0.00    -0.236 NA 
HETATM   16  C   UNL     1     -11.043   6.673  72.627  1.00  0.00    -0.257 C  
BRANCH  15  17
HETATM   17  C   UNL     1     -10.623   8.875  71.650  1.00  0.00    -0.352 C  
BRANCH  17  18
HETATM   18  C   UNL     1     -10.363   9.696  70.364  1.00  0.00    -0.291 C  
BRANCH  18  19
HETATM   19  N   UNL     1     -11.563  10.116  69.604  1.00  0.00    -0.195 NA 
HETATM   20  C   UNL     1     -12.496  10.859  70.457  1.00  0.00    -0.351 C  
BRANCH  19  21
HETATM   21  C   UNL     1     -11.179  10.960  68.450  1.00  0.00    -0.285 C  
BRANCH  21  22
HETATM   22  C   UNL     1     -11.881  12.322  68.432  1.00  0.00    -0.358 C  
BRANCH  22  23
HETATM   23  C   UNL     1     -11.871  12.946  67.043  1.00  0.00    -0.374 C  
BRANCH  23  24
HETATM   24  O   UNL     1     -10.533  12.927  66.517  1.00  0.00    -0.259 OA 
BRANCH  24  25
HETATM   25  C   UNL     1     -10.221  13.941  65.671  1.00  0.00    -0.328 C  
HETATM   26  O   UNL     1     -10.345  13.930  64.457  1.00  0.00    -0.436 OA 
BRANCH  25  27
HETATM   27  C   UNL     1      -9.715  15.114  66.433  1.00  0.00    -0.300 A  
HETATM   28  C   UNL     1      -8.436  15.035  66.987  1.00  0.00    -0.258 A  
HETATM   29  C   UNL     1      -7.934  16.091  67.748  1.00  0.00    -0.139 A  
HETATM   30  C   UNL     1      -8.725  17.243  67.976  1.00  0.00    -0.231 A  
HETATM   31  C   UNL     1     -10.484  16.267  66.618  1.00  0.00    -0.290 A  
HETATM   32  C   UNL     1     -10.011  17.334  67.396  1.00  0.00    -0.278 A  
BRANCH  29  33
HETATM   33  O   UNL     1      -6.695  16.052  68.346  1.00  0.00    -0.115 OA 
HETATM   34  C   UNL     1      -6.328  14.823  68.965  1.00  0.00    -0.093 C  
ENDBRANCH  29  33
BRANCH  30  35
HETATM   35  O   UNL     1      -8.160  18.168  68.821  1.00  0.00    -0.299 OA 
HETATM   36  C   UNL     1      -7.430  19.247  68.254  1.00  0.00    -0.300 C  
ENDBRANCH  30  35
BRANCH  32  37
HETATM   37  O   UNL     1     -10.763  18.453  67.638  1.00  0.00    -0.423 OA 
HETATM   38  C   UNL     1     -10.695  19.529  66.710  1.00  0.00    -0.460 C  
ENDBRANCH  32  37
ENDBRANCH  25  27
ENDBRANCH  24  25
ENDBRANCH  23  24
ENDBRANCH  22  23
ENDBRANCH  21  22
ENDBRANCH  19  21
ENDBRANCH  18  19
ENDBRANCH  17  18
ENDBRANCH  15  17
ENDBRANCH  14  15
ENDBRANCH  13  14
ENDBRANCH  12  13
ENDBRANCH  11  12
ENDBRANCH   9  11
ENDBRANCH   5   9
BRANCH   8  39
HETATM   39  O   UNL     1      -8.045  10.964  66.036  1.00  0.00    -0.159 OA 
HETATM   40  C   UNL     1      -6.906  11.515  66.678  1.00  0.00    -0.075 C  
ENDBRANCH   8  39
BRANCH   7  41
HETATM   41  O   UNL     1      -7.277  10.263  63.347  1.00  0.00    -0.136 OA 
HETATM   42  C   UNL     1      -5.914  10.576  63.111  1.00  0.00    -0.111 C  
ENDBRANCH   7  41
ENDBRANCH   2   3
TORSDOF 21
ENDMDL
MODEL      153
REMARK 921   NORMALIZED FREE ENERGY PREDICTED BY IDOCK:   -4.06 KCAL/MOL
REMARK 922        TOTAL FREE ENERGY PREDICTED BY IDOCK:  -11.89 KCAL/MOL
REMARK 923 INTER-LIGAND FREE ENERGY PREDICTED BY IDOCK:   -9.69 KCAL/MOL
REMARK 924 INTRA-LIGAND FREE ENERGY PREDICTED BY IDOCK:   -2.20 KCAL/MOL
REMARK 927      BINDING AFFINITY PREDICTED BY RF-SCORE:    0.00 PKD
ROOT
HETATM    1  C   UNL     1      -6.722   4.140  64.961  1.00  0.00    -0.048 C  
HETATM    2  O   UNL     1      -7.793   4.896  64.402  1.00  0.00    -0.080 OA 
ENDROOT
BRANCH   2   3
HETATM    3  C   UNL     1      -8.331   5.884  65.189  1.00  0.00    -0.143 A  
HETATM    4  C   UNL     1      -9.037   5.557  66.353  1.00  0.00    -0.145 A  
HETATM    5  C   UNL     1      -9.593   6.541  67.172  1.00  0.00    -0.162 A  
HETATM    6  C   UNL     1      -9.435   7.878  66.826  1.00  0.00    -0.257 A  
HETATM    7  C   UNL     1      -8.131   7.242  64.849  1.00  0.00    -0.108 A  
HETATM    8  C   UNL     1      -8.704   8.240  65.678  1.00  0.00    -0.156 A  
BRANCH   5   9
HETATM    9  C   UNL     1     -10.331   6.074  68.371  1.00  0.00    -0.207 C  
HETATM   10  O   UNL     1     -11.526   6.279  68.525  1.00  0.00    -0.229 OA 
BRANCH   9  11
HETATM   11  O   UNL     1      -9.516   5.449  69.257  1.00  0.00    -0.121 OA 
BRANCH  11  12
HETATM   12  C   UNL     1      -8.881   6.335  70.198  1.00  0.00    -0.149 C  
BRANCH  12  13
HETATM   13  C   UNL     1      -9.304   5.962  71.616  1.00  0.00    -0.162 C  
BRANCH  13  14
HETATM   14  C   UNL     1     -10.784   6.255  71.860  1.00  0.00    -0.230 C  
BRANCH  14  15
HETATM   15  N   UNL     1     -11.027   7.112  73.040  1.00  0.00    -0.315 NA 
HETATM   16  C   UNL     1      -9.775   7.684  73.553  1.00  0.00    -0.299 C  
BRANCH  15  17
HETATM   17  C   UNL     1     -12.002   8.172  72.668  1.00  0.00    -0.292 C  
BRANCH  17  18
HETATM   18  C   UNL     1     -11.947   8.588  71.178  1.00  0.00    -0.272 C  
BRANCH  18  19
HETATM   19  N   UNL     1     -11.270   9.872  70.882  1.00  0.00    -0.340 NA 
HETATM   20  C   UNL     1     -10.029   9.653  70.131  1.00  0.00    -0.261 C  
BRANCH  19  21
HETATM   21  C   UNL     1     -12.159  10.763  70.105  1.00  0.00    -0.346 C  
BRANCH  21  22
HETATM   22  C   UNL     1     -11.612  11.109  68.716  1.00  0.00    -0.389 C  
BRANCH  22  23
HETATM   23  C   UNL     1     -11.746  12.595  68.409  1.00  0.00    -0.333 C  
BRANCH  23  24
HETATM   24  O   UNL     1     -10.875  12.941  67.319  1.00  0.00    -0.249 OA 
BRANCH  24  25
HETATM   25  C   UNL     1     -11.300  13.959  66.528  1.00  0.00    -0.331 C  
HETATM   26  O   UNL     1     -12.353  13.999  65.912  1.00  0.00    -0.444 OA 
BRANCH  25  27
HETATM   27  C   UNL     1     -10.304  15.063  66.524  1.00  0.00    -0.287 A  
HETATM   28  C   UNL     1      -8.961  14.736  66.712  1.00  0.00    -0.292 A  
HETATM   29  C   UNL     1      -7.994  15.741  66.761  1.00  0.00    -0.238 A  
HETATM   30  C   UNL     1      -8.372  17.100  66.637  1.00  0.00    -0.251 A  
HETATM   31  C   UNL     1     -10.680  16.400  66.358  1.00  0.00    -0.161 A  
HETATM   32  C   UNL     1      -9.730  17.430  66.424  1.00  0.00    -0.290 A  
BRANCH  29  33
HETATM   33  O   UNL     1      -6.660  15.478  66.977  1.00  0.00    -0.279 OA 
HETATM   34  C   UNL     1      -6.337  14.792  68.183  1.00  0.00    -0.138 C  
ENDBRANCH  29  33
BRANCH  30  35
HETATM   35  O   UNL     1      -7.345  17.998  66.801  1.00  0.00    -0.186 OA 
HETATM   36  C   UNL     1      -7.095  18.510  68.103  1.00  0.00    -0.249 C  
ENDBRANCH  30  35
BRANCH  32  37
HETATM   37  O   UNL     1     -10.075  18.751  66.318  1.00  0.00    -0.373 OA 
HETATM   38  C   UNL     1     -10.689  19.383  67.435  1.00  0.00    -0.479 C  
ENDBRANCH  32  37
ENDBRANCH  25  27
ENDBRANCH  24  25
ENDBRANCH  23  24
ENDBRANCH  22  23
ENDBRANCH  21  22
ENDBRANCH  19  21
ENDBRANCH  18  19
ENDBRANCH  17  18
ENDBRANCH  15  17
ENDBRANCH  14  15
ENDBRANCH  13  14
ENDBRANCH  12  13
ENDBRANCH  11  12
ENDBRANCH   9  11
ENDBRANCH   5   9
BRANCH   8  39
HETATM   39  O   UNL     1      -8.660   9.607  65.534  1.00  0.00    -0.134 OA 
HETATM   40  C   UNL     1      -7.558  10.336  66.052  1.00  0.00    -0.128 C  
ENDBRANCH   8  39
BRANCH   7  41
HETATM   41  O   UNL     1      -7.433   7.694  63.760  1.00  0.00    -0.090 OA 
HETATM   42  C   UNL     1      -6.015   7.705  63.757  1.00  0.00    -0.049 C  
ENDBRANCH   7  41
ENDBRANCH   2   3
TORSDOF 21
ENDMDL
MODEL      154
REMARK 921   NORMALIZED FREE ENERGY PREDICTED BY IDOCK:   -4.05 KCAL/MOL
REMARK 922        TOTAL FREE ENERGY PREDICTED BY IDOCK:  -11.88 KCAL/MOL
REMARK 923 INTER-LIGAND FREE ENERGY PREDICTED BY IDOCK:  -10.07 KCAL/MOL
REMARK 924 INTRA-LIGAND FREE ENERGY PREDICTED BY IDOCK:   -1.80 KCAL/MOL
REMARK 927      BINDING AFFINITY PREDICTED BY RF-SCORE:    0.00 PKD
ROOT
HETATM    1  C   UNL     1      -5.280   2.985  66.829  1.00  0.00    -0.012 C  
HETATM    2  O   UNL     1      -6.697   3.081  66.703  1.00  0.00    -0.039 OA 
ENDROOT
BRANCH   2   3
HETATM    3  C   UNL     1      -7.251   4.327  66.869  1.00  0.00    -0.068 A  
HETATM    4  C   UNL     1      -7.566   4.798  68.149  1.00  0.00    -0.081 A  
HETATM    5  C   UNL     1      -8.128   6.060  68.346  1.00  0.00    -0.107 A  
HETATM    6  C   UNL     1      -8.373   6.871  67.243  1.00  0.00    -0.121 A  
HETATM    7  C   UNL     1      -7.460   5.159  65.744  1.00  0.00    -0.082 A  
HETATM    8  C   UNL     1      -8.038   6.437  65.946  1.00  0.00    -0.124 A  
BRANCH   5   9
HETATM    9  C   UNL     1      -8.433   6.445  69.745  1.00  0.00    -0.127 C  
HETATM   10  O   UNL     1      -7.951   7.439  70.271  1.00  0.00    -0.104 OA 
BRANCH   9  11
HETATM   11  O   UNL     1      -9.254   5.552  70.351  1.00  0.00    -0.145 OA 
BRANCH  11  12
HETATM   12  C   UNL     1     -10.427   5.219  69.585  1.00  0.00    -0.250 C  
BRANCH  12  13
HETATM   13  C   UNL     1     -11.361   6.425  69.531  1.00  0.00    -0.460 C  
BRANCH  13  14
HETATM   14  C   UNL     1     -11.884   6.797  70.918  1.00  0.00    -0.385 C  
BRANCH  14  15
HETATM   15  N   UNL     1     -11.705   8.227  71.249  1.00  0.00    -0.279 NA 
HETATM   16  C   UNL     1     -10.810   8.403  72.400  1.00  0.00    -0.346 C  
BRANCH  15  17
HETATM   17  C   UNL     1     -11.196   8.935  70.044  1.00  0.00    -0.110 C  
BRANCH  17  18
HETATM   18  C   UNL     1     -11.376  10.471  70.089  1.00  0.00    -0.323 C  
BRANCH  18  19
HETATM   19  N   UNL     1     -10.587  11.251  69.106  1.00  0.00    -0.211 NA 
HETATM   20  C   UNL     1      -9.267  10.649  68.893  1.00  0.00    -0.183 C  
BRANCH  19  21
HETATM   21  C   UNL     1     -11.301  11.331  67.812  1.00  0.00    -0.285 C  
BRANCH  21  22
HETATM   22  C   UNL     1     -10.365  11.322  66.599  1.00  0.00    -0.279 C  
BRANCH  22  23
HETATM   23  C   UNL     1     -11.077  11.774  65.331  1.00  0.00    -0.279 C  
BRANCH  23  24
HETATM   24  O   UNL     1     -10.613  13.083  64.960  1.00  0.00    -0.295 OA 
BRANCH  24  25
HETATM   25  C   UNL     1     -11.556  14.059  64.948  1.00  0.00    -0.367 C  
HETATM   26  O   UNL     1     -12.602  14.040  64.319  1.00  0.00    -0.670 OA 
BRANCH  25  27
HETATM   27  C   UNL     1     -11.156  15.178  65.841  1.00  0.00    -0.319 A  
HETATM   28  C   UNL     1     -11.381  15.037  67.211  1.00  0.00    -0.337 A  
HETATM   29  C   UNL     1     -11.064  16.077  68.086  1.00  0.00    -0.344 A  
HETATM   30  C   UNL     1     -10.528  17.289  67.586  1.00  0.00    -0.363 A  
HETATM   31  C   UNL     1     -10.588  16.356  65.346  1.00  0.00    -0.338 A  
HETATM   32  C   UNL     1     -10.279  17.424  66.201  1.00  0.00    -0.328 A  
BRANCH  29  33
HETATM   33  O   UNL     1     -11.296  16.005  69.441  1.00  0.00    -0.326 OA 
HETATM   34  C   UNL     1     -10.434  15.149  70.186  1.00  0.00    -0.167 C  
ENDBRANCH  29  33
BRANCH  30  35
HETATM   35  O   UNL     1     -10.352  18.271  68.532  1.00  0.00    -0.372 OA 
HETATM   36  C   UNL     1      -9.031  18.706  68.819  1.00  0.00    -0.259 C  
ENDBRANCH  30  35
BRANCH  32  37
HETATM   37  O   UNL     1      -9.771  18.609  65.739  1.00  0.00    -0.457 OA 
HETATM   38  C   UNL     1     -10.648  19.723  65.624  1.00  0.00    -0.355 C  
ENDBRANCH  32  37
ENDBRANCH  25  27
ENDBRANCH  24  25
ENDBRANCH  23  24
ENDBRANCH  22  23
ENDBRANCH  21  22
ENDBRANCH  19  21
ENDBRANCH  18  19
ENDBRANCH  17  18
ENDBRANCH  15  17
ENDBRANCH  14  15
ENDBRANCH  13  14
ENDBRANCH  12  13
ENDBRANCH  11  12
ENDBRANCH   9  11
ENDBRANCH   5   9
BRANCH   8  39
HETATM   39  O   UNL     1      -8.349   7.397  65.012  1.00  0.00    -0.125 OA 
HETATM   40  C   UNL     1      -8.542   8.743  65.418  1.00  0.00    -0.178 C  
ENDBRANCH   8  39
BRANCH   7  41
HETATM   41  O   UNL     1      -7.162   4.832  64.448  1.00  0.00    -0.053 OA 
HETATM   42  C   UNL     1      -5.893   5.132  63.892  1.00  0.00    -0.017 C  
ENDBRANCH   7  41
ENDBRANCH   2   3
TORSDOF 21
ENDMDL
MODEL      155
REMARK 921   NORMALIZED FREE ENERGY PREDICTED BY IDOCK:   -4.05 KCAL/MOL
REMARK 922        TOTAL FREE ENERGY PREDICTED BY IDOCK:  -11.87 KCAL/MOL
REMARK 923 INTER-LIGAND FREE ENERGY PREDICTED BY IDOCK:   -8.79 KCAL/MOL
REMARK 924 INTRA-LIGAND FREE ENERGY PREDICTED BY IDOCK:   -3.08 KCAL/MOL
REMARK 927      BINDING AFFINITY PREDICTED BY RF-SCORE:    0.00 PKD
ROOT
HETATM    1  C   UNL     1     -11.240  16.207  70.656  1.00  0.00    -0.348 C  
HETATM    2  O   UNL     1     -12.488  15.518  70.607  1.00  0.00    -0.392 OA 
ENDROOT
BRANCH   2   3
HETATM    3  C   UNL     1     -12.436  14.146  70.586  1.00  0.00    -0.362 A  
HETATM    4  C   UNL     1     -11.855  13.475  69.503  1.00  0.00    -0.392 A  
HETATM    5  C   UNL     1     -11.789  12.082  69.457  1.00  0.00    -0.390 A  
HETATM    6  C   UNL     1     -12.307  11.344  70.516  1.00  0.00    -0.439 A  
HETATM    7  C   UNL     1     -12.931  13.407  71.685  1.00  0.00    -0.355 A  
HETATM    8  C   UNL     1     -12.869  11.991  71.632  1.00  0.00    -0.294 A  
BRANCH   5   9
HETATM    9  C   UNL     1     -11.163  11.482  68.253  1.00  0.00    -0.261 C  
HETATM   10  O   UNL     1     -11.769  10.724  67.509  1.00  0.00    -0.510 OA 
BRANCH   9  11
HETATM   11  O   UNL     1      -9.863  11.844  68.123  1.00  0.00    -0.181 OA 
BRANCH  11  12
HETATM   12  C   UNL     1      -8.958  10.737  67.960  1.00  0.00    -0.139 C  
BRANCH  12  13
HETATM   13  C   UNL     1      -7.785  10.890  68.925  1.00  0.00    -0.135 C  
BRANCH  13  14
HETATM   14  C   UNL     1      -7.843   9.857  70.051  1.00  0.00    -0.180 C  
BRANCH  14  15
HETATM   15  N   UNL     1      -6.765   8.847  69.978  1.00  0.00    -0.041 NA 
HETATM   16  C   UNL     1      -5.558   9.397  69.345  1.00  0.00    -0.035 C  
BRANCH  15  17
HETATM   17  C   UNL     1      -6.485   8.348  71.351  1.00  0.00    -0.051 C  
BRANCH  17  18
HETATM   18  C   UNL     1      -7.736   8.244  72.255  1.00  0.00    -0.126 C  
BRANCH  18  19
HETATM   19  N   UNL     1      -7.800   7.065  73.149  1.00  0.00    -0.096 NA 
HETATM   20  C   UNL     1      -6.851   7.192  74.260  1.00  0.00    -0.085 C  
BRANCH  19  21
HETATM   21  C   UNL     1      -9.167   6.896  73.692  1.00  0.00    -0.162 C  
BRANCH  21  22
HETATM   22  C   UNL     1     -10.219   7.740  72.965  1.00  0.00    -0.393 C  
BRANCH  22  23
HETATM   23  C   UNL     1     -11.174   6.875  72.152  1.00  0.00    -0.258 C  
BRANCH  23  24
HETATM   24  O   UNL     1     -10.476   6.315  71.027  1.00  0.00    -0.211 OA 
BRANCH  24  25
HETATM   25  C   UNL     1     -10.366   7.123  69.943  1.00  0.00    -0.213 C  
HETATM   26  O   UNL     1     -11.003   8.144  69.740  1.00  0.00    -0.225 OA 
BRANCH  25  27
HETATM   27  C   UNL     1      -9.324   6.608  69.016  1.00  0.00    -0.133 A  
HETATM   28  C   UNL     1      -9.330   7.071  67.699  1.00  0.00    -0.128 A  
HETATM   29  C   UNL     1      -8.401   6.584  66.780  1.00  0.00    -0.111 A  
HETATM   30  C   UNL     1      -7.456   5.604  67.173  1.00  0.00    -0.084 A  
HETATM   31  C   UNL     1      -8.367   5.673  69.422  1.00  0.00    -0.107 A  
HETATM   32  C   UNL     1      -7.434   5.152  68.512  1.00  0.00    -0.074 A  
BRANCH  29  33
HETATM   33  O   UNL     1      -8.383   6.979  65.461  1.00  0.00    -0.135 OA 
HETATM   34  C   UNL     1      -8.183   8.369  65.219  1.00  0.00    -0.151 C  
ENDBRANCH  29  33
BRANCH  30  35
HETATM   35  O   UNL     1      -6.662   5.132  66.154  1.00  0.00    -0.051 OA 
HETATM   36  C   UNL     1      -6.996   3.886  65.558  1.00  0.00    -0.061 C  
ENDBRANCH  30  35
BRANCH  32  37
HETATM   37  O   UNL     1      -6.520   4.197  68.867  1.00  0.00    -0.038 OA 
HETATM   38  C   UNL     1      -5.652   4.465  69.962  1.00  0.00    -0.012 C  
ENDBRANCH  32  37
ENDBRANCH  25  27
ENDBRANCH  24  25
ENDBRANCH  23  24
ENDBRANCH  22  23
ENDBRANCH  21  22
ENDBRANCH  19  21
ENDBRANCH  18  19
ENDBRANCH  17  18
ENDBRANCH  15  17
ENDBRANCH  14  15
ENDBRANCH  13  14
ENDBRANCH  12  13
ENDBRANCH  11  12
ENDBRANCH   9  11
ENDBRANCH   5   9
BRANCH   8  39
HETATM   39  O   UNL     1     -13.303  11.076  72.563  1.00  0.00    -0.052 OA 
HETATM   40  C   UNL     1     -13.240   9.689  72.273  1.00  0.00    -0.404 C  
ENDBRANCH   8  39
BRANCH   7  41
HETATM   41  O   UNL     1     -13.489  13.942  72.816  1.00  0.00    -0.600 OA 
HETATM   42  C   UNL     1     -12.721  14.737  73.703  1.00  0.00    -0.375 C  
ENDBRANCH   7  41
ENDBRANCH   2   3
TORSDOF 21
ENDMDL
MODEL      156
REMARK 921   NORMALIZED FREE ENERGY PREDICTED BY IDOCK:   -4.04 KCAL/MOL
REMARK 922        TOTAL FREE ENERGY PREDICTED BY IDOCK:  -11.86 KCAL/MOL
REMARK 923 INTER-LIGAND FREE ENERGY PREDICTED BY IDOCK:  -10.62 KCAL/MOL
REMARK 924 INTRA-LIGAND FREE ENERGY PREDICTED BY IDOCK:   -1.25 KCAL/MOL
REMARK 927      BINDING AFFINITY PREDICTED BY RF-SCORE:    0.00 PKD
ROOT
HETATM    1  C   UNL     1     -11.748  12.461  69.907  1.00  0.00    -0.266 C  
HETATM    2  O   UNL     1     -12.280  13.761  69.661  1.00  0.00    -0.332 OA 
ENDROOT
BRANCH   2   3
HETATM    3  C   UNL     1     -11.825  14.414  68.542  1.00  0.00    -0.334 A  
HETATM    4  C   UNL     1     -12.121  13.923  67.265  1.00  0.00    -0.403 A  
HETATM    5  C   UNL     1     -11.671  14.568  66.112  1.00  0.00    -0.355 A  
HETATM    6  C   UNL     1     -10.918  15.730  66.236  1.00  0.00    -0.163 A  
HETATM    7  C   UNL     1     -11.093  15.616  68.679  1.00  0.00    -0.317 A  
HETATM    8  C   UNL     1     -10.631  16.265  67.506  1.00  0.00    -0.310 A  
BRANCH   5   9
HETATM    9  C   UNL     1     -12.034  13.947  64.814  1.00  0.00    -0.406 C  
HETATM   10  O   UNL     1     -12.530  14.588  63.898  1.00  0.00    -0.814 OA 
BRANCH   9  11
HETATM   11  O   UNL     1     -11.788  12.614  64.803  1.00  0.00    -0.342 OA 
BRANCH  11  12
HETATM   12  C   UNL     1     -11.167  12.141  63.593  1.00  0.00    -0.464 C  
BRANCH  12  13
HETATM   13  C   UNL     1     -10.330  10.902  63.899  1.00  0.00    -0.397 C  
BRANCH  13  14
HETATM   14  C   UNL     1      -9.626  10.373  62.650  1.00  0.00    -0.238 C  
BRANCH  14  15
HETATM   15  N   UNL     1      -8.628   9.321  62.938  1.00  0.00    -0.215 NA 
HETATM   16  C   UNL     1      -7.305   9.679  62.411  1.00  0.00    -0.109 C  
BRANCH  15  17
HETATM   17  C   UNL     1      -8.589   9.091  64.407  1.00  0.00    -0.150 C  
BRANCH  17  18
HETATM   18  C   UNL     1      -7.814   7.820  64.829  1.00  0.00    -0.129 C  
BRANCH  18  19
HETATM   19  N   UNL     1      -6.669   8.028  65.746  1.00  0.00    -0.048 NA 
HETATM   20  C   UNL     1      -5.448   7.412  65.215  1.00  0.00    -0.033 C  
BRANCH  19  21
HETATM   21  C   UNL     1      -6.431   9.472  65.964  1.00  0.00    -0.073 C  
BRANCH  21  22
HETATM   22  C   UNL     1      -6.491   9.883  67.439  1.00  0.00    -0.068 C  
BRANCH  22  23
HETATM   23  C   UNL     1      -7.251   8.866  68.280  1.00  0.00    -0.079 C  
BRANCH  23  24
HETATM   24  O   UNL     1      -8.093   9.553  69.221  1.00  0.00    -0.091 OA 
BRANCH  24  25
HETATM   25  C   UNL     1      -7.598   9.661  70.480  1.00  0.00    -0.132 C  
HETATM   26  O   UNL     1      -6.721  10.426  70.845  1.00  0.00    -0.341 OA 
BRANCH  25  27
HETATM   27  C   UNL     1      -8.296   8.718  71.394  1.00  0.00    -0.222 A  
HETATM   28  C   UNL     1      -9.687   8.636  71.315  1.00  0.00    -0.305 A  
HETATM   29  C   UNL     1     -10.392   7.799  72.181  1.00  0.00    -0.224 A  
HETATM   30  C   UNL     1      -9.700   7.041  73.157  1.00  0.00    -0.184 A  
HETATM   31  C   UNL     1      -7.604   7.939  72.327  1.00  0.00    -0.116 A  
HETATM   32  C   UNL     1      -8.290   7.106  73.223  1.00  0.00    -0.116 A  
BRANCH  29  33
HETATM   33  O   UNL     1     -11.765   7.705  72.170  1.00  0.00    -0.286 OA 
HETATM   34  C   UNL     1     -12.339   6.946  71.110  1.00  0.00    -0.370 C  
ENDBRANCH  29  33
BRANCH  30  35
HETATM   35  O   UNL     1     -10.511   6.335  74.014  1.00  0.00    -0.293 OA 
HETATM   36  C   UNL     1     -10.668   4.939  73.802  1.00  0.00    -0.301 C  
ENDBRANCH  30  35
BRANCH  32  37
HETATM   37  O   UNL     1      -7.643   6.373  74.182  1.00  0.00    -0.092 OA 
HETATM   38  C   UNL     1      -6.923   5.215  73.777  1.00  0.00    -0.081 C  
ENDBRANCH  32  37
ENDBRANCH  25  27
ENDBRANCH  24  25
ENDBRANCH  23  24
ENDBRANCH  22  23
ENDBRANCH  21  22
ENDBRANCH  19  21
ENDBRANCH  18  19
ENDBRANCH  17  18
ENDBRANCH  15  17
ENDBRANCH  14  15
ENDBRANCH  13  14
ENDBRANCH  12  13
ENDBRANCH  11  12
ENDBRANCH   9  11
ENDBRANCH   5   9
BRANCH   8  39
HETATM   39  O   UNL     1      -9.891  17.420  67.397  1.00  0.00    -0.267 OA 
HETATM   40  C   UNL     1     -10.258  18.406  66.445  1.00  0.00    -0.410 C  
ENDBRANCH   8  39
BRANCH   7  41
HETATM   41  O   UNL     1     -10.769  16.219  69.866  1.00  0.00    -0.322 OA 
HETATM   42  C   UNL     1     -11.485  15.923  71.053  1.00  0.00    -0.418 C  
ENDBRANCH   7  41
ENDBRANCH   2   3
TORSDOF 21
ENDMDL
MODEL      157
REMARK 921   NORMALIZED FREE ENERGY PREDICTED BY IDOCK:   -4.03 KCAL/MOL
REMARK 922        TOTAL FREE ENERGY PREDICTED BY IDOCK:  -11.84 KCAL/MOL
REMARK 923 INTER-LIGAND FREE ENERGY PREDICTED BY IDOCK:  -10.18 KCAL/MOL
REMARK 924 INTRA-LIGAND FREE ENERGY PREDICTED BY IDOCK:   -1.65 KCAL/MOL
REMARK 927      BINDING AFFINITY PREDICTED BY RF-SCORE:    0.00 PKD
ROOT
HETATM    1  C   UNL     1     -10.477   6.142  66.628  1.00  0.00    -0.202 C  
HETATM    2  O   UNL     1      -9.489   5.755  67.580  1.00  0.00    -0.111 OA 
ENDROOT
BRANCH   2   3
HETATM    3  C   UNL     1      -9.893   5.664  68.890  1.00  0.00    -0.147 A  
HETATM    4  C   UNL     1     -10.883   6.521  69.387  1.00  0.00    -0.363 A  
HETATM    5  C   UNL     1     -11.312   6.449  70.713  1.00  0.00    -0.411 A  
HETATM    6  C   UNL     1     -10.748   5.498  71.557  1.00  0.00    -0.290 A  
HETATM    7  C   UNL     1      -9.341   4.668  69.729  1.00  0.00    -0.145 A  
HETATM    8  C   UNL     1      -9.774   4.603  71.077  1.00  0.00    -0.188 A  
BRANCH   5   9
HETATM    9  C   UNL     1     -12.356   7.417  71.131  1.00  0.00    -0.314 C  
HETATM   10  O   UNL     1     -13.546   7.137  71.133  1.00  0.00    -0.306 OA 
BRANCH   9  11
HETATM   11  O   UNL     1     -11.828   8.623  71.457  1.00  0.00    -0.275 OA 
BRANCH  11  12
HETATM   12  C   UNL     1     -12.716   9.733  71.233  1.00  0.00    -0.369 C  
BRANCH  12  13
HETATM   13  C   UNL     1     -11.932  10.906  70.651  1.00  0.00    -0.467 C  
BRANCH  13  14
HETATM   14  C   UNL     1     -11.822  10.811  69.129  1.00  0.00    -0.275 C  
BRANCH  14  15
HETATM   15  N   UNL     1     -10.912  11.817  68.541  1.00  0.00    -0.212 NA 
HETATM   16  C   UNL     1      -9.611  11.228  68.199  1.00  0.00    -0.186 C  
BRANCH  15  17
HETATM   17  C   UNL     1     -11.571  12.420  67.352  1.00  0.00    -0.365 C  
BRANCH  17  18
HETATM   18  C   UNL     1     -11.234  11.715  66.016  1.00  0.00    -0.240 C  
BRANCH  18  19
HETATM   19  N   UNL     1     -11.225  12.574  64.808  1.00  0.00    -0.296 NA 
HETATM   20  C   UNL     1     -11.210  11.764  63.585  1.00  0.00    -0.435 C  
BRANCH  19  21
HETATM   21  C   UNL     1     -12.409  13.461  64.791  1.00  0.00    -0.396 C  
BRANCH  21  22
HETATM   22  C   UNL     1     -12.075  14.915  64.441  1.00  0.00    -0.417 C  
BRANCH  22  23
HETATM   23  C   UNL     1     -10.611  15.240  64.711  1.00  0.00    -0.254 C  
BRANCH  23  24
HETATM   24  O   UNL     1     -10.506  16.019  65.914  1.00  0.00    -0.329 OA 
BRANCH  24  25
HETATM   25  C   UNL     1      -9.366  15.843  66.630  1.00  0.00    -0.249 C  
HETATM   26  O   UNL     1      -8.864  14.772  66.930  1.00  0.00    -0.225 OA 
BRANCH  25  27
HETATM   27  C   UNL     1      -8.774  17.157  66.994  1.00  0.00    -0.244 A  
HETATM   28  C   UNL     1      -7.699  17.626  66.237  1.00  0.00    -0.324 A  
HETATM   29  C   UNL     1      -7.081  18.832  66.567  1.00  0.00    -0.218 A  
HETATM   30  C   UNL     1      -7.529  19.580  67.683  1.00  0.00    -0.256 A  
HETATM   31  C   UNL     1      -9.249  17.912  68.071  1.00  0.00    -0.267 A  
HETATM   32  C   UNL     1      -8.632  19.118  68.437  1.00  0.00    -0.352 A  
BRANCH  29  33
HETATM   33  O   UNL     1      -5.996  19.324  65.877  1.00  0.00    -0.170 OA 
HETATM   34  C   UNL     1      -5.783  18.794  64.572  1.00  0.00    -0.219 C  
ENDBRANCH  29  33
BRANCH  30  35
HETATM   35  O   UNL     1      -6.777  20.696  67.964  1.00  0.00    -0.301 OA 
HETATM   36  C   UNL     1      -5.688  20.568  68.868  1.00  0.00    -0.331 C  
ENDBRANCH  30  35
BRANCH  32  37
HETATM   37  O   UNL     1      -9.042  19.852  69.517  1.00  0.00     0.058 OA 
HETATM   38  C   UNL     1     -10.381  20.332  69.542  1.00  0.00     0.268 C  
ENDBRANCH  32  37
ENDBRANCH  25  27
ENDBRANCH  24  25
ENDBRANCH  23  24
ENDBRANCH  22  23
ENDBRANCH  21  22
ENDBRANCH  19  21
ENDBRANCH  18  19
ENDBRANCH  17  18
ENDBRANCH  15  17
ENDBRANCH  14  15
ENDBRANCH  13  14
ENDBRANCH  12  13
ENDBRANCH  11  12
ENDBRANCH   9  11
ENDBRANCH   5   9
BRANCH   8  39
HETATM   39  O   UNL     1      -9.367   3.742  72.070  1.00  0.00    -0.115 OA 
HETATM   40  C   UNL     1      -9.167   4.228  73.388  1.00  0.00    -0.101 C  
ENDBRANCH   8  39
BRANCH   7  41
HETATM   41  O   UNL     1      -8.396   3.750  69.355  1.00  0.00    -0.060 OA 
HETATM   42  C   UNL     1      -8.757   2.412  69.054  1.00  0.00    -0.083 C  
ENDBRANCH   7  41
ENDBRANCH   2   3
TORSDOF 21
ENDMDL
MODEL      158
REMARK 921   NORMALIZED FREE ENERGY PREDICTED BY IDOCK:   -4.01 KCAL/MOL
REMARK 922        TOTAL FREE ENERGY PREDICTED BY IDOCK:  -11.79 KCAL/MOL
REMARK 923 INTER-LIGAND FREE ENERGY PREDICTED BY IDOCK:  -10.35 KCAL/MOL
REMARK 924 INTRA-LIGAND FREE ENERGY PREDICTED BY IDOCK:   -1.45 KCAL/MOL
REMARK 927      BINDING AFFINITY PREDICTED BY RF-SCORE:    0.00 PKD
ROOT
HETATM    1  C   UNL     1     -10.444  17.722  67.360  1.00  0.00    -0.364 C  
HETATM    2  O   UNL     1     -11.119  17.277  68.535  1.00  0.00    -0.226 OA 
ENDROOT
BRANCH   2   3
HETATM    3  C   UNL     1     -11.481  15.953  68.576  1.00  0.00    -0.377 A  
HETATM    4  C   UNL     1     -11.510  15.189  67.403  1.00  0.00    -0.284 A  
HETATM    5  C   UNL     1     -11.874  13.841  67.417  1.00  0.00    -0.431 A  
HETATM    6  C   UNL     1     -12.208  13.243  68.627  1.00  0.00    -0.115 A  
HETATM    7  C   UNL     1     -11.782  15.344  69.817  1.00  0.00    -0.333 A  
HETATM    8  C   UNL     1     -12.158  13.977  69.827  1.00  0.00    -0.348 A  
BRANCH   5   9
HETATM    9  C   UNL     1     -11.881  13.138  66.111  1.00  0.00    -0.401 C  
HETATM   10  O   UNL     1     -12.089  13.719  65.056  1.00  0.00    -0.365 OA 
BRANCH   9  11
HETATM   11  O   UNL     1     -11.677  11.804  66.251  1.00  0.00    -0.482 OA 
BRANCH  11  12
HETATM   12  C   UNL     1     -10.302  11.403  66.112  1.00  0.00    -0.248 C  
BRANCH  12  13
HETATM   13  C   UNL     1     -10.206  10.240  65.128  1.00  0.00    -0.295 C  
BRANCH  13  14
HETATM   14  C   UNL     1      -9.103  10.464  64.094  1.00  0.00    -0.242 C  
BRANCH  14  15
HETATM   15  N   UNL     1      -8.108   9.371  64.050  1.00  0.00    -0.140 NA 
HETATM   16  C   UNL     1      -6.737   9.891  64.147  1.00  0.00    -0.126 C  
BRANCH  15  17
HETATM   17  C   UNL     1      -8.408   8.409  65.144  1.00  0.00    -0.167 C  
BRANCH  17  18
HETATM   18  C   UNL     1      -7.260   7.417  65.448  1.00  0.00    -0.069 C  
BRANCH  18  19
HETATM   19  N   UNL     1      -7.159   6.240  64.554  1.00  0.00    -0.054 NA 
HETATM   20  C   UNL     1      -5.766   5.982  64.175  1.00  0.00    -0.021 C  
BRANCH  19  21
HETATM   21  C   UNL     1      -7.716   5.037  65.212  1.00  0.00    -0.087 C  
BRANCH  21  22
HETATM   22  C   UNL     1      -9.138   4.697  64.756  1.00  0.00    -0.149 C  
BRANCH  22  23
HETATM   23  C   UNL     1     -10.051   4.383  65.934  1.00  0.00    -0.243 C  
BRANCH  23  24
HETATM   24  O   UNL     1      -9.394   4.743  67.161  1.00  0.00    -0.122 OA 
BRANCH  24  25
HETATM   25  C   UNL     1      -9.468   3.824  68.157  1.00  0.00    -0.157 C  
HETATM   26  O   UNL     1      -9.197   2.638  68.063  1.00  0.00    -0.170 OA 
BRANCH  25  27
HETATM   27  C   UNL     1      -9.910   4.467  69.422  1.00  0.00    -0.239 A  
HETATM   28  C   UNL     1     -10.555   5.701  69.342  1.00  0.00    -0.374 A  
HETATM   29  C   UNL     1     -10.950   6.365  70.504  1.00  0.00    -0.306 A  
HETATM   30  C   UNL     1     -10.683   5.797  71.773  1.00  0.00    -0.249 A  
HETATM   31  C   UNL     1      -9.682   3.880  70.672  1.00  0.00    -0.248 A  
HETATM   32  C   UNL     1     -10.050   4.536  71.856  1.00  0.00    -0.188 A  
BRANCH  29  33
HETATM   33  O   UNL     1     -11.558   7.600  70.484  1.00  0.00    -0.260 OA 
HETATM   34  C   UNL     1     -10.719   8.715  70.201  1.00  0.00    -0.234 C  
ENDBRANCH  29  33
BRANCH  30  35
HETATM   35  O   UNL     1     -11.029   6.591  72.841  1.00  0.00    -0.245 OA 
HETATM   36  C   UNL     1     -10.003   7.310  73.511  1.00  0.00    -0.320 C  
ENDBRANCH  30  35
BRANCH  32  37
HETATM   37  O   UNL     1      -9.793   4.011  73.094  1.00  0.00    -0.123 OA 
HETATM   38  C   UNL     1      -8.436   3.841  73.488  1.00  0.00    -0.087 C  
ENDBRANCH  32  37
ENDBRANCH  25  27
ENDBRANCH  24  25
ENDBRANCH  23  24
ENDBRANCH  22  23
ENDBRANCH  21  22
ENDBRANCH  19  21
ENDBRANCH  18  19
ENDBRANCH  17  18
ENDBRANCH  15  17
ENDBRANCH  14  15
ENDBRANCH  13  14
ENDBRANCH  12  13
ENDBRANCH  11  12
ENDBRANCH   9  11
ENDBRANCH   5   9
BRANCH   8  39
HETATM   39  O   UNL     1     -12.510  13.191  70.899  1.00  0.00    -0.362 OA 
HETATM   40  C   UNL     1     -12.414  11.778  70.801  1.00  0.00    -0.312 C  
ENDBRANCH   8  39
BRANCH   7  41
HETATM   41  O   UNL     1     -11.756  15.970  71.035  1.00  0.00    -0.391 OA 
HETATM   42  C   UNL     1     -12.879  15.930  71.900  1.00  0.00    -0.393 C  
ENDBRANCH   7  41
ENDBRANCH   2   3
TORSDOF 21
ENDMDL
MODEL      159
REMARK 921   NORMALIZED FREE ENERGY PREDICTED BY IDOCK:   -4.01 KCAL/MOL
REMARK 922        TOTAL FREE ENERGY PREDICTED BY IDOCK:  -11.79 KCAL/MOL
REMARK 923 INTER-LIGAND FREE ENERGY PREDICTED BY IDOCK:   -9.49 KCAL/MOL
REMARK 924 INTRA-LIGAND FREE ENERGY PREDICTED BY IDOCK:   -2.30 KCAL/MOL
REMARK 927      BINDING AFFINITY PREDICTED BY RF-SCORE:    0.00 PKD
ROOT
HETATM    1  C   UNL     1      -7.874  17.597  68.005  1.00  0.00    -0.235 C  
HETATM    2  O   UNL     1      -8.105  17.161  66.668  1.00  0.00    -0.211 OA 
ENDROOT
BRANCH   2   3
HETATM    3  C   UNL     1      -8.933  16.077  66.505  1.00  0.00    -0.292 A  
HETATM    4  C   UNL     1      -8.646  14.864  67.142  1.00  0.00    -0.248 A  
HETATM    5  C   UNL     1      -9.470  13.748  66.993  1.00  0.00    -0.255 A  
HETATM    6  C   UNL     1     -10.608  13.847  66.200  1.00  0.00    -0.291 A  
HETATM    7  C   UNL     1     -10.108  16.201  65.727  1.00  0.00    -0.363 A  
HETATM    8  C   UNL     1     -10.940  15.063  65.573  1.00  0.00    -0.358 A  
BRANCH   5   9
HETATM    9  C   UNL     1      -9.057  12.513  67.704  1.00  0.00    -0.187 C  
HETATM   10  O   UNL     1      -8.023  12.446  68.353  1.00  0.00    -0.151 OA 
BRANCH   9  11
HETATM   11  O   UNL     1      -9.932  11.496  67.505  1.00  0.00    -0.187 OA 
BRANCH  11  12
HETATM   12  C   UNL     1      -9.764  10.390  68.410  1.00  0.00    -0.158 C  
BRANCH  12  13
HETATM   13  C   UNL     1      -9.121   9.218  67.673  1.00  0.00    -0.136 C  
BRANCH  13  14
HETATM   14  C   UNL     1      -8.051   8.534  68.525  1.00  0.00    -0.122 C  
BRANCH  14  15
HETATM   15  N   UNL     1      -6.675   8.770  68.041  1.00  0.00    -0.068 NA 
HETATM   16  C   UNL     1      -5.923   9.631  68.963  1.00  0.00    -0.038 C  
BRANCH  15  17
HETATM   17  C   UNL     1      -6.005   7.456  67.848  1.00  0.00    -0.035 C  
BRANCH  17  18
HETATM   18  C   UNL     1      -6.974   6.289  67.543  1.00  0.00    -0.068 C  
BRANCH  18  19
HETATM   19  N   UNL     1      -6.608   5.416  66.404  1.00  0.00    -0.054 NA 
HETATM   20  C   UNL     1      -6.273   4.063  66.862  1.00  0.00    -0.035 C  
BRANCH  19  21
HETATM   21  C   UNL     1      -7.719   5.339  65.429  1.00  0.00    -0.088 C  
BRANCH  21  22
HETATM   22  C   UNL     1      -8.566   4.070  65.570  1.00  0.00    -0.114 C  
BRANCH  22  23
HETATM   23  C   UNL     1     -10.024   4.393  65.868  1.00  0.00    -0.240 C  
BRANCH  23  24
HETATM   24  O   UNL     1     -10.199   4.561  67.285  1.00  0.00    -0.135 OA 
BRANCH  24  25
HETATM   25  C   UNL     1     -10.685   5.766  67.678  1.00  0.00    -0.229 C  
HETATM   26  O   UNL     1     -11.076   6.657  66.942  1.00  0.00    -0.400 OA 
BRANCH  25  27
HETATM   27  C   UNL     1     -10.704   5.859  69.161  1.00  0.00    -0.394 A  
HETATM   28  C   UNL     1      -9.744   5.142  69.877  1.00  0.00    -0.269 A  
HETATM   29  C   UNL     1      -9.748   5.161  71.272  1.00  0.00    -0.169 A  
HETATM   30  C   UNL     1     -10.737   5.895  71.971  1.00  0.00    -0.233 A  
HETATM   31  C   UNL     1     -11.657   6.620  69.845  1.00  0.00    -0.393 A  
HETATM   32  C   UNL     1     -11.696   6.640  71.247  1.00  0.00    -0.334 A  
BRANCH  29  33
HETATM   33  O   UNL     1      -8.846   4.446  72.027  1.00  0.00    -0.114 OA 
HETATM   34  C   UNL     1      -7.537   4.996  72.140  1.00  0.00    -0.094 C  
ENDBRANCH  29  33
BRANCH  30  35
HETATM   35  O   UNL     1     -10.696   5.754  73.338  1.00  0.00    -0.246 OA 
HETATM   36  C   UNL     1     -10.151   6.814  74.111  1.00  0.00    -0.350 C  
ENDBRANCH  30  35
BRANCH  32  37
HETATM   37  O   UNL     1     -12.649   7.334  71.943  1.00  0.00    -0.316 OA 
HETATM   38  C   UNL     1     -12.499   8.742  72.078  1.00  0.00    -0.386 C  
ENDBRANCH  32  37
ENDBRANCH  25  27
ENDBRANCH  24  25
ENDBRANCH  23  24
ENDBRANCH  22  23
ENDBRANCH  21  22
ENDBRANCH  19  21
ENDBRANCH  18  19
ENDBRANCH  17  18
ENDBRANCH  15  17
ENDBRANCH  14  15
ENDBRANCH  13  14
ENDBRANCH  12  13
ENDBRANCH  11  12
ENDBRANCH   9  11
ENDBRANCH   5   9
BRANCH   8  39
HETATM   39  O   UNL     1     -12.107  14.943  64.855  1.00  0.00    -0.353 OA 
HETATM   40  C   UNL     1     -12.257  13.883  63.923  1.00  0.00    -0.328 C  
ENDBRANCH   8  39
BRANCH   7  41
HETATM   41  O   UNL     1     -10.519  17.338  65.084  1.00  0.00    -0.656 OA 
HETATM   42  C   UNL     1     -10.762  18.536  65.803  1.00  0.00    -0.156 C  
ENDBRANCH   7  41
ENDBRANCH   2   3
TORSDOF 21
ENDMDL
MODEL      160
REMARK 921   NORMALIZED FREE ENERGY PREDICTED BY IDOCK:   -3.99 KCAL/MOL
REMARK 922        TOTAL FREE ENERGY PREDICTED BY IDOCK:  -11.76 KCAL/MOL
REMARK 923 INTER-LIGAND FREE ENERGY PREDICTED BY IDOCK:   -9.73 KCAL/MOL
REMARK 924 INTRA-LIGAND FREE ENERGY PREDICTED BY IDOCK:   -2.02 KCAL/MOL
REMARK 927      BINDING AFFINITY PREDICTED BY RF-SCORE:    0.00 PKD
ROOT
HETATM    1  C   UNL     1      -6.048   4.913  64.956  1.00  0.00    -0.030 C  
HETATM    2  O   UNL     1      -7.422   5.148  64.655  1.00  0.00    -0.068 OA 
ENDROOT
BRANCH   2   3
HETATM    3  C   UNL     1      -8.055   6.125  65.383  1.00  0.00    -0.133 A  
HETATM    4  C   UNL     1      -8.716   5.805  66.576  1.00  0.00    -0.123 A  
HETATM    5  C   UNL     1      -9.367   6.778  67.334  1.00  0.00    -0.140 A  
HETATM    6  C   UNL     1      -9.352   8.099  66.899  1.00  0.00    -0.219 A  
HETATM    7  C   UNL     1      -8.001   7.471  64.951  1.00  0.00    -0.132 A  
HETATM    8  C   UNL     1      -8.670   8.457  65.720  1.00  0.00    -0.169 A  
BRANCH   5   9
HETATM    9  C   UNL     1     -10.044   6.319  68.572  1.00  0.00    -0.157 C  
HETATM   10  O   UNL     1     -11.074   6.834  68.984  1.00  0.00    -0.240 OA 
BRANCH   9  11
HETATM   11  O   UNL     1      -9.365   5.315  69.179  1.00  0.00    -0.113 OA 
BRANCH  11  12
HETATM   12  C   UNL     1      -8.386   5.762  70.135  1.00  0.00    -0.117 C  
BRANCH  12  13
HETATM   13  C   UNL     1      -8.411   4.848  71.357  1.00  0.00    -0.116 C  
BRANCH  13  14
HETATM   14  C   UNL     1      -9.801   4.257  71.593  1.00  0.00    -0.187 C  
BRANCH  14  15
HETATM   15  N   UNL     1     -10.168   4.172  73.023  1.00  0.00    -0.153 NA 
HETATM   16  C   UNL     1      -9.026   4.493  73.889  1.00  0.00    -0.102 C  
BRANCH  15  17
HETATM   17  C   UNL     1     -11.320   5.079  73.275  1.00  0.00    -0.317 C  
BRANCH  17  18
HETATM   18  C   UNL     1     -11.465   6.221  72.241  1.00  0.00    -0.306 C  
BRANCH  18  19
HETATM   19  N   UNL     1     -11.360   7.600  72.772  1.00  0.00    -0.372 NA 
HETATM   20  C   UNL     1      -9.976   8.082  72.718  1.00  0.00    -0.294 C  
BRANCH  19  21
HETATM   21  C   UNL     1     -12.227   8.521  72.005  1.00  0.00    -0.366 C  
BRANCH  21  22
HETATM   22  C   UNL     1     -11.445   9.513  71.138  1.00  0.00    -0.430 C  
BRANCH  22  23
HETATM   23  C   UNL     1     -12.223  10.803  70.912  1.00  0.00    -0.384 C  
BRANCH  23  24
HETATM   24  O   UNL     1     -11.460  11.683  70.069  1.00  0.00    -0.264 OA 
BRANCH  24  25
HETATM   25  C   UNL     1     -11.912  12.960  69.993  1.00  0.00    -0.309 C  
HETATM   26  O   UNL     1     -12.417  13.599  70.901  1.00  0.00    -0.347 OA 
BRANCH  25  27
HETATM   27  C   UNL     1     -11.686  13.510  68.630  1.00  0.00    -0.389 A  
HETATM   28  C   UNL     1     -11.198  14.813  68.519  1.00  0.00    -0.291 A  
HETATM   29  C   UNL     1     -11.012  15.389  67.263  1.00  0.00    -0.317 A  
HETATM   30  C   UNL     1     -11.333  14.660  66.091  1.00  0.00    -0.350 A  
HETATM   31  C   UNL     1     -11.964  12.770  67.476  1.00  0.00    -0.342 A  
HETATM   32  C   UNL     1     -11.805  13.333  66.201  1.00  0.00    -0.390 A  
BRANCH  29  33
HETATM   33  O   UNL     1     -10.567  16.681  67.096  1.00  0.00    -0.316 OA 
HETATM   34  C   UNL     1      -9.964  17.294  68.232  1.00  0.00    -0.313 C  
ENDBRANCH  29  33
BRANCH  30  35
HETATM   35  O   UNL     1     -11.202  15.370  64.921  1.00  0.00    -0.401 OA 
HETATM   36  C   UNL     1     -12.370  15.646  64.161  1.00  0.00     0.149 C  
ENDBRANCH  30  35
BRANCH  32  37
HETATM   37  O   UNL     1     -12.119  12.651  65.056  1.00  0.00    -0.394 OA 
HETATM   38  C   UNL     1     -11.071  12.005  64.343  1.00  0.00    -0.342 C  
ENDBRANCH  32  37
ENDBRANCH  25  27
ENDBRANCH  24  25
ENDBRANCH  23  24
ENDBRANCH  22  23
ENDBRANCH  21  22
ENDBRANCH  19  21
ENDBRANCH  18  19
ENDBRANCH  17  18
ENDBRANCH  15  17
ENDBRANCH  14  15
ENDBRANCH  13  14
ENDBRANCH  12  13
ENDBRANCH  11  12
ENDBRANCH   9  11
ENDBRANCH   5   9
BRANCH   8  39
HETATM   39  O   UNL     1      -8.770   9.808  65.486  1.00  0.00    -0.136 OA 
HETATM   40  C   UNL     1      -8.689  10.721  66.569  1.00  0.00    -0.151 C  
ENDBRANCH   8  39
BRANCH   7  41
HETATM   41  O   UNL     1      -7.361   7.919  63.826  1.00  0.00    -0.090 OA 
HETATM   42  C   UNL     1      -6.062   8.483  63.902  1.00  0.00    -0.072 C  
ENDBRANCH   7  41
ENDBRANCH   2   3
TORSDOF 21
ENDMDL
MODEL      161
REMARK 921   NORMALIZED FREE ENERGY PREDICTED BY IDOCK:   -3.99 KCAL/MOL
REMARK 922        TOTAL FREE ENERGY PREDICTED BY IDOCK:  -11.76 KCAL/MOL
REMARK 923 INTER-LIGAND FREE ENERGY PREDICTED BY IDOCK:   -9.72 KCAL/MOL
REMARK 924 INTRA-LIGAND FREE ENERGY PREDICTED BY IDOCK:   -2.03 KCAL/MOL
REMARK 927      BINDING AFFINITY PREDICTED BY RF-SCORE:    0.00 PKD
ROOT
HETATM    1  C   UNL     1     -11.794  15.463  72.351  1.00  0.00    -0.459 C  
HETATM    2  O   UNL     1     -11.848  15.977  71.022  1.00  0.00    -0.395 OA 
ENDROOT
BRANCH   2   3
HETATM    3  C   UNL     1     -11.783  15.062  70.001  1.00  0.00    -0.306 A  
HETATM    4  C   UNL     1     -11.984  13.700  70.255  1.00  0.00    -0.397 A  
HETATM    5  C   UNL     1     -11.924  12.749  69.235  1.00  0.00    -0.300 A  
HETATM    6  C   UNL     1     -11.665  13.167  67.935  1.00  0.00    -0.398 A  
HETATM    7  C   UNL     1     -11.558  15.502  68.675  1.00  0.00    -0.368 A  
HETATM    8  C   UNL     1     -11.490  14.533  67.643  1.00  0.00    -0.353 A  
BRANCH   5   9
HETATM    9  C   UNL     1     -12.140  11.335  69.627  1.00  0.00    -0.322 C  
HETATM   10  O   UNL     1     -12.657  11.021  70.690  1.00  0.00    -0.337 OA 
BRANCH   9  11
HETATM   11  O   UNL     1     -11.662  10.472  68.696  1.00  0.00    -0.277 OA 
BRANCH  11  12
HETATM   12  C   UNL     1     -10.734   9.502  69.215  1.00  0.00    -0.222 C  
BRANCH  12  13
HETATM   13  C   UNL     1      -9.344   9.770  68.645  1.00  0.00    -0.147 C  
BRANCH  13  14
HETATM   14  C   UNL     1      -8.249   9.517  69.682  1.00  0.00    -0.141 C  
BRANCH  14  15
HETATM   15  N   UNL     1      -8.237   8.131  70.197  1.00  0.00    -0.117 NA 
HETATM   16  C   UNL     1      -7.031   7.411  69.767  1.00  0.00    -0.056 C  
BRANCH  15  17
HETATM   17  C   UNL     1      -8.351   8.173  71.680  1.00  0.00    -0.131 C  
BRANCH  17  18
HETATM   18  C   UNL     1      -8.930   6.882  72.306  1.00  0.00    -0.134 C  
BRANCH  18  19
HETATM   19  N   UNL     1     -10.356   6.932  72.707  1.00  0.00    -0.200 NA 
HETATM   20  C   UNL     1     -10.929   8.259  72.455  1.00  0.00    -0.368 C  
BRANCH  19  21
HETATM   21  C   UNL     1     -11.140   5.915  71.971  1.00  0.00    -0.274 C  
BRANCH  21  22
HETATM   22  C   UNL     1     -10.437   5.399  70.711  1.00  0.00    -0.317 C  
BRANCH  22  23
HETATM   23  C   UNL     1     -11.043   5.989  69.444  1.00  0.00    -0.375 C  
BRANCH  23  24
HETATM   24  O   UNL     1     -10.538   5.284  68.297  1.00  0.00    -0.120 OA 
BRANCH  24  25
HETATM   25  C   UNL     1     -10.588   5.962  67.123  1.00  0.00    -0.299 C  
HETATM   26  O   UNL     1     -11.203   6.996  66.915  1.00  0.00    -0.302 OA 
BRANCH  25  27
HETATM   27  C   UNL     1      -9.758   5.281  66.095  1.00  0.00    -0.179 A  
HETATM   28  C   UNL     1      -8.569   5.896  65.698  1.00  0.00    -0.155 A  
HETATM   29  C   UNL     1      -7.778   5.319  64.705  1.00  0.00    -0.088 A  
HETATM   30  C   UNL     1      -8.183   4.113  64.082  1.00  0.00    -0.093 A  
HETATM   31  C   UNL     1     -10.142   4.068  65.514  1.00  0.00    -0.142 A  
HETATM   32  C   UNL     1      -9.375   3.478  64.499  1.00  0.00    -0.147 A  
BRANCH  29  33
HETATM   33  O   UNL     1      -6.615   5.899  64.251  1.00  0.00    -0.036 OA 
HETATM   34  C   UNL     1      -6.752   7.138  63.560  1.00  0.00    -0.052 C  
ENDBRANCH  29  33
BRANCH  30  35
HETATM   35  O   UNL     1      -7.372   3.699  63.052  1.00  0.00    -0.048 OA 
HETATM   36  C   UNL     1      -6.424   2.673  63.307  1.00  0.00    -0.022 C  
ENDBRANCH  30  35
BRANCH  32  37
HETATM   37  O   UNL     1      -9.754   2.319  63.875  1.00  0.00    -0.130 OA 
HETATM   38  C   UNL     1     -10.881   2.354  63.008  1.00  0.00    -0.224 C  
ENDBRANCH  32  37
ENDBRANCH  25  27
ENDBRANCH  24  25
ENDBRANCH  23  24
ENDBRANCH  22  23
ENDBRANCH  21  22
ENDBRANCH  19  21
ENDBRANCH  18  19
ENDBRANCH  17  18
ENDBRANCH  15  17
ENDBRANCH  14  15
ENDBRANCH  13  14
ENDBRANCH  12  13
ENDBRANCH  11  12
ENDBRANCH   9  11
ENDBRANCH   5   9
BRANCH   8  39
HETATM   39  O   UNL     1     -11.262  14.723  66.299  1.00  0.00    -0.338 OA 
HETATM   40  C   UNL     1      -9.953  14.563  65.775  1.00  0.00    -0.334 C  
ENDBRANCH   8  39
BRANCH   7  41
HETATM   41  O   UNL     1     -11.381  16.805  68.290  1.00  0.00    -0.274 OA 
HETATM   42  C   UNL     1     -10.125  17.445  68.434  1.00  0.00    -0.347 C  
ENDBRANCH   7  41
ENDBRANCH   2   3
TORSDOF 21
ENDMDL
MODEL      162
REMARK 921   NORMALIZED FREE ENERGY PREDICTED BY IDOCK:   -3.99 KCAL/MOL
REMARK 922        TOTAL FREE ENERGY PREDICTED BY IDOCK:  -11.76 KCAL/MOL
REMARK 923 INTER-LIGAND FREE ENERGY PREDICTED BY IDOCK:   -9.57 KCAL/MOL
REMARK 924 INTRA-LIGAND FREE ENERGY PREDICTED BY IDOCK:   -2.19 KCAL/MOL
REMARK 927      BINDING AFFINITY PREDICTED BY RF-SCORE:    0.00 PKD
ROOT
HETATM    1  C   UNL     1     -10.182  19.724  68.633  1.00  0.00    -0.405 C  
HETATM    2  O   UNL     1      -8.856  19.209  68.548  1.00  0.00    -0.344 OA 
ENDROOT
BRANCH   2   3
HETATM    3  C   UNL     1      -8.714  17.948  68.024  1.00  0.00    -0.256 A  
HETATM    4  C   UNL     1      -9.824  17.262  67.517  1.00  0.00    -0.275 A  
HETATM    5  C   UNL     1      -9.708  15.980  66.978  1.00  0.00    -0.235 A  
HETATM    6  C   UNL     1      -8.457  15.374  66.938  1.00  0.00    -0.287 A  
HETATM    7  C   UNL     1      -7.431  17.357  67.952  1.00  0.00    -0.191 A  
HETATM    8  C   UNL     1      -7.317  16.051  67.411  1.00  0.00    -0.184 A  
BRANCH   5   9
HETATM    9  C   UNL     1     -10.955  15.347  66.485  1.00  0.00    -0.271 C  
HETATM   10  O   UNL     1     -11.730  14.761  67.228  1.00  0.00    -0.379 OA 
BRANCH   9  11
HETATM   11  O   UNL     1     -11.089  15.466  65.141  1.00  0.00    -0.375 OA 
BRANCH  11  12
HETATM   12  C   UNL     1     -11.514  14.259  64.483  1.00  0.00    -0.355 C  
BRANCH  12  13
HETATM   13  C   UNL     1     -10.412  13.207  64.583  1.00  0.00    -0.411 C  
BRANCH  13  14
HETATM   14  C   UNL     1     -10.940  11.890  65.151  1.00  0.00    -0.312 C  
BRANCH  14  15
HETATM   15  N   UNL     1      -9.900  11.080  65.821  1.00  0.00    -0.223 NA 
HETATM   16  C   UNL     1     -10.381  10.545  67.102  1.00  0.00    -0.235 C  
BRANCH  15  17
HETATM   17  C   UNL     1      -9.473   9.994  64.899  1.00  0.00    -0.293 C  
BRANCH  17  18
HETATM   18  C   UNL     1      -7.943   9.770  64.850  1.00  0.00    -0.133 C  
BRANCH  18  19
HETATM   19  N   UNL     1      -7.431   8.591  65.587  1.00  0.00    -0.083 NA 
HETATM   20  C   UNL     1      -7.039   8.951  66.954  1.00  0.00    -0.082 C  
BRANCH  19  21
HETATM   21  C   UNL     1      -8.457   7.524  65.640  1.00  0.00    -0.132 C  
BRANCH  21  22
HETATM   22  C   UNL     1      -7.879   6.116  65.469  1.00  0.00    -0.103 C  
BRANCH  22  23
HETATM   23  C   UNL     1      -8.975   5.072  65.292  1.00  0.00    -0.151 C  
BRANCH  23  24
HETATM   24  O   UNL     1      -9.970   5.243  66.315  1.00  0.00    -0.170 OA 
BRANCH  24  25
HETATM   25  C   UNL     1      -9.751   4.561  67.467  1.00  0.00    -0.169 C  
HETATM   26  O   UNL     1      -9.633   3.351  67.575  1.00  0.00    -0.208 OA 
BRANCH  25  27
HETATM   27  C   UNL     1      -9.644   5.501  68.614  1.00  0.00    -0.172 A  
HETATM   28  C   UNL     1     -10.821   6.058  69.118  1.00  0.00    -0.422 A  
HETATM   29  C   UNL     1     -10.770   6.980  70.164  1.00  0.00    -0.240 A  
HETATM   30  C   UNL     1      -9.522   7.369  70.710  1.00  0.00    -0.167 A  
HETATM   31  C   UNL     1      -8.412   5.849  69.177  1.00  0.00    -0.112 A  
HETATM   32  C   UNL     1      -8.332   6.789  70.215  1.00  0.00    -0.134 A  
BRANCH  29  33
HETATM   33  O   UNL     1     -11.895   7.585  70.676  1.00  0.00    -0.267 OA 
HETATM   34  C   UNL     1     -12.602   6.862  71.680  1.00  0.00    -0.367 C  
ENDBRANCH  29  33
BRANCH  30  35
HETATM   35  O   UNL     1      -9.596   8.355  71.664  1.00  0.00    -0.178 OA 
HETATM   36  C   UNL     1      -9.408   7.996  73.026  1.00  0.00    -0.275 C  
ENDBRANCH  30  35
BRANCH  32  37
HETATM   37  O   UNL     1      -7.136   7.187  70.750  1.00  0.00    -0.063 OA 
HETATM   38  C   UNL     1      -6.401   6.256  71.536  1.00  0.00    -0.045 C  
ENDBRANCH  32  37
ENDBRANCH  25  27
ENDBRANCH  24  25
ENDBRANCH  23  24
ENDBRANCH  22  23
ENDBRANCH  21  22
ENDBRANCH  19  21
ENDBRANCH  18  19
ENDBRANCH  17  18
ENDBRANCH  15  17
ENDBRANCH  14  15
ENDBRANCH  13  14
ENDBRANCH  12  13
ENDBRANCH  11  12
ENDBRANCH   9  11
ENDBRANCH   5   9
BRANCH   8  39
HETATM   39  O   UNL     1      -6.189  15.278  67.262  1.00  0.00    -0.321 OA 
HETATM   40  C   UNL     1      -5.792  14.399  68.302  1.00  0.00    -0.117 C  
ENDBRANCH   8  39
BRANCH   7  41
HETATM   41  O   UNL     1      -6.265  17.934  68.379  1.00  0.00    -0.177 OA 
HETATM   42  C   UNL     1      -5.885  17.890  69.744  1.00  0.00    -0.243 C  
ENDBRANCH   7  41
ENDBRANCH   2   3
TORSDOF 21
ENDMDL
MODEL      163
REMARK 921   NORMALIZED FREE ENERGY PREDICTED BY IDOCK:   -3.98 KCAL/MOL
REMARK 922        TOTAL FREE ENERGY PREDICTED BY IDOCK:  -11.72 KCAL/MOL
REMARK 923 INTER-LIGAND FREE ENERGY PREDICTED BY IDOCK:   -9.45 KCAL/MOL
REMARK 924 INTRA-LIGAND FREE ENERGY PREDICTED BY IDOCK:   -2.27 KCAL/MOL
REMARK 927      BINDING AFFINITY PREDICTED BY RF-SCORE:    0.00 PKD
ROOT
HETATM    1  C   UNL     1     -11.044   9.886  70.311  1.00  0.00    -0.308 C  
HETATM    2  O   UNL     1      -9.755   9.863  70.922  1.00  0.00    -0.035 OA 
ENDROOT
BRANCH   2   3
HETATM    3  C   UNL     1      -8.829   9.005  70.381  1.00  0.00    -0.200 A  
HETATM    4  C   UNL     1      -8.985   7.620  70.513  1.00  0.00    -0.151 A  
HETATM    5  C   UNL     1      -8.059   6.726  69.972  1.00  0.00    -0.125 A  
HETATM    6  C   UNL     1      -6.961   7.224  69.280  1.00  0.00    -0.069 A  
HETATM    7  C   UNL     1      -7.737   9.521  69.645  1.00  0.00    -0.112 A  
HETATM    8  C   UNL     1      -6.795   8.611  69.104  1.00  0.00    -0.055 A  
BRANCH   5   9
HETATM    9  C   UNL     1      -8.321   5.282  70.188  1.00  0.00    -0.098 C  
HETATM   10  O   UNL     1      -8.284   4.768  71.297  1.00  0.00    -0.097 OA 
BRANCH   9  11
HETATM   11  O   UNL     1      -8.555   4.628  69.023  1.00  0.00    -0.083 OA 
BRANCH  11  12
HETATM   12  C   UNL     1      -9.836   4.917  68.434  1.00  0.00    -0.136 C  
BRANCH  12  13
HETATM   13  C   UNL     1      -9.635   5.545  67.058  1.00  0.00    -0.144 C  
BRANCH  13  14
HETATM   14  C   UNL     1     -10.331   6.902  66.949  1.00  0.00    -0.262 C  
BRANCH  14  15
HETATM   15  N   UNL     1      -9.397   8.024  66.715  1.00  0.00    -0.168 NA 
HETATM   16  C   UNL     1      -8.616   7.823  65.487  1.00  0.00    -0.105 C  
BRANCH  15  17
HETATM   17  C   UNL     1     -10.176   9.291  66.668  1.00  0.00    -0.253 C  
BRANCH  17  18
HETATM   18  C   UNL     1      -9.304  10.568  66.602  1.00  0.00    -0.161 C  
BRANCH  18  19
HETATM   19  N   UNL     1      -9.623  11.521  65.513  1.00  0.00    -0.226 NA 
HETATM   20  C   UNL     1     -10.348  10.857  64.425  1.00  0.00    -0.361 C  
BRANCH  19  21
HETATM   21  C   UNL     1     -10.438  12.645  66.026  1.00  0.00    -0.268 C  
BRANCH  21  22
HETATM   22  C   UNL     1     -11.882  12.632  65.516  1.00  0.00    -0.479 C  
BRANCH  22  23
HETATM   23  C   UNL     1     -12.295  13.986  64.952  1.00  0.00    -0.427 C  
BRANCH  23  24
HETATM   24  O   UNL     1     -11.711  15.034  65.742  1.00  0.00    -0.251 OA 
BRANCH  24  25
HETATM   25  C   UNL     1     -11.155  16.056  65.043  1.00  0.00    -0.336 C  
HETATM   26  O   UNL     1     -11.547  16.491  63.972  1.00  0.00    -1.154 OA 
BRANCH  25  27
HETATM   27  C   UNL     1      -9.988  16.612  65.777  1.00  0.00    -0.271 A  
HETATM   28  C   UNL     1     -10.000  17.970  66.098  1.00  0.00    -0.288 A  
HETATM   29  C   UNL     1      -8.909  18.549  66.746  1.00  0.00    -0.282 A  
HETATM   30  C   UNL     1      -7.774  17.764  67.069  1.00  0.00    -0.210 A  
HETATM   31  C   UNL     1      -8.889  15.823  66.131  1.00  0.00    -0.346 A  
HETATM   32  C   UNL     1      -7.770  16.384  66.765  1.00  0.00    -0.263 A  
BRANCH  29  33
HETATM   33  O   UNL     1      -8.853  19.889  67.056  1.00  0.00    -0.308 OA 
HETATM   34  C   UNL     1     -10.051  20.473  67.559  1.00  0.00    -0.296 C  
ENDBRANCH  29  33
BRANCH  30  35
HETATM   35  O   UNL     1      -6.727  18.468  67.614  1.00  0.00    -0.197 OA 
HETATM   36  C   UNL     1      -5.763  19.035  66.737  1.00  0.00    -0.158 C  
ENDBRANCH  30  35
BRANCH  32  37
HETATM   37  O   UNL     1      -6.659  15.647  67.075  1.00  0.00    -0.283 OA 
HETATM   38  C   UNL     1      -6.773  14.635  68.069  1.00  0.00    -0.143 C  
ENDBRANCH  32  37
ENDBRANCH  25  27
ENDBRANCH  24  25
ENDBRANCH  23  24
ENDBRANCH  22  23
ENDBRANCH  21  22
ENDBRANCH  19  21
ENDBRANCH  18  19
ENDBRANCH  17  18
ENDBRANCH  15  17
ENDBRANCH  14  15
ENDBRANCH  13  14
ENDBRANCH  12  13
ENDBRANCH  11  12
ENDBRANCH   9  11
ENDBRANCH   5   9
BRANCH   8  39
HETATM   39  O   UNL     1      -5.657   8.881  68.380  1.00  0.00    -0.037 OA 
HETATM   40  C   UNL     1      -5.323   8.074  67.262  1.00  0.00    -0.036 C  
ENDBRANCH   8  39
BRANCH   7  41
HETATM   41  O   UNL     1      -7.492  10.849  69.414  1.00  0.00    -0.132 OA 
HETATM   42  C   UNL     1      -6.309  11.467  69.892  1.00  0.00    -0.136 C  
ENDBRANCH   7  41
ENDBRANCH   2   3
TORSDOF 21
ENDMDL
MODEL      164
REMARK 921   NORMALIZED FREE ENERGY PREDICTED BY IDOCK:   -3.98 KCAL/MOL
REMARK 922        TOTAL FREE ENERGY PREDICTED BY IDOCK:  -11.72 KCAL/MOL
REMARK 923 INTER-LIGAND FREE ENERGY PREDICTED BY IDOCK:   -9.20 KCAL/MOL
REMARK 924 INTRA-LIGAND FREE ENERGY PREDICTED BY IDOCK:   -2.52 KCAL/MOL
REMARK 927      BINDING AFFINITY PREDICTED BY RF-SCORE:    0.00 PKD
ROOT
HETATM    1  C   UNL     1     -11.552  10.165  68.612  1.00  0.00     0.062 C  
HETATM    2  O   UNL     1     -11.532  10.642  67.269  1.00  0.00    -0.412 OA 
ENDROOT
BRANCH   2   3
HETATM    3  C   UNL     1     -11.693  11.994  67.089  1.00  0.00    -0.273 A  
HETATM    4  C   UNL     1     -11.537  12.875  68.166  1.00  0.00    -0.378 A  
HETATM    5  C   UNL     1     -11.694  14.253  68.012  1.00  0.00    -0.386 A  
HETATM    6  C   UNL     1     -12.007  14.762  66.756  1.00  0.00    -0.210 A  
HETATM    7  C   UNL     1     -11.972  12.504  65.800  1.00  0.00    -0.420 A  
HETATM    8  C   UNL     1     -12.139  13.904  65.648  1.00  0.00    -0.421 A  
BRANCH   5   9
HETATM    9  C   UNL     1     -11.519  15.086  69.227  1.00  0.00    -0.307 C  
HETATM   10  O   UNL     1     -12.411  15.796  69.669  1.00  0.00    -0.233 OA 
BRANCH   9  11
HETATM   11  O   UNL     1     -10.265  14.987  69.733  1.00  0.00    -0.207 OA 
BRANCH  11  12
HETATM   12  C   UNL     1      -9.265  15.683  68.967  1.00  0.00    -0.243 C  
BRANCH  12  13
HETATM   13  C   UNL     1      -8.026  14.803  68.826  1.00  0.00    -0.152 C  
BRANCH  13  14
HETATM   14  C   UNL     1      -8.071  13.966  67.547  1.00  0.00    -0.182 C  
BRANCH  14  15
HETATM   15  N   UNL     1      -6.980  12.972  67.457  1.00  0.00    -0.157 NA 
HETATM   16  C   UNL     1      -6.038  13.107  68.576  1.00  0.00    -0.078 C  
BRANCH  15  17
HETATM   17  C   UNL     1      -7.578  11.611  67.405  1.00  0.00    -0.139 C  
BRANCH  17  18
HETATM   18  C   UNL     1      -8.213  11.250  66.041  1.00  0.00    -0.045 C  
BRANCH  18  19
HETATM   19  N   UNL     1      -7.954   9.879  65.542  1.00  0.00    -0.123 NA 
HETATM   20  C   UNL     1      -6.940   9.885  64.483  1.00  0.00    -0.131 C  
BRANCH  19  21
HETATM   21  C   UNL     1      -7.504   9.000  66.644  1.00  0.00    -0.086 C  
BRANCH  21  22
HETATM   22  C   UNL     1      -7.173   7.575  66.189  1.00  0.00    -0.074 C  
BRANCH  22  23
HETATM   23  C   UNL     1      -8.253   6.584  66.601  1.00  0.00    -0.112 C  
BRANCH  23  24
HETATM   24  O   UNL     1      -9.242   7.255  67.400  1.00  0.00    -0.126 OA 
BRANCH  24  25
HETATM   25  C   UNL     1     -10.413   6.589  67.566  1.00  0.00    -0.240 C  
HETATM   26  O   UNL     1     -11.276   6.432  66.718  1.00  0.00    -0.327 OA 
BRANCH  25  27
HETATM   27  C   UNL     1     -10.506   6.039  68.944  1.00  0.00    -0.309 A  
HETATM   28  C   UNL     1     -11.235   6.759  69.891  1.00  0.00    -0.379 A  
HETATM   29  C   UNL     1     -11.315   6.307  71.208  1.00  0.00    -0.297 A  
HETATM   30  C   UNL     1     -10.643   5.122  71.596  1.00  0.00    -0.156 A  
HETATM   31  C   UNL     1      -9.875   4.845  69.310  1.00  0.00    -0.272 A  
HETATM   32  C   UNL     1      -9.923   4.380  70.633  1.00  0.00    -0.183 A  
BRANCH  29  33
HETATM   33  O   UNL     1     -11.992   6.995  72.190  1.00  0.00    -0.289 OA 
HETATM   34  C   UNL     1     -13.255   7.542  71.825  1.00  0.00    -0.316 C  
ENDBRANCH  29  33
BRANCH  30  35
HETATM   35  O   UNL     1     -10.714   4.837  72.939  1.00  0.00    -0.207 OA 
HETATM   36  C   UNL     1     -11.640   3.851  73.373  1.00  0.00     0.002 C  
ENDBRANCH  30  35
BRANCH  32  37
HETATM   37  O   UNL     1      -9.271   3.244  71.032  1.00  0.00    -0.103 OA 
HETATM   38  C   UNL     1      -9.621   2.010  70.416  1.00  0.00    -0.038 C  
ENDBRANCH  32  37
ENDBRANCH  25  27
ENDBRANCH  24  25
ENDBRANCH  23  24
ENDBRANCH  22  23
ENDBRANCH  21  22
ENDBRANCH  19  21
ENDBRANCH  18  19
ENDBRANCH  17  18
ENDBRANCH  15  17
ENDBRANCH  14  15
ENDBRANCH  13  14
ENDBRANCH  12  13
ENDBRANCH  11  12
ENDBRANCH   9  11
ENDBRANCH   5   9
BRANCH   8  39
HETATM   39  O   UNL     1     -12.432  14.616  64.508  1.00  0.00    -0.579 OA 
HETATM   40  C   UNL     1     -11.826  15.880  64.289  1.00  0.00    -0.071 C  
ENDBRANCH   8  39
BRANCH   7  41
HETATM   41  O   UNL     1     -12.113  11.755  64.663  1.00  0.00    -0.183 OA 
HETATM   42  C   UNL     1     -11.038  11.602  63.751  1.00  0.00    -0.420 C  
ENDBRANCH   7  41
ENDBRANCH   2   3
TORSDOF 21
ENDMDL
MODEL      165
REMARK 921   NORMALIZED FREE ENERGY PREDICTED BY IDOCK:   -3.96 KCAL/MOL
REMARK 922        TOTAL FREE ENERGY PREDICTED BY IDOCK:  -11.67 KCAL/MOL
REMARK 923 INTER-LIGAND FREE ENERGY PREDICTED BY IDOCK:   -9.15 KCAL/MOL
REMARK 924 INTRA-LIGAND FREE ENERGY PREDICTED BY IDOCK:   -2.53 KCAL/MOL
REMARK 927      BINDING AFFINITY PREDICTED BY RF-SCORE:    0.00 PKD
ROOT
HETATM    1  C   UNL     1     -12.239  12.251  63.356  1.00  0.00    -0.527 C  
HETATM    2  O   UNL     1     -11.716  13.149  64.331  1.00  0.00    -0.344 OA 
ENDROOT
BRANCH   2   3
HETATM    3  C   UNL     1     -10.672  12.692  65.098  1.00  0.00    -0.292 A  
HETATM    4  C   UNL     1     -10.105  11.437  64.846  1.00  0.00    -0.323 A  
HETATM    5  C   UNL     1      -9.044  10.948  65.609  1.00  0.00    -0.223 A  
HETATM    6  C   UNL     1      -8.534  11.731  66.639  1.00  0.00    -0.153 A  
HETATM    7  C   UNL     1     -10.136  13.512  66.117  1.00  0.00    -0.304 A  
HETATM    8  C   UNL     1      -9.062  13.010  66.896  1.00  0.00    -0.227 A  
BRANCH   5   9
HETATM    9  C   UNL     1      -8.534   9.599  65.259  1.00  0.00    -0.146 C  
HETATM   10  O   UNL     1      -8.325   9.258  64.103  1.00  0.00    -0.156 OA 
BRANCH   9  11
HETATM   11  O   UNL     1      -8.380   8.814  66.354  1.00  0.00    -0.111 OA 
BRANCH  11  12
HETATM   12  C   UNL     1      -9.509   7.966  66.632  1.00  0.00    -0.211 C  
BRANCH  12  13
HETATM   13  C   UNL     1      -9.115   6.507  66.421  1.00  0.00    -0.172 C  
BRANCH  13  14
HETATM   14  C   UNL     1     -10.331   5.581  66.470  1.00  0.00    -0.256 C  
BRANCH  14  15
HETATM   15  N   UNL     1     -10.009   4.212  66.925  1.00  0.00    -0.167 NA 
HETATM   16  C   UNL     1      -9.247   3.474  65.908  1.00  0.00    -0.162 C  
BRANCH  15  17
HETATM   17  C   UNL     1      -9.266   4.299  68.211  1.00  0.00    -0.142 C  
BRANCH  17  18
HETATM   18  C   UNL     1      -8.698   2.948  68.707  1.00  0.00    -0.085 C  
BRANCH  18  19
HETATM   19  N   UNL     1      -7.479   3.020  69.547  1.00  0.00    -0.044 NA 
HETATM   20  C   UNL     1      -6.898   4.366  69.519  1.00  0.00    -0.045 C  
BRANCH  19  21
HETATM   21  C   UNL     1      -7.788   2.651  70.946  1.00  0.00    -0.046 C  
BRANCH  21  22
HETATM   22  C   UNL     1      -7.999   3.862  71.862  1.00  0.00    -0.075 C  
BRANCH  22  23
HETATM   23  C   UNL     1      -9.462   4.027  72.254  1.00  0.00    -0.130 C  
BRANCH  23  24
HETATM   24  O   UNL     1     -10.057   5.068  71.462  1.00  0.00    -0.182 OA 
BRANCH  24  25
HETATM   25  C   UNL     1     -10.937   5.871  72.113  1.00  0.00    -0.266 C  
HETATM   26  O   UNL     1     -11.647   5.547  73.051  1.00  0.00    -0.274 OA 
BRANCH  25  27
HETATM   27  C   UNL     1     -10.910   7.242  71.539  1.00  0.00    -0.248 A  
HETATM   28  C   UNL     1     -12.055   8.030  71.668  1.00  0.00    -0.339 A  
HETATM   29  C   UNL     1     -12.095   9.307  71.107  1.00  0.00    -0.316 A  
HETATM   30  C   UNL     1     -10.980   9.805  70.390  1.00  0.00    -0.312 A  
HETATM   31  C   UNL     1      -9.790   7.745  70.869  1.00  0.00    -0.182 A  
HETATM   32  C   UNL     1      -9.812   9.017  70.279  1.00  0.00    -0.194 A  
BRANCH  29  33
HETATM   33  O   UNL     1     -13.209  10.113  71.174  1.00  0.00    -0.380 OA 
HETATM   34  C   UNL     1     -13.116  11.252  72.026  1.00  0.00    -0.326 C  
ENDBRANCH  29  33
BRANCH  30  35
HETATM   35  O   UNL     1     -11.178  11.032  69.801  1.00  0.00    -0.258 OA 
HETATM   36  C   UNL     1     -11.774  11.076  68.512  1.00  0.00    -0.278 C  
ENDBRANCH  30  35
BRANCH  32  37
HETATM   37  O   UNL     1      -8.750   9.514  69.571  1.00  0.00    -0.147 OA 
HETATM   38  C   UNL     1      -7.525   9.741  70.259  1.00  0.00    -0.164 C  
ENDBRANCH  32  37
ENDBRANCH  25  27
ENDBRANCH  24  25
ENDBRANCH  23  24
ENDBRANCH  22  23
ENDBRANCH  21  22
ENDBRANCH  19  21
ENDBRANCH  18  19
ENDBRANCH  17  18
ENDBRANCH  15  17
ENDBRANCH  14  15
ENDBRANCH  13  14
ENDBRANCH  12  13
ENDBRANCH  11  12
ENDBRANCH   9  11
ENDBRANCH   5   9
BRANCH   8  39
HETATM   39  O   UNL     1      -8.403  13.613  67.941  1.00  0.00    -0.148 OA 
HETATM   40  C   UNL     1      -7.088  14.113  67.753  1.00  0.00    -0.174 C  
ENDBRANCH   8  39
BRANCH   7  41
HETATM   41  O   UNL     1     -10.575  14.769  66.440  1.00  0.00    -0.288 OA 
HETATM   42  C   UNL     1     -11.435  14.980  67.547  1.00  0.00    -0.328 C  
ENDBRANCH   7  41
ENDBRANCH   2   3
TORSDOF 21
ENDMDL
MODEL      166
REMARK 921   NORMALIZED FREE ENERGY PREDICTED BY IDOCK:   -3.95 KCAL/MOL
REMARK 922        TOTAL FREE ENERGY PREDICTED BY IDOCK:  -11.66 KCAL/MOL
REMARK 923 INTER-LIGAND FREE ENERGY PREDICTED BY IDOCK:   -9.47 KCAL/MOL
REMARK 924 INTRA-LIGAND FREE ENERGY PREDICTED BY IDOCK:   -2.19 KCAL/MOL
REMARK 927      BINDING AFFINITY PREDICTED BY RF-SCORE:    0.00 PKD
ROOT
HETATM    1  C   UNL     1      -9.762   6.368  66.768  1.00  0.00    -0.158 C  
HETATM    2  O   UNL     1      -9.847   5.335  67.747  1.00  0.00    -0.137 OA 
ENDROOT
BRANCH   2   3
HETATM    3  C   UNL     1      -9.611   5.696  69.050  1.00  0.00    -0.135 A  
HETATM    4  C   UNL     1     -10.679   5.965  69.916  1.00  0.00    -0.406 A  
HETATM    5  C   UNL     1     -10.467   6.333  71.245  1.00  0.00    -0.264 A  
HETATM    6  C   UNL     1      -9.165   6.427  71.722  1.00  0.00    -0.143 A  
HETATM    7  C   UNL     1      -8.284   5.751  69.536  1.00  0.00    -0.108 A  
HETATM    8  C   UNL     1      -8.072   6.133  70.885  1.00  0.00    -0.121 A  
BRANCH   5   9
HETATM    9  C   UNL     1     -11.674   6.607  72.063  1.00  0.00    -0.313 C  
HETATM   10  O   UNL     1     -12.515   5.751  72.297  1.00  0.00    -0.069 OA 
BRANCH   9  11
HETATM   11  O   UNL     1     -11.734   7.902  72.461  1.00  0.00    -0.358 OA 
BRANCH  11  12
HETATM   12  C   UNL     1     -12.818   8.648  71.877  1.00  0.00    -0.369 C  
BRANCH  12  13
HETATM   13  C   UNL     1     -12.259   9.686  70.908  1.00  0.00    -0.368 C  
BRANCH  13  14
HETATM   14  C   UNL     1     -12.811  11.082  71.196  1.00  0.00    -0.392 C  
BRANCH  14  15
HETATM   15  N   UNL     1     -11.935  12.171  70.713  1.00  0.00    -0.176 NA 
HETATM   16  C   UNL     1     -11.705  12.071  69.266  1.00  0.00    -0.330 C  
BRANCH  15  17
HETATM   17  C   UNL     1     -12.548  13.475  71.082  1.00  0.00    -0.355 C  
BRANCH  17  18
HETATM   18  C   UNL     1     -11.564  14.669  71.050  1.00  0.00    -0.227 C  
BRANCH  18  19
HETATM   19  N   UNL     1     -11.418  15.361  69.748  1.00  0.00    -0.298 NA 
HETATM   20  C   UNL     1     -12.717  15.522  69.086  1.00  0.00     0.485 C  
BRANCH  19  21
HETATM   21  C   UNL     1     -10.796  16.691  69.931  1.00  0.00    -0.202 C  
BRANCH  21  22
HETATM   22  C   UNL     1      -9.698  16.996  68.907  1.00  0.00    -0.259 C  
BRANCH  22  23
HETATM   23  C   UNL     1     -10.239  17.768  67.710  1.00  0.00    -0.361 C  
BRANCH  23  24
HETATM   24  O   UNL     1     -10.428  16.868  66.605  1.00  0.00    -0.307 OA 
BRANCH  24  25
HETATM   25  C   UNL     1      -9.300  16.298  66.113  1.00  0.00    -0.339 C  
HETATM   26  O   UNL     1      -8.292  16.887  65.756  1.00  0.00    -0.472 OA 
BRANCH  25  27
HETATM   27  C   UNL     1      -9.438  14.818  66.084  1.00  0.00    -0.324 A  
HETATM   28  C   UNL     1      -8.578  14.062  66.882  1.00  0.00    -0.148 A  
HETATM   29  C   UNL     1      -8.639  12.668  66.855  1.00  0.00    -0.151 A  
HETATM   30  C   UNL     1      -9.562  12.012  66.005  1.00  0.00    -0.234 A  
HETATM   31  C   UNL     1     -10.381  14.176  65.274  1.00  0.00    -0.409 A  
HETATM   32  C   UNL     1     -10.449  12.776  65.213  1.00  0.00    -0.292 A  
BRANCH  29  33
HETATM   33  O   UNL     1      -7.793  11.873  67.595  1.00  0.00    -0.125 OA 
HETATM   34  C   UNL     1      -6.519  11.595  67.020  1.00  0.00    -0.148 C  
ENDBRANCH  29  33
BRANCH  30  35
HETATM   35  O   UNL     1      -9.456  10.641  65.994  1.00  0.00    -0.179 OA 
HETATM   36  C   UNL     1     -10.351   9.886  66.800  1.00  0.00    -0.217 C  
ENDBRANCH  30  35
BRANCH  32  37
HETATM   37  O   UNL     1     -11.325  12.121  64.391  1.00  0.00    -0.316 OA 
HETATM   38  C   UNL     1     -12.029  12.876  63.412  1.00  0.00    -0.537 C  
ENDBRANCH  32  37
ENDBRANCH  25  27
ENDBRANCH  24  25
ENDBRANCH  23  24
ENDBRANCH  22  23
ENDBRANCH  21  22
ENDBRANCH  19  21
ENDBRANCH  18  19
ENDBRANCH  17  18
ENDBRANCH  15  17
ENDBRANCH  14  15
ENDBRANCH  13  14
ENDBRANCH  12  13
ENDBRANCH  11  12
ENDBRANCH   9  11
ENDBRANCH   5   9
BRANCH   8  39
HETATM   39  O   UNL     1      -6.883   6.273  71.562  1.00  0.00    -0.067 OA 
HETATM   40  C   UNL     1      -6.379   5.197  72.337  1.00  0.00    -0.035 C  
ENDBRANCH   8  39
BRANCH   7  41
HETATM   41  O   UNL     1      -7.159   5.477  68.805  1.00  0.00    -0.062 OA 
HETATM   42  C   UNL     1      -6.696   4.147  68.648  1.00  0.00    -0.046 C  
ENDBRANCH   7  41
ENDBRANCH   2   3
TORSDOF 21
ENDMDL
MODEL      167
REMARK 921   NORMALIZED FREE ENERGY PREDICTED BY IDOCK:   -3.94 KCAL/MOL
REMARK 922        TOTAL FREE ENERGY PREDICTED BY IDOCK:  -11.63 KCAL/MOL
REMARK 923 INTER-LIGAND FREE ENERGY PREDICTED BY IDOCK:   -8.78 KCAL/MOL
REMARK 924 INTRA-LIGAND FREE ENERGY PREDICTED BY IDOCK:   -2.85 KCAL/MOL
REMARK 927      BINDING AFFINITY PREDICTED BY RF-SCORE:    0.00 PKD
ROOT
HETATM    1  C   UNL     1     -10.775  18.042  65.696  1.00  0.00    -0.043 C  
HETATM    2  O   UNL     1     -10.562  16.776  65.076  1.00  0.00    -0.695 OA 
ENDROOT
BRANCH   2   3
HETATM    3  C   UNL     1     -10.090  15.766  65.878  1.00  0.00    -0.356 A  
HETATM    4  C   UNL     1      -8.832  15.873  66.485  1.00  0.00    -0.340 A  
HETATM    5  C   UNL     1      -8.329  14.862  67.305  1.00  0.00    -0.233 A  
HETATM    6  C   UNL     1      -9.098  13.726  67.529  1.00  0.00    -0.209 A  
HETATM    7  C   UNL     1     -10.896  14.633  66.131  1.00  0.00    -0.321 A  
HETATM    8  C   UNL     1     -10.378  13.604  66.958  1.00  0.00    -0.260 A  
BRANCH   5   9
HETATM    9  C   UNL     1      -6.979  15.080  67.882  1.00  0.00    -0.156 C  
HETATM   10  O   UNL     1      -6.031  15.454  67.206  1.00  0.00    -0.330 OA 
BRANCH   9  11
HETATM   11  O   UNL     1      -6.936  14.777  69.203  1.00  0.00    -0.118 OA 
BRANCH  11  12
HETATM   12  C   UNL     1      -5.727  14.115  69.615  1.00  0.00    -0.101 C  
BRANCH  12  13
HETATM   13  C   UNL     1      -6.051  12.691  70.060  1.00  0.00    -0.115 C  
BRANCH  13  14
HETATM   14  C   UNL     1      -5.587  11.659  69.032  1.00  0.00    -0.050 C  
BRANCH  14  15
HETATM   15  N   UNL     1      -6.677  11.159  68.168  1.00  0.00    -0.058 NA 
HETATM   16  C   UNL     1      -6.362  11.346  66.745  1.00  0.00    -0.142 C  
BRANCH  15  17
HETATM   17  C   UNL     1      -6.924   9.728  68.491  1.00  0.00    -0.064 C  
BRANCH  17  18
HETATM   18  C   UNL     1      -8.091   9.091  67.699  1.00  0.00    -0.109 C  
BRANCH  18  19
HETATM   19  N   UNL     1      -7.738   7.955  66.816  1.00  0.00    -0.097 NA 
HETATM   20  C   UNL     1      -7.103   6.873  67.575  1.00  0.00    -0.085 C  
BRANCH  19  21
HETATM   21  C   UNL     1      -8.944   7.431  66.136  1.00  0.00    -0.149 C  
BRANCH  21  22
HETATM   22  C   UNL     1      -8.948   5.905  65.997  1.00  0.00    -0.159 C  
BRANCH  22  23
HETATM   23  C   UNL     1     -10.324   5.315  66.280  1.00  0.00    -0.239 C  
BRANCH  23  24
HETATM   24  O   UNL     1     -10.730   5.661  67.615  1.00  0.00    -0.235 OA 
BRANCH  24  25
HETATM   25  C   UNL     1     -10.193   4.904  68.606  1.00  0.00    -0.042 C  
HETATM   26  O   UNL     1      -9.737   3.779  68.485  1.00  0.00    -0.132 OA 
BRANCH  25  27
HETATM   27  C   UNL     1     -10.208   5.649  69.893  1.00  0.00    -0.320 A  
HETATM   28  C   UNL     1     -10.142   7.042  69.846  1.00  0.00    -0.202 A  
HETATM   29  C   UNL     1     -10.108   7.784  71.027  1.00  0.00    -0.185 A  
HETATM   30  C   UNL     1     -10.123   7.126  72.282  1.00  0.00    -0.181 A  
HETATM   31  C   UNL     1     -10.266   4.995  71.128  1.00  0.00    -0.281 A  
HETATM   32  C   UNL     1     -10.212   5.716  72.330  1.00  0.00    -0.193 A  
BRANCH  29  33
HETATM   33  O   UNL     1     -10.009   9.157  71.040  1.00  0.00    -0.250 OA 
HETATM   34  C   UNL     1     -10.890   9.864  70.172  1.00  0.00    -0.304 C  
ENDBRANCH  29  33
BRANCH  30  35
HETATM   35  O   UNL     1      -9.984   7.959  73.367  1.00  0.00    -0.314 OA 
HETATM   36  C   UNL     1      -8.703   8.076  73.971  1.00  0.00    -0.202 C  
ENDBRANCH  30  35
BRANCH  32  37
HETATM   37  O   UNL     1     -10.214   5.101  73.553  1.00  0.00    -0.171 OA 
HETATM   38  C   UNL     1      -9.054   4.379  73.950  1.00  0.00    -0.104 C  
ENDBRANCH  32  37
ENDBRANCH  25  27
ENDBRANCH  24  25
ENDBRANCH  23  24
ENDBRANCH  22  23
ENDBRANCH  21  22
ENDBRANCH  19  21
ENDBRANCH  18  19
ENDBRANCH  17  18
ENDBRANCH  15  17
ENDBRANCH  14  15
ENDBRANCH  13  14
ENDBRANCH  12  13
ENDBRANCH  11  12
ENDBRANCH   9  11
ENDBRANCH   5   9
BRANCH   8  39
HETATM   39  O   UNL     1     -10.967  12.415  67.321  1.00  0.00    -0.241 OA 
HETATM   40  C   UNL     1     -10.769  11.256  66.526  1.00  0.00    -0.271 C  
ENDBRANCH   8  39
BRANCH   7  41
HETATM   41  O   UNL     1     -12.154  14.424  65.628  1.00  0.00    -0.379 OA 
HETATM   42  C   UNL     1     -12.343  13.784  64.378  1.00  0.00    -0.344 C  
ENDBRANCH   7  41
ENDBRANCH   2   3
TORSDOF 21
ENDMDL
MODEL      168
REMARK 921   NORMALIZED FREE ENERGY PREDICTED BY IDOCK:   -3.92 KCAL/MOL
REMARK 922        TOTAL FREE ENERGY PREDICTED BY IDOCK:  -11.59 KCAL/MOL
REMARK 923 INTER-LIGAND FREE ENERGY PREDICTED BY IDOCK:   -9.25 KCAL/MOL
REMARK 924 INTRA-LIGAND FREE ENERGY PREDICTED BY IDOCK:   -2.33 KCAL/MOL
REMARK 927      BINDING AFFINITY PREDICTED BY RF-SCORE:    0.00 PKD
ROOT
HETATM    1  C   UNL     1      -7.009  14.939  69.357  1.00  0.00    -0.170 C  
HETATM    2  O   UNL     1      -8.156  15.784  69.435  1.00  0.00    -0.233 OA 
ENDROOT
BRANCH   2   3
HETATM    3  C   UNL     1      -8.810  16.050  68.258  1.00  0.00    -0.182 A  
HETATM    4  C   UNL     1      -9.585  15.062  67.639  1.00  0.00    -0.203 A  
HETATM    5  C   UNL     1     -10.261  15.307  66.442  1.00  0.00    -0.287 A  
HETATM    6  C   UNL     1     -10.167  16.564  65.856  1.00  0.00    -0.368 A  
HETATM    7  C   UNL     1      -8.739  17.344  67.691  1.00  0.00    -0.221 A  
HETATM    8  C   UNL     1      -9.420  17.587  66.471  1.00  0.00    -0.272 A  
BRANCH   5   9
HETATM    9  C   UNL     1     -11.040  14.180  65.872  1.00  0.00    -0.306 C  
HETATM   10  O   UNL     1     -10.919  13.824  64.709  1.00  0.00    -0.351 OA 
BRANCH   9  11
HETATM   11  O   UNL     1     -11.901  13.649  66.775  1.00  0.00    -0.367 OA 
BRANCH  11  12
HETATM   12  C   UNL     1     -11.779  12.224  66.936  1.00  0.00    -0.334 C  
BRANCH  12  13
HETATM   13  C   UNL     1     -11.603  11.890  68.415  1.00  0.00    -0.376 C  
BRANCH  13  14
HETATM   14  C   UNL     1     -10.266  11.197  68.681  1.00  0.00    -0.205 C  
BRANCH  14  15
HETATM   15  N   UNL     1      -9.982  10.087  67.746  1.00  0.00    -0.163 NA 
HETATM   16  C   UNL     1      -8.537   9.889  67.573  1.00  0.00    -0.122 C  
BRANCH  15  17
HETATM   17  C   UNL     1     -10.648   8.857  68.251  1.00  0.00    -0.152 C  
BRANCH  17  18
HETATM   18  C   UNL     1     -10.358   8.544  69.738  1.00  0.00    -0.212 C  
BRANCH  18  19
HETATM   19  N   UNL     1     -11.540   8.415  70.622  1.00  0.00    -0.239 NA 
HETATM   20  C   UNL     1     -12.001   7.024  70.687  1.00  0.00    -0.313 C  
BRANCH  19  21
HETATM   21  C   UNL     1     -11.223   8.888  71.988  1.00  0.00    -0.352 C  
BRANCH  21  22
HETATM   22  C   UNL     1      -9.797   8.550  72.434  1.00  0.00    -0.358 C  
BRANCH  22  23
HETATM   23  C   UNL     1      -9.781   7.479  73.517  1.00  0.00    -0.303 C  
BRANCH  23  24
HETATM   24  O   UNL     1      -8.798   6.481  73.192  1.00  0.00    -0.128 OA 
BRANCH  24  25
HETATM   25  C   UNL     1      -9.267   5.387  72.540  1.00  0.00    -0.136 C  
HETATM   26  O   UNL     1     -10.013   4.539  73.002  1.00  0.00    -0.140 OA 
BRANCH  25  27
HETATM   27  C   UNL     1      -8.762   5.361  71.142  1.00  0.00    -0.135 A  
HETATM   28  C   UNL     1      -7.718   6.223  70.804  1.00  0.00    -0.102 A  
HETATM   29  C   UNL     1      -7.239   6.267  69.494  1.00  0.00    -0.078 A  
HETATM   30  C   UNL     1      -7.822   5.450  68.495  1.00  0.00    -0.088 A  
HETATM   31  C   UNL     1      -9.314   4.520  70.169  1.00  0.00    -0.217 A  
HETATM   32  C   UNL     1      -8.865   4.560  68.841  1.00  0.00    -0.100 A  
BRANCH  29  33
HETATM   33  O   UNL     1      -6.235   7.122  69.099  1.00  0.00    -0.032 OA 
HETATM   34  C   UNL     1      -6.179   8.383  69.761  1.00  0.00    -0.032 C  
ENDBRANCH  29  33
BRANCH  30  35
HETATM   35  O   UNL     1      -7.333   5.658  67.228  1.00  0.00    -0.074 OA 
HETATM   36  C   UNL     1      -8.166   6.308  66.278  1.00  0.00    -0.117 C  
ENDBRANCH  30  35
BRANCH  32  37
HETATM   37  O   UNL     1      -9.421   3.788  67.857  1.00  0.00    -0.176 OA 
HETATM   38  C   UNL     1      -9.236   2.378  67.916  1.00  0.00    -0.202 C  
ENDBRANCH  32  37
ENDBRANCH  25  27
ENDBRANCH  24  25
ENDBRANCH  23  24
ENDBRANCH  22  23
ENDBRANCH  21  22
ENDBRANCH  19  21
ENDBRANCH  18  19
ENDBRANCH  17  18
ENDBRANCH  15  17
ENDBRANCH  14  15
ENDBRANCH  13  14
ENDBRANCH  12  13
ENDBRANCH  11  12
ENDBRANCH   9  11
ENDBRANCH   5   9
BRANCH   8  39
HETATM   39  O   UNL     1      -9.475  18.747  65.734  1.00  0.00    -0.414 OA 
HETATM   40  C   UNL     1     -10.648  19.545  65.759  1.00  0.00    -0.427 C  
ENDBRANCH   8  39
BRANCH   7  41
HETATM   41  O   UNL     1      -8.047  18.404  68.214  1.00  0.00    -0.280 OA 
HETATM   42  C   UNL     1      -8.715  19.434  68.923  1.00  0.00    -0.286 C  
ENDBRANCH   7  41
ENDBRANCH   2   3
TORSDOF 21
ENDMDL
MODEL      169
REMARK 921   NORMALIZED FREE ENERGY PREDICTED BY IDOCK:   -3.91 KCAL/MOL
REMARK 922        TOTAL FREE ENERGY PREDICTED BY IDOCK:  -11.57 KCAL/MOL
REMARK 923 INTER-LIGAND FREE ENERGY PREDICTED BY IDOCK:   -9.28 KCAL/MOL
REMARK 924 INTRA-LIGAND FREE ENERGY PREDICTED BY IDOCK:   -2.29 KCAL/MOL
REMARK 927      BINDING AFFINITY PREDICTED BY RF-SCORE:    0.00 PKD
ROOT
HETATM    1  C   UNL     1      -7.105  18.375  67.882  1.00  0.00    -0.224 C  
HETATM    2  O   UNL     1      -7.198  17.643  66.662  1.00  0.00    -0.189 OA 
ENDROOT
BRANCH   2   3
HETATM    3  C   UNL     1      -7.980  16.515  66.675  1.00  0.00    -0.284 A  
HETATM    4  C   UNL     1      -7.499  15.326  67.236  1.00  0.00    -0.236 A  
HETATM    5  C   UNL     1      -8.274  14.165  67.263  1.00  0.00    -0.200 A  
HETATM    6  C   UNL     1      -9.556  14.194  66.726  1.00  0.00    -0.290 A  
HETATM    7  C   UNL     1      -9.297  16.566  66.162  1.00  0.00    -0.304 A  
HETATM    8  C   UNL     1     -10.079  15.383  66.184  1.00  0.00    -0.305 A  
BRANCH   5   9
HETATM    9  C   UNL     1      -7.653  12.962  67.870  1.00  0.00    -0.138 C  
HETATM   10  O   UNL     1      -6.532  12.979  68.359  1.00  0.00    -0.071 OA 
BRANCH   9  11
HETATM   11  O   UNL     1      -8.455  11.872  67.772  1.00  0.00    -0.139 OA 
BRANCH  11  12
HETATM   12  C   UNL     1      -7.993  10.733  68.521  1.00  0.00    -0.130 C  
BRANCH  12  13
HETATM   13  C   UNL     1      -7.911   9.517  67.602  1.00  0.00    -0.102 C  
BRANCH  13  14
HETATM   14  C   UNL     1      -8.160   8.216  68.365  1.00  0.00    -0.128 C  
BRANCH  14  15
HETATM   15  N   UNL     1      -6.978   7.736  69.111  1.00  0.00    -0.063 NA 
HETATM   16  C   UNL     1      -7.370   6.962  70.296  1.00  0.00    -0.084 C  
BRANCH  15  17
HETATM   17  C   UNL     1      -6.125   6.936  68.192  1.00  0.00    -0.033 C  
BRANCH  17  18
HETATM   18  C   UNL     1      -6.905   5.908  67.338  1.00  0.00    -0.063 C  
BRANCH  18  19
HETATM   19  N   UNL     1      -6.721   6.004  65.871  1.00  0.00    -0.051 NA 
HETATM   20  C   UNL     1      -5.799   4.971  65.386  1.00  0.00    -0.018 C  
BRANCH  19  21
HETATM   21  C   UNL     1      -8.019   5.865  65.173  1.00  0.00    -0.121 C  
BRANCH  21  22
HETATM   22  C   UNL     1      -8.649   4.477  65.329  1.00  0.00    -0.128 C  
BRANCH  22  23
HETATM   23  C   UNL     1     -10.105   4.562  65.767  1.00  0.00    -0.255 C  
BRANCH  23  24
HETATM   24  O   UNL     1     -10.170   4.735  67.192  1.00  0.00    -0.188 OA 
BRANCH  24  25
HETATM   25  C   UNL     1     -10.740   5.891  67.618  1.00  0.00    -0.270 C  
HETATM   26  O   UNL     1     -11.151   6.794  66.908  1.00  0.00    -0.397 OA 
BRANCH  25  27
HETATM   27  C   UNL     1     -10.826   5.910  69.102  1.00  0.00    -0.406 A  
HETATM   28  C   UNL     1     -11.481   6.983  69.708  1.00  0.00    -0.177 A  
HETATM   29  C   UNL     1     -11.549   7.070  71.099  1.00  0.00    -0.312 A  
HETATM   30  C   UNL     1     -10.939   6.077  71.905  1.00  0.00    -0.264 A  
HETATM   31  C   UNL     1     -10.259   4.904  69.892  1.00  0.00    -0.299 A  
HETATM   32  C   UNL     1     -10.296   4.978  71.292  1.00  0.00    -0.185 A  
BRANCH  29  33
HETATM   33  O   UNL     1     -12.152   8.123  71.750  1.00  0.00    -0.286 OA 
HETATM   34  C   UNL     1     -11.644   9.422  71.457  1.00  0.00    -0.397 C  
ENDBRANCH  29  33
BRANCH  30  35
HETATM   35  O   UNL     1     -10.988   6.326  73.256  1.00  0.00    -0.254 OA 
HETATM   36  C   UNL     1      -9.935   7.076  73.845  1.00  0.00    -0.332 C  
ENDBRANCH  30  35
BRANCH  32  37
HETATM   37  O   UNL     1      -9.704   4.036  72.090  1.00  0.00    -0.141 OA 
HETATM   38  C   UNL     1      -8.291   3.878  72.018  1.00  0.00    -0.098 C  
ENDBRANCH  32  37
ENDBRANCH  25  27
ENDBRANCH  24  25
ENDBRANCH  23  24
ENDBRANCH  22  23
ENDBRANCH  21  22
ENDBRANCH  19  21
ENDBRANCH  18  19
ENDBRANCH  17  18
ENDBRANCH  15  17
ENDBRANCH  14  15
ENDBRANCH  13  14
ENDBRANCH  12  13
ENDBRANCH  11  12
ENDBRANCH   9  11
ENDBRANCH   5   9
BRANCH   8  39
HETATM   39  O   UNL     1     -11.362  15.192  65.726  1.00  0.00    -0.324 OA 
HETATM   40  C   UNL     1     -12.096  14.050  66.140  1.00  0.00    -0.446 C  
ENDBRANCH   8  39
BRANCH   7  41
HETATM   41  O   UNL     1      -9.897  17.672  65.621  1.00  0.00    -0.536 OA 
HETATM   42  C   UNL     1     -10.522  18.641  66.446  1.00  0.00    -0.418 C  
ENDBRANCH   7  41
ENDBRANCH   2   3
TORSDOF 21
ENDMDL
MODEL      170
REMARK 921   NORMALIZED FREE ENERGY PREDICTED BY IDOCK:   -3.91 KCAL/MOL
REMARK 922        TOTAL FREE ENERGY PREDICTED BY IDOCK:  -11.56 KCAL/MOL
REMARK 923 INTER-LIGAND FREE ENERGY PREDICTED BY IDOCK:   -9.16 KCAL/MOL
REMARK 924 INTRA-LIGAND FREE ENERGY PREDICTED BY IDOCK:   -2.40 KCAL/MOL
REMARK 927      BINDING AFFINITY PREDICTED BY RF-SCORE:    0.00 PKD
ROOT
HETATM    1  C   UNL     1      -5.125   6.031  63.818  1.00  0.00    -0.017 C  
HETATM    2  O   UNL     1      -5.357   7.150  64.669  1.00  0.00    -0.028 OA 
ENDROOT
BRANCH   2   3
HETATM    3  C   UNL     1      -6.624   7.285  65.183  1.00  0.00    -0.044 A  
HETATM    4  C   UNL     1      -7.118   6.354  66.104  1.00  0.00    -0.067 A  
HETATM    5  C   UNL     1      -8.401   6.468  66.642  1.00  0.00    -0.113 A  
HETATM    6  C   UNL     1      -9.203   7.537  66.259  1.00  0.00    -0.194 A  
HETATM    7  C   UNL     1      -7.417   8.397  64.816  1.00  0.00    -0.096 A  
HETATM    8  C   UNL     1      -8.722   8.506  65.359  1.00  0.00    -0.159 A  
BRANCH   5   9
HETATM    9  C   UNL     1      -8.820   5.413  67.598  1.00  0.00    -0.105 C  
HETATM   10  O   UNL     1      -9.729   4.632  67.353  1.00  0.00    -0.163 OA 
BRANCH   9  11
HETATM   11  O   UNL     1      -8.111   5.463  68.753  1.00  0.00    -0.087 OA 
BRANCH  11  12
HETATM   12  C   UNL     1      -8.666   6.345  69.746  1.00  0.00    -0.138 C  
BRANCH  12  13
HETATM   13  C   UNL     1      -9.466   5.534  70.761  1.00  0.00    -0.209 C  
BRANCH  13  14
HETATM   14  C   UNL     1     -10.967   5.796  70.637  1.00  0.00    -0.249 C  
BRANCH  14  15
HETATM   15  N   UNL     1     -11.603   6.184  71.914  1.00  0.00    -0.308 NA 
HETATM   16  C   UNL     1     -10.601   6.415  72.963  1.00  0.00    -0.242 C  
BRANCH  15  17
HETATM   17  C   UNL     1     -12.441   7.391  71.681  1.00  0.00    -0.349 C  
BRANCH  17  18
HETATM   18  C   UNL     1     -11.945   8.658  72.418  1.00  0.00    -0.340 C  
BRANCH  18  19
HETATM   19  N   UNL     1     -11.515   9.787  71.561  1.00  0.00    -0.366 NA 
HETATM   20  C   UNL     1     -10.655   9.321  70.467  1.00  0.00    -0.252 C  
BRANCH  19  21
HETATM   21  C   UNL     1     -12.689  10.487  70.994  1.00  0.00    -0.408 C  
BRANCH  21  22
HETATM   22  C   UNL     1     -12.925  11.872  71.605  1.00  0.00    -0.447 C  
BRANCH  22  23
HETATM   23  C   UNL     1     -12.655  12.987  70.603  1.00  0.00    -0.193 C  
BRANCH  23  24
HETATM   24  O   UNL     1     -11.432  12.715  69.898  1.00  0.00    -0.204 OA 
BRANCH  24  25
HETATM   25  C   UNL     1     -11.537  12.647  68.547  1.00  0.00    -0.323 C  
HETATM   26  O   UNL     1     -12.273  11.904  67.919  1.00  0.00    -0.508 OA 
BRANCH  25  27
HETATM   27  C   UNL     1     -10.631  13.637  67.907  1.00  0.00    -0.255 A  
HETATM   28  C   UNL     1     -11.204  14.653  67.141  1.00  0.00    -0.349 A  
HETATM   29  C   UNL     1     -10.394  15.579  66.484  1.00  0.00    -0.288 A  
HETATM   30  C   UNL     1      -8.984  15.485  66.577  1.00  0.00    -0.312 A  
HETATM   31  C   UNL     1      -9.240  13.564  68.038  1.00  0.00    -0.209 A  
HETATM   32  C   UNL     1      -8.403  14.471  67.371  1.00  0.00    -0.200 A  
BRANCH  29  33
HETATM   33  O   UNL     1     -10.905  16.580  65.688  1.00  0.00    -0.271 OA 
HETATM   34  C   UNL     1     -11.576  16.165  64.501  1.00  0.00    -0.164 C  
ENDBRANCH  29  33
BRANCH  30  35
HETATM   35  O   UNL     1      -8.297  16.392  65.806  1.00  0.00    -0.278 OA 
HETATM   36  C   UNL     1      -7.764  17.549  66.435  1.00  0.00    -0.297 C  
ENDBRANCH  30  35
BRANCH  32  37
HETATM   37  O   UNL     1      -7.038  14.391  67.438  1.00  0.00    -0.184 OA 
HETATM   38  C   UNL     1      -6.432  13.104  67.424  1.00  0.00    -0.068 C  
ENDBRANCH  32  37
ENDBRANCH  25  27
ENDBRANCH  24  25
ENDBRANCH  23  24
ENDBRANCH  22  23
ENDBRANCH  21  22
ENDBRANCH  19  21
ENDBRANCH  18  19
ENDBRANCH  17  18
ENDBRANCH  15  17
ENDBRANCH  14  15
ENDBRANCH  13  14
ENDBRANCH  12  13
ENDBRANCH  11  12
ENDBRANCH   9  11
ENDBRANCH   5   9
BRANCH   8  39
HETATM   39  O   UNL     1      -9.669   9.478  65.132  1.00  0.00    -0.277 OA 
HETATM   40  C   UNL     1      -9.653  10.672  65.899  1.00  0.00    -0.205 C  
ENDBRANCH   8  39
BRANCH   7  41
HETATM   41  O   UNL     1      -7.038   9.394  63.956  1.00  0.00    -0.097 OA 
HETATM   42  C   UNL     1      -7.287   9.290  62.564  1.00  0.00    -0.098 C  
ENDBRANCH   7  41
ENDBRANCH   2   3
TORSDOF 21
ENDMDL
MODEL      171
REMARK 921   NORMALIZED FREE ENERGY PREDICTED BY IDOCK:   -3.90 KCAL/MOL
REMARK 922        TOTAL FREE ENERGY PREDICTED BY IDOCK:  -11.54 KCAL/MOL
REMARK 923 INTER-LIGAND FREE ENERGY PREDICTED BY IDOCK:   -9.42 KCAL/MOL
REMARK 924 INTRA-LIGAND FREE ENERGY PREDICTED BY IDOCK:   -2.12 KCAL/MOL
REMARK 927      BINDING AFFINITY PREDICTED BY RF-SCORE:    0.00 PKD
ROOT
HETATM    1  C   UNL     1     -10.780   6.258  66.552  1.00  0.00    -0.107 C  
HETATM    2  O   UNL     1      -9.702   6.459  67.463  1.00  0.00    -0.118 OA 
ENDROOT
BRANCH   2   3
HETATM    3  C   UNL     1      -9.758   5.770  68.650  1.00  0.00    -0.131 A  
HETATM    4  C   UNL     1     -10.469   6.289  69.738  1.00  0.00    -0.289 A  
HETATM    5  C   UNL     1     -10.543   5.609  70.955  1.00  0.00    -0.328 A  
HETATM    6  C   UNL     1      -9.899   4.383  71.085  1.00  0.00    -0.258 A  
HETATM    7  C   UNL     1      -9.133   4.506  68.759  1.00  0.00    -0.120 A  
HETATM    8  C   UNL     1      -9.202   3.821  69.999  1.00  0.00    -0.150 A  
BRANCH   5   9
HETATM    9  C   UNL     1     -11.313   6.263  72.041  1.00  0.00    -0.300 C  
HETATM   10  O   UNL     1     -12.157   5.667  72.695  1.00  0.00    -0.212 OA 
BRANCH   9  11
HETATM   11  O   UNL     1     -10.993   7.574  72.172  1.00  0.00    -0.229 OA 
BRANCH  11  12
HETATM   12  C   UNL     1     -12.112   8.425  72.477  1.00  0.00    -0.337 C  
BRANCH  12  13
HETATM   13  C   UNL     1     -11.992   9.728  71.691  1.00  0.00    -0.454 C  
BRANCH  13  14
HETATM   14  C   UNL     1     -11.636   9.473  70.226  1.00  0.00    -0.169 C  
BRANCH  14  15
HETATM   15  N   UNL     1     -10.672  10.450  69.677  1.00  0.00    -0.249 NA 
HETATM   16  C   UNL     1      -9.307   9.908  69.667  1.00  0.00    -0.228 C  
BRANCH  15  17
HETATM   17  C   UNL     1     -11.116  10.844  68.313  1.00  0.00    -0.266 C  
BRANCH  17  18
HETATM   18  C   UNL     1     -10.634   9.893  67.191  1.00  0.00    -0.228 C  
BRANCH  18  19
HETATM   19  N   UNL     1      -9.783  10.499  66.141  1.00  0.00    -0.199 NA 
HETATM   20  C   UNL     1      -8.591   9.682  65.891  1.00  0.00    -0.134 C  
BRANCH  19  21
HETATM   21  C   UNL     1     -10.541  10.652  64.880  1.00  0.00    -0.122 C  
BRANCH  21  22
HETATM   22  C   UNL     1     -11.098  12.064  64.672  1.00  0.00    -0.375 C  
BRANCH  22  23
HETATM   23  C   UNL     1     -10.057  13.134  64.977  1.00  0.00    -0.222 C  
BRANCH  23  24
HETATM   24  O   UNL     1     -10.401  13.804  66.202  1.00  0.00    -0.287 OA 
BRANCH  24  25
HETATM   25  C   UNL     1      -9.373  14.021  67.061  1.00  0.00    -0.250 C  
HETATM   26  O   UNL     1      -8.858  13.190  67.790  1.00  0.00    -0.169 OA 
BRANCH  25  27
HETATM   27  C   UNL     1      -8.923  15.436  66.983  1.00  0.00    -0.253 A  
HETATM   28  C   UNL     1      -7.707  15.772  67.578  1.00  0.00    -0.186 A  
HETATM   29  C   UNL     1      -7.263  17.095  67.571  1.00  0.00    -0.157 A  
HETATM   30  C   UNL     1      -8.052  18.108  66.974  1.00  0.00    -0.226 A  
HETATM   31  C   UNL     1      -9.688  16.425  66.354  1.00  0.00    -0.308 A  
HETATM   32  C   UNL     1      -9.274  17.765  66.351  1.00  0.00    -0.240 A  
BRANCH  29  33
HETATM   33  O   UNL     1      -6.088  17.488  68.172  1.00  0.00    -0.159 OA 
HETATM   34  C   UNL     1      -5.838  16.966  69.474  1.00  0.00    -0.200 C  
ENDBRANCH  29  33
BRANCH  30  35
HETATM   35  O   UNL     1      -7.556  19.382  67.120  1.00  0.00    -0.231 OA 
HETATM   36  C   UNL     1      -6.822  19.949  66.044  1.00  0.00    -0.257 C  
ENDBRANCH  30  35
BRANCH  32  37
HETATM   37  O   UNL     1     -10.027  18.762  65.790  1.00  0.00    -0.492 OA 
HETATM   38  C   UNL     1     -10.715  19.659  66.654  1.00  0.00    -0.440 C  
ENDBRANCH  32  37
ENDBRANCH  25  27
ENDBRANCH  24  25
ENDBRANCH  23  24
ENDBRANCH  22  23
ENDBRANCH  21  22
ENDBRANCH  19  21
ENDBRANCH  18  19
ENDBRANCH  17  18
ENDBRANCH  15  17
ENDBRANCH  14  15
ENDBRANCH  13  14
ENDBRANCH  12  13
ENDBRANCH  11  12
ENDBRANCH   9  11
ENDBRANCH   5   9
BRANCH   8  39
HETATM   39  O   UNL     1      -8.659   2.604  70.340  1.00  0.00    -0.051 OA 
HETATM   40  C   UNL     1      -7.429   2.553  71.046  1.00  0.00    -0.033 C  
ENDBRANCH   8  39
BRANCH   7  41
HETATM   41  O   UNL     1      -8.438   3.874  67.761  1.00  0.00    -0.093 OA 
HETATM   42  C   UNL     1      -9.093   2.999  66.858  1.00  0.00    -0.167 C  
ENDBRANCH   7  41
ENDBRANCH   2   3
TORSDOF 21
ENDMDL
MODEL      172
REMARK 921   NORMALIZED FREE ENERGY PREDICTED BY IDOCK:   -3.88 KCAL/MOL
REMARK 922        TOTAL FREE ENERGY PREDICTED BY IDOCK:  -11.50 KCAL/MOL
REMARK 923 INTER-LIGAND FREE ENERGY PREDICTED BY IDOCK:  -10.16 KCAL/MOL
REMARK 924 INTRA-LIGAND FREE ENERGY PREDICTED BY IDOCK:   -1.34 KCAL/MOL
REMARK 927      BINDING AFFINITY PREDICTED BY RF-SCORE:    0.00 PKD
ROOT
HETATM    1  C   UNL     1      -8.983   4.276  68.318  1.00  0.00    -0.118 C  
HETATM    2  O   UNL     1      -8.518   4.013  69.640  1.00  0.00    -0.060 OA 
ENDROOT
BRANCH   2   3
HETATM    3  C   UNL     1      -9.286   4.490  70.674  1.00  0.00    -0.135 A  
HETATM    4  C   UNL     1      -9.564   5.858  70.777  1.00  0.00    -0.203 A  
HETATM    5  C   UNL     1     -10.342   6.369  71.817  1.00  0.00    -0.231 A  
HETATM    6  C   UNL     1     -10.859   5.496  72.767  1.00  0.00    -0.308 A  
HETATM    7  C   UNL     1      -9.839   3.589  71.613  1.00  0.00    -0.157 A  
HETATM    8  C   UNL     1     -10.623   4.111  72.672  1.00  0.00    -0.122 A  
BRANCH   5   9
HETATM    9  C   UNL     1     -10.557   7.837  71.831  1.00  0.00    -0.223 C  
HETATM   10  O   UNL     1     -11.483   8.357  72.438  1.00  0.00    -0.367 OA 
BRANCH   9  11
HETATM   11  O   UNL     1      -9.645   8.491  71.071  1.00  0.00    -0.168 OA 
BRANCH  11  12
HETATM   12  C   UNL     1     -10.180   9.614  70.347  1.00  0.00    -0.288 C  
BRANCH  12  13
HETATM   13  C   UNL     1     -10.476   9.199  68.908  1.00  0.00    -0.239 C  
BRANCH  13  14
HETATM   14  C   UNL     1      -9.209   9.180  68.053  1.00  0.00    -0.134 C  
BRANCH  14  15
HETATM   15  N   UNL     1      -9.312   8.301  66.869  1.00  0.00    -0.164 NA 
HETATM   16  C   UNL     1     -10.597   7.590  66.840  1.00  0.00    -0.297 C  
BRANCH  15  17
HETATM   17  C   UNL     1      -9.112   9.123  65.646  1.00  0.00    -0.219 C  
BRANCH  17  18
HETATM   18  C   UNL     1     -10.120  10.288  65.494  1.00  0.00    -0.281 C  
BRANCH  18  19
HETATM   19  N   UNL     1      -9.913  11.184  64.332  1.00  0.00    -0.276 NA 
HETATM   20  C   UNL     1      -9.148  10.512  63.276  1.00  0.00    -0.254 C  
BRANCH  19  21
HETATM   21  C   UNL     1     -11.212  11.632  63.783  1.00  0.00    -0.414 C  
BRANCH  21  22
HETATM   22  C   UNL     1     -12.049  12.439  64.780  1.00  0.00    -0.483 C  
BRANCH  22  23
HETATM   23  C   UNL     1     -11.378  13.756  65.147  1.00  0.00    -0.311 C  
BRANCH  23  24
HETATM   24  O   UNL     1     -12.121  14.398  66.197  1.00  0.00    -0.399 OA 
BRANCH  24  25
HETATM   25  C   UNL     1     -11.531  14.395  67.419  1.00  0.00    -0.358 C  
HETATM   26  O   UNL     1     -11.882  13.737  68.386  1.00  0.00    -0.341 OA 
BRANCH  25  27
HETATM   27  C   UNL     1     -10.353  15.302  67.429  1.00  0.00    -0.256 A  
HETATM   28  C   UNL     1     -10.584  16.678  67.433  1.00  0.00    -0.295 A  
HETATM   29  C   UNL     1      -9.512  17.570  67.397  1.00  0.00    -0.255 A  
HETATM   30  C   UNL     1      -8.183  17.084  67.339  1.00  0.00    -0.183 A  
HETATM   31  C   UNL     1      -9.041  14.815  67.416  1.00  0.00    -0.202 A  
HETATM   32  C   UNL     1      -7.947  15.691  67.359  1.00  0.00    -0.178 A  
BRANCH  29  33
HETATM   33  O   UNL     1      -9.683  18.936  67.364  1.00  0.00    -0.301 OA 
HETATM   34  C   UNL     1     -10.168  19.485  66.142  1.00  0.00    -0.496 C  
ENDBRANCH  29  33
BRANCH  30  35
HETATM   35  O   UNL     1      -7.222  18.059  67.206  1.00  0.00    -0.189 OA 
HETATM   36  C   UNL     1      -6.647  18.272  65.925  1.00  0.00    -0.271 C  
ENDBRANCH  30  35
BRANCH  32  37
HETATM   37  O   UNL     1      -6.654  15.243  67.291  1.00  0.00    -0.283 OA 
HETATM   38  C   UNL     1      -6.369  13.926  67.748  1.00  0.00    -0.158 C  
ENDBRANCH  32  37
ENDBRANCH  25  27
ENDBRANCH  24  25
ENDBRANCH  23  24
ENDBRANCH  22  23
ENDBRANCH  21  22
ENDBRANCH  19  21
ENDBRANCH  18  19
ENDBRANCH  17  18
ENDBRANCH  15  17
ENDBRANCH  14  15
ENDBRANCH  13  14
ENDBRANCH  12  13
ENDBRANCH  11  12
ENDBRANCH   9  11
ENDBRANCH   5   9
BRANCH   8  39
HETATM   39  O   UNL     1     -11.238   3.436  73.701  1.00  0.00    -0.230 OA 
HETATM   40  C   UNL     1     -10.474   2.591  74.547  1.00  0.00    -0.138 C  
ENDBRANCH   8  39
BRANCH   7  41
HETATM   41  O   UNL     1      -9.673   2.229  71.603  1.00  0.00    -0.132 OA 
HETATM   42  C   UNL     1      -8.384   1.650  71.715  1.00  0.00    -0.044 C  
ENDBRANCH   7  41
ENDBRANCH   2   3
TORSDOF 21
ENDMDL
MODEL      173
REMARK 921   NORMALIZED FREE ENERGY PREDICTED BY IDOCK:   -3.85 KCAL/MOL
REMARK 922        TOTAL FREE ENERGY PREDICTED BY IDOCK:  -11.44 KCAL/MOL
REMARK 923 INTER-LIGAND FREE ENERGY PREDICTED BY IDOCK:   -9.13 KCAL/MOL
REMARK 924 INTRA-LIGAND FREE ENERGY PREDICTED BY IDOCK:   -2.32 KCAL/MOL
REMARK 927      BINDING AFFINITY PREDICTED BY RF-SCORE:    0.00 PKD
ROOT
HETATM    1  C   UNL     1      -9.015   7.555  73.878  1.00  0.00    -0.251 C  
HETATM    2  O   UNL     1      -9.997   7.842  72.885  1.00  0.00    -0.228 OA 
ENDROOT
BRANCH   2   3
HETATM    3  C   UNL     1      -9.678   7.523  71.588  1.00  0.00    -0.161 A  
HETATM    4  C   UNL     1      -8.360   7.642  71.132  1.00  0.00    -0.111 A  
HETATM    5  C   UNL     1      -8.008   7.323  69.820  1.00  0.00    -0.123 A  
HETATM    6  C   UNL     1      -8.991   6.870  68.947  1.00  0.00    -0.131 A  
HETATM    7  C   UNL     1     -10.678   7.026  70.720  1.00  0.00    -0.228 A  
HETATM    8  C   UNL     1     -10.320   6.711  69.384  1.00  0.00    -0.199 A  
BRANCH   5   9
HETATM    9  C   UNL     1      -6.584   7.503  69.447  1.00  0.00    -0.037 C  
HETATM   10  O   UNL     1      -5.989   6.708  68.733  1.00  0.00    -0.020 OA 
BRANCH   9  11
HETATM   11  O   UNL     1      -6.043   8.605  70.022  1.00  0.00    -0.030 OA 
BRANCH  11  12
HETATM   12  C   UNL     1      -6.471   9.846  69.431  1.00  0.00    -0.046 C  
BRANCH  12  13
HETATM   13  C   UNL     1      -6.134   9.847  67.943  1.00  0.00    -0.050 C  
BRANCH  13  14
HETATM   14  C   UNL     1      -6.936  10.902  67.182  1.00  0.00    -0.098 C  
BRANCH  14  15
HETATM   15  N   UNL     1      -7.255  12.096  67.994  1.00  0.00    -0.090 NA 
HETATM   16  C   UNL     1      -6.361  13.216  67.673  1.00  0.00    -0.160 C  
BRANCH  15  17
HETATM   17  C   UNL     1      -8.683  12.454  67.776  1.00  0.00    -0.176 C  
BRANCH  17  18
HETATM   18  C   UNL     1      -9.205  12.136  66.355  1.00  0.00    -0.207 C  
BRANCH  18  19
HETATM   19  N   UNL     1     -10.544  11.506  66.276  1.00  0.00    -0.255 NA 
HETATM   20  C   UNL     1     -11.476  12.127  67.223  1.00  0.00    -0.345 C  
BRANCH  19  21
HETATM   21  C   UNL     1     -11.093  11.620  64.907  1.00  0.00    -0.253 C  
BRANCH  21  22
HETATM   22  C   UNL     1     -10.648  12.890  64.176  1.00  0.00    -0.442 C  
BRANCH  22  23
HETATM   23  C   UNL     1     -11.776  13.908  64.069  1.00  0.00    -0.288 C  
BRANCH  23  24
HETATM   24  O   UNL     1     -11.718  14.810  65.187  1.00  0.00    -0.358 OA 
BRANCH  24  25
HETATM   25  C   UNL     1     -11.114  16.001  64.949  1.00  0.00    -0.370 C  
HETATM   26  O   UNL     1     -11.330  16.740  64.002  1.00  0.00    -1.153 OA 
BRANCH  25  27
HETATM   27  C   UNL     1     -10.144  16.316  66.030  1.00  0.00    -0.377 A  
HETATM   28  C   UNL     1     -10.265  15.633  67.241  1.00  0.00    -0.266 A  
HETATM   29  C   UNL     1      -9.407  15.925  68.301  1.00  0.00    -0.194 A  
HETATM   30  C   UNL     1      -8.418  16.929  68.161  1.00  0.00    -0.217 A  
HETATM   31  C   UNL     1      -9.142  17.279  65.871  1.00  0.00     0.001 A  
HETATM   32  C   UNL     1      -8.279  17.605  66.928  1.00  0.00    -0.225 A  
BRANCH  29  33
HETATM   33  O   UNL     1      -9.504  15.306  69.528  1.00  0.00    -0.239 OA 
HETATM   34  C   UNL     1     -10.707  15.530  70.257  1.00  0.00    -0.333 C  
ENDBRANCH  29  33
BRANCH  30  35
HETATM   35  O   UNL     1      -7.703  17.193  69.305  1.00  0.00    -0.148 OA 
HETATM   36  C   UNL     1      -6.354  16.754  69.377  1.00  0.00    -0.222 C  
ENDBRANCH  30  35
BRANCH  32  37
HETATM   37  O   UNL     1      -7.324  18.580  66.818  1.00  0.00    -0.203 OA 
HETATM   38  C   UNL     1      -6.488  18.582  65.666  1.00  0.00    -0.284 C  
ENDBRANCH  32  37
ENDBRANCH  25  27
ENDBRANCH  24  25
ENDBRANCH  23  24
ENDBRANCH  22  23
ENDBRANCH  21  22
ENDBRANCH  19  21
ENDBRANCH  18  19
ENDBRANCH  17  18
ENDBRANCH  15  17
ENDBRANCH  14  15
ENDBRANCH  13  14
ENDBRANCH  12  13
ENDBRANCH  11  12
ENDBRANCH   9  11
ENDBRANCH   5   9
BRANCH   8  39
HETATM   39  O   UNL     1     -11.118   6.239  68.369  1.00  0.00    -0.323 OA 
HETATM   40  C   UNL     1     -10.634   5.223  67.504  1.00  0.00    -0.073 C  
ENDBRANCH   8  39
BRANCH   7  41
HETATM   41  O   UNL     1     -11.993   6.830  71.052  1.00  0.00    -0.352 OA 
HETATM   42  C   UNL     1     -12.936   7.883  70.950  1.00  0.00     0.137 C  
ENDBRANCH   7  41
ENDBRANCH   2   3
TORSDOF 21
ENDMDL
MODEL      174
REMARK 921   NORMALIZED FREE ENERGY PREDICTED BY IDOCK:   -3.85 KCAL/MOL
REMARK 922        TOTAL FREE ENERGY PREDICTED BY IDOCK:  -11.44 KCAL/MOL
REMARK 923 INTER-LIGAND FREE ENERGY PREDICTED BY IDOCK:   -8.82 KCAL/MOL
REMARK 924 INTRA-LIGAND FREE ENERGY PREDICTED BY IDOCK:   -2.62 KCAL/MOL
REMARK 927      BINDING AFFINITY PREDICTED BY RF-SCORE:    0.00 PKD
ROOT
HETATM    1  C   UNL     1     -12.423  14.375  64.300  1.00  0.00    -0.272 C  
HETATM    2  O   UNL     1     -11.521  15.438  64.600  1.00  0.00    -0.408 OA 
ENDROOT
BRANCH   2   3
HETATM    3  C   UNL     1     -10.493  15.152  65.465  1.00  0.00    -0.379 A  
HETATM    4  C   UNL     1     -10.244  13.831  65.857  1.00  0.00    -0.322 A  
HETATM    5  C   UNL     1      -9.206  13.512  66.734  1.00  0.00    -0.248 A  
HETATM    6  C   UNL     1      -8.396  14.531  67.223  1.00  0.00    -0.232 A  
HETATM    7  C   UNL     1      -9.652  16.191  65.926  1.00  0.00    -0.324 A  
HETATM    8  C   UNL     1      -8.603  15.865  66.823  1.00  0.00    -0.266 A  
BRANCH   5   9
HETATM    9  C   UNL     1      -9.046  12.080  67.089  1.00  0.00    -0.186 C  
HETATM   10  O   UNL     1      -8.222  11.359  66.546  1.00  0.00    -0.166 OA 
BRANCH   9  11
HETATM   11  O   UNL     1      -9.938  11.689  68.033  1.00  0.00    -0.177 OA 
BRANCH  11  12
HETATM   12  C   UNL     1     -10.886  10.709  67.575  1.00  0.00    -0.296 C  
BRANCH  12  13
HETATM   13  C   UNL     1     -10.457   9.322  68.048  1.00  0.00    -0.275 C  
BRANCH  13  14
HETATM   14  C   UNL     1     -10.759   8.250  67.000  1.00  0.00    -0.155 C  
BRANCH  14  15
HETATM   15  N   UNL     1      -9.801   7.124  67.019  1.00  0.00    -0.184 NA 
HETATM   16  C   UNL     1     -10.460   5.855  66.683  1.00  0.00    -0.249 C  
BRANCH  15  17
HETATM   17  C   UNL     1      -8.687   7.429  66.082  1.00  0.00    -0.156 C  
BRANCH  17  18
HETATM   18  C   UNL     1      -8.028   6.179  65.453  1.00  0.00    -0.116 C  
BRANCH  18  19
HETATM   19  N   UNL     1      -6.688   6.378  64.853  1.00  0.00    -0.038 NA 
HETATM   20  C   UNL     1      -6.376   7.805  64.721  1.00  0.00    -0.044 C  
BRANCH  19  21
HETATM   21  C   UNL     1      -5.647   5.725  65.678  1.00  0.00    -0.013 C  
BRANCH  21  22
HETATM   22  C   UNL     1      -6.145   4.477  66.413  1.00  0.00    -0.031 C  
BRANCH  22  23
HETATM   23  C   UNL     1      -5.825   4.530  67.901  1.00  0.00    -0.022 C  
BRANCH  23  24
HETATM   24  O   UNL     1      -6.703   5.466  68.549  1.00  0.00    -0.050 OA 
BRANCH  24  25
HETATM   25  C   UNL     1      -7.833   4.937  69.082  1.00  0.00    -0.072 C  
HETATM   26  O   UNL     1      -8.258   3.809  68.893  1.00  0.00    -0.071 OA 
BRANCH  25  27
HETATM   27  C   UNL     1      -8.497   5.925  69.973  1.00  0.00    -0.126 A  
HETATM   28  C   UNL     1      -9.665   5.536  70.631  1.00  0.00    -0.233 A  
HETATM   29  C   UNL     1     -10.349   6.441  71.442  1.00  0.00    -0.206 A  
HETATM   30  C   UNL     1      -9.872   7.766  71.590  1.00  0.00    -0.163 A  
HETATM   31  C   UNL     1      -7.998   7.220  70.148  1.00  0.00    -0.112 A  
HETATM   32  C   UNL     1      -8.678   8.155  70.942  1.00  0.00    -0.140 A  
BRANCH  29  33
HETATM   33  O   UNL     1     -11.523   6.121  72.087  1.00  0.00    -0.285 OA 
HETATM   34  C   UNL     1     -11.439   5.114  73.092  1.00  0.00    -0.272 C  
ENDBRANCH  29  33
BRANCH  30  35
HETATM   35  O   UNL     1     -10.686   8.589  72.332  1.00  0.00    -0.341 OA 
HETATM   36  C   UNL     1     -11.712   9.310  71.663  1.00  0.00    -0.392 C  
ENDBRANCH  30  35
BRANCH  32  37
HETATM   37  O   UNL     1      -8.241   9.445  71.089  1.00  0.00    -0.314 OA 
HETATM   38  C   UNL     1      -7.380   9.986  70.094  1.00  0.00    -0.163 C  
ENDBRANCH  32  37
ENDBRANCH  25  27
ENDBRANCH  24  25
ENDBRANCH  23  24
ENDBRANCH  22  23
ENDBRANCH  21  22
ENDBRANCH  19  21
ENDBRANCH  18  19
ENDBRANCH  17  18
ENDBRANCH  15  17
ENDBRANCH  14  15
ENDBRANCH  13  14
ENDBRANCH  12  13
ENDBRANCH  11  12
ENDBRANCH   9  11
ENDBRANCH   5   9
BRANCH   8  39
HETATM   39  O   UNL     1      -7.684  16.702  67.411  1.00  0.00    -0.150 OA 
HETATM   40  C   UNL     1      -7.909  17.186  68.726  1.00  0.00    -0.258 C  
ENDBRANCH   8  39
BRANCH   7  41
HETATM   41  O   UNL     1      -9.767  17.514  65.591  1.00  0.00    -0.532 OA 
HETATM   42  C   UNL     1     -10.533  18.404  66.384  1.00  0.00    -0.383 C  
ENDBRANCH   7  41
ENDBRANCH   2   3
TORSDOF 21
ENDMDL
MODEL      175
REMARK 921   NORMALIZED FREE ENERGY PREDICTED BY IDOCK:   -3.85 KCAL/MOL
REMARK 922        TOTAL FREE ENERGY PREDICTED BY IDOCK:  -11.44 KCAL/MOL
REMARK 923 INTER-LIGAND FREE ENERGY PREDICTED BY IDOCK:   -9.32 KCAL/MOL
REMARK 924 INTRA-LIGAND FREE ENERGY PREDICTED BY IDOCK:   -2.12 KCAL/MOL
REMARK 927      BINDING AFFINITY PREDICTED BY RF-SCORE:    0.00 PKD
ROOT
HETATM    1  C   UNL     1      -9.891   6.279  66.740  1.00  0.00    -0.164 C  
HETATM    2  O   UNL     1      -9.645   5.260  67.707  1.00  0.00    -0.123 OA 
ENDROOT
BRANCH   2   3
HETATM    3  C   UNL     1      -9.279   5.675  68.963  1.00  0.00    -0.122 A  
HETATM    4  C   UNL     1     -10.231   5.767  69.986  1.00  0.00    -0.304 A  
HETATM    5  C   UNL     1      -9.885   6.185  71.272  1.00  0.00    -0.204 A  
HETATM    6  C   UNL     1      -8.561   6.510  71.544  1.00  0.00    -0.129 A  
HETATM    7  C   UNL     1      -7.923   5.966  69.240  1.00  0.00    -0.099 A  
HETATM    8  C   UNL     1      -7.575   6.398  70.545  1.00  0.00    -0.096 A  
BRANCH   5   9
HETATM    9  C   UNL     1     -10.981   6.257  72.269  1.00  0.00    -0.259 C  
HETATM   10  O   UNL     1     -11.532   5.258  72.709  1.00  0.00    -0.290 OA 
BRANCH   9  11
HETATM   11  O   UNL     1     -11.303   7.538  72.578  1.00  0.00    -0.294 OA 
BRANCH  11  12
HETATM   12  C   UNL     1     -12.667   7.889  72.283  1.00  0.00    -0.158 C  
BRANCH  12  13
HETATM   13  C   UNL     1     -12.695   8.971  71.208  1.00  0.00    -0.316 C  
BRANCH  13  14
HETATM   14  C   UNL     1     -13.217  10.299  71.757  1.00  0.00    -0.430 C  
BRANCH  14  15
HETATM   15  N   UNL     1     -12.452  11.472  71.282  1.00  0.00    -0.333 NA 
HETATM   16  C   UNL     1     -12.246  11.424  69.828  1.00  0.00    -0.265 C  
BRANCH  15  17
HETATM   17  C   UNL     1     -13.171  12.708  71.694  1.00  0.00    -0.298 C  
BRANCH  17  18
HETATM   18  C   UNL     1     -12.275  13.968  71.763  1.00  0.00    -0.080 C  
BRANCH  18  19
HETATM   19  N   UNL     1     -12.071  14.697  70.490  1.00  0.00    -0.299 NA 
HETATM   20  C   UNL     1     -13.340  15.220  69.972  1.00  0.00     0.403 C  
BRANCH  19  21
HETATM   21  C   UNL     1     -11.121  15.816  70.676  1.00  0.00    -0.354 C  
BRANCH  21  22
HETATM   22  C   UNL     1     -10.067  15.910  69.569  1.00  0.00    -0.277 C  
BRANCH  22  23
HETATM   23  C   UNL     1     -10.383  17.024  68.579  1.00  0.00    -0.359 C  
BRANCH  23  24
HETATM   24  O   UNL     1     -10.898  16.455  67.363  1.00  0.00    -0.302 OA 
BRANCH  24  25
HETATM   25  C   UNL     1      -9.989  16.266  66.373  1.00  0.00    -0.300 C  
HETATM   26  O   UNL     1      -9.366  17.141  65.793  1.00  0.00    -0.523 OA 
BRANCH  25  27
HETATM   27  C   UNL     1      -9.824  14.816  66.091  1.00  0.00    -0.335 A  
HETATM   28  C   UNL     1     -10.583  14.257  65.062  1.00  0.00    -0.444 A  
HETATM   29  C   UNL     1     -10.496  12.892  64.787  1.00  0.00    -0.350 A  
HETATM   30  C   UNL     1      -9.650  12.062  65.563  1.00  0.00    -0.159 A  
HETATM   31  C   UNL     1      -8.954  14.010  66.832  1.00  0.00    -0.243 A  
HETATM   32  C   UNL     1      -8.864  12.631  66.590  1.00  0.00    -0.126 A  
BRANCH  29  33
HETATM   33  O   UNL     1     -11.247  12.282  63.807  1.00  0.00    -0.365 OA 
HETATM   34  C   UNL     1     -12.661  12.316  63.979  1.00  0.00    -0.420 C  
ENDBRANCH  29  33
BRANCH  30  35
HETATM   35  O   UNL     1      -9.728  10.723  65.261  1.00  0.00    -0.219 OA 
HETATM   36  C   UNL     1      -8.723  10.156  64.432  1.00  0.00    -0.202 C  
ENDBRANCH  30  35
BRANCH  32  37
HETATM   37  O   UNL     1      -8.061  11.808  67.334  1.00  0.00    -0.144 OA 
HETATM   38  C   UNL     1      -8.580  11.270  68.545  1.00  0.00    -0.156 C  
ENDBRANCH  32  37
ENDBRANCH  25  27
ENDBRANCH  24  25
ENDBRANCH  23  24
ENDBRANCH  22  23
ENDBRANCH  21  22
ENDBRANCH  19  21
ENDBRANCH  18  19
ENDBRANCH  17  18
ENDBRANCH  15  17
ENDBRANCH  14  15
ENDBRANCH  13  14
ENDBRANCH  12  13
ENDBRANCH  11  12
ENDBRANCH   9  11
ENDBRANCH   5   9
BRANCH   8  39
HETATM   39  O   UNL     1      -6.339   6.753  71.033  1.00  0.00    -0.039 OA 
HETATM   40  C   UNL     1      -6.243   7.581  72.181  1.00  0.00    -0.039 C  
ENDBRANCH   8  39
BRANCH   7  41
HETATM   41  O   UNL     1      -6.892   5.882  68.341  1.00  0.00    -0.061 OA 
HETATM   42  C   UNL     1      -6.409   7.036  67.675  1.00  0.00    -0.043 C  
ENDBRANCH   7  41
ENDBRANCH   2   3
TORSDOF 21
ENDMDL
MODEL      176
REMARK 921   NORMALIZED FREE ENERGY PREDICTED BY IDOCK:   -3.84 KCAL/MOL
REMARK 922        TOTAL FREE ENERGY PREDICTED BY IDOCK:  -11.42 KCAL/MOL
REMARK 923 INTER-LIGAND FREE ENERGY PREDICTED BY IDOCK:   -9.29 KCAL/MOL
REMARK 924 INTRA-LIGAND FREE ENERGY PREDICTED BY IDOCK:   -2.13 KCAL/MOL
REMARK 927      BINDING AFFINITY PREDICTED BY RF-SCORE:    0.00 PKD
ROOT
HETATM    1  C   UNL     1     -12.240  14.914  69.155  1.00  0.00    -0.159 C  
HETATM    2  O   UNL     1     -11.151  14.858  68.236  1.00  0.00    -0.260 OA 
ENDROOT
BRANCH   2   3
HETATM    3  C   UNL     1     -11.091  13.760  67.413  1.00  0.00    -0.296 A  
HETATM    4  C   UNL     1     -10.755  12.504  67.932  1.00  0.00    -0.239 A  
HETATM    5  C   UNL     1     -10.687  11.372  67.118  1.00  0.00    -0.292 A  
HETATM    6  C   UNL     1     -10.967  11.495  65.762  1.00  0.00    -0.305 A  
HETATM    7  C   UNL     1     -11.416  13.889  66.043  1.00  0.00    -0.340 A  
HETATM    8  C   UNL     1     -11.339  12.739  65.218  1.00  0.00    -0.303 A  
BRANCH   5   9
HETATM    9  C   UNL     1     -10.306  10.098  67.777  1.00  0.00    -0.210 C  
HETATM   10  O   UNL     1     -10.987   9.585  68.653  1.00  0.00    -0.174 OA 
BRANCH   9  11
HETATM   11  O   UNL     1      -9.122   9.623  67.318  1.00  0.00    -0.133 OA 
BRANCH  11  12
HETATM   12  C   UNL     1      -8.535   8.605  68.149  1.00  0.00    -0.131 C  
BRANCH  12  13
HETATM   13  C   UNL     1      -7.434   9.219  69.009  1.00  0.00    -0.073 C  
BRANCH  13  14
HETATM   14  C   UNL     1      -7.914   9.481  70.437  1.00  0.00    -0.178 C  
BRANCH  14  15
HETATM   15  N   UNL     1      -8.424   8.272  71.118  1.00  0.00    -0.130 NA 
HETATM   16  C   UNL     1      -7.333   7.350  71.461  1.00  0.00    -0.079 C  
BRANCH  15  17
HETATM   17  C   UNL     1      -9.189   8.689  72.323  1.00  0.00    -0.227 C  
BRANCH  17  18
HETATM   18  C   UNL     1     -10.176   7.620  72.848  1.00  0.00    -0.298 C  
BRANCH  18  19
HETATM   19  N   UNL     1     -11.611   7.865  72.573  1.00  0.00    -0.377 NA 
HETATM   20  C   UNL     1     -11.803   9.125  71.848  1.00  0.00    -0.369 C  
BRANCH  19  21
HETATM   21  C   UNL     1     -12.187   6.754  71.782  1.00  0.00    -0.358 C  
BRANCH  21  22
HETATM   22  C   UNL     1     -11.163   6.056  70.880  1.00  0.00    -0.335 C  
BRANCH  22  23
HETATM   23  C   UNL     1     -11.338   6.446  69.418  1.00  0.00    -0.377 C  
BRANCH  23  24
HETATM   24  O   UNL     1     -10.489   5.626  68.597  1.00  0.00    -0.202 OA 
BRANCH  24  25
HETATM   25  C   UNL     1     -10.576   5.844  67.261  1.00  0.00    -0.291 C  
HETATM   26  O   UNL     1     -11.012   6.849  66.724  1.00  0.00    -0.329 OA 
BRANCH  25  27
HETATM   27  C   UNL     1     -10.037   4.680  66.509  1.00  0.00    -0.279 A  
HETATM   28  C   UNL     1      -8.959   3.985  67.059  1.00  0.00    -0.143 A  
HETATM   29  C   UNL     1      -8.390   2.914  66.371  1.00  0.00    -0.096 A  
HETATM   30  C   UNL     1      -8.892   2.535  65.101  1.00  0.00    -0.120 A  
HETATM   31  C   UNL     1     -10.566   4.284  65.276  1.00  0.00    -0.165 A  
HETATM   32  C   UNL     1      -9.998   3.224  64.554  1.00  0.00    -0.116 A  
BRANCH  29  33
HETATM   33  O   UNL     1      -7.304   2.215  66.850  1.00  0.00    -0.058 OA 
HETATM   34  C   UNL     1      -6.412   2.934  67.697  1.00  0.00    -0.036 C  
ENDBRANCH  29  33
BRANCH  30  35
HETATM   35  O   UNL     1      -8.184   1.533  64.481  1.00  0.00    -0.068 OA 
HETATM   36  C   UNL     1      -7.239   1.890  63.482  1.00  0.00    -0.040 C  
ENDBRANCH  30  35
BRANCH  32  37
HETATM   37  O   UNL     1     -10.460   2.848  63.321  1.00  0.00    -0.164 OA 
HETATM   38  C   UNL     1     -10.771   3.865  62.376  1.00  0.00    -0.178 C  
ENDBRANCH  32  37
ENDBRANCH  25  27
ENDBRANCH  24  25
ENDBRANCH  23  24
ENDBRANCH  22  23
ENDBRANCH  21  22
ENDBRANCH  19  21
ENDBRANCH  18  19
ENDBRANCH  17  18
ENDBRANCH  15  17
ENDBRANCH  14  15
ENDBRANCH  13  14
ENDBRANCH  12  13
ENDBRANCH  11  12
ENDBRANCH   9  11
ENDBRANCH   5   9
BRANCH   8  39
HETATM   39  O   UNL     1     -11.586  12.630  63.869  1.00  0.00    -0.378 OA 
HETATM   40  C   UNL     1     -12.642  11.802  63.408  1.00  0.00    -0.336 C  
ENDBRANCH   8  39
BRANCH   7  41
HETATM   41  O   UNL     1     -11.794  15.050  65.422  1.00  0.00    -0.246 OA 
HETATM   42  C   UNL     1     -10.827  15.952  64.911  1.00  0.00    -0.400 C  
ENDBRANCH   7  41
ENDBRANCH   2   3
TORSDOF 21
ENDMDL
MODEL      177
REMARK 921   NORMALIZED FREE ENERGY PREDICTED BY IDOCK:   -3.84 KCAL/MOL
REMARK 922        TOTAL FREE ENERGY PREDICTED BY IDOCK:  -11.40 KCAL/MOL
REMARK 923 INTER-LIGAND FREE ENERGY PREDICTED BY IDOCK:   -9.49 KCAL/MOL
REMARK 924 INTRA-LIGAND FREE ENERGY PREDICTED BY IDOCK:   -1.92 KCAL/MOL
REMARK 927      BINDING AFFINITY PREDICTED BY RF-SCORE:    0.00 PKD
ROOT
HETATM    1  C   UNL     1     -14.404   7.020  71.938  1.00  0.00    -0.263 C  
HETATM    2  O   UNL     1     -13.060   6.603  71.710  1.00  0.00    -0.294 OA 
ENDROOT
BRANCH   2   3
HETATM    3  C   UNL     1     -12.129   7.593  71.514  1.00  0.00    -0.310 A  
HETATM    4  C   UNL     1     -12.508   8.823  70.962  1.00  0.00    -0.152 A  
HETATM    5  C   UNL     1     -11.583   9.847  70.752  1.00  0.00    -0.430 A  
HETATM    6  C   UNL     1     -10.255   9.641  71.108  1.00  0.00    -0.180 A  
HETATM    7  C   UNL     1     -10.789   7.389  71.915  1.00  0.00    -0.229 A  
HETATM    8  C   UNL     1      -9.849   8.428  71.694  1.00  0.00    -0.221 A  
BRANCH   5   9
HETATM    9  C   UNL     1     -12.098  11.099  70.147  1.00  0.00    -0.362 C  
HETATM   10  O   UNL     1     -12.275  12.117  70.801  1.00  0.00    -0.377 OA 
BRANCH   9  11
HETATM   11  O   UNL     1     -12.374  10.950  68.828  1.00  0.00    -0.495 OA 
BRANCH  11  12
HETATM   12  C   UNL     1     -11.312  11.373  67.953  1.00  0.00    -0.303 C  
BRANCH  12  13
HETATM   13  C   UNL     1     -10.946  10.234  67.006  1.00  0.00    -0.189 C  
BRANCH  13  14
HETATM   14  C   UNL     1      -9.615   9.587  67.389  1.00  0.00    -0.141 C  
BRANCH  14  15
HETATM   15  N   UNL     1      -8.777   9.232  66.224  1.00  0.00    -0.137 NA 
HETATM   16  C   UNL     1      -8.745  10.318  65.236  1.00  0.00    -0.172 C  
BRANCH  15  17
HETATM   17  C   UNL     1      -7.413   8.886  66.704  1.00  0.00    -0.086 C  
BRANCH  17  18
HETATM   18  C   UNL     1      -6.361   9.999  66.478  1.00  0.00    -0.072 C  
BRANCH  18  19
HETATM   19  N   UNL     1      -6.231  11.005  67.558  1.00  0.00    -0.052 NA 
HETATM   20  C   UNL     1      -5.238  10.587  68.552  1.00  0.00    -0.037 C  
BRANCH  19  21
HETATM   21  C   UNL     1      -5.841  12.319  67.001  1.00  0.00    -0.040 C  
BRANCH  21  22
HETATM   22  C   UNL     1      -6.731  13.471  67.478  1.00  0.00    -0.144 C  
BRANCH  22  23
HETATM   23  C   UNL     1      -8.168  13.020  67.707  1.00  0.00    -0.168 C  
BRANCH  23  24
HETATM   24  O   UNL     1      -9.069  14.078  67.342  1.00  0.00    -0.191 OA 
BRANCH  24  25
HETATM   25  C   UNL     1      -9.569  14.806  68.372  1.00  0.00    -0.213 C  
HETATM   26  O   UNL     1     -10.194  14.368  69.325  1.00  0.00    -0.179 OA 
BRANCH  25  27
HETATM   27  C   UNL     1      -9.230  16.243  68.205  1.00  0.00    -0.199 A  
HETATM   28  C   UNL     1      -7.978  16.679  68.640  1.00  0.00    -0.236 A  
HETATM   29  C   UNL     1      -7.630  18.026  68.545  1.00  0.00    -0.291 A  
HETATM   30  C   UNL     1      -8.553  18.964  68.021  1.00  0.00    -0.299 A  
HETATM   31  C   UNL     1     -10.130  17.158  67.647  1.00  0.00    -0.305 A  
HETATM   32  C   UNL     1      -9.813  18.521  67.559  1.00  0.00    -0.310 A  
BRANCH  29  33
HETATM   33  O   UNL     1      -6.423  18.516  68.990  1.00  0.00    -0.236 OA 
HETATM   34  C   UNL     1      -5.889  17.912  70.165  1.00  0.00    -0.186 C  
ENDBRANCH  29  33
BRANCH  30  35
HETATM   35  O   UNL     1      -8.133  20.272  68.073  1.00  0.00    -0.227 OA 
HETATM   36  C   UNL     1      -7.219  20.729  67.086  1.00  0.00    -0.337 C  
ENDBRANCH  30  35
BRANCH  32  37
HETATM   37  O   UNL     1     -10.694  19.447  67.067  1.00  0.00    -0.455 OA 
HETATM   38  C   UNL     1     -10.353  20.138  65.871  1.00  0.00    -0.340 C  
ENDBRANCH  32  37
ENDBRANCH  25  27
ENDBRANCH  24  25
ENDBRANCH  23  24
ENDBRANCH  22  23
ENDBRANCH  21  22
ENDBRANCH  19  21
ENDBRANCH  18  19
ENDBRANCH  17  18
ENDBRANCH  15  17
ENDBRANCH  14  15
ENDBRANCH  13  14
ENDBRANCH  12  13
ENDBRANCH  11  12
ENDBRANCH   9  11
ENDBRANCH   5   9
BRANCH   8  39
HETATM   39  O   UNL     1      -8.504   8.445  71.980  1.00  0.00    -0.157 OA 
HETATM   40  C   UNL     1      -7.587   7.812  71.102  1.00  0.00    -0.079 C  
ENDBRANCH   8  39
BRANCH   7  41
HETATM   41  O   UNL     1     -10.299   6.250  72.498  1.00  0.00    -0.186 OA 
HETATM   42  C   UNL     1     -10.251   5.027  71.783  1.00  0.00    -0.207 C  
ENDBRANCH   7  41
ENDBRANCH   2   3
TORSDOF 21
ENDMDL
MODEL      178
REMARK 921   NORMALIZED FREE ENERGY PREDICTED BY IDOCK:   -3.81 KCAL/MOL
REMARK 922        TOTAL FREE ENERGY PREDICTED BY IDOCK:  -11.36 KCAL/MOL
REMARK 923 INTER-LIGAND FREE ENERGY PREDICTED BY IDOCK:   -8.96 KCAL/MOL
REMARK 924 INTRA-LIGAND FREE ENERGY PREDICTED BY IDOCK:   -2.40 KCAL/MOL
REMARK 927      BINDING AFFINITY PREDICTED BY RF-SCORE:    0.00 PKD
ROOT
HETATM    1  C   UNL     1      -9.802   4.925  68.165  1.00  0.00    -0.138 C  
HETATM    2  O   UNL     1      -9.513   4.809  69.556  1.00  0.00    -0.127 OA 
ENDROOT
BRANCH   2   3
HETATM    3  C   UNL     1      -9.025   5.930  70.183  1.00  0.00    -0.142 A  
HETATM    4  C   UNL     1      -8.225   6.842  69.483  1.00  0.00    -0.131 A  
HETATM    5  C   UNL     1      -7.717   7.988  70.095  1.00  0.00    -0.087 A  
HETATM    6  C   UNL     1      -8.019   8.233  71.430  1.00  0.00    -0.139 A  
HETATM    7  C   UNL     1      -9.369   6.189  71.529  1.00  0.00    -0.148 A  
HETATM    8  C   UNL     1      -8.845   7.351  72.151  1.00  0.00    -0.124 A  
BRANCH   5   9
HETATM    9  C   UNL     1      -6.870   8.873  69.258  1.00  0.00    -0.050 C  
HETATM   10  O   UNL     1      -6.169   8.444  68.353  1.00  0.00    -0.051 OA 
BRANCH   9  11
HETATM   11  O   UNL     1      -6.948  10.169  69.650  1.00  0.00    -0.074 OA 
BRANCH  11  12
HETATM   12  C   UNL     1      -7.478  11.056  68.647  1.00  0.00    -0.112 C  
BRANCH  12  13
HETATM   13  C   UNL     1      -6.539  12.245  68.468  1.00  0.00    -0.072 C  
BRANCH  13  14
HETATM   14  C   UNL     1      -7.311  13.548  68.263  1.00  0.00    -0.116 C  
BRANCH  14  15
HETATM   15  N   UNL     1      -7.622  14.253  69.525  1.00  0.00     0.065 NA 
HETATM   16  C   UNL     1      -6.397  14.623  70.247  1.00  0.00    -0.171 C  
BRANCH  15  17
HETATM   17  C   UNL     1      -8.456  15.444  69.213  1.00  0.00    -0.258 C  
BRANCH  17  18
HETATM   18  C   UNL     1      -9.905  15.109  68.786  1.00  0.00    -0.223 C  
BRANCH  18  19
HETATM   19  N   UNL     1     -10.826  16.260  68.639  1.00  0.00    -0.303 NA 
HETATM   20  C   UNL     1     -10.148  17.522  68.954  1.00  0.00    -0.346 C  
BRANCH  19  21
HETATM   21  C   UNL     1     -11.363  16.325  67.261  1.00  0.00     0.164 C  
BRANCH  21  22
HETATM   22  C   UNL     1     -10.273  16.343  66.184  1.00  0.00    -0.363 C  
BRANCH  22  23
HETATM   23  C   UNL     1     -10.668  15.518  64.967  1.00  0.00    -0.441 C  
BRANCH  23  24
HETATM   24  O   UNL     1     -11.831  14.731  65.275  1.00  0.00    -0.340 OA 
BRANCH  24  25
HETATM   25  C   UNL     1     -12.061  13.676  64.453  1.00  0.00    -0.427 C  
HETATM   26  O   UNL     1     -12.697  13.700  63.413  1.00  0.00    -0.762 OA 
BRANCH  25  27
HETATM   27  C   UNL     1     -11.400  12.454  64.983  1.00  0.00    -0.363 A  
HETATM   28  C   UNL     1     -11.521  12.180  66.346  1.00  0.00    -0.430 A  
HETATM   29  C   UNL     1     -10.883  11.069  66.898  1.00  0.00    -0.269 A  
HETATM   30  C   UNL     1     -10.094  10.222  66.082  1.00  0.00    -0.242 A  
HETATM   31  C   UNL     1     -10.659  11.597  64.163  1.00  0.00    -0.411 A  
HETATM   32  C   UNL     1      -9.990  10.485  64.697  1.00  0.00    -0.347 A  
BRANCH  29  33
HETATM   33  O   UNL     1     -10.939  10.771  68.241  1.00  0.00    -0.215 OA 
HETATM   34  C   UNL     1     -11.455  11.789  69.094  1.00  0.00    -0.297 C  
ENDBRANCH  29  33
BRANCH  30  35
HETATM   35  O   UNL     1      -9.437   9.222  66.759  1.00  0.00    -0.156 OA 
HETATM   36  C   UNL     1      -9.835   7.877  66.535  1.00  0.00    -0.202 C  
ENDBRANCH  30  35
BRANCH  32  37
HETATM   37  O   UNL     1      -9.214   9.659  63.928  1.00  0.00    -0.249 OA 
HETATM   38  C   UNL     1      -8.229  10.246  63.087  1.00  0.00    -0.163 C  
ENDBRANCH  32  37
ENDBRANCH  25  27
ENDBRANCH  24  25
ENDBRANCH  23  24
ENDBRANCH  22  23
ENDBRANCH  21  22
ENDBRANCH  19  21
ENDBRANCH  18  19
ENDBRANCH  17  18
ENDBRANCH  15  17
ENDBRANCH  14  15
ENDBRANCH  13  14
ENDBRANCH  12  13
ENDBRANCH  11  12
ENDBRANCH   9  11
ENDBRANCH   5   9
BRANCH   8  39
HETATM   39  O   UNL     1      -9.026   7.791  73.442  1.00  0.00    -0.201 OA 
HETATM   40  C   UNL     1      -8.126   7.381  74.460  1.00  0.00    -0.189 C  
ENDBRANCH   8  39
BRANCH   7  41
HETATM   41  O   UNL     1     -10.169   5.398  72.311  1.00  0.00    -0.184 OA 
HETATM   42  C   UNL     1      -9.631   4.304  73.034  1.00  0.00    -0.126 C  
ENDBRANCH   7  41
ENDBRANCH   2   3
TORSDOF 21
ENDMDL
MODEL      179
REMARK 921   NORMALIZED FREE ENERGY PREDICTED BY IDOCK:   -3.79 KCAL/MOL
REMARK 922        TOTAL FREE ENERGY PREDICTED BY IDOCK:  -11.29 KCAL/MOL
REMARK 923 INTER-LIGAND FREE ENERGY PREDICTED BY IDOCK:   -9.53 KCAL/MOL
REMARK 924 INTRA-LIGAND FREE ENERGY PREDICTED BY IDOCK:   -1.76 KCAL/MOL
REMARK 927      BINDING AFFINITY PREDICTED BY RF-SCORE:    0.00 PKD
ROOT
HETATM    1  C   UNL     1      -9.955   4.456  66.644  1.00  0.00    -0.210 C  
HETATM    2  O   UNL     1      -9.262   3.405  67.314  1.00  0.00    -0.165 OA 
ENDROOT
BRANCH   2   3
HETATM    3  C   UNL     1      -8.798   3.676  68.578  1.00  0.00    -0.114 A  
HETATM    4  C   UNL     1      -9.446   3.145  69.700  1.00  0.00    -0.191 A  
HETATM    5  C   UNL     1      -8.995   3.404  70.995  1.00  0.00    -0.161 A  
HETATM    6  C   UNL     1      -7.871   4.202  71.173  1.00  0.00    -0.071 A  
HETATM    7  C   UNL     1      -7.632   4.458  68.746  1.00  0.00    -0.063 A  
HETATM    8  C   UNL     1      -7.180   4.725  70.063  1.00  0.00    -0.054 A  
BRANCH   5   9
HETATM    9  C   UNL     1      -9.769   2.798  72.106  1.00  0.00    -0.153 C  
HETATM   10  O   UNL     1     -10.475   1.812  71.950  1.00  0.00    -0.116 OA 
BRANCH   9  11
HETATM   11  O   UNL     1      -9.624   3.491  73.262  1.00  0.00    -0.106 OA 
BRANCH  11  12
HETATM   12  C   UNL     1     -10.839   4.097  73.741  1.00  0.00    -0.263 C  
BRANCH  12  13
HETATM   13  C   UNL     1     -11.025   5.460  73.081  1.00  0.00    -0.353 C  
BRANCH  13  14
HETATM   14  C   UNL     1     -10.285   6.561  73.841  1.00  0.00    -0.332 C  
BRANCH  14  15
HETATM   15  N   UNL     1     -10.307   7.868  73.151  1.00  0.00    -0.336 NA 
HETATM   16  C   UNL     1      -9.078   8.087  72.377  1.00  0.00    -0.192 C  
BRANCH  15  17
HETATM   17  C   UNL     1     -11.517   7.931  72.288  1.00  0.00    -0.348 C  
BRANCH  17  18
HETATM   18  C   UNL     1     -11.710   9.286  71.565  1.00  0.00    -0.380 C  
BRANCH  18  19
HETATM   19  N   UNL     1     -13.105   9.773  71.453  1.00  0.00    -0.378 NA 
HETATM   20  C   UNL     1     -14.004   9.009  72.324  1.00  0.00    -0.455 C  
BRANCH  19  21
HETATM   21  C   UNL     1     -13.185  11.208  71.809  1.00  0.00    -0.381 C  
BRANCH  21  22
HETATM   22  C   UNL     1     -12.306  12.103  70.930  1.00  0.00    -0.370 C  
BRANCH  22  23
HETATM   23  C   UNL     1     -12.625  13.579  71.128  1.00  0.00    -0.355 C  
BRANCH  23  24
HETATM   24  O   UNL     1     -12.602  14.251  69.857  1.00  0.00    -0.312 OA 
BRANCH  24  25
HETATM   25  C   UNL     1     -11.375  14.620  69.410  1.00  0.00    -0.284 C  
HETATM   26  O   UNL     1     -10.654  15.469  69.909  1.00  0.00    -0.273 OA 
BRANCH  25  27
HETATM   27  C   UNL     1     -10.997  13.822  68.214  1.00  0.00    -0.269 A  
HETATM   28  C   UNL     1      -9.921  12.940  68.327  1.00  0.00    -0.234 A  
HETATM   29  C   UNL     1      -9.499  12.202  67.221  1.00  0.00    -0.184 A  
HETATM   30  C   UNL     1     -10.150  12.356  65.972  1.00  0.00    -0.251 A  
HETATM   31  C   UNL     1     -11.671  13.947  66.995  1.00  0.00    -0.426 A  
HETATM   32  C   UNL     1     -11.254  13.232  65.862  1.00  0.00    -0.290 A  
BRANCH  29  33
HETATM   33  O   UNL     1      -8.424  11.344  67.266  1.00  0.00    -0.139 OA 
HETATM   34  C   UNL     1      -8.204  10.669  68.501  1.00  0.00    -0.128 C  
ENDBRANCH  29  33
BRANCH  30  35
HETATM   35  O   UNL     1      -9.580  11.652  64.938  1.00  0.00    -0.224 OA 
HETATM   36  C   UNL     1     -10.145  10.398  64.580  1.00  0.00    -0.295 C  
ENDBRANCH  30  35
BRANCH  32  37
HETATM   37  O   UNL     1     -11.861  13.373  64.643  1.00  0.00    -0.360 OA 
HETATM   38  C   UNL     1     -13.006  12.578  64.361  1.00  0.00    -0.153 C  
ENDBRANCH  32  37
ENDBRANCH  25  27
ENDBRANCH  24  25
ENDBRANCH  23  24
ENDBRANCH  22  23
ENDBRANCH  21  22
ENDBRANCH  19  21
ENDBRANCH  18  19
ENDBRANCH  17  18
ENDBRANCH  15  17
ENDBRANCH  14  15
ENDBRANCH  13  14
ENDBRANCH  12  13
ENDBRANCH  11  12
ENDBRANCH   9  11
ENDBRANCH   5   9
BRANCH   8  39
HETATM   39  O   UNL     1      -6.095   5.469  70.465  1.00  0.00    -0.023 OA 
HETATM   40  C   UNL     1      -5.784   5.574  71.846  1.00  0.00    -0.021 C  
ENDBRANCH   8  39
BRANCH   7  41
HETATM   41  O   UNL     1      -6.889   5.004  67.733  1.00  0.00    -0.057 OA 
HETATM   42  C   UNL     1      -6.749   6.409  67.606  1.00  0.00    -0.064 C  
ENDBRANCH   7  41
ENDBRANCH   2   3
TORSDOF 21
ENDMDL
MODEL      180
REMARK 921   NORMALIZED FREE ENERGY PREDICTED BY IDOCK:   -3.78 KCAL/MOL
REMARK 922        TOTAL FREE ENERGY PREDICTED BY IDOCK:  -11.29 KCAL/MOL
REMARK 923 INTER-LIGAND FREE ENERGY PREDICTED BY IDOCK:   -7.88 KCAL/MOL
REMARK 924 INTRA-LIGAND FREE ENERGY PREDICTED BY IDOCK:   -3.41 KCAL/MOL
REMARK 927      BINDING AFFINITY PREDICTED BY RF-SCORE:    0.00 PKD
ROOT
HETATM    1  C   UNL     1     -12.040  14.242  65.549  1.00  0.00    -0.394 C  
HETATM    2  O   UNL     1     -10.747  13.999  65.000  1.00  0.00    -0.347 OA 
ENDROOT
BRANCH   2   3
HETATM    3  C   UNL     1      -9.956  13.089  65.656  1.00  0.00    -0.230 A  
HETATM    4  C   UNL     1      -8.982  13.521  66.565  1.00  0.00    -0.063 A  
HETATM    5  C   UNL     1      -8.166  12.617  67.246  1.00  0.00    -0.184 A  
HETATM    6  C   UNL     1      -8.330  11.255  67.022  1.00  0.00    -0.153 A  
HETATM    7  C   UNL     1     -10.158  11.704  65.450  1.00  0.00    -0.259 A  
HETATM    8  C   UNL     1      -9.322  10.788  66.138  1.00  0.00    -0.183 A  
BRANCH   5   9
HETATM    9  C   UNL     1      -7.159  13.192  68.172  1.00  0.00    -0.109 C  
HETATM   10  O   UNL     1      -7.030  12.800  69.323  1.00  0.00    -0.064 OA 
BRANCH   9  11
HETATM   11  O   UNL     1      -6.461  14.203  67.599  1.00  0.00    -0.175 OA 
BRANCH  11  12
HETATM   12  C   UNL     1      -5.354  14.674  68.389  1.00  0.00    -0.108 C  
BRANCH  12  13
HETATM   13  C   UNL     1      -5.683  16.051  68.958  1.00  0.00    -0.114 C  
BRANCH  13  14
HETATM   14  C   UNL     1      -6.654  16.817  68.059  1.00  0.00    -0.140 C  
BRANCH  14  15
HETATM   15  N   UNL     1      -7.849  17.314  68.774  1.00  0.00    -0.266 NA 
HETATM   16  C   UNL     1      -8.076  18.741  68.510  1.00  0.00    -0.346 C  
BRANCH  15  17
HETATM   17  C   UNL     1      -9.021  16.489  68.374  1.00  0.00    -0.219 C  
BRANCH  17  18
HETATM   18  C   UNL     1      -9.627  15.651  69.525  1.00  0.00    -0.279 C  
BRANCH  18  19
HETATM   19  N   UNL     1     -11.075  15.841  69.778  1.00  0.00    -0.292 NA 
HETATM   20  C   UNL     1     -11.742  16.429  68.612  1.00  0.00    -0.011 C  
BRANCH  19  21
HETATM   21  C   UNL     1     -11.719  14.550  70.108  1.00  0.00    -0.297 C  
BRANCH  21  22
HETATM   22  C   UNL     1     -11.058  13.348  69.426  1.00  0.00    -0.160 C  
BRANCH  22  23
HETATM   23  C   UNL     1     -12.028  12.184  69.265  1.00  0.00    -0.262 C  
BRANCH  23  24
HETATM   24  O   UNL     1     -11.294  10.949  69.217  1.00  0.00    -0.231 OA 
BRANCH  24  25
HETATM   25  C   UNL     1     -11.206  10.274  70.391  1.00  0.00    -0.332 C  
HETATM   26  O   UNL     1     -11.811  10.535  71.418  1.00  0.00    -0.298 OA 
BRANCH  25  27
HETATM   27  C   UNL     1     -10.269   9.127  70.260  1.00  0.00    -0.253 A  
HETATM   28  C   UNL     1      -8.913   9.356  70.494  1.00  0.00    -0.303 A  
HETATM   29  C   UNL     1      -7.989   8.322  70.341  1.00  0.00    -0.098 A  
HETATM   30  C   UNL     1      -8.420   7.037  69.929  1.00  0.00    -0.140 A  
HETATM   31  C   UNL     1     -10.707   7.849  69.895  1.00  0.00    -0.244 A  
HETATM   32  C   UNL     1      -9.797   6.798  69.714  1.00  0.00    -0.166 A  
BRANCH  29  33
HETATM   33  O   UNL     1      -6.636   8.500  70.525  1.00  0.00    -0.035 OA 
HETATM   34  C   UNL     1      -5.992   9.413  69.642  1.00  0.00    -0.036 C  
ENDBRANCH  29  33
BRANCH  30  35
HETATM   35  O   UNL     1      -7.407   6.133  69.717  1.00  0.00    -0.075 OA 
HETATM   36  C   UNL     1      -6.938   5.941  68.389  1.00  0.00    -0.072 C  
ENDBRANCH  30  35
BRANCH  32  37
HETATM   37  O   UNL     1     -10.190   5.551  69.306  1.00  0.00    -0.199 OA 
HETATM   38  C   UNL     1     -10.652   5.390  67.970  1.00  0.00    -0.083 C  
ENDBRANCH  32  37
ENDBRANCH  25  27
ENDBRANCH  24  25
ENDBRANCH  23  24
ENDBRANCH  22  23
ENDBRANCH  21  22
ENDBRANCH  19  21
ENDBRANCH  18  19
ENDBRANCH  17  18
ENDBRANCH  15  17
ENDBRANCH  14  15
ENDBRANCH  13  14
ENDBRANCH  12  13
ENDBRANCH  11  12
ENDBRANCH   9  11
ENDBRANCH   5   9
BRANCH   8  39
HETATM   39  O   UNL     1      -9.321   9.414  66.079  1.00  0.00    -0.183 OA 
HETATM   40  C   UNL     1      -8.534   8.750  65.103  1.00  0.00    -0.174 C  
ENDBRANCH   8  39
BRANCH   7  41
HETATM   41  O   UNL     1     -11.097  11.153  64.620  1.00  0.00    -0.231 OA 
HETATM   42  C   UNL     1     -10.967  11.240  63.211  1.00  0.00    -0.072 C  
ENDBRANCH   7  41
ENDBRANCH   2   3
TORSDOF 21
ENDMDL
MODEL      181
REMARK 921   NORMALIZED FREE ENERGY PREDICTED BY IDOCK:   -3.78 KCAL/MOL
REMARK 922        TOTAL FREE ENERGY PREDICTED BY IDOCK:  -11.27 KCAL/MOL
REMARK 923 INTER-LIGAND FREE ENERGY PREDICTED BY IDOCK:   -9.09 KCAL/MOL
REMARK 924 INTRA-LIGAND FREE ENERGY PREDICTED BY IDOCK:   -2.18 KCAL/MOL
REMARK 927      BINDING AFFINITY PREDICTED BY RF-SCORE:    0.00 PKD
ROOT
HETATM    1  C   UNL     1     -12.450  15.204  64.317  1.00  0.00    -0.052 C  
HETATM    2  O   UNL     1     -11.092  15.454  64.669  1.00  0.00    -0.399 OA 
ENDROOT
BRANCH   2   3
HETATM    3  C   UNL     1     -10.396  14.413  65.232  1.00  0.00    -0.403 A  
HETATM    4  C   UNL     1     -10.458  13.132  64.668  1.00  0.00    -0.411 A  
HETATM    5  C   UNL     1      -9.760  12.057  65.218  1.00  0.00    -0.183 A  
HETATM    6  C   UNL     1      -8.979  12.264  66.350  1.00  0.00    -0.117 A  
HETATM    7  C   UNL     1      -9.574  14.643  66.359  1.00  0.00    -0.301 A  
HETATM    8  C   UNL     1      -8.872  13.546  66.921  1.00  0.00    -0.182 A  
BRANCH   5   9
HETATM    9  C   UNL     1      -9.914  10.744  64.543  1.00  0.00    -0.333 C  
HETATM   10  O   UNL     1     -10.069  10.644  63.334  1.00  0.00    -0.317 OA 
BRANCH   9  11
HETATM   11  O   UNL     1      -9.903   9.715  65.426  1.00  0.00    -0.315 OA 
BRANCH  11  12
HETATM   12  C   UNL     1      -8.737   8.875  65.335  1.00  0.00    -0.191 C  
BRANCH  12  13
HETATM   13  C   UNL     1      -7.987   8.898  66.663  1.00  0.00    -0.103 C  
BRANCH  13  14
HETATM   14  C   UNL     1      -8.230   7.623  67.471  1.00  0.00    -0.121 C  
BRANCH  14  15
HETATM   15  N   UNL     1      -9.081   7.835  68.661  1.00  0.00    -0.136 NA 
HETATM   16  C   UNL     1      -8.471   7.256  69.866  1.00  0.00    -0.140 C  
BRANCH  15  17
HETATM   17  C   UNL     1      -9.327   9.293  68.818  1.00  0.00    -0.139 C  
BRANCH  17  18
HETATM   18  C   UNL     1     -10.808   9.663  69.069  1.00  0.00    -0.183 C  
BRANCH  18  19
HETATM   19  N   UNL     1     -11.096  11.101  69.281  1.00  0.00    -0.241 NA 
HETATM   20  C   UNL     1     -11.920  11.640  68.194  1.00  0.00    -0.144 C  
BRANCH  19  21
HETATM   21  C   UNL     1     -11.794  11.307  70.570  1.00  0.00    -0.324 C  
BRANCH  21  22
HETATM   22  C   UNL     1     -13.040  10.431  70.735  1.00  0.00    -0.362 C  
BRANCH  22  23
HETATM   23  C   UNL     1     -13.194   9.929  72.165  1.00  0.00    -0.415 C  
BRANCH  23  24
HETATM   24  O   UNL     1     -12.027   9.177  72.538  1.00  0.00    -0.202 OA 
BRANCH  24  25
HETATM   25  C   UNL     1     -12.089   7.842  72.302  1.00  0.00    -0.287 C  
HETATM   26  O   UNL     1     -13.001   7.252  71.746  1.00  0.00    -0.345 OA 
BRANCH  25  27
HETATM   27  C   UNL     1     -10.859   7.170  72.798  1.00  0.00    -0.337 A  
HETATM   28  C   UNL     1     -10.772   5.783  72.673  1.00  0.00    -0.280 A  
HETATM   29  C   UNL     1      -9.658   5.101  73.164  1.00  0.00    -0.141 A  
HETATM   30  C   UNL     1      -8.615   5.812  73.807  1.00  0.00    -0.118 A  
HETATM   31  C   UNL     1      -9.813   7.883  73.393  1.00  0.00    -0.298 A  
HETATM   32  C   UNL     1      -8.691   7.219  73.913  1.00  0.00    -0.191 A  
BRANCH  29  33
HETATM   33  O   UNL     1      -9.536   3.732  73.098  1.00  0.00    -0.111 OA 
HETATM   34  C   UNL     1      -9.934   3.118  71.875  1.00  0.00    -0.139 C  
ENDBRANCH  29  33
BRANCH  30  35
HETATM   35  O   UNL     1      -7.623   5.020  74.334  1.00  0.00    -0.088 OA 
HETATM   36  C   UNL     1      -6.496   4.716  73.524  1.00  0.00    -0.055 C  
ENDBRANCH  30  35
BRANCH  32  37
HETATM   37  O   UNL     1      -7.677   7.885  74.549  1.00  0.00    -0.171 OA 
HETATM   38  C   UNL     1      -6.601   8.386  73.765  1.00  0.00    -0.115 C  
ENDBRANCH  32  37
ENDBRANCH  25  27
ENDBRANCH  24  25
ENDBRANCH  23  24
ENDBRANCH  22  23
ENDBRANCH  21  22
ENDBRANCH  19  21
ENDBRANCH  18  19
ENDBRANCH  17  18
ENDBRANCH  15  17
ENDBRANCH  14  15
ENDBRANCH  13  14
ENDBRANCH  12  13
ENDBRANCH  11  12
ENDBRANCH   9  11
ENDBRANCH   5   9
BRANCH   8  39
HETATM   39  O   UNL     1      -8.040  13.528  68.016  1.00  0.00    -0.131 OA 
HETATM   40  C   UNL     1      -7.635  12.289  68.575  1.00  0.00    -0.118 C  
ENDBRANCH   8  39
BRANCH   7  41
HETATM   41  O   UNL     1      -9.399  15.851  66.981  1.00  0.00    -0.207 OA 
HETATM   42  C   UNL     1      -8.971  16.991  66.255  1.00  0.00    -0.247 C  
ENDBRANCH   7  41
ENDBRANCH   2   3
TORSDOF 21
ENDMDL
MODEL      182
REMARK 921   NORMALIZED FREE ENERGY PREDICTED BY IDOCK:   -3.75 KCAL/MOL
REMARK 922        TOTAL FREE ENERGY PREDICTED BY IDOCK:  -11.22 KCAL/MOL
REMARK 923 INTER-LIGAND FREE ENERGY PREDICTED BY IDOCK:   -9.83 KCAL/MOL
REMARK 924 INTRA-LIGAND FREE ENERGY PREDICTED BY IDOCK:   -1.39 KCAL/MOL
REMARK 927      BINDING AFFINITY PREDICTED BY RF-SCORE:    0.00 PKD
ROOT
HETATM    1  C   UNL     1     -10.660   2.199  63.470  1.00  0.00    -0.151 C  
HETATM    2  O   UNL     1      -9.729   2.280  64.546  1.00  0.00    -0.124 OA 
ENDROOT
BRANCH   2   3
HETATM    3  C   UNL     1      -9.212   3.522  64.825  1.00  0.00    -0.142 A  
HETATM    4  C   UNL     1      -9.802   4.331  65.804  1.00  0.00    -0.228 A  
HETATM    5  C   UNL     1      -9.297   5.596  66.108  1.00  0.00    -0.167 A  
HETATM    6  C   UNL     1      -8.177   6.059  65.427  1.00  0.00    -0.141 A  
HETATM    7  C   UNL     1      -8.050   3.967  64.154  1.00  0.00    -0.090 A  
HETATM    8  C   UNL     1      -7.543   5.256  64.460  1.00  0.00    -0.077 A  
BRANCH   5   9
HETATM    9  C   UNL     1     -10.013   6.368  67.153  1.00  0.00    -0.155 C  
HETATM   10  O   UNL     1     -11.177   6.720  67.024  1.00  0.00    -0.393 OA 
BRANCH   9  11
HETATM   11  O   UNL     1      -9.214   6.653  68.211  1.00  0.00    -0.124 OA 
BRANCH  11  12
HETATM   12  C   UNL     1      -8.984   5.538  69.092  1.00  0.00    -0.108 C  
BRANCH  12  13
HETATM   13  C   UNL     1      -9.970   5.595  70.255  1.00  0.00    -0.269 C  
BRANCH  13  14
HETATM   14  C   UNL     1     -10.016   6.985  70.890  1.00  0.00    -0.193 C  
BRANCH  14  15
HETATM   15  N   UNL     1     -11.052   7.119  71.936  1.00  0.00    -0.232 NA 
HETATM   16  C   UNL     1     -10.623   6.501  73.198  1.00  0.00    -0.265 C  
BRANCH  15  17
HETATM   17  C   UNL     1     -11.369   8.562  72.111  1.00  0.00    -0.372 C  
BRANCH  17  18
HETATM   18  C   UNL     1     -10.846   9.468  70.971  1.00  0.00    -0.353 C  
BRANCH  18  19
HETATM   19  N   UNL     1     -11.877  10.146  70.150  1.00  0.00    -0.246 NA 
HETATM   20  C   UNL     1     -12.399  11.334  70.834  1.00  0.00    -0.388 C  
BRANCH  19  21
HETATM   21  C   UNL     1     -11.319  10.544  68.839  1.00  0.00    -0.251 C  
BRANCH  21  22
HETATM   22  C   UNL     1     -11.342  12.057  68.602  1.00  0.00    -0.329 C  
BRANCH  22  23
HETATM   23  C   UNL     1     -11.750  12.400  67.175  1.00  0.00    -0.345 C  
BRANCH  23  24
HETATM   24  O   UNL     1     -12.208  13.762  67.120  1.00  0.00    -0.391 OA 
BRANCH  24  25
HETATM   25  C   UNL     1     -11.692  14.515  66.115  1.00  0.00    -0.350 C  
HETATM   26  O   UNL     1     -11.966  14.416  64.930  1.00  0.00    -0.387 OA 
BRANCH  25  27
HETATM   27  C   UNL     1     -10.740  15.520  66.656  1.00  0.00    -0.306 A  
HETATM   28  C   UNL     1     -10.072  15.220  67.844  1.00  0.00    -0.233 A  
HETATM   29  C   UNL     1      -9.203  16.150  68.415  1.00  0.00    -0.203 A  
HETATM   30  C   UNL     1      -9.006  17.411  67.802  1.00  0.00    -0.236 A  
HETATM   31  C   UNL     1     -10.517  16.747  66.022  1.00  0.00    -0.300 A  
HETATM   32  C   UNL     1      -9.664  17.707  66.587  1.00  0.00    -0.301 A  
BRANCH  29  33
HETATM   33  O   UNL     1      -8.545  15.920  69.603  1.00  0.00    -0.176 OA 
HETATM   34  C   UNL     1      -7.431  15.033  69.548  1.00  0.00    -0.194 C  
ENDBRANCH  29  33
BRANCH  30  35
HETATM   35  O   UNL     1      -8.206  18.275  68.512  1.00  0.00    -0.306 OA 
HETATM   36  C   UNL     1      -6.851  18.427  68.112  1.00  0.00    -0.228 C  
ENDBRANCH  30  35
BRANCH  32  37
HETATM   37  O   UNL     1      -9.468  18.937  66.017  1.00  0.00    -0.471 OA 
HETATM   38  C   UNL     1     -10.266  20.026  66.465  1.00  0.00    -0.474 C  
ENDBRANCH  32  37
ENDBRANCH  25  27
ENDBRANCH  24  25
ENDBRANCH  23  24
ENDBRANCH  22  23
ENDBRANCH  21  22
ENDBRANCH  19  21
ENDBRANCH  18  19
ENDBRANCH  17  18
ENDBRANCH  15  17
ENDBRANCH  14  15
ENDBRANCH  13  14
ENDBRANCH  12  13
ENDBRANCH  11  12
ENDBRANCH   9  11
ENDBRANCH   5   9
BRANCH   8  39
HETATM   39  O   UNL     1      -6.452   5.899  63.925  1.00  0.00    -0.028 OA 
HETATM   40  C   UNL     1      -5.968   7.090  64.527  1.00  0.00    -0.037 C  
ENDBRANCH   8  39
BRANCH   7  41
HETATM   41  O   UNL     1      -7.360   3.260  63.205  1.00  0.00    -0.051 OA 
HETATM   42  C   UNL     1      -6.314   2.376  63.571  1.00  0.00    -0.014 C  
ENDBRANCH   7  41
ENDBRANCH   2   3
TORSDOF 21
ENDMDL
MODEL      183
REMARK 921   NORMALIZED FREE ENERGY PREDICTED BY IDOCK:   -3.75 KCAL/MOL
REMARK 922        TOTAL FREE ENERGY PREDICTED BY IDOCK:  -11.20 KCAL/MOL
REMARK 923 INTER-LIGAND FREE ENERGY PREDICTED BY IDOCK:   -9.72 KCAL/MOL
REMARK 924 INTRA-LIGAND FREE ENERGY PREDICTED BY IDOCK:   -1.48 KCAL/MOL
REMARK 927      BINDING AFFINITY PREDICTED BY RF-SCORE:    0.00 PKD
ROOT
HETATM    1  C   UNL     1     -11.987  13.703  69.757  1.00  0.00    -0.341 C  
HETATM    2  O   UNL     1     -11.689  15.020  69.300  1.00  0.00    -0.290 OA 
ENDROOT
BRANCH   2   3
HETATM    3  C   UNL     1     -11.145  15.131  68.044  1.00  0.00    -0.308 A  
HETATM    4  C   UNL     1     -11.826  14.625  66.930  1.00  0.00    -0.345 A  
HETATM    5  C   UNL     1     -11.296  14.726  65.643  1.00  0.00    -0.343 A  
HETATM    6  C   UNL     1     -10.067  15.351  65.463  1.00  0.00    -0.405 A  
HETATM    7  C   UNL     1      -9.913  15.803  67.868  1.00  0.00    -0.227 A  
HETATM    8  C   UNL     1      -9.374  15.897  66.559  1.00  0.00    -0.277 A  
BRANCH   5   9
HETATM    9  C   UNL     1     -12.101  14.140  64.542  1.00  0.00    -0.468 C  
HETATM   10  O   UNL     1     -12.889  14.803  63.883  1.00  0.00    -0.694 OA 
BRANCH   9  11
HETATM   11  O   UNL     1     -11.879  12.810  64.404  1.00  0.00    -0.342 OA 
BRANCH  11  12
HETATM   12  C   UNL     1     -10.536  12.475  64.011  1.00  0.00    -0.422 C  
BRANCH  12  13
HETATM   13  C   UNL     1     -10.381  10.958  63.961  1.00  0.00    -0.417 C  
BRANCH  13  14
HETATM   14  C   UNL     1      -9.360  10.528  62.907  1.00  0.00    -0.326 C  
BRANCH  14  15
HETATM   15  N   UNL     1      -8.329   9.607  63.428  1.00  0.00    -0.156 NA 
HETATM   16  C   UNL     1      -6.978  10.052  63.061  1.00  0.00    -0.130 C  
BRANCH  15  17
HETATM   17  C   UNL     1      -8.489   9.497  64.903  1.00  0.00    -0.158 C  
BRANCH  17  18
HETATM   18  C   UNL     1      -8.367   8.054  65.447  1.00  0.00    -0.153 C  
BRANCH  18  19
HETATM   19  N   UNL     1      -7.373   7.844  66.526  1.00  0.00    -0.086 NA 
HETATM   20  C   UNL     1      -6.570   6.642  66.277  1.00  0.00    -0.044 C  
BRANCH  19  21
HETATM   21  C   UNL     1      -6.475   9.014  66.642  1.00  0.00    -0.067 C  
BRANCH  21  22
HETATM   22  C   UNL     1      -6.394   9.581  68.063  1.00  0.00    -0.057 C  
BRANCH  22  23
HETATM   23  C   UNL     1      -7.712   9.424  68.811  1.00  0.00    -0.080 C  
BRANCH  23  24
HETATM   24  O   UNL     1      -7.648  10.142  70.054  1.00  0.00    -0.163 OA 
BRANCH  24  25
HETATM   25  C   UNL     1      -7.199   9.431  71.120  1.00  0.00     0.026 C  
HETATM   26  O   UNL     1      -6.172   9.642  71.744  1.00  0.00    -0.289 OA 
BRANCH  25  27
HETATM   27  C   UNL     1      -8.155   8.343  71.456  1.00  0.00    -0.172 A  
HETATM   28  C   UNL     1      -7.720   7.023  71.324  1.00  0.00    -0.091 A  
HETATM   29  C   UNL     1      -8.594   5.967  71.585  1.00  0.00    -0.132 A  
HETATM   30  C   UNL     1      -9.932   6.228  71.970  1.00  0.00    -0.168 A  
HETATM   31  C   UNL     1      -9.462   8.607  71.877  1.00  0.00    -0.369 A  
HETATM   32  C   UNL     1     -10.366   7.564  72.126  1.00  0.00    -0.210 A  
BRANCH  29  33
HETATM   33  O   UNL     1      -8.229   4.647  71.438  1.00  0.00    -0.097 OA 
HETATM   34  C   UNL     1      -6.992   4.263  72.030  1.00  0.00    -0.046 C  
ENDBRANCH  29  33
BRANCH  30  35
HETATM   35  O   UNL     1     -10.719   5.108  72.100  1.00  0.00    -0.219 OA 
HETATM   36  C   UNL     1     -11.291   4.827  73.370  1.00  0.00    -0.312 C  
ENDBRANCH  30  35
BRANCH  32  37
HETATM   37  O   UNL     1     -11.667   7.793  72.488  1.00  0.00    -0.344 OA 
HETATM   38  C   UNL     1     -12.591   8.184  71.479  1.00  0.00    -0.304 C  
ENDBRANCH  32  37
ENDBRANCH  25  27
ENDBRANCH  24  25
ENDBRANCH  23  24
ENDBRANCH  22  23
ENDBRANCH  21  22
ENDBRANCH  19  21
ENDBRANCH  18  19
ENDBRANCH  17  18
ENDBRANCH  15  17
ENDBRANCH  14  15
ENDBRANCH  13  14
ENDBRANCH  12  13
ENDBRANCH  11  12
ENDBRANCH   9  11
ENDBRANCH   5   9
BRANCH   8  39
HETATM   39  O   UNL     1      -8.195  16.479  66.155  1.00  0.00    -0.321 OA 
HETATM   40  C   UNL     1      -8.091  17.892  66.090  1.00  0.00    -0.173 C  
ENDBRANCH   8  39
BRANCH   7  41
HETATM   41  O   UNL     1      -9.168  16.372  68.867  1.00  0.00    -0.241 OA 
HETATM   42  C   UNL     1      -9.321  17.741  69.203  1.00  0.00     0.040 C  
ENDBRANCH   7  41
ENDBRANCH   2   3
TORSDOF 21
ENDMDL
MODEL      184
REMARK 921   NORMALIZED FREE ENERGY PREDICTED BY IDOCK:   -3.74 KCAL/MOL
REMARK 922        TOTAL FREE ENERGY PREDICTED BY IDOCK:  -11.19 KCAL/MOL
REMARK 923 INTER-LIGAND FREE ENERGY PREDICTED BY IDOCK:   -9.73 KCAL/MOL
REMARK 924 INTRA-LIGAND FREE ENERGY PREDICTED BY IDOCK:   -1.45 KCAL/MOL
REMARK 927      BINDING AFFINITY PREDICTED BY RF-SCORE:    0.00 PKD
ROOT
HETATM    1  C   UNL     1     -11.761  13.232  69.448  1.00  0.00    -0.325 C  
HETATM    2  O   UNL     1     -11.872  14.591  69.030  1.00  0.00    -0.299 OA 
ENDROOT
BRANCH   2   3
HETATM    3  C   UNL     1     -11.391  14.895  67.780  1.00  0.00    -0.329 A  
HETATM    4  C   UNL     1     -11.928  14.277  66.645  1.00  0.00    -0.454 A  
HETATM    5  C   UNL     1     -11.458  14.568  65.363  1.00  0.00    -0.348 A  
HETATM    6  C   UNL     1     -10.438  15.500  65.212  1.00  0.00    -0.437 A  
HETATM    7  C   UNL     1     -10.380  15.873  67.635  1.00  0.00    -0.281 A  
HETATM    8  C   UNL     1      -9.900  16.162  66.332  1.00  0.00    -0.284 A  
BRANCH   5   9
HETATM    9  C   UNL     1     -12.093  13.840  64.237  1.00  0.00    -0.440 C  
HETATM   10  O   UNL     1     -12.771  14.406  63.391  1.00  0.00    -0.689 OA 
BRANCH   9  11
HETATM   11  O   UNL     1     -11.861  12.505  64.300  1.00  0.00    -0.347 OA 
BRANCH  11  12
HETATM   12  C   UNL     1     -10.466  12.151  64.309  1.00  0.00    -0.339 C  
BRANCH  12  13
HETATM   13  C   UNL     1     -10.317  10.656  64.042  1.00  0.00    -0.262 C  
BRANCH  13  14
HETATM   14  C   UNL     1      -9.173  10.367  63.069  1.00  0.00    -0.295 C  
BRANCH  14  15
HETATM   15  N   UNL     1      -8.205   9.373  63.578  1.00  0.00    -0.157 NA 
HETATM   16  C   UNL     1      -6.841   9.917  63.600  1.00  0.00    -0.124 C  
BRANCH  15  17
HETATM   17  C   UNL     1      -8.641   8.932  64.931  1.00  0.00    -0.172 C  
BRANCH  17  18
HETATM   18  C   UNL     1      -7.490   8.800  65.956  1.00  0.00    -0.089 C  
BRANCH  18  19
HETATM   19  N   UNL     1      -7.626   9.597  67.197  1.00  0.00    -0.091 NA 
HETATM   20  C   UNL     1      -6.474  10.485  67.384  1.00  0.00    -0.062 C  
BRANCH  19  21
HETATM   21  C   UNL     1      -8.865  10.406  67.164  1.00  0.00    -0.136 C  
BRANCH  21  22
HETATM   22  C   UNL     1      -9.702  10.290  68.441  1.00  0.00    -0.165 C  
BRANCH  22  23
HETATM   23  C   UNL     1     -10.120   8.851  68.715  1.00  0.00    -0.200 C  
BRANCH  23  24
HETATM   24  O   UNL     1     -11.126   8.830  69.742  1.00  0.00    -0.192 OA 
BRANCH  24  25
HETATM   25  C   UNL     1     -10.695   8.476  70.979  1.00  0.00    -0.228 C  
HETATM   26  O   UNL     1     -11.031   8.992  72.033  1.00  0.00    -0.358 OA 
BRANCH  25  27
HETATM   27  C   UNL     1      -9.750   7.332  70.891  1.00  0.00    -0.170 A  
HETATM   28  C   UNL     1     -10.256   6.046  71.087  1.00  0.00    -0.257 A  
HETATM   29  C   UNL     1      -9.402   4.943  71.058  1.00  0.00    -0.153 A  
HETATM   30  C   UNL     1      -8.013   5.124  70.848  1.00  0.00    -0.097 A  
HETATM   31  C   UNL     1      -8.386   7.513  70.640  1.00  0.00    -0.126 A  
HETATM   32  C   UNL     1      -7.503   6.423  70.627  1.00  0.00    -0.087 A  
BRANCH  29  33
HETATM   33  O   UNL     1      -9.841   3.657  71.279  1.00  0.00    -0.179 OA 
HETATM   34  C   UNL     1     -10.464   3.407  72.535  1.00  0.00    -0.060 C  
ENDBRANCH  29  33
BRANCH  30  35
HETATM   35  O   UNL     1      -7.265   3.974  70.942  1.00  0.00    -0.036 OA 
HETATM   36  C   UNL     1      -6.711   3.428  69.753  1.00  0.00    -0.034 C  
ENDBRANCH  30  35
BRANCH  32  37
HETATM   37  O   UNL     1      -6.155   6.576  70.437  1.00  0.00    -0.029 OA 
HETATM   38  C   UNL     1      -5.712   7.452  69.407  1.00  0.00    -0.023 C  
ENDBRANCH  32  37
ENDBRANCH  25  27
ENDBRANCH  24  25
ENDBRANCH  23  24
ENDBRANCH  22  23
ENDBRANCH  21  22
ENDBRANCH  19  21
ENDBRANCH  18  19
ENDBRANCH  17  18
ENDBRANCH  15  17
ENDBRANCH  14  15
ENDBRANCH  13  14
ENDBRANCH  12  13
ENDBRANCH  11  12
ENDBRANCH   9  11
ENDBRANCH   5   9
BRANCH   8  39
HETATM   39  O   UNL     1      -8.919  17.049  65.955  1.00  0.00    -0.517 OA 
HETATM   40  C   UNL     1      -7.588  16.869  66.414  1.00  0.00    -0.304 C  
ENDBRANCH   8  39
BRANCH   7  41
HETATM   41  O   UNL     1      -9.799  16.574  68.658  1.00  0.00    -0.230 OA 
HETATM   42  C   UNL     1     -10.192  17.905  68.947  1.00  0.00    -0.330 C  
ENDBRANCH   7  41
ENDBRANCH   2   3
TORSDOF 21
ENDMDL
MODEL      185
REMARK 921   NORMALIZED FREE ENERGY PREDICTED BY IDOCK:   -3.73 KCAL/MOL
REMARK 922        TOTAL FREE ENERGY PREDICTED BY IDOCK:  -11.17 KCAL/MOL
REMARK 923 INTER-LIGAND FREE ENERGY PREDICTED BY IDOCK:   -8.21 KCAL/MOL
REMARK 924 INTRA-LIGAND FREE ENERGY PREDICTED BY IDOCK:   -2.96 KCAL/MOL
REMARK 927      BINDING AFFINITY PREDICTED BY RF-SCORE:    0.00 PKD
ROOT
HETATM    1  C   UNL     1     -14.384   8.851  72.473  1.00  0.00    -0.224 C  
HETATM    2  O   UNL     1     -13.401   8.078  71.788  1.00  0.00    -0.336 OA 
ENDROOT
BRANCH   2   3
HETATM    3  C   UNL     1     -12.304   8.752  71.312  1.00  0.00    -0.270 A  
HETATM    4  C   UNL     1     -12.457   9.791  70.385  1.00  0.00    -0.031 A  
HETATM    5  C   UNL     1     -11.359  10.493  69.886  1.00  0.00    -0.380 A  
HETATM    6  C   UNL     1     -10.084  10.157  70.327  1.00  0.00    -0.131 A  
HETATM    7  C   UNL     1     -11.015   8.429  71.796  1.00  0.00    -0.291 A  
HETATM    8  C   UNL     1      -9.901   9.139  71.281  1.00  0.00    -0.293 A  
BRANCH   5   9
HETATM    9  C   UNL     1     -11.643  11.562  68.898  1.00  0.00    -0.320 C  
HETATM   10  O   UNL     1     -12.329  11.371  67.905  1.00  0.00    -0.380 OA 
BRANCH   9  11
HETATM   11  O   UNL     1     -11.023  12.726  69.217  1.00  0.00    -0.184 OA 
BRANCH  11  12
HETATM   12  C   UNL     1     -11.787  13.904  68.904  1.00  0.00    -0.358 C  
BRANCH  12  13
HETATM   13  C   UNL     1     -12.096  14.669  70.188  1.00  0.00    -0.385 C  
BRANCH  13  14
HETATM   14  C   UNL     1     -10.941  15.586  70.590  1.00  0.00    -0.342 C  
BRANCH  14  15
HETATM   15  N   UNL     1     -10.119  16.033  69.446  1.00  0.00    -0.256 NA 
HETATM   16  C   UNL     1     -10.454  17.407  69.049  1.00  0.00    -0.285 C  
BRANCH  15  17
HETATM   17  C   UNL     1      -8.682  15.903  69.811  1.00  0.00     0.198 C  
BRANCH  17  18
HETATM   18  C   UNL     1      -8.091  14.494  69.567  1.00  0.00     0.188 C  
BRANCH  18  19
HETATM   19  N   UNL     1      -6.613  14.397  69.565  1.00  0.00    -0.133 NA 
HETATM   20  C   UNL     1      -6.118  13.848  70.831  1.00  0.00    -0.098 C  
BRANCH  19  21
HETATM   21  C   UNL     1      -6.149  13.543  68.449  1.00  0.00    -0.094 C  
BRANCH  21  22
HETATM   22  C   UNL     1      -6.049  12.059  68.819  1.00  0.00    -0.059 C  
BRANCH  22  23
HETATM   23  C   UNL     1      -6.548  11.160  67.695  1.00  0.00    -0.070 C  
BRANCH  23  24
HETATM   24  O   UNL     1      -7.984  11.208  67.644  1.00  0.00    -0.112 OA 
BRANCH  24  25
HETATM   25  C   UNL     1      -8.535  10.983  66.424  1.00  0.00    -0.164 C  
HETATM   26  O   UNL     1      -8.399   9.977  65.748  1.00  0.00    -0.124 OA 
BRANCH  25  27
HETATM   27  C   UNL     1      -9.371  12.142  66.011  1.00  0.00    -0.174 A  
HETATM   28  C   UNL     1      -8.986  13.414  66.436  1.00  0.00     0.015 A  
HETATM   29  C   UNL     1      -9.762  14.527  66.112  1.00  0.00    -0.316 A  
HETATM   30  C   UNL     1     -10.955  14.371  65.364  1.00  0.00    -0.339 A  
HETATM   31  C   UNL     1     -10.525  11.985  65.236  1.00  0.00    -0.323 A  
HETATM   32  C   UNL     1     -11.333  13.086  64.914  1.00  0.00    -0.303 A  
BRANCH  29  33
HETATM   33  O   UNL     1      -9.448  15.800  66.534  1.00  0.00    -0.234 OA 
HETATM   34  C   UNL     1      -8.203  16.326  66.085  1.00  0.00    -0.169 C  
ENDBRANCH  29  33
BRANCH  30  35
HETATM   35  O   UNL     1     -11.681  15.526  65.196  1.00  0.00    -0.128 OA 
HETATM   36  C   UNL     1     -11.979  15.952  63.874  1.00  0.00     0.446 C  
ENDBRANCH  30  35
BRANCH  32  37
HETATM   37  O   UNL     1     -12.496  12.956  64.202  1.00  0.00    -0.557 OA 
HETATM   38  C   UNL     1     -12.680  11.785  63.414  1.00  0.00    -0.267 C  
ENDBRANCH  32  37
ENDBRANCH  25  27
ENDBRANCH  24  25
ENDBRANCH  23  24
ENDBRANCH  22  23
ENDBRANCH  21  22
ENDBRANCH  19  21
ENDBRANCH  18  19
ENDBRANCH  17  18
ENDBRANCH  15  17
ENDBRANCH  14  15
ENDBRANCH  13  14
ENDBRANCH  12  13
ENDBRANCH  11  12
ENDBRANCH   9  11
ENDBRANCH   5   9
BRANCH   8  39
HETATM   39  O   UNL     1      -8.568   8.984  71.585  1.00  0.00    -0.333 OA 
HETATM   40  C   UNL     1      -7.586   9.199  70.584  1.00  0.00    -0.133 C  
ENDBRANCH   8  39
BRANCH   7  41
HETATM   41  O   UNL     1     -10.735   7.462  72.725  1.00  0.00    -0.256 OA 
HETATM   42  C   UNL     1     -10.560   6.109  72.342  1.00  0.00    -0.210 C  
ENDBRANCH   7  41
ENDBRANCH   2   3
TORSDOF 21
ENDMDL
MODEL      186
REMARK 921   NORMALIZED FREE ENERGY PREDICTED BY IDOCK:   -3.73 KCAL/MOL
REMARK 922        TOTAL FREE ENERGY PREDICTED BY IDOCK:  -11.16 KCAL/MOL
REMARK 923 INTER-LIGAND FREE ENERGY PREDICTED BY IDOCK:   -8.48 KCAL/MOL
REMARK 924 INTRA-LIGAND FREE ENERGY PREDICTED BY IDOCK:   -2.69 KCAL/MOL
REMARK 927      BINDING AFFINITY PREDICTED BY RF-SCORE:    0.00 PKD
ROOT
HETATM    1  C   UNL     1     -12.113  14.676  64.289  1.00  0.00    -0.415 C  
HETATM    2  O   UNL     1     -11.279  15.469  65.131  1.00  0.00    -0.358 OA 
ENDROOT
BRANCH   2   3
HETATM    3  C   UNL     1     -10.778  14.862  66.256  1.00  0.00    -0.320 A  
HETATM    4  C   UNL     1     -10.219  13.580  66.179  1.00  0.00    -0.303 A  
HETATM    5  C   UNL     1      -9.702  12.940  67.306  1.00  0.00    -0.220 A  
HETATM    6  C   UNL     1      -9.736  13.595  68.532  1.00  0.00    -0.184 A  
HETATM    7  C   UNL     1     -10.782  15.552  67.490  1.00  0.00    -0.300 A  
HETATM    8  C   UNL     1     -10.263  14.896  68.635  1.00  0.00    -0.236 A  
BRANCH   5   9
HETATM    9  C   UNL     1      -9.149  11.578  67.107  1.00  0.00    -0.167 C  
HETATM   10  O   UNL     1      -8.380  11.311  66.195  1.00  0.00    -0.167 OA 
BRANCH   9  11
HETATM   11  O   UNL     1      -9.632  10.695  68.016  1.00  0.00    -0.153 OA 
BRANCH  11  12
HETATM   12  C   UNL     1     -10.567   9.744  67.473  1.00  0.00    -0.275 C  
BRANCH  12  13
HETATM   13  C   UNL     1     -10.178   8.336  67.914  1.00  0.00    -0.276 C  
BRANCH  13  14
HETATM   14  C   UNL     1     -10.781   7.271  66.999  1.00  0.00    -0.336 C  
BRANCH  14  15
HETATM   15  N   UNL     1      -9.884   6.118  66.769  1.00  0.00    -0.157 NA 
HETATM   16  C   UNL     1     -10.603   4.993  66.156  1.00  0.00    -0.265 C  
BRANCH  15  17
HETATM   17  C   UNL     1      -8.742   6.563  65.925  1.00  0.00    -0.141 C  
BRANCH  17  18
HETATM   18  C   UNL     1      -8.244   5.498  64.920  1.00  0.00    -0.136 C  
BRANCH  18  19
HETATM   19  N   UNL     1      -6.775   5.347  64.802  1.00  0.00    -0.046 NA 
HETATM   20  C   UNL     1      -6.084   6.578  65.197  1.00  0.00    -0.034 C  
BRANCH  19  21
HETATM   21  C   UNL     1      -6.297   4.228  65.645  1.00  0.00    -0.036 C  
BRANCH  21  22
HETATM   22  C   UNL     1      -7.375   3.177  65.929  1.00  0.00    -0.072 C  
BRANCH  22  23
HETATM   23  C   UNL     1      -7.340   2.708  67.378  1.00  0.00    -0.057 C  
BRANCH  23  24
HETATM   24  O   UNL     1      -7.704   3.796  68.245  1.00  0.00    -0.064 OA 
BRANCH  24  25
HETATM   25  C   UNL     1      -8.844   3.621  68.960  1.00  0.00    -0.103 C  
HETATM   26  O   UNL     1      -9.554   2.628  68.949  1.00  0.00    -0.140 OA 
BRANCH  25  27
HETATM   27  C   UNL     1      -9.116   4.815  69.802  1.00  0.00    -0.159 A  
HETATM   28  C   UNL     1      -8.098   5.757  69.955  1.00  0.00    -0.108 A  
HETATM   29  C   UNL     1      -8.290   6.872  70.772  1.00  0.00    -0.127 A  
HETATM   30  C   UNL     1      -9.513   7.047  71.463  1.00  0.00    -0.154 A  
HETATM   31  C   UNL     1     -10.343   5.004  70.448  1.00  0.00    -0.297 A  
HETATM   32  C   UNL     1     -10.554   6.105  71.291  1.00  0.00    -0.243 A  
BRANCH  29  33
HETATM   33  O   UNL     1      -7.308   7.814  70.985  1.00  0.00    -0.069 OA 
HETATM   34  C   UNL     1      -6.802   8.475  69.829  1.00  0.00    -0.043 C  
ENDBRANCH  29  33
BRANCH  30  35
HETATM   35  O   UNL     1      -9.543   8.128  72.311  1.00  0.00    -0.200 OA 
HETATM   36  C   UNL     1      -9.286   7.912  73.692  1.00  0.00    -0.255 C  
ENDBRANCH  30  35
BRANCH  32  37
HETATM   37  O   UNL     1     -11.724   6.288  71.977  1.00  0.00    -0.308 OA 
HETATM   38  C   UNL     1     -12.737   7.094  71.386  1.00  0.00    -0.391 C  
ENDBRANCH  32  37
ENDBRANCH  25  27
ENDBRANCH  24  25
ENDBRANCH  23  24
ENDBRANCH  22  23
ENDBRANCH  21  22
ENDBRANCH  19  21
ENDBRANCH  18  19
ENDBRANCH  17  18
ENDBRANCH  15  17
ENDBRANCH  14  15
ENDBRANCH  13  14
ENDBRANCH  12  13
ENDBRANCH  11  12
ENDBRANCH   9  11
ENDBRANCH   5   9
BRANCH   8  39
HETATM   39  O   UNL     1     -10.183  15.358  69.928  1.00  0.00    -0.282 OA 
HETATM   40  C   UNL     1     -11.307  15.249  70.787  1.00  0.00    -0.331 C  
ENDBRANCH   8  39
BRANCH   7  41
HETATM   41  O   UNL     1     -11.264  16.819  67.690  1.00  0.00    -0.159 OA 
HETATM   42  C   UNL     1     -10.430  17.953  67.522  1.00  0.00    -0.390 C  
ENDBRANCH   7  41
ENDBRANCH   2   3
TORSDOF 21
ENDMDL
MODEL      187
REMARK 921   NORMALIZED FREE ENERGY PREDICTED BY IDOCK:   -3.68 KCAL/MOL
REMARK 922        TOTAL FREE ENERGY PREDICTED BY IDOCK:  -11.06 KCAL/MOL
REMARK 923 INTER-LIGAND FREE ENERGY PREDICTED BY IDOCK:   -9.87 KCAL/MOL
REMARK 924 INTRA-LIGAND FREE ENERGY PREDICTED BY IDOCK:   -1.20 KCAL/MOL
REMARK 927      BINDING AFFINITY PREDICTED BY RF-SCORE:    0.00 PKD
ROOT
HETATM    1  C   UNL     1     -10.717   3.532  73.807  1.00  0.00    -0.220 C  
HETATM    2  O   UNL     1     -11.115   4.817  73.333  1.00  0.00    -0.294 OA 
ENDROOT
BRANCH   2   3
HETATM    3  C   UNL     1     -10.768   5.136  72.043  1.00  0.00    -0.169 A  
HETATM    4  C   UNL     1      -9.935   4.288  71.303  1.00  0.00    -0.230 A  
HETATM    5  C   UNL     1      -9.568   4.588  69.991  1.00  0.00    -0.267 A  
HETATM    6  C   UNL     1     -10.048   5.753  69.403  1.00  0.00    -0.277 A  
HETATM    7  C   UNL     1     -11.294   6.303  71.442  1.00  0.00    -0.296 A  
HETATM    8  C   UNL     1     -10.913   6.609  70.111  1.00  0.00    -0.305 A  
BRANCH   5   9
HETATM    9  C   UNL     1      -8.669   3.623  69.311  1.00  0.00    -0.083 C  
HETATM   10  O   UNL     1      -8.414   2.524  69.781  1.00  0.00    -0.044 OA 
BRANCH   9  11
HETATM   11  O   UNL     1      -8.156   4.129  68.162  1.00  0.00    -0.084 OA 
BRANCH  11  12
HETATM   12  C   UNL     1      -8.773   3.615  66.967  1.00  0.00    -0.116 C  
BRANCH  12  13
HETATM   13  C   UNL     1      -8.531   4.582  65.811  1.00  0.00    -0.115 C  
BRANCH  13  14
HETATM   14  C   UNL     1      -8.855   6.024  66.203  1.00  0.00    -0.148 C  
BRANCH  14  15
HETATM   15  N   UNL     1      -7.653   6.850  66.446  1.00  0.00    -0.087 NA 
HETATM   16  C   UNL     1      -6.699   6.750  65.334  1.00  0.00    -0.051 C  
BRANCH  15  17
HETATM   17  C   UNL     1      -8.081   8.256  66.676  1.00  0.00    -0.102 C  
BRANCH  17  18
HETATM   18  C   UNL     1      -9.032   8.815  65.591  1.00  0.00    -0.200 C  
BRANCH  18  19
HETATM   19  N   UNL     1      -8.643  10.111  64.986  1.00  0.00    -0.158 NA 
HETATM   20  C   UNL     1      -7.858   9.909  63.764  1.00  0.00    -0.147 C  
BRANCH  19  21
HETATM   21  C   UNL     1      -9.843  10.917  64.667  1.00  0.00    -0.294 C  
BRANCH  21  22
HETATM   22  C   UNL     1     -10.581  11.428  65.909  1.00  0.00    -0.317 C  
BRANCH  22  23
HETATM   23  C   UNL     1     -11.885  12.126  65.545  1.00  0.00    -0.286 C  
BRANCH  23  24
HETATM   24  O   UNL     1     -12.001  13.348  66.293  1.00  0.00    -0.372 OA 
BRANCH  24  25
HETATM   25  C   UNL     1     -11.715  14.484  65.608  1.00  0.00    -0.335 C  
HETATM   26  O   UNL     1     -12.017  14.722  64.450  1.00  0.00    -0.451 OA 
BRANCH  25  27
HETATM   27  C   UNL     1     -10.984  15.443  66.478  1.00  0.00    -0.271 A  
HETATM   28  C   UNL     1     -11.372  15.546  67.815  1.00  0.00    -0.286 A  
HETATM   29  C   UNL     1     -10.748  16.463  68.660  1.00  0.00    -0.317 A  
HETATM   30  C   UNL     1      -9.726  17.308  68.162  1.00  0.00    -0.284 A  
HETATM   31  C   UNL     1      -9.946  16.245  65.991  1.00  0.00    -0.370 A  
HETATM   32  C   UNL     1      -9.316  17.190  66.814  1.00  0.00    -0.254 A  
BRANCH  29  33
HETATM   33  O   UNL     1     -11.114  16.630  69.976  1.00  0.00    -0.312 OA 
HETATM   34  C   UNL     1     -11.102  15.460  70.790  1.00  0.00    -0.336 C  
ENDBRANCH  29  33
BRANCH  30  35
HETATM   35  O   UNL     1      -9.259  18.236  69.063  1.00  0.00    -0.205 OA 
HETATM   36  C   UNL     1      -9.841  19.532  69.063  1.00  0.00    -0.418 C  
ENDBRANCH  30  35
BRANCH  32  37
HETATM   37  O   UNL     1      -8.334  18.025  66.351  1.00  0.00    -0.279 OA 
HETATM   38  C   UNL     1      -8.676  19.373  66.054  1.00  0.00    -0.165 C  
ENDBRANCH  32  37
ENDBRANCH  25  27
ENDBRANCH  24  25
ENDBRANCH  23  24
ENDBRANCH  22  23
ENDBRANCH  21  22
ENDBRANCH  19  21
ENDBRANCH  18  19
ENDBRANCH  17  18
ENDBRANCH  15  17
ENDBRANCH  14  15
ENDBRANCH  13  14
ENDBRANCH  12  13
ENDBRANCH  11  12
ENDBRANCH   9  11
ENDBRANCH   5   9
BRANCH   8  39
HETATM   39  O   UNL     1     -11.278   7.687  69.339  1.00  0.00    -0.047 OA 
HETATM   40  C   UNL     1     -10.413   8.808  69.237  1.00  0.00    -0.219 C  
ENDBRANCH   8  39
BRANCH   7  41
HETATM   41  O   UNL     1     -12.144   7.193  72.043  1.00  0.00    -0.299 OA 
HETATM   42  C   UNL     1     -11.680   8.452  72.499  1.00  0.00    -0.359 C  
ENDBRANCH   7  41
ENDBRANCH   2   3
TORSDOF 21
ENDMDL
MODEL      188
REMARK 921   NORMALIZED FREE ENERGY PREDICTED BY IDOCK:   -3.68 KCAL/MOL
REMARK 922        TOTAL FREE ENERGY PREDICTED BY IDOCK:  -11.05 KCAL/MOL
REMARK 923 INTER-LIGAND FREE ENERGY PREDICTED BY IDOCK:   -9.12 KCAL/MOL
REMARK 924 INTRA-LIGAND FREE ENERGY PREDICTED BY IDOCK:   -1.93 KCAL/MOL
REMARK 927      BINDING AFFINITY PREDICTED BY RF-SCORE:    0.00 PKD
ROOT
HETATM    1  C   UNL     1     -11.357  15.943  70.535  1.00  0.00    -0.390 C  
HETATM    2  O   UNL     1     -11.419  16.630  69.288  1.00  0.00    -0.142 OA 
ENDROOT
BRANCH   2   3
HETATM    3  C   UNL     1     -10.452  16.324  68.363  1.00  0.00    -0.282 A  
HETATM    4  C   UNL     1     -10.119  14.989  68.101  1.00  0.00    -0.220 A  
HETATM    5  C   UNL     1      -9.140  14.650  67.166  1.00  0.00    -0.236 A  
HETATM    6  C   UNL     1      -8.486  15.662  66.473  1.00  0.00    -0.311 A  
HETATM    7  C   UNL     1      -9.820  17.359  67.636  1.00  0.00    -0.282 A  
HETATM    8  C   UNL     1      -8.821  17.012  66.692  1.00  0.00    -0.254 A  
BRANCH   5   9
HETATM    9  C   UNL     1      -8.863  13.204  66.984  1.00  0.00    -0.210 C  
HETATM   10  O   UNL     1      -7.730  12.744  67.028  1.00  0.00    -0.109 OA 
BRANCH   9  11
HETATM   11  O   UNL     1      -9.992  12.498  66.728  1.00  0.00    -0.220 OA 
BRANCH  11  12
HETATM   12  C   UNL     1     -10.315  12.393  65.329  1.00  0.00    -0.282 C  
BRANCH  12  13
HETATM   13  C   UNL     1     -10.483  10.923  64.953  1.00  0.00    -0.352 C  
BRANCH  13  14
HETATM   14  C   UNL     1      -9.142  10.190  64.927  1.00  0.00    -0.215 C  
BRANCH  14  15
HETATM   15  N   UNL     1      -8.952   9.273  66.071  1.00  0.00    -0.164 NA 
HETATM   16  C   UNL     1     -10.171   9.169  66.883  1.00  0.00    -0.266 C  
BRANCH  15  17
HETATM   17  C   UNL     1      -8.523   7.946  65.553  1.00  0.00    -0.139 C  
BRANCH  17  18
HETATM   18  C   UNL     1      -7.210   7.979  64.735  1.00  0.00    -0.078 C  
BRANCH  18  19
HETATM   19  N   UNL     1      -6.209   6.938  65.065  1.00  0.00    -0.036 NA 
HETATM   20  C   UNL     1      -6.081   6.768  66.516  1.00  0.00    -0.037 C  
BRANCH  19  21
HETATM   21  C   UNL     1      -6.583   5.643  64.454  1.00  0.00    -0.045 C  
BRANCH  21  22
HETATM   22  C   UNL     1      -6.860   4.542  65.482  1.00  0.00    -0.057 C  
BRANCH  22  23
HETATM   23  C   UNL     1      -8.256   3.954  65.320  1.00  0.00    -0.101 C  
BRANCH  23  24
HETATM   24  O   UNL     1      -8.887   3.852  66.607  1.00  0.00    -0.115 OA 
BRANCH  24  25
HETATM   25  C   UNL     1      -9.882   4.744  66.846  1.00  0.00    -0.205 C  
HETATM   26  O   UNL     1     -10.605   5.255  66.007  1.00  0.00    -0.210 OA 
BRANCH  25  27
HETATM   27  C   UNL     1      -9.999   5.012  68.303  1.00  0.00    -0.193 A  
HETATM   28  C   UNL     1     -10.904   5.988  68.721  1.00  0.00    -0.391 A  
HETATM   29  C   UNL     1     -11.019   6.308  70.074  1.00  0.00    -0.358 A  
HETATM   30  C   UNL     1     -10.205   5.654  71.031  1.00  0.00    -0.220 A  
HETATM   31  C   UNL     1      -9.223   4.332  69.248  1.00  0.00    -0.210 A  
HETATM   32  C   UNL     1      -9.304   4.648  70.612  1.00  0.00    -0.154 A  
BRANCH  29  33
HETATM   33  O   UNL     1     -11.870   7.285  70.537  1.00  0.00    -0.276 OA 
HETATM   34  C   UNL     1     -11.306   8.581  70.722  1.00  0.00    -0.266 C  
ENDBRANCH  29  33
BRANCH  30  35
HETATM   35  O   UNL     1     -10.339   6.125  72.315  1.00  0.00    -0.188 OA 
HETATM   36  C   UNL     1     -11.039   5.327  73.260  1.00  0.00    -0.316 C  
ENDBRANCH  30  35
BRANCH  32  37
HETATM   37  O   UNL     1      -8.519   4.037  71.553  1.00  0.00    -0.089 OA 
HETATM   38  C   UNL     1      -7.218   4.560  71.792  1.00  0.00    -0.060 C  
ENDBRANCH  32  37
ENDBRANCH  25  27
ENDBRANCH  24  25
ENDBRANCH  23  24
ENDBRANCH  22  23
ENDBRANCH  21  22
ENDBRANCH  19  21
ENDBRANCH  18  19
ENDBRANCH  17  18
ENDBRANCH  15  17
ENDBRANCH  14  15
ENDBRANCH  13  14
ENDBRANCH  12  13
ENDBRANCH  11  12
ENDBRANCH   9  11
ENDBRANCH   5   9
BRANCH   8  39
HETATM   39  O   UNL     1      -8.067  17.841  65.894  1.00  0.00    -0.527 OA 
HETATM   40  C   UNL     1      -6.658  17.888  66.057  1.00  0.00    -0.281 C  
ENDBRANCH   8  39
BRANCH   7  41
HETATM   41  O   UNL     1     -10.080  18.698  67.771  1.00  0.00    -0.335 OA 
HETATM   42  C   UNL     1     -10.924  19.374  66.855  1.00  0.00    -0.301 C  
ENDBRANCH   7  41
ENDBRANCH   2   3
TORSDOF 21
ENDMDL
MODEL      189
REMARK 921   NORMALIZED FREE ENERGY PREDICTED BY IDOCK:   -3.68 KCAL/MOL
REMARK 922        TOTAL FREE ENERGY PREDICTED BY IDOCK:  -11.05 KCAL/MOL
REMARK 923 INTER-LIGAND FREE ENERGY PREDICTED BY IDOCK:   -8.99 KCAL/MOL
REMARK 924 INTRA-LIGAND FREE ENERGY PREDICTED BY IDOCK:   -2.06 KCAL/MOL
REMARK 927      BINDING AFFINITY PREDICTED BY RF-SCORE:    0.00 PKD
ROOT
HETATM    1  C   UNL     1      -9.941   7.172  66.703  1.00  0.00    -0.164 C  
HETATM    2  O   UNL     1      -8.520   7.071  66.759  1.00  0.00    -0.112 OA 
ENDROOT
BRANCH   2   3
HETATM    3  C   UNL     1      -7.959   6.913  68.002  1.00  0.00    -0.115 A  
HETATM    4  C   UNL     1      -8.270   7.801  69.039  1.00  0.00    -0.126 A  
HETATM    5  C   UNL     1      -7.715   7.662  70.312  1.00  0.00    -0.091 A  
HETATM    6  C   UNL     1      -6.837   6.612  70.557  1.00  0.00    -0.062 A  
HETATM    7  C   UNL     1      -7.098   5.819  68.251  1.00  0.00    -0.074 A  
HETATM    8  C   UNL     1      -6.529   5.685  69.543  1.00  0.00    -0.041 A  
BRANCH   5   9
HETATM    9  C   UNL     1      -8.108   8.672  71.326  1.00  0.00    -0.147 C  
HETATM   10  O   UNL     1      -7.772   9.845  71.245  1.00  0.00    -0.040 OA 
BRANCH   9  11
HETATM   11  O   UNL     1      -8.826   8.123  72.337  1.00  0.00    -0.157 OA 
BRANCH  11  12
HETATM   12  C   UNL     1     -10.221   7.939  72.034  1.00  0.00    -0.211 C  
BRANCH  12  13
HETATM   13  C   UNL     1     -10.900   9.299  71.904  1.00  0.00    -0.248 C  
BRANCH  13  14
HETATM   14  C   UNL     1     -12.113   9.238  70.976  1.00  0.00    -0.280 C  
BRANCH  14  15
HETATM   15  N   UNL     1     -12.195  10.380  70.040  1.00  0.00    -0.231 NA 
HETATM   16  C   UNL     1     -12.451  11.639  70.752  1.00  0.00    -0.330 C  
BRANCH  15  17
HETATM   17  C   UNL     1     -10.935  10.442  69.252  1.00  0.00    -0.242 C  
BRANCH  17  18
HETATM   18  C   UNL     1     -11.145  10.430  67.719  1.00  0.00    -0.299 C  
BRANCH  18  19
HETATM   19  N   UNL     1     -11.017  11.736  67.031  1.00  0.00    -0.269 NA 
HETATM   20  C   UNL     1      -9.620  12.015  66.684  1.00  0.00    -0.216 C  
BRANCH  19  21
HETATM   21  C   UNL     1     -11.839  11.760  65.801  1.00  0.00     0.115 C  
BRANCH  21  22
HETATM   22  C   UNL     1     -11.047  12.144  64.547  1.00  0.00    -0.375 C  
BRANCH  22  23
HETATM   23  C   UNL     1     -11.660  13.344  63.836  1.00  0.00    -0.354 C  
BRANCH  23  24
HETATM   24  O   UNL     1     -12.136  14.288  64.809  1.00  0.00    -0.403 OA 
BRANCH  24  25
HETATM   25  C   UNL     1     -11.505  15.490  64.820  1.00  0.00    -0.313 C  
HETATM   26  O   UNL     1     -11.572  16.344  63.951  1.00  0.00    -1.100 OA 
BRANCH  25  27
HETATM   27  C   UNL     1     -10.717  15.650  66.070  1.00  0.00    -0.322 A  
HETATM   28  C   UNL     1      -9.502  16.333  65.997  1.00  0.00    -0.369 A  
HETATM   29  C   UNL     1      -8.705  16.472  67.134  1.00  0.00    -0.195 A  
HETATM   30  C   UNL     1      -9.116  15.905  68.365  1.00  0.00    -0.189 A  
HETATM   31  C   UNL     1     -11.149  15.125  67.292  1.00  0.00    -0.332 A  
HETATM   32  C   UNL     1     -10.356  15.232  68.445  1.00  0.00    -0.227 A  
BRANCH  29  33
HETATM   33  O   UNL     1      -7.483  17.105  67.112  1.00  0.00    -0.152 OA 
HETATM   34  C   UNL     1      -7.054  17.610  65.850  1.00  0.00    -0.215 C  
ENDBRANCH  29  33
BRANCH  30  35
HETATM   35  O   UNL     1      -8.200  16.021  69.384  1.00  0.00    -0.235 OA 
HETATM   36  C   UNL     1      -7.040  15.202  69.348  1.00  0.00    -0.189 C  
ENDBRANCH  30  35
BRANCH  32  37
HETATM   37  O   UNL     1     -10.728  14.682  69.643  1.00  0.00    -0.225 OA 
HETATM   38  C   UNL     1     -11.213  15.547  70.663  1.00  0.00    -0.347 C  
ENDBRANCH  32  37
ENDBRANCH  25  27
ENDBRANCH  24  25
ENDBRANCH  23  24
ENDBRANCH  22  23
ENDBRANCH  21  22
ENDBRANCH  19  21
ENDBRANCH  18  19
ENDBRANCH  17  18
ENDBRANCH  15  17
ENDBRANCH  14  15
ENDBRANCH  13  14
ENDBRANCH  12  13
ENDBRANCH  11  12
ENDBRANCH   9  11
ENDBRANCH   5   9
BRANCH   8  39
HETATM   39  O   UNL     1      -5.659   4.724  70.004  1.00  0.00    -0.011 OA 
HETATM   40  C   UNL     1      -6.105   3.387  70.167  1.00  0.00    -0.023 C  
ENDBRANCH   8  39
BRANCH   7  41
HETATM   41  O   UNL     1      -6.743   4.863  67.336  1.00  0.00    -0.052 OA 
HETATM   42  C   UNL     1      -5.625   5.047  66.485  1.00  0.00    -0.017 C  
ENDBRANCH   7  41
ENDBRANCH   2   3
TORSDOF 21
ENDMDL
MODEL      190
REMARK 921   NORMALIZED FREE ENERGY PREDICTED BY IDOCK:   -3.67 KCAL/MOL
REMARK 922        TOTAL FREE ENERGY PREDICTED BY IDOCK:  -11.04 KCAL/MOL
REMARK 923 INTER-LIGAND FREE ENERGY PREDICTED BY IDOCK:   -9.03 KCAL/MOL
REMARK 924 INTRA-LIGAND FREE ENERGY PREDICTED BY IDOCK:   -2.01 KCAL/MOL
REMARK 927      BINDING AFFINITY PREDICTED BY RF-SCORE:    0.00 PKD
ROOT
HETATM    1  C   UNL     1     -11.904  15.765  70.098  1.00  0.00    -0.355 C  
HETATM    2  O   UNL     1     -11.870  16.358  68.801  1.00  0.00    -0.201 OA 
ENDROOT
BRANCH   2   3
HETATM    3  C   UNL     1     -10.725  16.173  68.066  1.00  0.00    -0.321 A  
HETATM    4  C   UNL     1     -10.081  14.930  68.059  1.00  0.00    -0.221 A  
HETATM    5  C   UNL     1      -8.917  14.715  67.319  1.00  0.00    -0.216 A  
HETATM    6  C   UNL     1      -8.390  15.759  66.567  1.00  0.00    -0.313 A  
HETATM    7  C   UNL     1     -10.220  17.230  67.273  1.00  0.00    -0.320 A  
HETATM    8  C   UNL     1      -9.033  17.011  66.529  1.00  0.00    -0.269 A  
BRANCH   5   9
HETATM    9  C   UNL     1      -8.314  13.362  67.400  1.00  0.00    -0.190 C  
HETATM   10  O   UNL     1      -7.109  13.188  67.512  1.00  0.00    -0.148 OA 
BRANCH   9  11
HETATM   11  O   UNL     1      -9.247  12.384  67.293  1.00  0.00    -0.176 OA 
BRANCH  11  12
HETATM   12  C   UNL     1      -9.656  12.107  65.941  1.00  0.00    -0.214 C  
BRANCH  12  13
HETATM   13  C   UNL     1      -9.226  10.695  65.556  1.00  0.00    -0.228 C  
BRANCH  13  14
HETATM   14  C   UNL     1      -8.506   9.990  66.706  1.00  0.00    -0.125 C  
BRANCH  14  15
HETATM   15  N   UNL     1      -9.109   8.689  67.067  1.00  0.00    -0.134 NA 
HETATM   16  C   UNL     1     -10.569   8.789  67.185  1.00  0.00    -0.233 C  
BRANCH  15  17
HETATM   17  C   UNL     1      -8.709   7.679  66.050  1.00  0.00    -0.156 C  
BRANCH  17  18
HETATM   18  C   UNL     1      -7.179   7.545  65.858  1.00  0.00    -0.066 C  
BRANCH  18  19
HETATM   19  N   UNL     1      -6.582   6.248  66.255  1.00  0.00    -0.047 NA 
HETATM   20  C   UNL     1      -6.526   6.117  67.714  1.00  0.00    -0.046 C  
BRANCH  19  21
HETATM   21  C   UNL     1      -7.362   5.123  65.694  1.00  0.00    -0.073 C  
BRANCH  21  22
HETATM   22  C   UNL     1      -7.632   4.005  66.706  1.00  0.00    -0.088 C  
BRANCH  22  23
HETATM   23  C   UNL     1      -9.048   3.458  66.582  1.00  0.00    -0.164 C  
BRANCH  23  24
HETATM   24  O   UNL     1      -9.758   3.677  67.813  1.00  0.00    -0.167 OA 
BRANCH  24  25
HETATM   25  C   UNL     1     -10.330   4.900  67.950  1.00  0.00     0.017 C  
HETATM   26  O   UNL     1     -10.901   5.529  67.074  1.00  0.00    -0.249 OA 
BRANCH  25  27
HETATM   27  C   UNL     1     -10.190   5.383  69.349  1.00  0.00    -0.334 A  
HETATM   28  C   UNL     1      -9.005   5.098  70.028  1.00  0.00    -0.153 A  
HETATM   29  C   UNL     1      -8.844   5.491  71.356  1.00  0.00    -0.136 A  
HETATM   30  C   UNL     1      -9.890   6.168  72.030  1.00  0.00    -0.155 A  
HETATM   31  C   UNL     1     -11.211   6.089  69.995  1.00  0.00    -0.425 A  
HETATM   32  C   UNL     1     -11.082   6.478  71.337  1.00  0.00    -0.268 A  
BRANCH  29  33
HETATM   33  O   UNL     1      -7.710   5.206  72.084  1.00  0.00    -0.095 OA 
HETATM   34  C   UNL     1      -7.350   3.832  72.182  1.00  0.00    -0.056 C  
ENDBRANCH  29  33
BRANCH  30  35
HETATM   35  O   UNL     1      -9.650   6.413  73.362  1.00  0.00    -0.145 OA 
HETATM   36  C   UNL     1      -9.213   7.710  73.744  1.00  0.00    -0.277 C  
ENDBRANCH  30  35
BRANCH  32  37
HETATM   37  O   UNL     1     -12.084   7.123  72.011  1.00  0.00    -0.299 OA 
HETATM   38  C   UNL     1     -13.342   7.282  71.365  1.00  0.00    -0.331 C  
ENDBRANCH  32  37
ENDBRANCH  25  27
ENDBRANCH  24  25
ENDBRANCH  23  24
ENDBRANCH  22  23
ENDBRANCH  21  22
ENDBRANCH  19  21
ENDBRANCH  18  19
ENDBRANCH  17  18
ENDBRANCH  15  17
ENDBRANCH  14  15
ENDBRANCH  13  14
ENDBRANCH  12  13
ENDBRANCH  11  12
ENDBRANCH   9  11
ENDBRANCH   5   9
BRANCH   8  39
HETATM   39  O   UNL     1      -8.355  17.888  65.715  1.00  0.00    -0.521 OA 
HETATM   40  C   UNL     1      -6.984  18.162  65.959  1.00  0.00    -0.292 C  
ENDBRANCH   8  39
BRANCH   7  41
HETATM   41  O   UNL     1     -10.775  18.478  67.166  1.00  0.00    -0.409 OA 
HETATM   42  C   UNL     1     -10.238  19.579  67.879  1.00  0.00    -0.431 C  
ENDBRANCH   7  41
ENDBRANCH   2   3
TORSDOF 21
ENDMDL
MODEL      191
REMARK 921   NORMALIZED FREE ENERGY PREDICTED BY IDOCK:   -3.67 KCAL/MOL
REMARK 922        TOTAL FREE ENERGY PREDICTED BY IDOCK:  -11.03 KCAL/MOL
REMARK 923 INTER-LIGAND FREE ENERGY PREDICTED BY IDOCK:   -8.96 KCAL/MOL
REMARK 924 INTRA-LIGAND FREE ENERGY PREDICTED BY IDOCK:   -2.07 KCAL/MOL
REMARK 927      BINDING AFFINITY PREDICTED BY RF-SCORE:    0.00 PKD
ROOT
HETATM    1  C   UNL     1     -10.656   3.593  63.699  1.00  0.00    -0.272 C  
HETATM    2  O   UNL     1      -9.828   3.234  64.803  1.00  0.00    -0.155 OA 
ENDROOT
BRANCH   2   3
HETATM    3  C   UNL     1      -9.358   4.260  65.584  1.00  0.00    -0.161 A  
HETATM    4  C   UNL     1     -10.116   4.735  66.662  1.00  0.00    -0.276 A  
HETATM    5  C   UNL     1      -9.661   5.776  67.472  1.00  0.00    -0.128 A  
HETATM    6  C   UNL     1      -8.423   6.350  67.207  1.00  0.00    -0.111 A  
HETATM    7  C   UNL     1      -8.080   4.810  65.329  1.00  0.00    -0.105 A  
HETATM    8  C   UNL     1      -7.624   5.873  66.150  1.00  0.00    -0.090 A  
BRANCH   5   9
HETATM    9  C   UNL     1     -10.556   6.204  68.575  1.00  0.00    -0.271 C  
HETATM   10  O   UNL     1     -11.738   6.464  68.396  1.00  0.00     0.146 OA 
BRANCH   9  11
HETATM   11  O   UNL     1      -9.896   6.306  69.755  1.00  0.00    -0.161 OA 
BRANCH  11  12
HETATM   12  C   UNL     1     -10.364   5.399  70.770  1.00  0.00    -0.251 C  
BRANCH  12  13
HETATM   13  C   UNL     1     -11.205   6.163  71.790  1.00  0.00    -0.338 C  
BRANCH  13  14
HETATM   14  C   UNL     1     -10.906   7.662  71.758  1.00  0.00    -0.229 C  
BRANCH  14  15
HETATM   15  N   UNL     1     -12.076   8.486  71.386  1.00  0.00    -0.297 NA 
HETATM   16  C   UNL     1     -13.037   8.582  72.493  1.00  0.00    -0.238 C  
BRANCH  15  17
HETATM   17  C   UNL     1     -11.598   9.828  70.957  1.00  0.00    -0.376 C  
BRANCH  17  18
HETATM   18  C   UNL     1     -10.534   9.791  69.834  1.00  0.00    -0.261 C  
BRANCH  18  19
HETATM   19  N   UNL     1     -11.028  10.023  68.457  1.00  0.00    -0.228 NA 
HETATM   20  C   UNL     1     -11.830  11.249  68.383  1.00  0.00    -0.261 C  
BRANCH  19  21
HETATM   21  C   UNL     1      -9.898  10.121  67.507  1.00  0.00    -0.177 C  
BRANCH  21  22
HETATM   22  C   UNL     1      -9.583  11.559  67.083  1.00  0.00    -0.189 C  
BRANCH  22  23
HETATM   23  C   UNL     1      -8.134  11.930  67.371  1.00  0.00    -0.165 C  
BRANCH  23  24
HETATM   24  O   UNL     1      -7.897  13.291  66.971  1.00  0.00    -0.088 OA 
BRANCH  24  25
HETATM   25  C   UNL     1      -7.810  14.192  67.982  1.00  0.00    -0.146 C  
HETATM   26  O   UNL     1      -7.170  14.058  69.012  1.00  0.00    -0.110 OA 
BRANCH  25  27
HETATM   27  C   UNL     1      -8.596  15.412  67.658  1.00  0.00    -0.176 A  
HETATM   28  C   UNL     1      -9.335  15.422  66.474  1.00  0.00    -0.311 A  
HETATM   29  C   UNL     1     -10.054  16.559  66.104  1.00  0.00    -0.348 A  
HETATM   30  C   UNL     1     -10.024  17.717  66.919  1.00  0.00    -0.323 A  
HETATM   31  C   UNL     1      -8.598  16.537  68.489  1.00  0.00    -0.223 A  
HETATM   32  C   UNL     1      -9.295  17.700  68.130  1.00  0.00    -0.279 A  
BRANCH  29  33
HETATM   33  O   UNL     1     -10.771  16.636  64.931  1.00  0.00    -0.710 OA 
HETATM   34  C   UNL     1     -11.627  15.535  64.639  1.00  0.00    -0.281 C  
ENDBRANCH  29  33
BRANCH  30  35
HETATM   35  O   UNL     1     -10.688  18.802  66.399  1.00  0.00    -0.379 OA 
HETATM   36  C   UNL     1      -9.935  19.788  65.706  1.00  0.00    -0.271 C  
ENDBRANCH  30  35
BRANCH  32  37
HETATM   37  O   UNL     1      -9.271  18.833  68.898  1.00  0.00    -0.316 OA 
HETATM   38  C   UNL     1      -8.059  19.574  68.974  1.00  0.00    -0.220 C  
ENDBRANCH  32  37
ENDBRANCH  25  27
ENDBRANCH  24  25
ENDBRANCH  23  24
ENDBRANCH  22  23
ENDBRANCH  21  22
ENDBRANCH  19  21
ENDBRANCH  18  19
ENDBRANCH  17  18
ENDBRANCH  15  17
ENDBRANCH  14  15
ENDBRANCH  13  14
ENDBRANCH  12  13
ENDBRANCH  11  12
ENDBRANCH   9  11
ENDBRANCH   5   9
BRANCH   8  39
HETATM   39  O   UNL     1      -6.440   6.568  66.077  1.00  0.00    -0.041 OA 
HETATM   40  C   UNL     1      -6.249   7.724  66.876  1.00  0.00    -0.053 C  
ENDBRANCH   8  39
BRANCH   7  41
HETATM   41  O   UNL     1      -7.229   4.412  64.333  1.00  0.00    -0.059 OA 
HETATM   42  C   UNL     1      -6.636   3.124  64.350  1.00  0.00    -0.035 C  
ENDBRANCH   7  41
ENDBRANCH   2   3
TORSDOF 21
ENDMDL
MODEL      192
REMARK 921   NORMALIZED FREE ENERGY PREDICTED BY IDOCK:   -3.66 KCAL/MOL
REMARK 922        TOTAL FREE ENERGY PREDICTED BY IDOCK:  -11.02 KCAL/MOL
REMARK 923 INTER-LIGAND FREE ENERGY PREDICTED BY IDOCK:   -9.86 KCAL/MOL
REMARK 924 INTRA-LIGAND FREE ENERGY PREDICTED BY IDOCK:   -1.17 KCAL/MOL
REMARK 927      BINDING AFFINITY PREDICTED BY RF-SCORE:    0.00 PKD
ROOT
HETATM    1  C   UNL     1      -7.377   7.967  74.061  1.00  0.00    -0.162 C  
HETATM    2  O   UNL     1      -8.761   8.256  73.883  1.00  0.00    -0.235 OA 
ENDROOT
BRANCH   2   3
HETATM    3  C   UNL     1      -9.523   7.288  73.276  1.00  0.00    -0.195 A  
HETATM    4  C   UNL     1      -9.216   5.933  73.449  1.00  0.00    -0.131 A  
HETATM    5  C   UNL     1      -9.974   4.929  72.845  1.00  0.00    -0.194 A  
HETATM    6  C   UNL     1     -11.065   5.284  72.059  1.00  0.00    -0.151 A  
HETATM    7  C   UNL     1     -10.654   7.659  72.512  1.00  0.00    -0.281 A  
HETATM    8  C   UNL     1     -11.418   6.637  71.893  1.00  0.00    -0.291 A  
BRANCH   5   9
HETATM    9  C   UNL     1      -9.544   3.530  73.088  1.00  0.00    -0.111 C  
HETATM   10  O   UNL     1      -8.958   3.192  74.106  1.00  0.00    -0.079 OA 
BRANCH   9  11
HETATM   11  O   UNL     1      -9.843   2.718  72.043  1.00  0.00    -0.152 OA 
BRANCH  11  12
HETATM   12  C   UNL     1      -8.769   2.555  71.099  1.00  0.00    -0.066 C  
BRANCH  12  13
HETATM   13  C   UNL     1      -9.214   3.054  69.727  1.00  0.00    -0.219 C  
BRANCH  13  14
HETATM   14  C   UNL     1      -8.375   4.242  69.258  1.00  0.00    -0.073 C  
BRANCH  14  15
HETATM   15  N   UNL     1      -8.281   4.352  67.787  1.00  0.00    -0.098 NA 
HETATM   16  C   UNL     1      -9.492   3.837  67.133  1.00  0.00    -0.202 C  
BRANCH  15  17
HETATM   17  C   UNL     1      -8.027   5.773  67.429  1.00  0.00    -0.102 C  
BRANCH  17  18
HETATM   18  C   UNL     1      -9.302   6.573  67.070  1.00  0.00    -0.139 C  
BRANCH  18  19
HETATM   19  N   UNL     1      -9.338   7.984  67.522  1.00  0.00    -0.145 NA 
HETATM   20  C   UNL     1      -7.985   8.492  67.775  1.00  0.00    -0.107 C  
BRANCH  19  21
HETATM   21  C   UNL     1      -9.999   8.838  66.511  1.00  0.00    -0.290 C  
BRANCH  21  22
HETATM   22  C   UNL     1     -10.314  10.249  67.019  1.00  0.00    -0.299 C  
BRANCH  22  23
HETATM   23  C   UNL     1     -11.179  10.220  68.272  1.00  0.00    -0.232 C  
BRANCH  23  24
HETATM   24  O   UNL     1     -12.189  11.239  68.183  1.00  0.00    -0.622 OA 
BRANCH  24  25
HETATM   25  C   UNL     1     -11.890  12.416  68.790  1.00  0.00    -0.311 C  
HETATM   26  O   UNL     1     -11.792  12.600  69.993  1.00  0.00    -0.329 OA 
BRANCH  25  27
HETATM   27  C   UNL     1     -11.668  13.480  67.777  1.00  0.00    -0.394 A  
HETATM   28  C   UNL     1     -12.126  13.256  66.478  1.00  0.00    -0.435 A  
HETATM   29  C   UNL     1     -11.902  14.206  65.480  1.00  0.00    -0.364 A  
HETATM   30  C   UNL     1     -11.193  15.396  65.777  1.00  0.00    -0.196 A  
HETATM   31  C   UNL     1     -11.005  14.672  68.086  1.00  0.00    -0.269 A  
HETATM   32  C   UNL     1     -10.749  15.634  67.097  1.00  0.00    -0.314 A  
BRANCH  29  33
HETATM   33  O   UNL     1     -12.302  14.022  64.176  1.00  0.00    -0.620 OA 
HETATM   34  C   UNL     1     -11.743  12.903  63.494  1.00  0.00    -0.512 C  
ENDBRANCH  29  33
BRANCH  30  35
HETATM   35  O   UNL     1     -10.950  16.203  64.691  1.00  0.00    -0.642 OA 
HETATM   36  C   UNL     1     -11.007  17.612  64.868  1.00  0.00     0.854 C  
ENDBRANCH  30  35
BRANCH  32  37
HETATM   37  O   UNL     1     -10.056  16.786  67.358  1.00  0.00    -0.263 OA 
HETATM   38  C   UNL     1      -9.123  16.786  68.432  1.00  0.00    -0.233 C  
ENDBRANCH  32  37
ENDBRANCH  25  27
ENDBRANCH  24  25
ENDBRANCH  23  24
ENDBRANCH  22  23
ENDBRANCH  21  22
ENDBRANCH  19  21
ENDBRANCH  18  19
ENDBRANCH  17  18
ENDBRANCH  15  17
ENDBRANCH  14  15
ENDBRANCH  13  14
ENDBRANCH  12  13
ENDBRANCH  11  12
ENDBRANCH   9  11
ENDBRANCH   5   9
BRANCH   8  39
HETATM   39  O   UNL     1     -12.531   6.760  71.095  1.00  0.00    -0.367 OA 
HETATM   40  C   UNL     1     -13.741   7.259  71.644  1.00  0.00    -0.347 C  
ENDBRANCH   8  39
BRANCH   7  41
HETATM   41  O   UNL     1     -11.081   8.942  72.296  1.00  0.00    -0.339 OA 
HETATM   42  C   UNL     1     -10.571   9.710  71.219  1.00  0.00    -0.199 C  
ENDBRANCH   7  41
ENDBRANCH   2   3
TORSDOF 21
ENDMDL
MODEL      193
REMARK 921   NORMALIZED FREE ENERGY PREDICTED BY IDOCK:   -3.66 KCAL/MOL
REMARK 922        TOTAL FREE ENERGY PREDICTED BY IDOCK:  -11.01 KCAL/MOL
REMARK 923 INTER-LIGAND FREE ENERGY PREDICTED BY IDOCK:   -9.25 KCAL/MOL
REMARK 924 INTRA-LIGAND FREE ENERGY PREDICTED BY IDOCK:   -1.77 KCAL/MOL
REMARK 927      BINDING AFFINITY PREDICTED BY RF-SCORE:    0.00 PKD
ROOT
HETATM    1  C   UNL     1     -12.487  15.253  64.347  1.00  0.00    -0.029 C  
HETATM    2  O   UNL     1     -11.142  15.481  64.763  1.00  0.00    -0.426 OA 
ENDROOT
BRANCH   2   3
HETATM    3  C   UNL     1     -10.472  14.412  65.305  1.00  0.00    -0.390 A  
HETATM    4  C   UNL     1     -10.517  13.158  64.684  1.00  0.00    -0.411 A  
HETATM    5  C   UNL     1      -9.845  12.055  65.214  1.00  0.00    -0.236 A  
HETATM    6  C   UNL     1      -9.108  12.210  66.383  1.00  0.00    -0.177 A  
HETATM    7  C   UNL     1      -9.694  14.589  66.472  1.00  0.00    -0.285 A  
HETATM    8  C   UNL     1      -9.018  13.466  67.013  1.00  0.00    -0.224 A  
BRANCH   5   9
HETATM    9  C   UNL     1      -9.978  10.775  64.477  1.00  0.00    -0.333 C  
HETATM   10  O   UNL     1     -10.128  10.730  63.265  1.00  0.00    -0.325 OA 
BRANCH   9  11
HETATM   11  O   UNL     1      -9.952   9.705  65.310  1.00  0.00    -0.295 OA 
BRANCH  11  12
HETATM   12  C   UNL     1      -8.789   8.871  65.161  1.00  0.00    -0.166 C  
BRANCH  12  13
HETATM   13  C   UNL     1      -7.961   8.914  66.442  1.00  0.00    -0.103 C  
BRANCH  13  14
HETATM   14  C   UNL     1      -8.172   7.661  67.293  1.00  0.00    -0.119 C  
BRANCH  14  15
HETATM   15  N   UNL     1      -8.978   7.904  68.508  1.00  0.00    -0.134 NA 
HETATM   16  C   UNL     1      -8.291   7.420  69.712  1.00  0.00    -0.134 C  
BRANCH  15  17
HETATM   17  C   UNL     1      -9.282   9.357  68.596  1.00  0.00    -0.131 C  
BRANCH  17  18
HETATM   18  C   UNL     1     -10.720   9.676  69.069  1.00  0.00    -0.211 C  
BRANCH  18  19
HETATM   19  N   UNL     1     -11.066  11.112  69.187  1.00  0.00    -0.229 NA 
HETATM   20  C   UNL     1     -11.940  11.536  68.088  1.00  0.00    -0.135 C  
BRANCH  19  21
HETATM   21  C   UNL     1     -11.739  11.381  70.477  1.00  0.00    -0.198 C  
BRANCH  21  22
HETATM   22  C   UNL     1     -13.035  10.587  70.665  1.00  0.00    -0.362 C  
BRANCH  22  23
HETATM   23  C   UNL     1     -13.202  10.106  72.101  1.00  0.00    -0.362 C  
BRANCH  23  24
HETATM   24  O   UNL     1     -12.193   9.127  72.400  1.00  0.00    -0.307 OA 
BRANCH  24  25
HETATM   25  C   UNL     1     -12.554   7.833  72.204  1.00  0.00    -0.219 C  
HETATM   26  O   UNL     1     -13.632   7.443  71.786  1.00  0.00    -0.354 OA 
BRANCH  25  27
HETATM   27  C   UNL     1     -11.430   6.923  72.550  1.00  0.00    -0.268 A  
HETATM   28  C   UNL     1     -10.223   7.494  72.953  1.00  0.00    -0.331 A  
HETATM   29  C   UNL     1      -9.125   6.684  73.245  1.00  0.00    -0.128 A  
HETATM   30  C   UNL     1      -9.225   5.277  73.118  1.00  0.00    -0.132 A  
HETATM   31  C   UNL     1     -11.549   5.532  72.463  1.00  0.00    -0.272 A  
HETATM   32  C   UNL     1     -10.455   4.696  72.731  1.00  0.00    -0.201 A  
BRANCH  29  33
HETATM   33  O   UNL     1      -7.901   7.195  73.614  1.00  0.00    -0.101 OA 
HETATM   34  C   UNL     1      -7.922   8.310  74.500  1.00  0.00    -0.218 C  
ENDBRANCH  29  33
BRANCH  30  35
HETATM   35  O   UNL     1      -8.051   4.597  73.336  1.00  0.00    -0.098 OA 
HETATM   36  C   UNL     1      -7.891   3.897  74.562  1.00  0.00    -0.085 C  
ENDBRANCH  30  35
BRANCH  32  37
HETATM   37  O   UNL     1     -10.526   3.335  72.604  1.00  0.00    -0.159 OA 
HETATM   38  C   UNL     1     -10.905   2.567  73.741  1.00  0.00    -0.192 C  
ENDBRANCH  32  37
ENDBRANCH  25  27
ENDBRANCH  24  25
ENDBRANCH  23  24
ENDBRANCH  22  23
ENDBRANCH  21  22
ENDBRANCH  19  21
ENDBRANCH  18  19
ENDBRANCH  17  18
ENDBRANCH  15  17
ENDBRANCH  14  15
ENDBRANCH  13  14
ENDBRANCH  12  13
ENDBRANCH  11  12
ENDBRANCH   9  11
ENDBRANCH   5   9
BRANCH   8  39
HETATM   39  O   UNL     1      -8.229  13.396  68.137  1.00  0.00    -0.143 OA 
HETATM   40  C   UNL     1      -6.817  13.451  68.014  1.00  0.00    -0.132 C  
ENDBRANCH   8  39
BRANCH   7  41
HETATM   41  O   UNL     1      -9.538  15.768  67.153  1.00  0.00    -0.215 OA 
HETATM   42  C   UNL     1      -9.143  16.952  66.481  1.00  0.00    -0.273 C  
ENDBRANCH   7  41
ENDBRANCH   2   3
TORSDOF 21
ENDMDL
MODEL      194
REMARK 921   NORMALIZED FREE ENERGY PREDICTED BY IDOCK:   -3.65 KCAL/MOL
REMARK 922        TOTAL FREE ENERGY PREDICTED BY IDOCK:  -11.00 KCAL/MOL
REMARK 923 INTER-LIGAND FREE ENERGY PREDICTED BY IDOCK:   -7.99 KCAL/MOL
REMARK 924 INTRA-LIGAND FREE ENERGY PREDICTED BY IDOCK:   -3.01 KCAL/MOL
REMARK 927      BINDING AFFINITY PREDICTED BY RF-SCORE:    0.00 PKD
ROOT
HETATM    1  C   UNL     1      -8.785   5.443  66.456  1.00  0.00    -0.117 C  
HETATM    2  O   UNL     1      -9.222   5.297  67.805  1.00  0.00    -0.109 OA 
ENDROOT
BRANCH   2   3
HETATM    3  C   UNL     1      -8.585   6.066  68.748  1.00  0.00    -0.112 A  
HETATM    4  C   UNL     1      -7.717   7.092  68.358  1.00  0.00    -0.120 A  
HETATM    5  C   UNL     1      -7.058   7.888  69.296  1.00  0.00    -0.071 A  
HETATM    6  C   UNL     1      -7.276   7.660  70.650  1.00  0.00    -0.062 A  
HETATM    7  C   UNL     1      -8.844   5.851  70.122  1.00  0.00    -0.142 A  
HETATM    8  C   UNL     1      -8.168   6.657  71.073  1.00  0.00    -0.120 A  
BRANCH   5   9
HETATM    9  C   UNL     1      -6.151   8.935  68.764  1.00  0.00    -0.045 C  
HETATM   10  O   UNL     1      -5.329   8.706  67.888  1.00  0.00    -0.034 OA 
BRANCH   9  11
HETATM   11  O   UNL     1      -6.325  10.125  69.392  1.00  0.00    -0.044 OA 
BRANCH  11  12
HETATM   12  C   UNL     1      -7.578  10.767  69.095  1.00  0.00    -0.133 C  
BRANCH  12  13
HETATM   13  C   UNL     1      -7.375  11.798  67.989  1.00  0.00    -0.091 C  
BRANCH  13  14
HETATM   14  C   UNL     1      -7.882  13.180  68.403  1.00  0.00    -0.135 C  
BRANCH  14  15
HETATM   15  N   UNL     1      -6.803  14.105  68.808  1.00  0.00    -0.095 NA 
HETATM   16  C   UNL     1      -6.030  14.568  67.648  1.00  0.00    -0.024 C  
BRANCH  15  17
HETATM   17  C   UNL     1      -7.404  15.242  69.555  1.00  0.00    -0.210 C  
BRANCH  17  18
HETATM   18  C   UNL     1      -8.888  15.513  69.210  1.00  0.00    -0.256 C  
BRANCH  18  19
HETATM   19  N   UNL     1      -9.207  16.874  68.718  1.00  0.00    -0.266 NA 
HETATM   20  C   UNL     1      -7.990  17.676  68.557  1.00  0.00    -0.283 C  
BRANCH  19  21
HETATM   21  C   UNL     1      -9.920  16.805  67.423  1.00  0.00    -0.267 C  
BRANCH  21  22
HETATM   22  C   UNL     1      -9.116  16.108  66.321  1.00  0.00    -0.373 C  
BRANCH  22  23
HETATM   23  C   UNL     1      -9.951  15.070  65.582  1.00  0.00    -0.355 C  
BRANCH  23  24
HETATM   24  O   UNL     1     -11.179  14.845  66.294  1.00  0.00    -0.340 OA 
BRANCH  24  25
HETATM   25  C   UNL     1     -11.786  13.655  66.056  1.00  0.00    -0.385 C  
HETATM   26  O   UNL     1     -12.389  13.346  65.041  1.00  0.00    -0.398 OA 
BRANCH  25  27
HETATM   27  C   UNL     1     -11.599  12.738  67.211  1.00  0.00    -0.420 A  
HETATM   28  C   UNL     1     -11.140  11.445  66.955  1.00  0.00    -0.364 A  
HETATM   29  C   UNL     1     -10.992  10.533  68.001  1.00  0.00    -0.290 A  
HETATM   30  C   UNL     1     -11.322  10.909  69.326  1.00  0.00    -0.277 A  
HETATM   31  C   UNL     1     -11.886  13.129  68.523  1.00  0.00    -0.377 A  
HETATM   32  C   UNL     1     -11.765  12.225  69.589  1.00  0.00    -0.316 A  
BRANCH  29  33
HETATM   33  O   UNL     1     -10.576   9.236  67.802  1.00  0.00    -0.254 OA 
HETATM   34  C   UNL     1     -10.731   8.716  66.484  1.00  0.00     0.292 C  
ENDBRANCH  29  33
BRANCH  30  35
HETATM   35  O   UNL     1     -11.228   9.895  70.249  1.00  0.00    -0.260 OA 
HETATM   36  C   UNL     1     -10.063   9.821  71.058  1.00  0.00     0.022 C  
ENDBRANCH  30  35
BRANCH  32  37
HETATM   37  O   UNL     1     -12.089  12.563  70.875  1.00  0.00    -0.285 OA 
HETATM   38  C   UNL     1     -13.016  13.622  71.084  1.00  0.00    -0.278 C  
ENDBRANCH  32  37
ENDBRANCH  25  27
ENDBRANCH  24  25
ENDBRANCH  23  24
ENDBRANCH  22  23
ENDBRANCH  21  22
ENDBRANCH  19  21
ENDBRANCH  18  19
ENDBRANCH  17  18
ENDBRANCH  15  17
ENDBRANCH  14  15
ENDBRANCH  13  14
ENDBRANCH  12  13
ENDBRANCH  11  12
ENDBRANCH   9  11
ENDBRANCH   5   9
BRANCH   8  39
HETATM   39  O   UNL     1      -8.245   6.614  72.445  1.00  0.00    -0.104 OA 
HETATM   40  C   UNL     1      -8.982   7.607  73.142  1.00  0.00    -0.191 C  
ENDBRANCH   8  39
BRANCH   7  41
HETATM   41  O   UNL     1      -9.696   4.907  70.632  1.00  0.00    -0.171 OA 
HETATM   42  C   UNL     1      -9.234   3.608  70.961  1.00  0.00    -0.126 C  
ENDBRANCH   7  41
ENDBRANCH   2   3
TORSDOF 21
ENDMDL
MODEL      195
REMARK 921   NORMALIZED FREE ENERGY PREDICTED BY IDOCK:   -3.65 KCAL/MOL
REMARK 922        TOTAL FREE ENERGY PREDICTED BY IDOCK:  -11.00 KCAL/MOL
REMARK 923 INTER-LIGAND FREE ENERGY PREDICTED BY IDOCK:   -8.83 KCAL/MOL
REMARK 924 INTRA-LIGAND FREE ENERGY PREDICTED BY IDOCK:   -2.16 KCAL/MOL
REMARK 927      BINDING AFFINITY PREDICTED BY RF-SCORE:    0.00 PKD
ROOT
HETATM    1  C   UNL     1      -6.826  15.024  69.371  1.00  0.00    -0.165 C  
HETATM    2  O   UNL     1      -8.143  15.562  69.456  1.00  0.00    -0.240 OA 
ENDROOT
BRANCH   2   3
HETATM    3  C   UNL     1      -8.752  15.897  68.272  1.00  0.00    -0.174 A  
HETATM    4  C   UNL     1      -9.438  14.929  67.528  1.00  0.00    -0.200 A  
HETATM    5  C   UNL     1     -10.066  15.244  66.322  1.00  0.00    -0.297 A  
HETATM    6  C   UNL     1     -10.016  16.552  65.853  1.00  0.00    -0.342 A  
HETATM    7  C   UNL     1      -8.728  17.239  67.824  1.00  0.00    -0.226 A  
HETATM    8  C   UNL     1      -9.361  17.554  66.594  1.00  0.00    -0.262 A  
BRANCH   5   9
HETATM    9  C   UNL     1     -10.749  14.133  65.614  1.00  0.00    -0.313 C  
HETATM   10  O   UNL     1     -10.360  13.706  64.536  1.00  0.00    -0.433 OA 
BRANCH   9  11
HETATM   11  O   UNL     1     -11.846  13.702  66.285  1.00  0.00    -0.352 OA 
BRANCH  11  12
HETATM   12  C   UNL     1     -11.739  12.356  66.783  1.00  0.00    -0.362 C  
BRANCH  12  13
HETATM   13  C   UNL     1     -11.999  12.346  68.287  1.00  0.00    -0.270 C  
BRANCH  13  14
HETATM   14  C   UNL     1     -10.771  11.877  69.069  1.00  0.00    -0.156 C  
BRANCH  14  15
HETATM   15  N   UNL     1     -10.199  10.612  68.561  1.00  0.00    -0.167 NA 
HETATM   16  C   UNL     1      -8.789  10.468  68.948  1.00  0.00    -0.165 C  
BRANCH  15  17
HETATM   17  C   UNL     1     -11.023   9.480  69.063  1.00  0.00    -0.100 C  
BRANCH  17  18
HETATM   18  C   UNL     1     -10.404   8.730  70.266  1.00  0.00    -0.203 C  
BRANCH  18  19
HETATM   19  N   UNL     1     -10.913   9.111  71.605  1.00  0.00    -0.358 NA 
HETATM   20  C   UNL     1     -12.238   8.534  71.851  1.00  0.00    -0.352 C  
BRANCH  19  21
HETATM   21  C   UNL     1      -9.981   8.661  72.663  1.00  0.00    -0.095 C  
BRANCH  21  22
HETATM   22  C   UNL     1      -8.902   7.700  72.156  1.00  0.00    -0.161 C  
BRANCH  22  23
HETATM   23  C   UNL     1      -9.222   6.253  72.508  1.00  0.00    -0.140 C  
BRANCH  23  24
HETATM   24  O   UNL     1      -8.421   5.373  71.701  1.00  0.00    -0.123 OA 
BRANCH  24  25
HETATM   25  C   UNL     1      -9.087   4.704  70.725  1.00  0.00    -0.130 C  
HETATM   26  O   UNL     1      -9.740   3.684  70.870  1.00  0.00    -0.173 OA 
BRANCH  25  27
HETATM   27  C   UNL     1      -8.935   5.403  69.422  1.00  0.00    -0.124 A  
HETATM   28  C   UNL     1      -9.958   5.268  68.482  1.00  0.00    -0.227 A  
HETATM   29  C   UNL     1      -9.842   5.868  67.227  1.00  0.00    -0.138 A  
HETATM   30  C   UNL     1      -8.679   6.603  66.894  1.00  0.00    -0.116 A  
HETATM   31  C   UNL     1      -7.802   6.164  69.114  1.00  0.00    -0.104 A  
HETATM   32  C   UNL     1      -7.652   6.759  67.853  1.00  0.00    -0.107 A  
BRANCH  29  33
HETATM   33  O   UNL     1     -10.804   5.739  66.251  1.00  0.00    -0.168 OA 
HETATM   34  C   UNL     1     -10.892   4.469  65.611  1.00  0.00     0.005 C  
ENDBRANCH  29  33
BRANCH  30  35
HETATM   35  O   UNL     1      -8.640   7.059  65.597  1.00  0.00    -0.151 OA 
HETATM   36  C   UNL     1      -7.836   6.360  64.658  1.00  0.00    -0.112 C  
ENDBRANCH  30  35
BRANCH  32  37
HETATM   37  O   UNL     1      -6.532   7.465  67.506  1.00  0.00    -0.055 OA 
HETATM   38  C   UNL     1      -6.096   8.511  68.367  1.00  0.00    -0.050 C  
ENDBRANCH  32  37
ENDBRANCH  25  27
ENDBRANCH  24  25
ENDBRANCH  23  24
ENDBRANCH  22  23
ENDBRANCH  21  22
ENDBRANCH  19  21
ENDBRANCH  18  19
ENDBRANCH  17  18
ENDBRANCH  15  17
ENDBRANCH  14  15
ENDBRANCH  13  14
ENDBRANCH  12  13
ENDBRANCH  11  12
ENDBRANCH   9  11
ENDBRANCH   5   9
BRANCH   8  39
HETATM   39  O   UNL     1      -9.446  18.770  65.959  1.00  0.00    -0.480 OA 
HETATM   40  C   UNL     1     -10.465  19.689  66.324  1.00  0.00    -0.519 C  
ENDBRANCH   8  39
BRANCH   7  41
HETATM   41  O   UNL     1      -8.126  18.283  68.474  1.00  0.00    -0.304 OA 
HETATM   42  C   UNL     1      -6.767  18.606  68.233  1.00  0.00    -0.225 C  
ENDBRANCH   7  41
ENDBRANCH   2   3
TORSDOF 21
ENDMDL
MODEL      196
REMARK 921   NORMALIZED FREE ENERGY PREDICTED BY IDOCK:   -3.63 KCAL/MOL
REMARK 922        TOTAL FREE ENERGY PREDICTED BY IDOCK:  -10.95 KCAL/MOL
REMARK 923 INTER-LIGAND FREE ENERGY PREDICTED BY IDOCK:   -8.27 KCAL/MOL
REMARK 924 INTRA-LIGAND FREE ENERGY PREDICTED BY IDOCK:   -2.67 KCAL/MOL
REMARK 927      BINDING AFFINITY PREDICTED BY RF-SCORE:    0.00 PKD
ROOT
HETATM    1  C   UNL     1     -12.510  14.657  64.207  1.00  0.00    -0.239 C  
HETATM    2  O   UNL     1     -12.411  14.299  65.583  1.00  0.00    -0.445 OA 
ENDROOT
BRANCH   2   3
HETATM    3  C   UNL     1     -11.161  13.981  66.053  1.00  0.00    -0.303 A  
HETATM    4  C   UNL     1     -10.642  12.693  65.872  1.00  0.00    -0.297 A  
HETATM    5  C   UNL     1      -9.373  12.344  66.338  1.00  0.00    -0.219 A  
HETATM    6  C   UNL     1      -8.605  13.301  66.991  1.00  0.00    -0.169 A  
HETATM    7  C   UNL     1     -10.372  14.973  66.681  1.00  0.00    -0.278 A  
HETATM    8  C   UNL     1      -9.087  14.613  67.160  1.00  0.00    -0.223 A  
BRANCH   5   9
HETATM    9  C   UNL     1      -8.936  10.946  66.101  1.00  0.00    -0.183 C  
HETATM   10  O   UNL     1      -9.670  10.107  65.600  1.00  0.00    -0.220 OA 
BRANCH   9  11
HETATM   11  O   UNL     1      -7.672  10.729  66.541  1.00  0.00    -0.132 OA 
BRANCH  11  12
HETATM   12  C   UNL     1      -7.593  10.287  67.909  1.00  0.00    -0.089 C  
BRANCH  12  13
HETATM   13  C   UNL     1      -7.759   8.772  67.967  1.00  0.00    -0.101 C  
BRANCH  13  14
HETATM   14  C   UNL     1      -7.090   8.177  69.206  1.00  0.00    -0.060 C  
BRANCH  14  15
HETATM   15  N   UNL     1      -8.010   7.378  70.044  1.00  0.00    -0.117 NA 
HETATM   16  C   UNL     1      -7.450   7.146  71.383  1.00  0.00    -0.080 C  
BRANCH  15  17
HETATM   17  C   UNL     1      -9.321   8.077  70.112  1.00  0.00    -0.156 C  
BRANCH  17  18
HETATM   18  C   UNL     1      -9.482   9.006  71.339  1.00  0.00    -0.264 C  
BRANCH  18  19
HETATM   19  N   UNL     1     -10.843   9.097  71.916  1.00  0.00    -0.347 NA 
HETATM   20  C   UNL     1     -11.786   9.679  70.956  1.00  0.00    -0.347 C  
BRANCH  19  21
HETATM   21  C   UNL     1     -11.326   7.759  72.325  1.00  0.00    -0.321 C  
BRANCH  21  22
HETATM   22  C   UNL     1     -10.551   7.166  73.505  1.00  0.00    -0.416 C  
BRANCH  22  23
HETATM   23  C   UNL     1     -10.336   5.667  73.346  1.00  0.00    -0.222 C  
BRANCH  23  24
HETATM   24  O   UNL     1     -10.470   5.307  71.960  1.00  0.00    -0.212 OA 
BRANCH  24  25
HETATM   25  C   UNL     1      -9.915   4.121  71.606  1.00  0.00    -0.170 C  
HETATM   26  O   UNL     1      -9.805   3.136  72.319  1.00  0.00    -0.144 OA 
BRANCH  25  27
HETATM   27  C   UNL     1      -9.464   4.162  70.189  1.00  0.00    -0.254 A  
HETATM   28  C   UNL     1      -8.206   3.641  69.885  1.00  0.00    -0.070 A  
HETATM   29  C   UNL     1      -7.720   3.698  68.579  1.00  0.00    -0.056 A  
HETATM   30  C   UNL     1      -8.494   4.299  67.556  1.00  0.00    -0.099 A  
HETATM   31  C   UNL     1     -10.252   4.718  69.176  1.00  0.00    -0.124 A  
HETATM   32  C   UNL     1      -9.778   4.806  67.858  1.00  0.00    -0.149 A  
BRANCH  29  33
HETATM   33  O   UNL     1      -6.472   3.231  68.229  1.00  0.00    -0.035 OA 
HETATM   34  C   UNL     1      -6.222   1.849  68.472  1.00  0.00    -0.025 C  
ENDBRANCH  29  33
BRANCH  30  35
HETATM   35  O   UNL     1      -7.865   4.382  66.336  1.00  0.00    -0.097 OA 
HETATM   36  C   UNL     1      -7.294   5.626  65.953  1.00  0.00    -0.073 C  
ENDBRANCH  30  35
BRANCH  32  37
HETATM   37  O   UNL     1     -10.504   5.392  66.857  1.00  0.00    -0.242 OA 
HETATM   38  C   UNL     1     -10.899   6.750  67.013  1.00  0.00    -0.383 C  
ENDBRANCH  32  37
ENDBRANCH  25  27
ENDBRANCH  24  25
ENDBRANCH  23  24
ENDBRANCH  22  23
ENDBRANCH  21  22
ENDBRANCH  19  21
ENDBRANCH  18  19
ENDBRANCH  17  18
ENDBRANCH  15  17
ENDBRANCH  14  15
ENDBRANCH  13  14
ENDBRANCH  12  13
ENDBRANCH  11  12
ENDBRANCH   9  11
ENDBRANCH   5   9
BRANCH   8  39
HETATM   39  O   UNL     1      -8.163  15.396  67.813  1.00  0.00    -0.139 OA 
HETATM   40  C   UNL     1      -7.094  15.982  67.087  1.00  0.00    -0.213 C  
ENDBRANCH   8  39
BRANCH   7  41
HETATM   41  O   UNL     1     -10.747  16.274  66.886  1.00  0.00    -0.300 OA 
HETATM   42  C   UNL     1     -10.432  17.283  65.941  1.00  0.00    -0.262 C  
ENDBRANCH   7  41
ENDBRANCH   2   3
TORSDOF 21
ENDMDL
MODEL      197
REMARK 921   NORMALIZED FREE ENERGY PREDICTED BY IDOCK:   -3.61 KCAL/MOL
REMARK 922        TOTAL FREE ENERGY PREDICTED BY IDOCK:  -10.90 KCAL/MOL
REMARK 923 INTER-LIGAND FREE ENERGY PREDICTED BY IDOCK:   -8.93 KCAL/MOL
REMARK 924 INTRA-LIGAND FREE ENERGY PREDICTED BY IDOCK:   -1.97 KCAL/MOL
REMARK 927      BINDING AFFINITY PREDICTED BY RF-SCORE:    0.00 PKD
ROOT
HETATM    1  C   UNL     1     -10.398   4.573  65.930  1.00  0.00    -0.258 C  
HETATM    2  O   UNL     1      -9.495   5.207  66.832  1.00  0.00    -0.126 OA 
ENDROOT
BRANCH   2   3
HETATM    3  C   UNL     1      -9.136   4.497  67.951  1.00  0.00    -0.123 A  
HETATM    4  C   UNL     1      -9.730   4.775  69.188  1.00  0.00    -0.258 A  
HETATM    5  C   UNL     1      -9.384   4.068  70.340  1.00  0.00    -0.230 A  
HETATM    6  C   UNL     1      -8.433   3.057  70.255  1.00  0.00    -0.097 A  
HETATM    7  C   UNL     1      -8.197   3.445  67.845  1.00  0.00    -0.079 A  
HETATM    8  C   UNL     1      -7.842   2.733  69.019  1.00  0.00    -0.045 A  
BRANCH   5   9
HETATM    9  C   UNL     1     -10.069   4.461  71.596  1.00  0.00    -0.160 C  
HETATM   10  O   UNL     1     -10.430   3.642  72.429  1.00  0.00    -0.143 OA 
BRANCH   9  11
HETATM   11  O   UNL     1     -10.269   5.801  71.668  1.00  0.00    -0.191 OA 
BRANCH  11  12
HETATM   12  C   UNL     1     -11.449   6.181  72.398  1.00  0.00    -0.303 C  
BRANCH  12  13
HETATM   13  C   UNL     1     -12.150   7.327  71.674  1.00  0.00    -0.359 C  
BRANCH  13  14
HETATM   14  C   UNL     1     -11.482   7.643  70.336  1.00  0.00    -0.174 C  
BRANCH  14  15
HETATM   15  N   UNL     1     -11.021   9.043  70.226  1.00  0.00    -0.241 NA 
HETATM   16  C   UNL     1      -9.835   9.284  71.058  1.00  0.00    -0.285 C  
BRANCH  15  17
HETATM   17  C   UNL     1     -10.757   9.347  68.794  1.00  0.00    -0.171 C  
BRANCH  17  18
HETATM   18  C   UNL     1      -9.561   8.571  68.192  1.00  0.00    -0.143 C  
BRANCH  18  19
HETATM   19  N   UNL     1      -8.717   9.316  67.229  1.00  0.00    -0.127 NA 
HETATM   20  C   UNL     1      -7.303   8.953  67.375  1.00  0.00    -0.081 C  
BRANCH  19  21
HETATM   21  C   UNL     1      -9.148   9.044  65.839  1.00  0.00    -0.212 C  
BRANCH  21  22
HETATM   22  C   UNL     1     -10.124  10.090  65.290  1.00  0.00    -0.299 C  
BRANCH  22  23
HETATM   23  C   UNL     1      -9.551  11.499  65.375  1.00  0.00    -0.224 C  
BRANCH  23  24
HETATM   24  O   UNL     1      -9.723  12.008  66.708  1.00  0.00    -0.200 OA 
BRANCH  24  25
HETATM   25  C   UNL     1      -8.781  12.892  67.125  1.00  0.00    -0.205 C  
HETATM   26  O   UNL     1      -7.608  12.641  67.347  1.00  0.00    -0.144 OA 
BRANCH  25  27
HETATM   27  C   UNL     1      -9.369  14.251  67.258  1.00  0.00    -0.215 A  
HETATM   28  C   UNL     1      -8.853  15.271  66.458  1.00  0.00    -0.335 A  
HETATM   29  C   UNL     1      -9.340  16.573  66.578  1.00  0.00    -0.269 A  
HETATM   30  C   UNL     1     -10.350  16.870  67.525  1.00  0.00    -0.318 A  
HETATM   31  C   UNL     1     -10.397  14.530  68.165  1.00  0.00    -0.232 A  
HETATM   32  C   UNL     1     -10.890  15.834  68.320  1.00  0.00    -0.305 A  
BRANCH  29  33
HETATM   33  O   UNL     1      -8.844  17.623  65.838  1.00  0.00    -0.521 OA 
HETATM   34  C   UNL     1      -7.467  17.937  66.028  1.00  0.00    -0.244 C  
ENDBRANCH  29  33
BRANCH  30  35
HETATM   35  O   UNL     1     -10.674  18.203  67.617  1.00  0.00    -0.416 OA 
HETATM   36  C   UNL     1     -10.106  18.966  68.673  1.00  0.00    -0.388 C  
ENDBRANCH  30  35
BRANCH  32  37
HETATM   37  O   UNL     1     -11.858  16.146  69.236  1.00  0.00    -0.298 OA 
HETATM   38  C   UNL     1     -12.060  15.264  70.335  1.00  0.00    -0.348 C  
ENDBRANCH  32  37
ENDBRANCH  25  27
ENDBRANCH  24  25
ENDBRANCH  23  24
ENDBRANCH  22  23
ENDBRANCH  21  22
ENDBRANCH  19  21
ENDBRANCH  18  19
ENDBRANCH  17  18
ENDBRANCH  15  17
ENDBRANCH  14  15
ENDBRANCH  13  14
ENDBRANCH  12  13
ENDBRANCH  11  12
ENDBRANCH   9  11
ENDBRANCH   5   9
BRANCH   8  39
HETATM   39  O   UNL     1      -6.946   1.698  69.159  1.00  0.00    -0.035 OA 
HETATM   40  C   UNL     1      -5.570   1.978  69.362  1.00  0.00    -0.017 C  
ENDBRANCH   8  39
BRANCH   7  41
HETATM   41  O   UNL     1      -7.573   3.050  66.691  1.00  0.00    -0.074 OA 
HETATM   42  C   UNL     1      -6.477   3.781  66.167  1.00  0.00    -0.037 C  
ENDBRANCH   7  41
ENDBRANCH   2   3
TORSDOF 21
ENDMDL
MODEL      198
REMARK 921   NORMALIZED FREE ENERGY PREDICTED BY IDOCK:   -3.60 KCAL/MOL
REMARK 922        TOTAL FREE ENERGY PREDICTED BY IDOCK:  -10.88 KCAL/MOL
REMARK 923 INTER-LIGAND FREE ENERGY PREDICTED BY IDOCK:   -8.17 KCAL/MOL
REMARK 924 INTRA-LIGAND FREE ENERGY PREDICTED BY IDOCK:   -2.71 KCAL/MOL
REMARK 927      BINDING AFFINITY PREDICTED BY RF-SCORE:    0.00 PKD
ROOT
HETATM    1  C   UNL     1     -11.094   6.412  67.435  1.00  0.00    -0.322 C  
HETATM    2  O   UNL     1     -10.426   6.009  68.628  1.00  0.00    -0.190 OA 
ENDROOT
BRANCH   2   3
HETATM    3  C   UNL     1     -10.265   6.965  69.601  1.00  0.00    -0.193 A  
HETATM    4  C   UNL     1     -11.212   7.984  69.757  1.00  0.00     0.019 A  
HETATM    5  C   UNL     1     -11.073   8.967  70.738  1.00  0.00    -0.328 A  
HETATM    6  C   UNL     1      -9.970   8.928  71.584  1.00  0.00    -0.397 A  
HETATM    7  C   UNL     1      -9.160   6.894  70.481  1.00  0.00    -0.156 A  
HETATM    8  C   UNL     1      -9.017   7.898  71.471  1.00  0.00    -0.136 A  
BRANCH   5   9
HETATM    9  C   UNL     1     -12.132  10.004  70.799  1.00  0.00    -0.327 C  
HETATM   10  O   UNL     1     -12.681  10.318  71.846  1.00  0.00    -0.415 OA 
BRANCH   9  11
HETATM   11  O   UNL     1     -12.425  10.504  69.573  1.00  0.00    -0.201 OA 
BRANCH  11  12
HETATM   12  C   UNL     1     -11.394  11.341  69.018  1.00  0.00    -0.278 C  
BRANCH  12  13
HETATM   13  C   UNL     1     -11.309  12.642  69.811  1.00  0.00    -0.108 C  
BRANCH  13  14
HETATM   14  C   UNL     1     -12.101  13.765  69.141  1.00  0.00    -0.333 C  
BRANCH  14  15
HETATM   15  N   UNL     1     -12.670  14.735  70.100  1.00  0.00    -0.269 NA 
HETATM   16  C   UNL     1     -12.193  14.482  71.466  1.00  0.00    -0.347 C  
BRANCH  15  17
HETATM   17  C   UNL     1     -12.328  16.110  69.646  1.00  0.00     0.336 C  
BRANCH  17  18
HETATM   18  C   UNL     1     -10.814  16.428  69.673  1.00  0.00    -0.346 C  
BRANCH  18  19
HETATM   19  N   UNL     1     -10.240  16.979  68.423  1.00  0.00    -0.309 NA 
HETATM   20  C   UNL     1     -10.071  18.433  68.515  1.00  0.00    -0.384 C  
BRANCH  19  21
HETATM   21  C   UNL     1      -8.930  16.354  68.133  1.00  0.00    -0.197 C  
BRANCH  21  22
HETATM   22  C   UNL     1      -8.850  14.884  68.556  1.00  0.00    -0.174 C  
BRANCH  22  23
HETATM   23  C   UNL     1      -7.436  14.487  68.961  1.00  0.00    -0.131 C  
BRANCH  23  24
HETATM   24  O   UNL     1      -6.927  13.511  68.036  1.00  0.00    -0.099 OA 
BRANCH  24  25
HETATM   25  C   UNL     1      -7.224  12.219  68.325  1.00  0.00    -0.101 C  
HETATM   26  O   UNL     1      -7.184  11.702  69.430  1.00  0.00    -0.072 OA 
BRANCH  25  27
HETATM   27  C   UNL     1      -7.638  11.494  67.095  1.00  0.00    -0.149 A  
HETATM   28  C   UNL     1      -8.879  11.803  66.537  1.00  0.00    -0.183 A  
HETATM   29  C   UNL     1      -9.332  11.119  65.408  1.00  0.00    -0.219 A  
HETATM   30  C   UNL     1      -8.541  10.095  64.832  1.00  0.00    -0.178 A  
HETATM   31  C   UNL     1      -6.833  10.513  66.505  1.00  0.00    -0.113 A  
HETATM   32  C   UNL     1      -7.274   9.797  65.382  1.00  0.00    -0.114 A  
BRANCH  29  33
HETATM   33  O   UNL     1     -10.561  11.359  64.837  1.00  0.00    -0.289 OA 
HETATM   34  C   UNL     1     -10.915  12.726  64.648  1.00  0.00    -0.327 C  
ENDBRANCH  29  33
BRANCH  30  35
HETATM   35  O   UNL     1      -9.139   9.429  63.788  1.00  0.00    -0.193 OA 
HETATM   36  C   UNL     1      -9.051   9.992  62.486  1.00  0.00    -0.292 C  
ENDBRANCH  30  35
BRANCH  32  37
HETATM   37  O   UNL     1      -6.532   8.795  64.816  1.00  0.00    -0.065 OA 
HETATM   38  C   UNL     1      -6.591   7.497  65.396  1.00  0.00    -0.045 C  
ENDBRANCH  32  37
ENDBRANCH  25  27
ENDBRANCH  24  25
ENDBRANCH  23  24
ENDBRANCH  22  23
ENDBRANCH  21  22
ENDBRANCH  19  21
ENDBRANCH  18  19
ENDBRANCH  17  18
ENDBRANCH  15  17
ENDBRANCH  14  15
ENDBRANCH  13  14
ENDBRANCH  12  13
ENDBRANCH  11  12
ENDBRANCH   9  11
ENDBRANCH   5   9
BRANCH   8  39
HETATM   39  O   UNL     1      -8.024   8.043  72.412  1.00  0.00    -0.108 OA 
HETATM   40  C   UNL     1      -8.365   8.198  73.781  1.00  0.00    -0.248 C  
ENDBRANCH   8  39
BRANCH   7  41
HETATM   41  O   UNL     1      -8.186   5.931  70.456  1.00  0.00    -0.114 OA 
HETATM   42  C   UNL     1      -7.000   6.112  69.701  1.00  0.00    -0.071 C  
ENDBRANCH   7  41
ENDBRANCH   2   3
TORSDOF 21
ENDMDL
MODEL      199
REMARK 921   NORMALIZED FREE ENERGY PREDICTED BY IDOCK:   -3.60 KCAL/MOL
REMARK 922        TOTAL FREE ENERGY PREDICTED BY IDOCK:  -10.87 KCAL/MOL
REMARK 923 INTER-LIGAND FREE ENERGY PREDICTED BY IDOCK:   -8.53 KCAL/MOL
REMARK 924 INTRA-LIGAND FREE ENERGY PREDICTED BY IDOCK:   -2.35 KCAL/MOL
REMARK 927      BINDING AFFINITY PREDICTED BY RF-SCORE:    0.00 PKD
ROOT
HETATM    1  C   UNL     1     -11.725  11.779  67.763  1.00  0.00    -0.267 C  
HETATM    2  O   UNL     1     -11.206  12.256  66.524  1.00  0.00    -0.289 OA 
ENDROOT
BRANCH   2   3
HETATM    3  C   UNL     1     -10.332  13.314  66.584  1.00  0.00    -0.274 A  
HETATM    4  C   UNL     1      -9.089  13.171  67.211  1.00  0.00    -0.217 A  
HETATM    5  C   UNL     1      -8.182  14.229  67.286  1.00  0.00    -0.212 A  
HETATM    6  C   UNL     1      -8.520  15.452  66.717  1.00  0.00    -0.307 A  
HETATM    7  C   UNL     1     -10.670  14.541  65.968  1.00  0.00    -0.305 A  
HETATM    8  C   UNL     1      -9.750  15.617  66.053  1.00  0.00    -0.346 A  
BRANCH   5   9
HETATM    9  C   UNL     1      -6.902  13.964  67.988  1.00  0.00    -0.144 C  
HETATM   10  O   UNL     1      -5.821  14.310  67.532  1.00  0.00    -0.343 OA 
BRANCH   9  11
HETATM   11  O   UNL     1      -7.088  13.273  69.140  1.00  0.00    -0.086 OA 
BRANCH  11  12
HETATM   12  C   UNL     1      -5.917  12.575  69.602  1.00  0.00    -0.123 C  
BRANCH  12  13
HETATM   13  C   UNL     1      -6.279  11.128  69.924  1.00  0.00    -0.133 C  
BRANCH  13  14
HETATM   14  C   UNL     1      -5.313  10.144  69.263  1.00  0.00    -0.038 C  
BRANCH  14  15
HETATM   15  N   UNL     1      -5.625   8.728  69.554  1.00  0.00    -0.034 NA 
HETATM   16  C   UNL     1      -6.270   8.581  70.865  1.00  0.00    -0.036 C  
BRANCH  15  17
HETATM   17  C   UNL     1      -6.480   8.194  68.459  1.00  0.00    -0.054 C  
BRANCH  17  18
HETATM   18  C   UNL     1      -6.101   8.710  67.051  1.00  0.00    -0.055 C  
BRANCH  18  19
HETATM   19  N   UNL     1      -7.222   9.179  66.203  1.00  0.00    -0.089 NA 
HETATM   20  C   UNL     1      -6.776   9.432  64.830  1.00  0.00    -0.087 C  
BRANCH  19  21
HETATM   21  C   UNL     1      -8.314   8.180  66.185  1.00  0.00    -0.126 C  
BRANCH  21  22
HETATM   22  C   UNL     1      -9.711   8.807  66.114  1.00  0.00    -0.320 C  
BRANCH  22  23
HETATM   23  C   UNL     1     -10.620   8.291  67.222  1.00  0.00    -0.265 C  
BRANCH  23  24
HETATM   24  O   UNL     1      -9.860   8.132  68.432  1.00  0.00    -0.162 OA 
BRANCH  24  25
HETATM   25  C   UNL     1     -10.580   8.138  69.582  1.00  0.00    -0.223 C  
HETATM   26  O   UNL     1     -11.288   9.048  69.982  1.00  0.00    -0.184 OA 
BRANCH  25  27
HETATM   27  C   UNL     1     -10.412   6.850  70.306  1.00  0.00    -0.227 A  
HETATM   28  C   UNL     1     -10.616   6.841  71.686  1.00  0.00    -0.239 A  
HETATM   29  C   UNL     1     -10.427   5.667  72.416  1.00  0.00    -0.211 A  
HETATM   30  C   UNL     1     -10.011   4.481  71.763  1.00  0.00    -0.194 A  
HETATM   31  C   UNL     1     -10.042   5.672  69.648  1.00  0.00    -0.289 A  
HETATM   32  C   UNL     1      -9.826   4.484  70.362  1.00  0.00    -0.232 A  
BRANCH  29  33
HETATM   33  O   UNL     1     -10.581   5.609  73.783  1.00  0.00    -0.253 OA 
HETATM   34  C   UNL     1      -9.879   6.590  74.542  1.00  0.00    -0.332 C  
ENDBRANCH  29  33
BRANCH  30  35
HETATM   35  O   UNL     1      -9.763   3.421  72.602  1.00  0.00    -0.124 OA 
HETATM   36  C   UNL     1     -10.668   2.326  72.596  1.00  0.00    -0.039 C  
ENDBRANCH  30  35
BRANCH  32  37
HETATM   37  O   UNL     1      -9.413   3.329  69.752  1.00  0.00    -0.164 OA 
HETATM   38  C   UNL     1      -8.073   3.256  69.279  1.00  0.00    -0.052 C  
ENDBRANCH  32  37
ENDBRANCH  25  27
ENDBRANCH  24  25
ENDBRANCH  23  24
ENDBRANCH  22  23
ENDBRANCH  21  22
ENDBRANCH  19  21
ENDBRANCH  18  19
ENDBRANCH  17  18
ENDBRANCH  15  17
ENDBRANCH  14  15
ENDBRANCH  13  14
ENDBRANCH  12  13
ENDBRANCH  11  12
ENDBRANCH   9  11
ENDBRANCH   5   9
BRANCH   8  39
HETATM   39  O   UNL     1      -9.871  16.893  65.554  1.00  0.00    -0.559 OA 
HETATM   40  C   UNL     1     -10.649  17.853  66.251  1.00  0.00    -0.240 C  
ENDBRANCH   8  39
BRANCH   7  41
HETATM   41  O   UNL     1     -11.835  14.798  65.295  1.00  0.00    -0.340 OA 
HETATM   42  C   UNL     1     -12.042  14.308  63.981  1.00  0.00    -0.316 C  
ENDBRANCH   7  41
ENDBRANCH   2   3
TORSDOF 21
ENDMDL
MODEL      200
REMARK 921   NORMALIZED FREE ENERGY PREDICTED BY IDOCK:   -3.60 KCAL/MOL
REMARK 922        TOTAL FREE ENERGY PREDICTED BY IDOCK:  -10.87 KCAL/MOL
REMARK 923 INTER-LIGAND FREE ENERGY PREDICTED BY IDOCK:   -8.06 KCAL/MOL
REMARK 924 INTRA-LIGAND FREE ENERGY PREDICTED BY IDOCK:   -2.80 KCAL/MOL
REMARK 927      BINDING AFFINITY PREDICTED BY RF-SCORE:    0.00 PKD
ROOT
HETATM    1  C   UNL     1     -10.710   6.314  67.575  1.00  0.00    -0.319 C  
HETATM    2  O   UNL     1     -10.577   6.149  68.985  1.00  0.00    -0.217 OA 
ENDROOT
BRANCH   2   3
HETATM    3  C   UNL     1     -10.420   7.292  69.730  1.00  0.00    -0.227 A  
HETATM    4  C   UNL     1     -11.237   8.405  69.499  1.00  0.00     0.148 A  
HETATM    5  C   UNL     1     -11.100   9.579  70.242  1.00  0.00    -0.317 A  
HETATM    6  C   UNL     1     -10.134   9.639  71.241  1.00  0.00    -0.026 A  
HETATM    7  C   UNL     1      -9.462   7.329  70.769  1.00  0.00    -0.164 A  
HETATM    8  C   UNL     1      -9.320   8.525  71.517  1.00  0.00    -0.222 A  
BRANCH   5   9
HETATM    9  C   UNL     1     -12.011  10.698  69.898  1.00  0.00    -0.310 C  
HETATM   10  O   UNL     1     -12.483  11.442  70.746  1.00  0.00    -0.360 OA 
BRANCH   9  11
HETATM   11  O   UNL     1     -12.270  10.751  68.568  1.00  0.00    -0.470 OA 
BRANCH  11  12
HETATM   12  C   UNL     1     -11.115  11.022  67.754  1.00  0.00    -0.295 C  
BRANCH  12  13
HETATM   13  C   UNL     1     -10.788  12.512  67.811  1.00  0.00    -0.254 C  
BRANCH  13  14
HETATM   14  C   UNL     1     -10.740  13.134  66.416  1.00  0.00    -0.284 C  
BRANCH  14  15
HETATM   15  N   UNL     1     -11.395  14.457  66.339  1.00  0.00    -0.342 NA 
HETATM   16  C   UNL     1     -11.901  14.881  67.652  1.00  0.00    -0.244 C  
BRANCH  15  17
HETATM   17  C   UNL     1     -10.425  15.438  65.783  1.00  0.00    -0.355 C  
BRANCH  17  18
HETATM   18  C   UNL     1      -9.472  16.053  66.835  1.00  0.00    -0.226 C  
BRANCH  18  19
HETATM   19  N   UNL     1      -8.123  16.430  66.353  1.00  0.00    -0.315 NA 
HETATM   20  C   UNL     1      -7.944  17.886  66.369  1.00  0.00    -0.267 C  
BRANCH  19  21
HETATM   21  C   UNL     1      -7.076  15.802  67.190  1.00  0.00    -0.190 C  
BRANCH  21  22
HETATM   22  C   UNL     1      -7.340  14.322  67.485  1.00  0.00    -0.199 C  
BRANCH  22  23
HETATM   23  C   UNL     1      -6.098  13.622  68.021  1.00  0.00    -0.138 C  
BRANCH  23  24
HETATM   24  O   UNL     1      -5.795  12.483  67.196  1.00  0.00    -0.262 OA 
BRANCH  24  25
HETATM   25  C   UNL     1      -6.020  11.271  67.764  1.00  0.00    -0.048 C  
HETATM   26  O   UNL     1      -5.862  10.988  68.940  1.00  0.00    -0.040 OA 
BRANCH  25  27
HETATM   27  C   UNL     1      -6.520  10.308  66.748  1.00  0.00    -0.073 A  
HETATM   28  C   UNL     1      -7.757  10.562  66.155  1.00  0.00    -0.142 A  
HETATM   29  C   UNL     1      -8.289   9.664  65.229  1.00  0.00    -0.134 A  
HETATM   30  C   UNL     1      -7.584   8.481  64.897  1.00  0.00    -0.098 A  
HETATM   31  C   UNL     1      -5.798   9.163  66.393  1.00  0.00    -0.058 A  
HETATM   32  C   UNL     1      -6.320   8.235  65.480  1.00  0.00    -0.049 A  
BRANCH  29  33
HETATM   33  O   UNL     1      -9.520   9.847  64.640  1.00  0.00    -0.276 OA 
HETATM   34  C   UNL     1      -9.590  10.833  63.613  1.00  0.00    -0.305 C  
ENDBRANCH  29  33
BRANCH  30  35
HETATM   35  O   UNL     1      -8.257   7.631  64.052  1.00  0.00    -0.094 OA 
HETATM   36  C   UNL     1      -7.841   7.557  62.695  1.00  0.00    -0.133 C  
ENDBRANCH  30  35
BRANCH  32  37
HETATM   37  O   UNL     1      -5.662   7.080  65.153  1.00  0.00    -0.031 OA 
HETATM   38  C   UNL     1      -5.707   5.992  66.069  1.00  0.00    -0.017 C  
ENDBRANCH  32  37
ENDBRANCH  25  27
ENDBRANCH  24  25
ENDBRANCH  23  24
ENDBRANCH  22  23
ENDBRANCH  21  22
ENDBRANCH  19  21
ENDBRANCH  18  19
ENDBRANCH  17  18
ENDBRANCH  15  17
ENDBRANCH  14  15
ENDBRANCH  13  14
ENDBRANCH  12  13
ENDBRANCH  11  12
ENDBRANCH   9  11
ENDBRANCH   5   9
BRANCH   8  39
HETATM   39  O   UNL     1      -8.450   8.796  72.548  1.00  0.00    -0.403 OA 
HETATM   40  C   UNL     1      -8.731   8.317  73.854  1.00  0.00    -0.098 C  
ENDBRANCH   8  39
BRANCH   7  41
HETATM   41  O   UNL     1      -8.629   6.298  71.119  1.00  0.00    -0.124 OA 
HETATM   42  C   UNL     1      -7.381   6.117  70.472  1.00  0.00    -0.085 C  
ENDBRANCH   7  41
ENDBRANCH   2   3
TORSDOF 21
ENDMDL
MODEL      201
REMARK 921   NORMALIZED FREE ENERGY PREDICTED BY IDOCK:   -3.59 KCAL/MOL
REMARK 922        TOTAL FREE ENERGY PREDICTED BY IDOCK:  -10.87 KCAL/MOL
REMARK 923 INTER-LIGAND FREE ENERGY PREDICTED BY IDOCK:   -8.09 KCAL/MOL
REMARK 924 INTRA-LIGAND FREE ENERGY PREDICTED BY IDOCK:   -2.77 KCAL/MOL
REMARK 927      BINDING AFFINITY PREDICTED BY RF-SCORE:    0.00 PKD
ROOT
HETATM    1  C   UNL     1     -13.785  13.850  72.111  1.00  0.00    -0.525 C  
HETATM    2  O   UNL     1     -13.081  12.610  72.116  1.00  0.00    -0.408 OA 
ENDROOT
BRANCH   2   3
HETATM    3  C   UNL     1     -12.487  12.231  70.937  1.00  0.00    -0.276 A  
HETATM    4  C   UNL     1     -12.320  13.155  69.898  1.00  0.00    -0.201 A  
HETATM    5  C   UNL     1     -11.719  12.796  68.691  1.00  0.00    -0.360 A  
HETATM    6  C   UNL     1     -11.270  11.491  68.520  1.00  0.00    -0.315 A  
HETATM    7  C   UNL     1     -11.999  10.912  70.788  1.00  0.00    -0.346 A  
HETATM    8  C   UNL     1     -11.396  10.548  69.557  1.00  0.00    -0.278 A  
BRANCH   5   9
HETATM    9  C   UNL     1     -11.609  13.856  67.658  1.00  0.00    -0.348 C  
HETATM   10  O   UNL     1     -12.377  13.927  66.709  1.00  0.00    -0.422 OA 
BRANCH   9  11
HETATM   11  O   UNL     1     -10.554  14.676  67.883  1.00  0.00    -0.240 OA 
BRANCH  11  12
HETATM   12  C   UNL     1      -9.322  14.225  67.291  1.00  0.00    -0.213 C  
BRANCH  12  13
HETATM   13  C   UNL     1      -8.280  14.004  68.384  1.00  0.00    -0.150 C  
BRANCH  13  14
HETATM   14  C   UNL     1      -6.981  13.430  67.819  1.00  0.00    -0.156 C  
BRANCH  14  15
HETATM   15  N   UNL     1      -7.112  12.036  67.344  1.00  0.00    -0.125 NA 
HETATM   16  C   UNL     1      -5.834  11.520  66.836  1.00  0.00    -0.132 C  
BRANCH  15  17
HETATM   17  C   UNL     1      -7.636  11.200  68.458  1.00  0.00    -0.120 C  
BRANCH  17  18
HETATM   18  C   UNL     1      -6.688  11.103  69.677  1.00  0.00    -0.134 C  
BRANCH  18  19
HETATM   19  N   UNL     1      -6.195   9.747  70.015  1.00  0.00    -0.052 NA 
HETATM   20  C   UNL     1      -5.730   9.686  71.404  1.00  0.00    -0.067 C  
BRANCH  19  21
HETATM   21  C   UNL     1      -7.261   8.740  69.813  1.00  0.00    -0.051 C  
BRANCH  21  22
HETATM   22  C   UNL     1      -7.447   7.802  71.010  1.00  0.00    -0.074 C  
BRANCH  22  23
HETATM   23  C   UNL     1      -7.994   6.445  70.585  1.00  0.00    -0.112 C  
BRANCH  23  24
HETATM   24  O   UNL     1      -8.914   6.617  69.494  1.00  0.00    -0.138 OA 
BRANCH  24  25
HETATM   25  C   UNL     1      -9.305   5.477  68.871  1.00  0.00    -0.125 C  
HETATM   26  O   UNL     1      -9.816   4.505  69.404  1.00  0.00    -0.199 OA 
BRANCH  25  27
HETATM   27  C   UNL     1      -9.048   5.570  67.410  1.00  0.00    -0.110 A  
HETATM   28  C   UNL     1      -9.654   4.631  66.575  1.00  0.00    -0.190 A  
HETATM   29  C   UNL     1      -9.409   4.649  65.202  1.00  0.00    -0.150 A  
HETATM   30  C   UNL     1      -8.529   5.612  64.649  1.00  0.00    -0.085 A  
HETATM   31  C   UNL     1      -8.212   6.550  66.865  1.00  0.00    -0.113 A  
HETATM   32  C   UNL     1      -7.932   6.578  65.490  1.00  0.00    -0.117 A  
BRANCH  29  33
HETATM   33  O   UNL     1      -9.953   3.726  64.337  1.00  0.00    -0.173 OA 
HETATM   34  C   UNL     1      -9.563   2.370  64.531  1.00  0.00    -0.094 C  
ENDBRANCH  29  33
BRANCH  30  35
HETATM   35  O   UNL     1      -8.291   5.464  63.303  1.00  0.00    -0.124 OA 
HETATM   36  C   UNL     1      -7.075   4.854  62.893  1.00  0.00    -0.042 C  
ENDBRANCH  30  35
BRANCH  32  37
HETATM   37  O   UNL     1      -7.076   7.492  64.936  1.00  0.00    -0.057 OA 
HETATM   38  C   UNL     1      -7.528   8.831  64.775  1.00  0.00    -0.100 C  
ENDBRANCH  32  37
ENDBRANCH  25  27
ENDBRANCH  24  25
ENDBRANCH  23  24
ENDBRANCH  22  23
ENDBRANCH  21  22
ENDBRANCH  19  21
ENDBRANCH  18  19
ENDBRANCH  17  18
ENDBRANCH  15  17
ENDBRANCH  14  15
ENDBRANCH  13  14
ENDBRANCH  12  13
ENDBRANCH  11  12
ENDBRANCH   9  11
ENDBRANCH   5   9
BRANCH   8  39
HETATM   39  O   UNL     1     -10.874   9.332  69.182  1.00  0.00    -0.213 OA 
HETATM   40  C   UNL     1     -10.696   9.034  67.806  1.00  0.00    -0.151 C  
ENDBRANCH   8  39
BRANCH   7  41
HETATM   41  O   UNL     1     -12.068   9.927  71.737  1.00  0.00    -0.389 OA 
HETATM   42  C   UNL     1     -13.261   9.188  71.937  1.00  0.00    -0.416 C  
ENDBRANCH   7  41
ENDBRANCH   2   3
TORSDOF 21
ENDMDL
MODEL      202
REMARK 921   NORMALIZED FREE ENERGY PREDICTED BY IDOCK:   -3.58 KCAL/MOL
REMARK 922        TOTAL FREE ENERGY PREDICTED BY IDOCK:  -10.84 KCAL/MOL
REMARK 923 INTER-LIGAND FREE ENERGY PREDICTED BY IDOCK:   -9.77 KCAL/MOL
REMARK 924 INTRA-LIGAND FREE ENERGY PREDICTED BY IDOCK:   -1.07 KCAL/MOL
REMARK 927      BINDING AFFINITY PREDICTED BY RF-SCORE:    0.00 PKD
ROOT
HETATM    1  C   UNL     1     -12.228  13.917  69.511  1.00  0.00    -0.306 C  
HETATM    2  O   UNL     1     -12.043  15.223  68.969  1.00  0.00    -0.295 OA 
ENDROOT
BRANCH   2   3
HETATM    3  C   UNL     1     -11.406  15.305  67.755  1.00  0.00    -0.326 A  
HETATM    4  C   UNL     1     -11.847  14.538  66.670  1.00  0.00    -0.383 A  
HETATM    5  C   UNL     1     -11.218  14.603  65.426  1.00  0.00    -0.347 A  
HETATM    6  C   UNL     1     -10.133  15.457  65.260  1.00  0.00    -0.354 A  
HETATM    7  C   UNL     1     -10.329  16.205  67.586  1.00  0.00    -0.288 A  
HETATM    8  C   UNL     1      -9.687  16.264  66.323  1.00  0.00    -0.304 A  
BRANCH   5   9
HETATM    9  C   UNL     1     -11.763  13.733  64.355  1.00  0.00    -0.408 C  
HETATM   10  O   UNL     1     -12.440  14.172  63.436  1.00  0.00    -0.797 OA 
BRANCH   9  11
HETATM   11  O   UNL     1     -11.454  12.428  64.554  1.00  0.00    -0.312 OA 
BRANCH  11  12
HETATM   12  C   UNL     1     -10.117  12.074  64.156  1.00  0.00    -0.313 C  
BRANCH  12  13
HETATM   13  C   UNL     1      -9.949  10.558  64.222  1.00  0.00    -0.398 C  
BRANCH  13  14
HETATM   14  C   UNL     1      -9.073  10.037  63.083  1.00  0.00    -0.273 C  
BRANCH  14  15
HETATM   15  N   UNL     1      -8.073   9.039  63.519  1.00  0.00    -0.155 NA 
HETATM   16  C   UNL     1      -6.718   9.419  63.100  1.00  0.00    -0.099 C  
BRANCH  15  17
HETATM   17  C   UNL     1      -8.167   8.884  64.996  1.00  0.00    -0.153 C  
BRANCH  17  18
HETATM   18  C   UNL     1      -8.073   7.420  65.486  1.00  0.00    -0.131 C  
BRANCH  18  19
HETATM   19  N   UNL     1      -7.024   7.134  66.493  1.00  0.00    -0.074 NA 
HETATM   20  C   UNL     1      -6.288   5.911  66.157  1.00  0.00    -0.042 C  
BRANCH  19  21
HETATM   21  C   UNL     1      -6.074   8.264  66.590  1.00  0.00    -0.053 C  
BRANCH  21  22
HETATM   22  C   UNL     1      -5.694   8.618  68.031  1.00  0.00    -0.035 C  
BRANCH  22  23
HETATM   23  C   UNL     1      -6.835   8.341  69.002  1.00  0.00    -0.056 C  
BRANCH  23  24
HETATM   24  O   UNL     1      -6.550   8.959  70.268  1.00  0.00    -0.037 OA 
BRANCH  24  25
HETATM   25  C   UNL     1      -6.852   8.217  71.364  1.00  0.00    -0.062 C  
HETATM   26  O   UNL     1      -6.052   7.749  72.158  1.00  0.00    -0.039 OA 
BRANCH  25  27
HETATM   27  C   UNL     1      -8.324   8.061  71.495  1.00  0.00    -0.139 A  
HETATM   28  C   UNL     1      -9.132   9.152  71.170  1.00  0.00    -0.275 A  
HETATM   29  C   UNL     1     -10.517   9.069  71.318  1.00  0.00    -0.311 A  
HETATM   30  C   UNL     1     -11.110   7.883  71.816  1.00  0.00    -0.253 A  
HETATM   31  C   UNL     1      -8.907   6.872  71.946  1.00  0.00    -0.126 A  
HETATM   32  C   UNL     1     -10.295   6.770  72.124  1.00  0.00    -0.200 A  
BRANCH  29  33
HETATM   33  O   UNL     1     -11.358  10.125  71.046  1.00  0.00    -0.347 OA 
HETATM   34  C   UNL     1     -12.091  10.052  69.826  1.00  0.00     0.112 C  
ENDBRANCH  29  33
BRANCH  30  35
HETATM   35  O   UNL     1     -12.469   7.961  72.012  1.00  0.00    -0.306 OA 
HETATM   36  C   UNL     1     -13.306   7.051  71.312  1.00  0.00    -0.199 C  
ENDBRANCH  30  35
BRANCH  32  37
HETATM   37  O   UNL     1     -10.889   5.638  72.614  1.00  0.00    -0.225 OA 
HETATM   38  C   UNL     1     -10.774   5.361  74.005  1.00  0.00    -0.210 C  
ENDBRANCH  32  37
ENDBRANCH  25  27
ENDBRANCH  24  25
ENDBRANCH  23  24
ENDBRANCH  22  23
ENDBRANCH  21  22
ENDBRANCH  19  21
ENDBRANCH  18  19
ENDBRANCH  17  18
ENDBRANCH  15  17
ENDBRANCH  14  15
ENDBRANCH  13  14
ENDBRANCH  12  13
ENDBRANCH  11  12
ENDBRANCH   9  11
ENDBRANCH   5   9
BRANCH   8  39
HETATM   39  O   UNL     1      -8.618  17.039  65.937  1.00  0.00    -0.521 OA 
HETATM   40  C   UNL     1      -7.385  16.939  66.633  1.00  0.00    -0.263 C  
ENDBRANCH   8  39
BRANCH   7  41
HETATM   41  O   UNL     1      -9.827  17.034  68.555  1.00  0.00    -0.263 OA 
HETATM   42  C   UNL     1     -10.314  18.357  68.708  1.00  0.00    -0.197 C  
ENDBRANCH   7  41
ENDBRANCH   2   3
TORSDOF 21
ENDMDL
MODEL      203
REMARK 921   NORMALIZED FREE ENERGY PREDICTED BY IDOCK:   -3.55 KCAL/MOL
REMARK 922        TOTAL FREE ENERGY PREDICTED BY IDOCK:  -10.76 KCAL/MOL
REMARK 923 INTER-LIGAND FREE ENERGY PREDICTED BY IDOCK:   -8.53 KCAL/MOL
REMARK 924 INTRA-LIGAND FREE ENERGY PREDICTED BY IDOCK:   -2.24 KCAL/MOL
REMARK 927      BINDING AFFINITY PREDICTED BY RF-SCORE:    0.00 PKD
ROOT
HETATM    1  C   UNL     1     -10.206   5.679  67.511  1.00  0.00    -0.202 C  
HETATM    2  O   UNL     1      -9.909   4.362  67.970  1.00  0.00    -0.142 OA 
ENDROOT
BRANCH   2   3
HETATM    3  C   UNL     1      -9.266   4.259  69.179  1.00  0.00    -0.145 A  
HETATM    4  C   UNL     1      -9.978   4.413  70.375  1.00  0.00    -0.253 A  
HETATM    5  C   UNL     1      -9.349   4.312  71.617  1.00  0.00    -0.199 A  
HETATM    6  C   UNL     1      -7.986   4.043  71.666  1.00  0.00    -0.074 A  
HETATM    7  C   UNL     1      -7.888   3.946  69.218  1.00  0.00    -0.052 A  
HETATM    8  C   UNL     1      -7.251   3.851  70.482  1.00  0.00    -0.041 A  
BRANCH   5   9
HETATM    9  C   UNL     1     -10.202   4.509  72.816  1.00  0.00    -0.179 C  
HETATM   10  O   UNL     1     -11.077   3.717  73.133  1.00  0.00    -0.162 OA 
BRANCH   9  11
HETATM   11  O   UNL     1      -9.913   5.667  73.459  1.00  0.00    -0.161 OA 
BRANCH  11  12
HETATM   12  C   UNL     1     -10.963   6.650  73.399  1.00  0.00    -0.152 C  
BRANCH  12  13
HETATM   13  C   UNL     1     -10.538   7.797  72.488  1.00  0.00    -0.352 C  
BRANCH  13  14
HETATM   14  C   UNL     1     -11.743   8.585  71.971  1.00  0.00    -0.362 C  
BRANCH  14  15
HETATM   15  N   UNL     1     -11.370   9.805  71.223  1.00  0.00    -0.380 NA 
HETATM   16  C   UNL     1     -10.477   9.492  70.100  1.00  0.00    -0.255 C  
BRANCH  15  17
HETATM   17  C   UNL     1     -12.614  10.480  70.763  1.00  0.00    -0.382 C  
BRANCH  17  18
HETATM   18  C   UNL     1     -12.617  12.013  70.975  1.00  0.00    -0.273 C  
BRANCH  18  19
HETATM   19  N   UNL     1     -11.811  12.806  70.017  1.00  0.00    -0.314 NA 
HETATM   20  C   UNL     1     -11.989  12.319  68.646  1.00  0.00    -0.227 C  
BRANCH  19  21
HETATM   21  C   UNL     1     -12.187  14.236  70.080  1.00  0.00    -0.359 C  
BRANCH  21  22
HETATM   22  C   UNL     1     -11.022  15.185  69.782  1.00  0.00    -0.293 C  
BRANCH  22  23
HETATM   23  C   UNL     1     -11.329  16.108  68.610  1.00  0.00    -0.365 C  
BRANCH  23  24
HETATM   24  O   UNL     1     -11.033  15.433  67.376  1.00  0.00    -0.305 OA 
BRANCH  24  25
HETATM   25  C   UNL     1      -9.718  15.362  67.046  1.00  0.00    -0.224 C  
HETATM   26  O   UNL     1      -8.941  16.301  66.987  1.00  0.00    -0.192 OA 
BRANCH  25  27
HETATM   27  C   UNL     1      -9.325  13.953  66.780  1.00  0.00    -0.286 A  
HETATM   28  C   UNL     1      -8.173  13.465  67.398  1.00  0.00    -0.188 A  
HETATM   29  C   UNL     1      -7.738  12.164  67.145  1.00  0.00    -0.151 A  
HETATM   30  C   UNL     1      -8.455  11.335  66.247  1.00  0.00    -0.156 A  
HETATM   31  C   UNL     1     -10.062  13.126  65.926  1.00  0.00    -0.292 A  
HETATM   32  C   UNL     1      -9.635  11.821  65.639  1.00  0.00    -0.220 A  
BRANCH  29  33
HETATM   33  O   UNL     1      -6.591  11.643  67.699  1.00  0.00    -0.069 OA 
HETATM   34  C   UNL     1      -6.303  12.030  69.040  1.00  0.00    -0.085 C  
ENDBRANCH  29  33
BRANCH  30  35
HETATM   35  O   UNL     1      -7.872  10.114  66.004  1.00  0.00    -0.112 OA 
HETATM   36  C   UNL     1      -8.334   8.986  66.735  1.00  0.00    -0.115 C  
ENDBRANCH  30  35
BRANCH  32  37
HETATM   37  O   UNL     1     -10.306  11.007  64.766  1.00  0.00    -0.294 OA 
HETATM   38  C   UNL     1     -10.192  11.269  63.372  1.00  0.00    -0.403 C  
ENDBRANCH  32  37
ENDBRANCH  25  27
ENDBRANCH  24  25
ENDBRANCH  23  24
ENDBRANCH  22  23
ENDBRANCH  21  22
ENDBRANCH  19  21
ENDBRANCH  18  19
ENDBRANCH  17  18
ENDBRANCH  15  17
ENDBRANCH  14  15
ENDBRANCH  13  14
ENDBRANCH  12  13
ENDBRANCH  11  12
ENDBRANCH   9  11
ENDBRANCH   5   9
BRANCH   8  39
HETATM   39  O   UNL     1      -5.931   3.583  70.761  1.00  0.00    -0.016 OA 
HETATM   40  C   UNL     1      -5.226   4.392  71.689  1.00  0.00    -0.003 C  
ENDBRANCH   8  39
BRANCH   7  41
HETATM   41  O   UNL     1      -7.089   3.736  68.125  1.00  0.00    -0.050 OA 
HETATM   42  C   UNL     1      -6.889   2.432  67.608  1.00  0.00    -0.040 C  
ENDBRANCH   7  41
ENDBRANCH   2   3
TORSDOF 21
ENDMDL
MODEL      204
REMARK 921   NORMALIZED FREE ENERGY PREDICTED BY IDOCK:   -3.54 KCAL/MOL
REMARK 922        TOTAL FREE ENERGY PREDICTED BY IDOCK:  -10.75 KCAL/MOL
REMARK 923 INTER-LIGAND FREE ENERGY PREDICTED BY IDOCK:   -8.77 KCAL/MOL
REMARK 924 INTRA-LIGAND FREE ENERGY PREDICTED BY IDOCK:   -1.97 KCAL/MOL
REMARK 927      BINDING AFFINITY PREDICTED BY RF-SCORE:    0.00 PKD
ROOT
HETATM    1  C   UNL     1      -8.491   4.580  68.279  1.00  0.00    -0.093 C  
HETATM    2  O   UNL     1      -7.594   4.131  69.292  1.00  0.00    -0.054 OA 
ENDROOT
BRANCH   2   3
HETATM    3  C   UNL     1      -7.747   4.678  70.542  1.00  0.00    -0.054 A  
HETATM    4  C   UNL     1      -7.488   6.037  70.757  1.00  0.00    -0.091 A  
HETATM    5  C   UNL     1      -7.637   6.618  72.017  1.00  0.00    -0.096 A  
HETATM    6  C   UNL     1      -8.059   5.830  73.081  1.00  0.00    -0.117 A  
HETATM    7  C   UNL     1      -8.214   3.875  71.609  1.00  0.00    -0.078 A  
HETATM    8  C   UNL     1      -8.357   4.467  72.889  1.00  0.00    -0.103 A  
BRANCH   5   9
HETATM    9  C   UNL     1      -7.320   8.064  72.128  1.00  0.00    -0.090 C  
HETATM   10  O   UNL     1      -7.651   8.734  73.095  1.00  0.00    -0.375 OA 
BRANCH   9  11
HETATM   11  O   UNL     1      -6.675   8.528  71.029  1.00  0.00    -0.044 OA 
BRANCH  11  12
HETATM   12  C   UNL     1      -7.137   9.813  70.575  1.00  0.00    -0.122 C  
BRANCH  12  13
HETATM   13  C   UNL     1      -8.534   9.673  69.978  1.00  0.00    -0.223 C  
BRANCH  13  14
HETATM   14  C   UNL     1      -8.480   9.298  68.497  1.00  0.00    -0.123 C  
BRANCH  14  15
HETATM   15  N   UNL     1      -9.577   8.400  68.078  1.00  0.00    -0.147 NA 
HETATM   16  C   UNL     1     -10.407   7.999  69.222  1.00  0.00    -0.220 C  
BRANCH  15  17
HETATM   17  C   UNL     1     -10.381   9.086  67.031  1.00  0.00    -0.269 C  
BRANCH  17  18
HETATM   18  C   UNL     1     -10.516  10.614  67.235  1.00  0.00    -0.246 C  
BRANCH  18  19
HETATM   19  N   UNL     1     -10.352  11.452  66.024  1.00  0.00    -0.242 NA 
HETATM   20  C   UNL     1     -10.077  10.626  64.844  1.00  0.00    -0.335 C  
BRANCH  19  21
HETATM   21  C   UNL     1     -11.568  12.259  65.781  1.00  0.00    -0.388 C  
BRANCH  21  22
HETATM   22  C   UNL     1     -11.916  13.200  66.939  1.00  0.00    -0.421 C  
BRANCH  22  23
HETATM   23  C   UNL     1     -11.036  14.444  66.941  1.00  0.00    -0.323 C  
BRANCH  23  24
HETATM   24  O   UNL     1     -11.521  15.374  67.924  1.00  0.00    -0.335 OA 
BRANCH  24  25
HETATM   25  C   UNL     1     -10.645  15.696  68.909  1.00  0.00    -0.228 C  
HETATM   26  O   UNL     1     -10.541  15.138  69.989  1.00  0.00    -0.256 OA 
BRANCH  25  27
HETATM   27  C   UNL     1      -9.785  16.833  68.487  1.00  0.00    -0.248 A  
HETATM   28  C   UNL     1      -8.419  16.760  68.761  1.00  0.00    -0.253 A  
HETATM   29  C   UNL     1      -7.578  17.821  68.425  1.00  0.00    -0.269 A  
HETATM   30  C   UNL     1      -8.108  18.986  67.818  1.00  0.00    -0.268 A  
HETATM   31  C   UNL     1     -10.309  17.962  67.849  1.00  0.00    -0.396 A  
HETATM   32  C   UNL     1      -9.488  19.051  67.520  1.00  0.00    -0.303 A  
BRANCH  29  33
HETATM   33  O   UNL     1      -6.229  17.817  68.703  1.00  0.00    -0.184 OA 
HETATM   34  C   UNL     1      -5.866  17.784  70.080  1.00  0.00    -0.221 C  
ENDBRANCH  29  33
BRANCH  30  35
HETATM   35  O   UNL     1      -7.198  19.999  67.628  1.00  0.00    -0.261 OA 
HETATM   36  C   UNL     1      -6.674  20.201  66.323  1.00  0.00    -0.222 C  
ENDBRANCH  30  35
BRANCH  32  37
HETATM   37  O   UNL     1      -9.982  20.191  66.943  1.00  0.00    -0.413 OA 
HETATM   38  C   UNL     1     -10.641  20.084  65.687  1.00  0.00    -0.275 C  
ENDBRANCH  32  37
ENDBRANCH  25  27
ENDBRANCH  24  25
ENDBRANCH  23  24
ENDBRANCH  22  23
ENDBRANCH  21  22
ENDBRANCH  19  21
ENDBRANCH  18  19
ENDBRANCH  17  18
ENDBRANCH  15  17
ENDBRANCH  14  15
ENDBRANCH  13  14
ENDBRANCH  12  13
ENDBRANCH  11  12
ENDBRANCH   9  11
ENDBRANCH   5   9
BRANCH   8  39
HETATM   39  O   UNL     1      -8.770   3.884  74.065  1.00  0.00    -0.092 OA 
HETATM   40  C   UNL     1     -10.115   4.030  74.491  1.00  0.00    -0.193 C  
ENDBRANCH   8  39
BRANCH   7  41
HETATM   41  O   UNL     1      -8.536   2.547  71.522  1.00  0.00    -0.062 OA 
HETATM   42  C   UNL     1      -9.840   2.134  71.150  1.00  0.00    -0.045 C  
ENDBRANCH   7  41
ENDBRANCH   2   3
TORSDOF 21
ENDMDL
MODEL      205
REMARK 921   NORMALIZED FREE ENERGY PREDICTED BY IDOCK:   -3.54 KCAL/MOL
REMARK 922        TOTAL FREE ENERGY PREDICTED BY IDOCK:  -10.74 KCAL/MOL
REMARK 923 INTER-LIGAND FREE ENERGY PREDICTED BY IDOCK:   -8.77 KCAL/MOL
REMARK 924 INTRA-LIGAND FREE ENERGY PREDICTED BY IDOCK:   -1.97 KCAL/MOL
REMARK 927      BINDING AFFINITY PREDICTED BY RF-SCORE:    0.00 PKD
ROOT
HETATM    1  C   UNL     1      -9.660   3.918  67.390  1.00  0.00    -0.172 C  
HETATM    2  O   UNL     1      -8.649   3.294  68.178  1.00  0.00    -0.086 OA 
ENDROOT
BRANCH   2   3
HETATM    3  C   UNL     1      -8.187   3.998  69.262  1.00  0.00    -0.061 A  
HETATM    4  C   UNL     1      -8.836   3.902  70.499  1.00  0.00    -0.136 A  
HETATM    5  C   UNL     1      -8.386   4.606  71.617  1.00  0.00    -0.105 A  
HETATM    6  C   UNL     1      -7.262   5.416  71.500  1.00  0.00    -0.076 A  
HETATM    7  C   UNL     1      -7.020   4.788  69.142  1.00  0.00    -0.051 A  
HETATM    8  C   UNL     1      -6.570   5.508  70.278  1.00  0.00    -0.042 A  
BRANCH   5   9
HETATM    9  C   UNL     1      -9.163   4.437  72.870  1.00  0.00    -0.119 C  
HETATM   10  O   UNL     1     -10.082   3.637  72.967  1.00  0.00    -0.138 OA 
BRANCH   9  11
HETATM   11  O   UNL     1      -8.754   5.292  73.840  1.00  0.00    -0.118 OA 
BRANCH  11  12
HETATM   12  C   UNL     1      -9.825   6.009  74.481  1.00  0.00    -0.287 C  
BRANCH  12  13
HETATM   13  C   UNL     1     -10.419   7.021  73.506  1.00  0.00    -0.413 C  
BRANCH  13  14
HETATM   14  C   UNL     1      -9.370   8.023  73.023  1.00  0.00    -0.275 C  
BRANCH  14  15
HETATM   15  N   UNL     1      -9.833   8.862  71.898  1.00  0.00    -0.323 NA 
HETATM   16  C   UNL     1      -9.238   8.429  70.627  1.00  0.00    -0.156 C  
BRANCH  15  17
HETATM   17  C   UNL     1     -11.319   8.819  71.850  1.00  0.00    -0.361 C  
BRANCH  17  18
HETATM   18  C   UNL     1     -11.926   9.355  70.532  1.00  0.00    -0.097 C  
BRANCH  18  19
HETATM   19  N   UNL     1     -12.808  10.539  70.653  1.00  0.00    -0.358 NA 
HETATM   20  C   UNL     1     -13.157  10.797  72.054  1.00  0.00    -0.371 C  
BRANCH  19  21
HETATM   21  C   UNL     1     -12.151  11.738  70.086  1.00  0.00    -0.317 C  
BRANCH  21  22
HETATM   22  C   UNL     1     -12.017  11.694  68.560  1.00  0.00    -0.284 C  
BRANCH  22  23
HETATM   23  C   UNL     1     -11.886  13.089  67.963  1.00  0.00    -0.347 C  
BRANCH  23  24
HETATM   24  O   UNL     1     -10.946  13.060  66.876  1.00  0.00    -0.258 OA 
BRANCH  24  25
HETATM   25  C   UNL     1     -10.893  14.183  66.115  1.00  0.00    -0.296 C  
HETATM   26  O   UNL     1     -11.723  14.532  65.292  1.00  0.00    -0.348 OA 
BRANCH  25  27
HETATM   27  C   UNL     1      -9.674  14.970  66.436  1.00  0.00    -0.305 A  
HETATM   28  C   UNL     1      -9.632  16.307  66.039  1.00  0.00    -0.371 A  
HETATM   29  C   UNL     1      -8.492  17.075  66.278  1.00  0.00    -0.269 A  
HETATM   30  C   UNL     1      -7.364  16.498  66.910  1.00  0.00    -0.225 A  
HETATM   31  C   UNL     1      -8.579  14.406  67.099  1.00  0.00    -0.237 A  
HETATM   32  C   UNL     1      -7.414  15.150  67.333  1.00  0.00    -0.210 A  
BRANCH  29  33
HETATM   33  O   UNL     1      -8.384  18.388  65.878  1.00  0.00    -0.502 OA 
HETATM   34  C   UNL     1      -9.305  19.306  66.459  1.00  0.00    -0.353 C  
ENDBRANCH  29  33
BRANCH  30  35
HETATM   35  O   UNL     1      -6.270  17.326  66.998  1.00  0.00    -0.136 OA 
HETATM   36  C   UNL     1      -6.047  18.027  68.214  1.00  0.00    -0.178 C  
ENDBRANCH  30  35
BRANCH  32  37
HETATM   37  O   UNL     1      -6.308  14.609  67.932  1.00  0.00    -0.135 OA 
HETATM   38  C   UNL     1      -6.357  14.340  69.328  1.00  0.00    -0.110 C  
ENDBRANCH  32  37
ENDBRANCH  25  27
ENDBRANCH  24  25
ENDBRANCH  23  24
ENDBRANCH  22  23
ENDBRANCH  21  22
ENDBRANCH  19  21
ENDBRANCH  18  19
ENDBRANCH  17  18
ENDBRANCH  15  17
ENDBRANCH  14  15
ENDBRANCH  13  14
ENDBRANCH  12  13
ENDBRANCH  11  12
ENDBRANCH   9  11
ENDBRANCH   5   9
BRANCH   8  39
HETATM   39  O   UNL     1      -5.485   6.347  70.389  1.00  0.00    -0.017 OA 
HETATM   40  C   UNL     1      -5.606   7.566  71.105  1.00  0.00    -0.034 C  
ENDBRANCH   8  39
BRANCH   7  41
HETATM   41  O   UNL     1      -6.275   4.938  68.002  1.00  0.00    -0.032 OA 
HETATM   42  C   UNL     1      -6.568   5.963  67.068  1.00  0.00    -0.056 C  
ENDBRANCH   7  41
ENDBRANCH   2   3
TORSDOF 21
ENDMDL
MODEL      206
REMARK 921   NORMALIZED FREE ENERGY PREDICTED BY IDOCK:   -3.53 KCAL/MOL
REMARK 922        TOTAL FREE ENERGY PREDICTED BY IDOCK:  -10.73 KCAL/MOL
REMARK 923 INTER-LIGAND FREE ENERGY PREDICTED BY IDOCK:   -8.78 KCAL/MOL
REMARK 924 INTRA-LIGAND FREE ENERGY PREDICTED BY IDOCK:   -1.95 KCAL/MOL
REMARK 927      BINDING AFFINITY PREDICTED BY RF-SCORE:    0.00 PKD
ROOT
HETATM    1  C   UNL     1     -12.171  16.335  73.219  1.00  0.00    -0.518 C  
HETATM    2  O   UNL     1     -12.695  15.186  72.558  1.00  0.00    -0.315 OA 
ENDROOT
BRANCH   2   3
HETATM    3  C   UNL     1     -12.216  14.924  71.298  1.00  0.00    -0.325 A  
HETATM    4  C   UNL     1     -11.486  15.895  70.602  1.00  0.00    -0.426 A  
HETATM    5  C   UNL     1     -10.988  15.656  69.320  1.00  0.00    -0.267 A  
HETATM    6  C   UNL     1     -11.217  14.420  68.725  1.00  0.00    -0.282 A  
HETATM    7  C   UNL     1     -12.421  13.651  70.718  1.00  0.00    -0.359 A  
HETATM    8  C   UNL     1     -11.920  13.413  69.413  1.00  0.00    -0.315 A  
BRANCH   5   9
HETATM    9  C   UNL     1     -10.242  16.764  68.675  1.00  0.00    -0.298 C  
HETATM   10  O   UNL     1     -10.230  17.898  69.133  1.00  0.00    -0.354 OA 
BRANCH   9  11
HETATM   11  O   UNL     1      -9.635  16.369  67.529  1.00  0.00    -0.225 OA 
BRANCH  11  12
HETATM   12  C   UNL     1      -9.952  17.183  66.385  1.00  0.00    -0.306 C  
BRANCH  12  13
HETATM   13  C   UNL     1      -8.921  18.301  66.253  1.00  0.00    -0.197 C  
BRANCH  13  14
HETATM   14  C   UNL     1      -7.519  17.825  66.635  1.00  0.00    -0.228 C  
BRANCH  14  15
HETATM   15  N   UNL     1      -6.714  18.859  67.319  1.00  0.00    -0.204 NA 
HETATM   16  C   UNL     1      -7.535  19.654  68.241  1.00  0.00    -0.314 C  
BRANCH  15  17
HETATM   17  C   UNL     1      -5.585  18.194  68.025  1.00  0.00    -0.153 C  
BRANCH  17  18
HETATM   18  C   UNL     1      -5.480  16.674  67.759  1.00  0.00    -0.127 C  
BRANCH  18  19
HETATM   19  N   UNL     1      -5.525  15.797  68.952  1.00  0.00    -0.102 NA 
HETATM   20  C   UNL     1      -5.374  16.576  70.186  1.00  0.00    -0.194 C  
BRANCH  19  21
HETATM   21  C   UNL     1      -6.802  15.050  69.001  1.00  0.00    -0.118 C  
BRANCH  21  22
HETATM   22  C   UNL     1      -6.989  14.087  67.825  1.00  0.00    -0.188 C  
BRANCH  22  23
HETATM   23  C   UNL     1      -6.604  12.660  68.195  1.00  0.00    -0.081 C  
BRANCH  23  24
HETATM   24  O   UNL     1      -7.600  11.749  67.699  1.00  0.00    -0.116 OA 
BRANCH  24  25
HETATM   25  C   UNL     1      -7.165  10.844  66.787  1.00  0.00    -0.134 C  
HETATM   26  O   UNL     1      -6.298  11.028  65.948  1.00  0.00    -0.110 OA 
BRANCH  25  27
HETATM   27  C   UNL     1      -7.883   9.553  66.955  1.00  0.00    -0.101 A  
HETATM   28  C   UNL     1      -7.863   8.647  65.894  1.00  0.00    -0.102 A  
HETATM   29  C   UNL     1      -8.558   7.441  65.986  1.00  0.00    -0.151 A  
HETATM   30  C   UNL     1      -9.303   7.136  67.151  1.00  0.00    -0.140 A  
HETATM   31  C   UNL     1      -8.582   9.239  68.125  1.00  0.00    -0.125 A  
HETATM   32  C   UNL     1      -9.306   8.043  68.236  1.00  0.00    -0.140 A  
BRANCH  29  33
HETATM   33  O   UNL     1      -8.600   6.527  64.957  1.00  0.00    -0.067 OA 
HETATM   34  C   UNL     1      -7.347   6.018  64.511  1.00  0.00    -0.068 C  
ENDBRANCH  29  33
BRANCH  30  35
HETATM   35  O   UNL     1     -10.024   5.968  67.081  1.00  0.00    -0.132 OA 
HETATM   36  C   UNL     1      -9.435   4.777  67.585  1.00  0.00    -0.146 C  
ENDBRANCH  30  35
BRANCH  32  37
HETATM   37  O   UNL     1     -10.042   7.733  69.348  1.00  0.00    -0.185 OA 
HETATM   38  C   UNL     1      -9.591   8.206  70.612  1.00  0.00    -0.166 C  
ENDBRANCH  32  37
ENDBRANCH  25  27
ENDBRANCH  24  25
ENDBRANCH  23  24
ENDBRANCH  22  23
ENDBRANCH  21  22
ENDBRANCH  19  21
ENDBRANCH  18  19
ENDBRANCH  17  18
ENDBRANCH  15  17
ENDBRANCH  14  15
ENDBRANCH  13  14
ENDBRANCH  12  13
ENDBRANCH  11  12
ENDBRANCH   9  11
ENDBRANCH   5   9
BRANCH   8  39
HETATM   39  O   UNL     1     -12.017  12.273  68.650  1.00  0.00    -0.309 OA 
HETATM   40  C   UNL     1     -10.846  11.690  68.098  1.00  0.00    -0.217 C  
ENDBRANCH   8  39
BRANCH   7  41
HETATM   41  O   UNL     1     -13.085  12.607  71.306  1.00  0.00    -0.274 OA 
HETATM   42  C   UNL     1     -12.430  11.376  71.559  1.00  0.00    -0.200 C  
ENDBRANCH   7  41
ENDBRANCH   2   3
TORSDOF 21
ENDMDL
MODEL      207
REMARK 921   NORMALIZED FREE ENERGY PREDICTED BY IDOCK:   -3.52 KCAL/MOL
REMARK 922        TOTAL FREE ENERGY PREDICTED BY IDOCK:  -10.71 KCAL/MOL
REMARK 923 INTER-LIGAND FREE ENERGY PREDICTED BY IDOCK:   -8.76 KCAL/MOL
REMARK 924 INTRA-LIGAND FREE ENERGY PREDICTED BY IDOCK:   -1.95 KCAL/MOL
REMARK 927      BINDING AFFINITY PREDICTED BY RF-SCORE:    0.00 PKD
ROOT
HETATM    1  C   UNL     1      -8.147   3.545  71.642  1.00  0.00    -0.065 C  
HETATM    2  O   UNL     1      -9.568   3.595  71.741  1.00  0.00    -0.131 OA 
ENDROOT
BRANCH   2   3
HETATM    3  C   UNL     1     -10.191   4.683  71.181  1.00  0.00    -0.129 A  
HETATM    4  C   UNL     1     -10.221   4.845  69.791  1.00  0.00    -0.284 A  
HETATM    5  C   UNL     1     -10.847   5.941  69.196  1.00  0.00    -0.406 A  
HETATM    6  C   UNL     1     -11.463   6.890  70.004  1.00  0.00    -0.328 A  
HETATM    7  C   UNL     1     -10.848   5.622  72.011  1.00  0.00    -0.242 A  
HETATM    8  C   UNL     1     -11.477   6.738  71.404  1.00  0.00    -0.292 A  
BRANCH   5   9
HETATM    9  C   UNL     1     -10.802   6.013  67.715  1.00  0.00    -0.290 C  
HETATM   10  O   UNL     1     -10.835   7.076  67.110  1.00  0.00    -0.333 OA 
BRANCH   9  11
HETATM   11  O   UNL     1     -10.763   4.782  67.147  1.00  0.00    -0.014 OA 
BRANCH  11  12
HETATM   12  C   UNL     1      -9.490   4.442  66.568  1.00  0.00    -0.177 C  
BRANCH  12  13
HETATM   13  C   UNL     1      -9.416   4.981  65.143  1.00  0.00    -0.017 C  
BRANCH  13  14
HETATM   14  C   UNL     1      -8.149   4.513  64.427  1.00  0.00    -0.099 C  
BRANCH  14  15
HETATM   15  N   UNL     1      -6.991   5.409  64.636  1.00  0.00    -0.048 NA 
HETATM   16  C   UNL     1      -5.944   5.173  63.633  1.00  0.00    -0.021 C  
BRANCH  15  17
HETATM   17  C   UNL     1      -7.467   6.818  64.610  1.00  0.00    -0.097 C  
BRANCH  17  18
HETATM   18  C   UNL     1      -6.618   7.789  65.465  1.00  0.00    -0.045 C  
BRANCH  18  19
HETATM   19  N   UNL     1      -7.198   8.192  66.767  1.00  0.00    -0.081 NA 
HETATM   20  C   UNL     1      -7.070   7.118  67.758  1.00  0.00    -0.085 C  
BRANCH  19  21
HETATM   21  C   UNL     1      -6.532   9.410  67.279  1.00  0.00    -0.070 C  
BRANCH  21  22
HETATM   22  C   UNL     1      -7.200   9.988  68.531  1.00  0.00    -0.076 C  
BRANCH  22  23
HETATM   23  C   UNL     1      -6.413  11.160  69.103  1.00  0.00    -0.074 C  
BRANCH  23  24
HETATM   24  O   UNL     1      -7.210  12.354  69.037  1.00  0.00    -0.089 OA 
BRANCH  24  25
HETATM   25  C   UNL     1      -7.013  13.131  67.943  1.00  0.00    -0.132 C  
HETATM   26  O   UNL     1      -5.935  13.410  67.443  1.00  0.00    -0.331 OA 
BRANCH  25  27
HETATM   27  C   UNL     1      -8.315  13.598  67.397  1.00  0.00    -0.198 A  
HETATM   28  C   UNL     1      -9.399  12.721  67.445  1.00  0.00    -0.193 A  
HETATM   29  C   UNL     1     -10.630  13.096  66.905  1.00  0.00    -0.263 A  
HETATM   30  C   UNL     1     -10.782  14.363  66.290  1.00  0.00    -0.307 A  
HETATM   31  C   UNL     1      -8.469  14.867  66.828  1.00  0.00    -0.215 A  
HETATM   32  C   UNL     1      -9.690  15.260  66.260  1.00  0.00    -0.299 A  
BRANCH  29  33
HETATM   33  O   UNL     1     -11.723  12.259  66.895  1.00  0.00    -0.441 OA 
HETATM   34  C   UNL     1     -11.696  11.171  67.815  1.00  0.00    -0.139 C  
ENDBRANCH  29  33
BRANCH  30  35
HETATM   35  O   UNL     1     -12.009  14.574  65.708  1.00  0.00    -0.360 OA 
HETATM   36  C   UNL     1     -12.134  14.392  64.305  1.00  0.00    -0.436 C  
ENDBRANCH  30  35
BRANCH  32  37
HETATM   37  O   UNL     1      -9.856  16.475  65.651  1.00  0.00    -0.511 OA 
HETATM   38  C   UNL     1      -9.471  17.647  66.360  1.00  0.00    -0.259 C  
ENDBRANCH  32  37
ENDBRANCH  25  27
ENDBRANCH  24  25
ENDBRANCH  23  24
ENDBRANCH  22  23
ENDBRANCH  21  22
ENDBRANCH  19  21
ENDBRANCH  18  19
ENDBRANCH  17  18
ENDBRANCH  15  17
ENDBRANCH  14  15
ENDBRANCH  13  14
ENDBRANCH  12  13
ENDBRANCH  11  12
ENDBRANCH   9  11
ENDBRANCH   5   9
BRANCH   8  39
HETATM   39  O   UNL     1     -12.150   7.777  72.004  1.00  0.00    -0.293 OA 
HETATM   40  C   UNL     1     -11.778   9.117  71.721  1.00  0.00    -0.386 C  
ENDBRANCH   8  39
BRANCH   7  41
HETATM   41  O   UNL     1     -10.922   5.559  73.377  1.00  0.00    -0.276 OA 
HETATM   42  C   UNL     1      -9.854   6.019  74.188  1.00  0.00    -0.224 C  
ENDBRANCH   7  41
ENDBRANCH   2   3
TORSDOF 21
ENDMDL
MODEL      208
REMARK 921   NORMALIZED FREE ENERGY PREDICTED BY IDOCK:   -3.50 KCAL/MOL
REMARK 922        TOTAL FREE ENERGY PREDICTED BY IDOCK:  -10.66 KCAL/MOL
REMARK 923 INTER-LIGAND FREE ENERGY PREDICTED BY IDOCK:   -8.77 KCAL/MOL
REMARK 924 INTRA-LIGAND FREE ENERGY PREDICTED BY IDOCK:   -1.89 KCAL/MOL
REMARK 927      BINDING AFFINITY PREDICTED BY RF-SCORE:    0.00 PKD
ROOT
HETATM    1  C   UNL     1     -11.528  12.253  67.517  1.00  0.00    -0.347 C  
HETATM    2  O   UNL     1     -10.583  12.691  66.544  1.00  0.00    -0.249 OA 
ENDROOT
BRANCH   2   3
HETATM    3  C   UNL     1     -10.101  13.970  66.681  1.00  0.00    -0.276 A  
HETATM    4  C   UNL     1      -9.120  14.259  67.638  1.00  0.00    -0.192 A  
HETATM    5  C   UNL     1      -8.612  15.549  67.797  1.00  0.00    -0.158 A  
HETATM    6  C   UNL     1      -9.088  16.569  66.981  1.00  0.00    -0.228 A  
HETATM    7  C   UNL     1     -10.563  14.992  65.820  1.00  0.00    -0.339 A  
HETATM    8  C   UNL     1     -10.051  16.303  65.990  1.00  0.00    -0.356 A  
BRANCH   5   9
HETATM    9  C   UNL     1      -7.587  15.738  68.853  1.00  0.00    -0.181 C  
HETATM   10  O   UNL     1      -6.900  16.747  68.925  1.00  0.00    -0.174 OA 
BRANCH   9  11
HETATM   11  O   UNL     1      -7.492  14.658  69.668  1.00  0.00    -0.129 OA 
BRANCH  11  12
HETATM   12  C   UNL     1      -6.144  14.205  69.888  1.00  0.00    -0.140 C  
BRANCH  12  13
HETATM   13  C   UNL     1      -6.143  12.696  70.118  1.00  0.00    -0.093 C  
BRANCH  13  14
HETATM   14  C   UNL     1      -6.449  11.928  68.832  1.00  0.00    -0.082 C  
BRANCH  14  15
HETATM   15  N   UNL     1      -6.189  10.477  68.938  1.00  0.00    -0.043 NA 
HETATM   16  C   UNL     1      -5.568  10.137  70.225  1.00  0.00    -0.054 C  
BRANCH  15  17
HETATM   17  C   UNL     1      -7.469   9.747  68.737  1.00  0.00    -0.075 C  
BRANCH  17  18
HETATM   18  C   UNL     1      -8.289  10.229  67.517  1.00  0.00    -0.114 C  
BRANCH  18  19
HETATM   19  N   UNL     1      -9.473   9.413  67.161  1.00  0.00    -0.141 NA 
HETATM   20  C   UNL     1      -9.703   9.419  65.712  1.00  0.00    -0.284 C  
BRANCH  19  21
HETATM   21  C   UNL     1      -9.301   8.017  67.621  1.00  0.00    -0.143 C  
BRANCH  21  22
HETATM   22  C   UNL     1     -10.570   7.170  67.484  1.00  0.00    -0.348 C  
BRANCH  22  23
HETATM   23  C   UNL     1     -10.901   6.432  68.775  1.00  0.00    -0.317 C  
BRANCH  23  24
HETATM   24  O   UNL     1     -11.072   7.382  69.841  1.00  0.00    -0.251 OA 
BRANCH  24  25
HETATM   25  C   UNL     1     -11.817   6.956  70.892  1.00  0.00    -0.376 C  
HETATM   26  O   UNL     1     -13.027   7.064  71.007  1.00  0.00    -0.326 OA 
BRANCH  25  27
HETATM   27  C   UNL     1     -10.952   6.299  71.908  1.00  0.00    -0.302 A  
HETATM   28  C   UNL     1      -9.810   6.978  72.336  1.00  0.00    -0.172 A  
HETATM   29  C   UNL     1      -8.944   6.385  73.254  1.00  0.00    -0.128 A  
HETATM   30  C   UNL     1      -9.209   5.083  73.745  1.00  0.00    -0.121 A  
HETATM   31  C   UNL     1     -11.243   5.031  72.422  1.00  0.00    -0.118 A  
HETATM   32  C   UNL     1     -10.377   4.404  73.330  1.00  0.00    -0.175 A  
BRANCH  29  33
HETATM   33  O   UNL     1      -7.786   6.994  73.684  1.00  0.00    -0.095 OA 
HETATM   34  C   UNL     1      -7.456   8.234  73.066  1.00  0.00    -0.108 C  
ENDBRANCH  29  33
BRANCH  30  35
HETATM   35  O   UNL     1      -8.232   4.569  74.565  1.00  0.00    -0.093 OA 
HETATM   36  C   UNL     1      -7.195   3.795  73.978  1.00  0.00    -0.057 C  
ENDBRANCH  30  35
BRANCH  32  37
HETATM   37  O   UNL     1     -10.608   3.142  73.809  1.00  0.00    -0.150 OA 
HETATM   38  C   UNL     1     -10.446   2.041  72.922  1.00  0.00    -0.147 C  
ENDBRANCH  32  37
ENDBRANCH  25  27
ENDBRANCH  24  25
ENDBRANCH  23  24
ENDBRANCH  22  23
ENDBRANCH  21  22
ENDBRANCH  19  21
ENDBRANCH  18  19
ENDBRANCH  17  18
ENDBRANCH  15  17
ENDBRANCH  14  15
ENDBRANCH  13  14
ENDBRANCH  12  13
ENDBRANCH  11  12
ENDBRANCH   9  11
ENDBRANCH   5   9
BRANCH   8  39
HETATM   39  O   UNL     1     -10.366  17.446  65.292  1.00  0.00    -0.616 OA 
HETATM   40  C   UNL     1     -10.554  18.669  65.986  1.00  0.00    -0.365 C  
ENDBRANCH   8  39
BRANCH   7  41
HETATM   41  O   UNL     1     -11.490  14.833  64.824  1.00  0.00    -0.390 OA 
HETATM   42  C   UNL     1     -12.785  14.328  65.106  1.00  0.00    -0.316 C  
ENDBRANCH   7  41
ENDBRANCH   2   3
TORSDOF 21
ENDMDL
MODEL      209
REMARK 921   NORMALIZED FREE ENERGY PREDICTED BY IDOCK:   -3.48 KCAL/MOL
REMARK 922        TOTAL FREE ENERGY PREDICTED BY IDOCK:  -10.60 KCAL/MOL
REMARK 923 INTER-LIGAND FREE ENERGY PREDICTED BY IDOCK:   -8.54 KCAL/MOL
REMARK 924 INTRA-LIGAND FREE ENERGY PREDICTED BY IDOCK:   -2.06 KCAL/MOL
REMARK 927      BINDING AFFINITY PREDICTED BY RF-SCORE:    0.00 PKD
ROOT
HETATM    1  C   UNL     1      -9.209   3.881  72.024  1.00  0.00    -0.121 C  
HETATM    2  O   UNL     1     -10.443   4.592  72.078  1.00  0.00    -0.178 OA 
ENDROOT
BRANCH   2   3
HETATM    3  C   UNL     1     -10.534   5.732  71.319  1.00  0.00    -0.235 A  
HETATM    4  C   UNL     1     -10.584   5.651  69.922  1.00  0.00    -0.399 A  
HETATM    5  C   UNL     1     -10.678   6.794  69.126  1.00  0.00    -0.287 A  
HETATM    6  C   UNL     1     -10.731   8.042  69.737  1.00  0.00    -0.231 A  
HETATM    7  C   UNL     1     -10.627   6.994  71.952  1.00  0.00    -0.214 A  
HETATM    8  C   UNL     1     -10.714   8.153  71.141  1.00  0.00    -0.221 A  
BRANCH   5   9
HETATM    9  C   UNL     1     -10.709   6.585  67.658  1.00  0.00    -0.307 C  
HETATM   10  O   UNL     1     -10.711   7.516  66.864  1.00  0.00    -0.352 OA 
BRANCH   9  11
HETATM   11  O   UNL     1     -10.775   5.270  67.333  1.00  0.00    -0.163 OA 
BRANCH  11  12
HETATM   12  C   UNL     1      -9.559   4.742  66.772  1.00  0.00    -0.173 C  
BRANCH  12  13
HETATM   13  C   UNL     1      -9.706   4.620  65.258  1.00  0.00    -0.149 C  
BRANCH  13  14
HETATM   14  C   UNL     1      -8.799   3.529  64.688  1.00  0.00    -0.119 C  
BRANCH  14  15
HETATM   15  N   UNL     1      -7.359   3.845  64.799  1.00  0.00    -0.067 NA 
HETATM   16  C   UNL     1      -6.527   2.687  64.446  1.00  0.00    -0.027 C  
BRANCH  15  17
HETATM   17  C   UNL     1      -7.060   5.019  63.935  1.00  0.00    -0.049 C  
BRANCH  17  18
HETATM   18  C   UNL     1      -6.209   6.112  64.625  1.00  0.00    -0.030 C  
BRANCH  18  19
HETATM   19  N   UNL     1      -6.843   6.809  65.768  1.00  0.00    -0.054 NA 
HETATM   20  C   UNL     1      -6.257   6.376  67.041  1.00  0.00    -0.036 C  
BRANCH  19  21
HETATM   21  C   UNL     1      -6.690   8.275  65.635  1.00  0.00    -0.052 C  
BRANCH  21  22
HETATM   22  C   UNL     1      -6.744   9.017  66.974  1.00  0.00    -0.069 C  
BRANCH  22  23
HETATM   23  C   UNL     1      -5.825  10.231  66.986  1.00  0.00    -0.050 C  
BRANCH  23  24
HETATM   24  O   UNL     1      -6.574  11.398  67.365  1.00  0.00    -0.074 OA 
BRANCH  24  25
HETATM   25  C   UNL     1      -7.673  11.168  68.127  1.00  0.00    -0.107 C  
HETATM   26  O   UNL     1      -7.699  10.562  69.187  1.00  0.00    -0.109 OA 
BRANCH  25  27
HETATM   27  C   UNL     1      -8.874  11.784  67.505  1.00  0.00    -0.162 A  
HETATM   28  C   UNL     1      -9.487  12.846  68.170  1.00  0.00    -0.218 A  
HETATM   29  C   UNL     1     -10.643  13.429  67.649  1.00  0.00    -0.243 A  
HETATM   30  C   UNL     1     -11.211  12.933  66.450  1.00  0.00    -0.300 A  
HETATM   31  C   UNL     1      -9.406  11.317  66.298  1.00  0.00    -0.226 A  
HETATM   32  C   UNL     1     -10.579  11.872  65.763  1.00  0.00    -0.267 A  
BRANCH  29  33
HETATM   33  O   UNL     1     -11.307  14.456  68.280  1.00  0.00    -0.261 OA 
HETATM   34  C   UNL     1     -12.241  14.081  69.289  1.00  0.00    -0.278 C  
ENDBRANCH  29  33
BRANCH  30  35
HETATM   35  O   UNL     1     -12.401  13.522  66.094  1.00  0.00    -0.426 OA 
HETATM   36  C   UNL     1     -12.415  14.400  64.977  1.00  0.00    -0.359 C  
ENDBRANCH  30  35
BRANCH  32  37
HETATM   37  O   UNL     1     -11.152  11.401  64.612  1.00  0.00    -0.290 OA 
HETATM   38  C   UNL     1     -10.359  11.354  63.432  1.00  0.00    -0.402 C  
ENDBRANCH  32  37
ENDBRANCH  25  27
ENDBRANCH  24  25
ENDBRANCH  23  24
ENDBRANCH  22  23
ENDBRANCH  21  22
ENDBRANCH  19  21
ENDBRANCH  18  19
ENDBRANCH  17  18
ENDBRANCH  15  17
ENDBRANCH  14  15
ENDBRANCH  13  14
ENDBRANCH  12  13
ENDBRANCH  11  12
ENDBRANCH   9  11
ENDBRANCH   5   9
BRANCH   8  39
HETATM   39  O   UNL     1     -10.791   9.470  71.530  1.00  0.00    -0.355 OA 
HETATM   40  C   UNL     1     -11.305  10.443  70.633  1.00  0.00    -0.325 C  
ENDBRANCH   8  39
BRANCH   7  41
HETATM   41  O   UNL     1     -10.625   7.205  73.305  1.00  0.00    -0.295 OA 
HETATM   42  C   UNL     1      -9.409   7.295  74.029  1.00  0.00    -0.257 C  
ENDBRANCH   7  41
ENDBRANCH   2   3
TORSDOF 21
ENDMDL
MODEL      210
REMARK 921   NORMALIZED FREE ENERGY PREDICTED BY IDOCK:   -3.47 KCAL/MOL
REMARK 922        TOTAL FREE ENERGY PREDICTED BY IDOCK:  -10.58 KCAL/MOL
REMARK 923 INTER-LIGAND FREE ENERGY PREDICTED BY IDOCK:   -8.98 KCAL/MOL
REMARK 924 INTRA-LIGAND FREE ENERGY PREDICTED BY IDOCK:   -1.60 KCAL/MOL
REMARK 927      BINDING AFFINITY PREDICTED BY RF-SCORE:    0.00 PKD
ROOT
HETATM    1  C   UNL     1     -12.927  15.256  73.395  1.00  0.00    -0.531 C  
HETATM    2  O   UNL     1     -13.782  14.538  72.509  1.00  0.00    -0.439 OA 
ENDROOT
BRANCH   2   3
HETATM    3  C   UNL     1     -13.185  13.623  71.677  1.00  0.00    -0.367 A  
HETATM    4  C   UNL     1     -13.259  12.253  71.960  1.00  0.00    -0.508 A  
HETATM    5  C   UNL     1     -12.661  11.303  71.131  1.00  0.00    -0.492 A  
HETATM    6  C   UNL     1     -11.983  11.727  69.994  1.00  0.00    -0.421 A  
HETATM    7  C   UNL     1     -12.531  14.062  70.503  1.00  0.00    -0.359 A  
HETATM    8  C   UNL     1     -11.918  13.094  69.667  1.00  0.00    -0.306 A  
BRANCH   5   9
HETATM    9  C   UNL     1     -12.794   9.883  71.540  1.00  0.00    -0.421 C  
HETATM   10  O   UNL     1     -13.774   9.209  71.257  1.00  0.00    -0.332 OA 
BRANCH   9  11
HETATM   11  O   UNL     1     -11.735   9.466  72.278  1.00  0.00    -0.196 OA 
BRANCH  11  12
HETATM   12  C   UNL     1     -10.914   8.481  71.625  1.00  0.00    -0.292 C  
BRANCH  12  13
HETATM   13  C   UNL     1     -11.266   7.092  72.152  1.00  0.00    -0.290 C  
BRANCH  13  14
HETATM   14  C   UNL     1     -10.055   6.159  72.135  1.00  0.00    -0.183 C  
BRANCH  14  15
HETATM   15  N   UNL     1      -9.771   5.541  73.448  1.00  0.00    -0.149 NA 
HETATM   16  C   UNL     1     -10.087   6.458  74.551  1.00  0.00    -0.339 C  
BRANCH  15  17
HETATM   17  C   UNL     1     -10.539   4.271  73.553  1.00  0.00    -0.217 C  
BRANCH  17  18
HETATM   18  C   UNL     1     -10.446   3.369  72.300  1.00  0.00     0.034 C  
BRANCH  18  19
HETATM   19  N   UNL     1      -9.162   2.657  72.100  1.00  0.00    -0.086 NA 
HETATM   20  C   UNL     1      -9.055   1.500  72.994  1.00  0.00    -0.062 C  
BRANCH  19  21
HETATM   21  C   UNL     1      -9.031   2.204  70.697  1.00  0.00    -0.082 C  
BRANCH  21  22
HETATM   22  C   UNL     1      -7.637   2.442  70.109  1.00  0.00    -0.043 C  
BRANCH  22  23
HETATM   23  C   UNL     1      -7.253   3.916  70.143  1.00  0.00    -0.042 C  
BRANCH  23  24
HETATM   24  O   UNL     1      -6.131   4.141  69.271  1.00  0.00    -0.025 OA 
BRANCH  24  25
HETATM   25  C   UNL     1      -6.438   4.384  67.972  1.00  0.00    -0.038 C  
HETATM   26  O   UNL     1      -6.274   3.615  67.039  1.00  0.00    -0.033 OA 
BRANCH  25  27
HETATM   27  C   UNL     1      -7.037   5.736  67.825  1.00  0.00    -0.071 A  
HETATM   28  C   UNL     1      -7.094   6.556  68.952  1.00  0.00    -0.082 A  
HETATM   29  C   UNL     1      -7.687   7.816  68.876  1.00  0.00    -0.113 A  
HETATM   30  C   UNL     1      -8.251   8.265  67.656  1.00  0.00    -0.127 A  
HETATM   31  C   UNL     1      -7.554   6.190  66.606  1.00  0.00    -0.095 A  
HETATM   32  C   UNL     1      -8.174   7.445  66.508  1.00  0.00    -0.120 A  
BRANCH  29  33
HETATM   33  O   UNL     1      -7.801   8.652  69.964  1.00  0.00    -0.094 OA 
HETATM   34  C   UNL     1      -6.581   9.125  70.529  1.00  0.00    -0.061 C  
ENDBRANCH  29  33
BRANCH  30  35
HETATM   35  O   UNL     1      -8.894   9.478  67.734  1.00  0.00    -0.120 OA 
HETATM   36  C   UNL     1     -10.314   9.492  67.748  1.00  0.00    -0.239 C  
ENDBRANCH  30  35
BRANCH  32  37
HETATM   37  O   UNL     1      -8.736   7.893  65.342  1.00  0.00    -0.137 OA 
HETATM   38  C   UNL     1      -7.965   8.746  64.504  1.00  0.00    -0.141 C  
ENDBRANCH  32  37
ENDBRANCH  25  27
ENDBRANCH  24  25
ENDBRANCH  23  24
ENDBRANCH  22  23
ENDBRANCH  21  22
ENDBRANCH  19  21
ENDBRANCH  18  19
ENDBRANCH  17  18
ENDBRANCH  15  17
ENDBRANCH  14  15
ENDBRANCH  13  14
ENDBRANCH  12  13
ENDBRANCH  11  12
ENDBRANCH   9  11
ENDBRANCH   5   9
BRANCH   8  39
HETATM   39  O   UNL     1     -11.217  13.287  68.499  1.00  0.00    -0.240 OA 
HETATM   40  C   UNL     1     -11.865  13.116  67.249  1.00  0.00    -0.367 C  
ENDBRANCH   8  39
BRANCH   7  41
HETATM   41  O   UNL     1     -12.419  15.365  70.095  1.00  0.00    -0.368 OA 
HETATM   42  C   UNL     1     -11.214  16.087  70.281  1.00  0.00    -0.389 C  
ENDBRANCH   7  41
ENDBRANCH   2   3
TORSDOF 21
ENDMDL
MODEL      211
REMARK 921   NORMALIZED FREE ENERGY PREDICTED BY IDOCK:   -3.46 KCAL/MOL
REMARK 922        TOTAL FREE ENERGY PREDICTED BY IDOCK:  -10.56 KCAL/MOL
REMARK 923 INTER-LIGAND FREE ENERGY PREDICTED BY IDOCK:   -8.24 KCAL/MOL
REMARK 924 INTRA-LIGAND FREE ENERGY PREDICTED BY IDOCK:   -2.32 KCAL/MOL
REMARK 927      BINDING AFFINITY PREDICTED BY RF-SCORE:    0.00 PKD
ROOT
HETATM    1  C   UNL     1      -9.255   3.833  71.951  1.00  0.00    -0.123 C  
HETATM    2  O   UNL     1     -10.512   4.505  71.959  1.00  0.00    -0.178 OA 
ENDROOT
BRANCH   2   3
HETATM    3  C   UNL     1     -10.603   5.655  71.214  1.00  0.00    -0.255 A  
HETATM    4  C   UNL     1     -10.604   5.595  69.815  1.00  0.00    -0.400 A  
HETATM    5  C   UNL     1     -10.696   6.749  69.034  1.00  0.00    -0.280 A  
HETATM    6  C   UNL     1     -10.797   7.985  69.662  1.00  0.00    -0.172 A  
HETATM    7  C   UNL     1     -10.744   6.904  71.863  1.00  0.00    -0.218 A  
HETATM    8  C   UNL     1     -10.830   8.075  71.067  1.00  0.00    -0.235 A  
BRANCH   5   9
HETATM    9  C   UNL     1     -10.673   6.563  67.563  1.00  0.00    -0.321 C  
HETATM   10  O   UNL     1     -10.547   7.499  66.787  1.00  0.00    -0.318 OA 
BRANCH   9  11
HETATM   11  O   UNL     1     -10.848   5.265  67.212  1.00  0.00    -0.130 OA 
BRANCH  11  12
HETATM   12  C   UNL     1      -9.631   4.582  66.861  1.00  0.00    -0.190 C  
BRANCH  12  13
HETATM   13  C   UNL     1      -9.427   4.645  65.349  1.00  0.00    -0.176 C  
BRANCH  13  14
HETATM   14  C   UNL     1      -8.618   3.452  64.838  1.00  0.00    -0.102 C  
BRANCH  14  15
HETATM   15  N   UNL     1      -7.222   3.439  65.323  1.00  0.00    -0.065 NA 
HETATM   16  C   UNL     1      -6.565   2.159  65.027  1.00  0.00    -0.027 C  
BRANCH  15  17
HETATM   17  C   UNL     1      -6.494   4.583  64.711  1.00  0.00    -0.039 C  
BRANCH  17  18
HETATM   18  C   UNL     1      -5.631   5.391  65.709  1.00  0.00    -0.013 C  
BRANCH  18  19
HETATM   19  N   UNL     1      -6.329   5.902  66.912  1.00  0.00    -0.040 NA 
HETATM   20  C   UNL     1      -5.718   5.381  68.138  1.00  0.00    -0.016 C  
BRANCH  19  21
HETATM   21  C   UNL     1      -6.298   7.382  66.942  1.00  0.00    -0.048 C  
BRANCH  21  22
HETATM   22  C   UNL     1      -7.312   7.991  67.916  1.00  0.00    -0.093 C  
BRANCH  22  23
HETATM   23  C   UNL     1      -7.059   9.477  68.140  1.00  0.00    -0.079 C  
BRANCH  23  24
HETATM   24  O   UNL     1      -8.214  10.228  67.732  1.00  0.00    -0.109 OA 
BRANCH  24  25
HETATM   25  C   UNL     1      -8.091  10.904  66.561  1.00  0.00    -0.154 C  
HETATM   26  O   UNL     1      -7.655  10.454  65.514  1.00  0.00    -0.146 OA 
BRANCH  25  27
HETATM   27  C   UNL     1      -8.590  12.296  66.712  1.00  0.00    -0.149 A  
HETATM   28  C   UNL     1      -9.731  12.666  65.999  1.00  0.00    -0.232 A  
HETATM   29  C   UNL     1     -10.212  13.974  66.072  1.00  0.00    -0.304 A  
HETATM   30  C   UNL     1      -9.535  14.938  66.857  1.00  0.00    -0.237 A  
HETATM   31  C   UNL     1      -7.941  13.233  67.523  1.00  0.00    -0.186 A  
HETATM   32  C   UNL     1      -8.393  14.560  67.598  1.00  0.00    -0.180 A  
BRANCH  29  33
HETATM   33  O   UNL     1     -11.312  14.401  65.363  1.00  0.00    -0.320 OA 
HETATM   34  C   UNL     1     -12.577  13.914  65.803  1.00  0.00    -0.494 C  
ENDBRANCH  29  33
BRANCH  30  35
HETATM   35  O   UNL     1     -10.048  16.211  66.769  1.00  0.00    -0.255 OA 
HETATM   36  C   UNL     1     -10.752  16.737  67.885  1.00  0.00    -0.347 C  
ENDBRANCH  30  35
BRANCH  32  37
HETATM   37  O   UNL     1      -7.748  15.511  68.342  1.00  0.00    -0.119 OA 
HETATM   38  C   UNL     1      -7.203  15.132  69.601  1.00  0.00    -0.194 C  
ENDBRANCH  32  37
ENDBRANCH  25  27
ENDBRANCH  24  25
ENDBRANCH  23  24
ENDBRANCH  22  23
ENDBRANCH  21  22
ENDBRANCH  19  21
ENDBRANCH  18  19
ENDBRANCH  17  18
ENDBRANCH  15  17
ENDBRANCH  14  15
ENDBRANCH  13  14
ENDBRANCH  12  13
ENDBRANCH  11  12
ENDBRANCH   9  11
ENDBRANCH   5   9
BRANCH   8  39
HETATM   39  O   UNL     1     -10.949   9.383  71.473  1.00  0.00    -0.355 OA 
HETATM   40  C   UNL     1     -11.449  10.360  70.573  1.00  0.00    -0.345 C  
ENDBRANCH   8  39
BRANCH   7  41
HETATM   41  O   UNL     1     -10.793   7.094  73.218  1.00  0.00    -0.327 OA 
HETATM   42  C   UNL     1      -9.604   7.196  73.984  1.00  0.00    -0.270 C  
ENDBRANCH   7  41
ENDBRANCH   2   3
TORSDOF 21
ENDMDL
MODEL      212
REMARK 921   NORMALIZED FREE ENERGY PREDICTED BY IDOCK:   -3.45 KCAL/MOL
REMARK 922        TOTAL FREE ENERGY PREDICTED BY IDOCK:  -10.55 KCAL/MOL
REMARK 923 INTER-LIGAND FREE ENERGY PREDICTED BY IDOCK:   -7.85 KCAL/MOL
REMARK 924 INTRA-LIGAND FREE ENERGY PREDICTED BY IDOCK:   -2.70 KCAL/MOL
REMARK 927      BINDING AFFINITY PREDICTED BY RF-SCORE:    0.00 PKD
ROOT
HETATM    1  C   UNL     1     -12.784  11.899  63.269  1.00  0.00    -0.271 C  
HETATM    2  O   UNL     1     -12.020  13.030  63.683  1.00  0.00    -0.481 OA 
ENDROOT
BRANCH   2   3
HETATM    3  C   UNL     1     -11.045  12.807  64.624  1.00  0.00    -0.318 A  
HETATM    4  C   UNL     1     -10.295  11.626  64.602  1.00  0.00    -0.341 A  
HETATM    5  C   UNL     1      -9.298  11.375  65.546  1.00  0.00    -0.228 A  
HETATM    6  C   UNL     1      -9.040  12.326  66.527  1.00  0.00    -0.188 A  
HETATM    7  C   UNL     1     -10.765  13.798  65.594  1.00  0.00    -0.288 A  
HETATM    8  C   UNL     1      -9.756  13.538  66.556  1.00  0.00    -0.283 A  
BRANCH   5   9
HETATM    9  C   UNL     1      -8.579  10.083  65.431  1.00  0.00    -0.151 C  
HETATM   10  O   UNL     1      -8.796   9.290  64.525  1.00  0.00    -0.198 OA 
BRANCH   9  11
HETATM   11  O   UNL     1      -7.711   9.892  66.455  1.00  0.00    -0.104 OA 
BRANCH  11  12
HETATM   12  C   UNL     1      -8.063   8.804  67.329  1.00  0.00    -0.101 C  
BRANCH  12  13
HETATM   13  C   UNL     1      -7.107   7.636  67.104  1.00  0.00    -0.085 C  
BRANCH  13  14
HETATM   14  C   UNL     1      -7.785   6.486  66.359  1.00  0.00    -0.099 C  
BRANCH  14  15
HETATM   15  N   UNL     1      -7.422   5.152  66.883  1.00  0.00    -0.086 NA 
HETATM   16  C   UNL     1      -6.114   4.716  66.379  1.00  0.00    -0.031 C  
BRANCH  15  17
HETATM   17  C   UNL     1      -7.449   5.200  68.370  1.00  0.00    -0.075 C  
BRANCH  17  18
HETATM   18  C   UNL     1      -7.545   3.812  69.047  1.00  0.00    -0.053 C  
BRANCH  18  19
HETATM   19  N   UNL     1      -6.596   3.559  70.156  1.00  0.00    -0.032 NA 
HETATM   20  C   UNL     1      -6.585   4.674  71.107  1.00  0.00    -0.027 C  
BRANCH  19  21
HETATM   21  C   UNL     1      -6.951   2.312  70.870  1.00  0.00    -0.033 C  
BRANCH  21  22
HETATM   22  C   UNL     1      -7.097   2.498  72.384  1.00  0.00    -0.027 C  
BRANCH  22  23
HETATM   23  C   UNL     1      -8.465   2.048  72.880  1.00  0.00    -0.062 C  
BRANCH  23  24
HETATM   24  O   UNL     1      -9.489   2.610  72.042  1.00  0.00    -0.099 OA 
BRANCH  24  25
HETATM   25  C   UNL     1     -10.374   3.429  72.665  1.00  0.00    -0.140 C  
HETATM   26  O   UNL     1     -11.219   3.089  73.477  1.00  0.00    -0.220 OA 
BRANCH  25  27
HETATM   27  C   UNL     1     -10.165   4.838  72.239  1.00  0.00    -0.252 A  
HETATM   28  C   UNL     1      -9.739   5.757  73.199  1.00  0.00    -0.162 A  
HETATM   29  C   UNL     1      -9.572   7.100  72.859  1.00  0.00    -0.154 A  
HETATM   30  C   UNL     1      -9.848   7.541  71.542  1.00  0.00    -0.166 A  
HETATM   31  C   UNL     1     -10.399   5.259  70.926  1.00  0.00    -0.303 A  
HETATM   32  C   UNL     1     -10.257   6.607  70.564  1.00  0.00    -0.189 A  
BRANCH  29  33
HETATM   33  O   UNL     1      -9.187   8.055  73.773  1.00  0.00    -0.262 OA 
HETATM   34  C   UNL     1      -7.811   8.063  74.140  1.00  0.00    -0.220 C  
ENDBRANCH  29  33
BRANCH  30  35
HETATM   35  O   UNL     1      -9.742   8.899  71.358  1.00  0.00    -0.249 OA 
HETATM   36  C   UNL     1     -10.931   9.650  71.154  1.00  0.00    -0.360 C  
ENDBRANCH  30  35
BRANCH  32  37
HETATM   37  O   UNL     1     -10.530   7.057  69.300  1.00  0.00    -0.197 OA 
HETATM   38  C   UNL     1     -11.055   6.135  68.351  1.00  0.00    -0.248 C  
ENDBRANCH  32  37
ENDBRANCH  25  27
ENDBRANCH  24  25
ENDBRANCH  23  24
ENDBRANCH  22  23
ENDBRANCH  21  22
ENDBRANCH  19  21
ENDBRANCH  18  19
ENDBRANCH  17  18
ENDBRANCH  15  17
ENDBRANCH  14  15
ENDBRANCH  13  14
ENDBRANCH  12  13
ENDBRANCH  11  12
ENDBRANCH   9  11
ENDBRANCH   5   9
BRANCH   8  39
HETATM   39  O   UNL     1      -9.331  14.335  67.593  1.00  0.00    -0.192 OA 
HETATM   40  C   UNL     1      -8.266  15.250  67.390  1.00  0.00    -0.184 C  
ENDBRANCH   8  39
BRANCH   7  41
HETATM   41  O   UNL     1     -11.399  15.007  65.701  1.00  0.00    -0.345 OA 
HETATM   42  C   UNL     1     -11.014  16.108  64.895  1.00  0.00    -0.349 C  
ENDBRANCH   7  41
ENDBRANCH   2   3
TORSDOF 21
ENDMDL
MODEL      213
REMARK 921   NORMALIZED FREE ENERGY PREDICTED BY IDOCK:   -3.45 KCAL/MOL
REMARK 922        TOTAL FREE ENERGY PREDICTED BY IDOCK:  -10.55 KCAL/MOL
REMARK 923 INTER-LIGAND FREE ENERGY PREDICTED BY IDOCK:   -7.21 KCAL/MOL
REMARK 924 INTRA-LIGAND FREE ENERGY PREDICTED BY IDOCK:   -3.34 KCAL/MOL
REMARK 927      BINDING AFFINITY PREDICTED BY RF-SCORE:    0.00 PKD
ROOT
HETATM    1  C   UNL     1     -12.798  11.066  70.544  1.00  0.00    -0.174 C  
HETATM    2  O   UNL     1     -12.048  12.114  69.933  1.00  0.00    -0.298 OA 
ENDROOT
BRANCH   2   3
HETATM    3  C   UNL     1     -11.590  11.885  68.659  1.00  0.00    -0.310 A  
HETATM    4  C   UNL     1     -11.143  10.613  68.284  1.00  0.00    -0.334 A  
HETATM    5  C   UNL     1     -10.673  10.353  66.995  1.00  0.00    -0.298 A  
HETATM    6  C   UNL     1     -10.657  11.382  66.061  1.00  0.00    -0.319 A  
HETATM    7  C   UNL     1     -11.614  12.929  67.705  1.00  0.00    -0.355 A  
HETATM    8  C   UNL     1     -11.129  12.665  66.399  1.00  0.00    -0.287 A  
BRANCH   5   9
HETATM    9  C   UNL     1     -10.212   8.971  66.718  1.00  0.00    -0.271 C  
HETATM   10  O   UNL     1      -9.478   8.701  65.778  1.00  0.00    -0.206 OA 
BRANCH   9  11
HETATM   11  O   UNL     1     -10.734   8.076  67.594  1.00  0.00    -0.216 OA 
BRANCH  11  12
HETATM   12  C   UNL     1     -11.035   6.793  67.014  1.00  0.00    -0.368 C  
BRANCH  12  13
HETATM   13  C   UNL     1     -10.167   5.721  67.668  1.00  0.00    -0.236 C  
BRANCH  13  14
HETATM   14  C   UNL     1      -9.692   4.682  66.652  1.00  0.00    -0.199 C  
BRANCH  14  15
HETATM   15  N   UNL     1      -8.710   3.726  67.205  1.00  0.00    -0.107 NA 
HETATM   16  C   UNL     1      -9.375   2.557  67.796  1.00  0.00    -0.175 C  
BRANCH  15  17
HETATM   17  C   UNL     1      -7.767   3.331  66.124  1.00  0.00    -0.078 C  
BRANCH  17  18
HETATM   18  C   UNL     1      -6.969   4.510  65.518  1.00  0.00    -0.062 C  
BRANCH  18  19
HETATM   19  N   UNL     1      -6.603   4.385  64.088  1.00  0.00    -0.041 NA 
HETATM   20  C   UNL     1      -7.646   3.680  63.335  1.00  0.00    -0.059 C  
BRANCH  19  21
HETATM   21  C   UNL     1      -6.385   5.719  63.487  1.00  0.00    -0.025 C  
BRANCH  21  22
HETATM   22  C   UNL     1      -6.922   6.868  64.347  1.00  0.00    -0.055 C  
BRANCH  22  23
HETATM   23  C   UNL     1      -5.819   7.841  64.744  1.00  0.00    -0.038 C  
BRANCH  23  24
HETATM   24  O   UNL     1      -5.535   7.700  66.146  1.00  0.00    -0.027 OA 
BRANCH  24  25
HETATM   25  C   UNL     1      -6.179   8.570  66.965  1.00  0.00    -0.056 C  
HETATM   26  O   UNL     1      -6.342   9.762  66.763  1.00  0.00    -0.064 OA 
BRANCH  25  27
HETATM   27  C   UNL     1      -6.698   7.863  68.166  1.00  0.00    -0.064 A  
HETATM   28  C   UNL     1      -7.384   8.612  69.123  1.00  0.00    -0.076 A  
HETATM   29  C   UNL     1      -7.851   8.003  70.288  1.00  0.00    -0.088 A  
HETATM   30  C   UNL     1      -7.617   6.625  70.515  1.00  0.00    -0.099 A  
HETATM   31  C   UNL     1      -6.501   6.492  68.363  1.00  0.00    -0.049 A  
HETATM   32  C   UNL     1      -6.943   5.861  69.535  1.00  0.00    -0.063 A  
BRANCH  29  33
HETATM   33  O   UNL     1      -8.503   8.700  71.281  1.00  0.00    -0.148 OA 
HETATM   34  C   UNL     1      -9.896   8.929  71.083  1.00  0.00    -0.275 C  
ENDBRANCH  29  33
BRANCH  30  35
HETATM   35  O   UNL     1      -8.037   6.166  71.741  1.00  0.00    -0.109 OA 
HETATM   36  C   UNL     1      -9.246   5.423  71.808  1.00  0.00    -0.142 C  
ENDBRANCH  30  35
BRANCH  32  37
HETATM   37  O   UNL     1      -6.718   4.532  69.780  1.00  0.00    -0.035 OA 
HETATM   38  C   UNL     1      -5.570   3.922  69.201  1.00  0.00    -0.017 C  
ENDBRANCH  32  37
ENDBRANCH  25  27
ENDBRANCH  24  25
ENDBRANCH  23  24
ENDBRANCH  22  23
ENDBRANCH  21  22
ENDBRANCH  19  21
ENDBRANCH  18  19
ENDBRANCH  17  18
ENDBRANCH  15  17
ENDBRANCH  14  15
ENDBRANCH  13  14
ENDBRANCH  12  13
ENDBRANCH  11  12
ENDBRANCH   9  11
ENDBRANCH   5   9
BRANCH   8  39
HETATM   39  O   UNL     1     -11.037  13.521  65.326  1.00  0.00    -0.289 OA 
HETATM   40  C   UNL     1     -12.120  13.632  64.416  1.00  0.00    -0.427 C  
ENDBRANCH   8  39
BRANCH   7  41
HETATM   41  O   UNL     1     -12.058  14.205  67.934  1.00  0.00    -0.358 OA 
HETATM   42  C   UNL     1     -11.479  15.009  68.948  1.00  0.00    -0.314 C  
ENDBRANCH   7  41
ENDBRANCH   2   3
TORSDOF 21
ENDMDL
MODEL      214
REMARK 921   NORMALIZED FREE ENERGY PREDICTED BY IDOCK:   -3.45 KCAL/MOL
REMARK 922        TOTAL FREE ENERGY PREDICTED BY IDOCK:  -10.54 KCAL/MOL
REMARK 923 INTER-LIGAND FREE ENERGY PREDICTED BY IDOCK:   -8.65 KCAL/MOL
REMARK 924 INTRA-LIGAND FREE ENERGY PREDICTED BY IDOCK:   -1.89 KCAL/MOL
REMARK 927      BINDING AFFINITY PREDICTED BY RF-SCORE:    0.00 PKD
ROOT
HETATM    1  C   UNL     1      -7.605   8.099  69.503  1.00  0.00    -0.100 C  
HETATM    2  O   UNL     1      -6.670   8.348  68.457  1.00  0.00    -0.061 OA 
ENDROOT
BRANCH   2   3
HETATM    3  C   UNL     1      -6.761   7.551  67.342  1.00  0.00    -0.067 A  
HETATM    4  C   UNL     1      -7.329   6.273  67.429  1.00  0.00    -0.084 A  
HETATM    5  C   UNL     1      -7.434   5.443  66.312  1.00  0.00    -0.087 A  
HETATM    6  C   UNL     1      -6.971   5.900  65.083  1.00  0.00    -0.059 A  
HETATM    7  C   UNL     1      -6.323   8.040  66.090  1.00  0.00    -0.046 A  
HETATM    8  C   UNL     1      -6.425   7.191  64.958  1.00  0.00    -0.040 A  
BRANCH   5   9
HETATM    9  C   UNL     1      -8.040   4.106  66.528  1.00  0.00    -0.101 C  
HETATM   10  O   UNL     1      -8.109   3.268  65.641  1.00  0.00    -0.088 OA 
BRANCH   9  11
HETATM   11  O   UNL     1      -8.525   3.966  67.787  1.00  0.00    -0.093 OA 
BRANCH  11  12
HETATM   12  C   UNL     1      -7.650   3.250  68.678  1.00  0.00    -0.052 C  
BRANCH  12  13
HETATM   13  C   UNL     1      -8.084   3.490  70.121  1.00  0.00    -0.057 C  
BRANCH  13  14
HETATM   14  C   UNL     1      -9.495   4.074  70.198  1.00  0.00    -0.188 C  
BRANCH  14  15
HETATM   15  N   UNL     1      -9.705   4.952  71.368  1.00  0.00    -0.166 NA 
HETATM   16  C   UNL     1      -8.427   5.395  71.942  1.00  0.00    -0.127 C  
BRANCH  15  17
HETATM   17  C   UNL     1     -10.549   6.105  70.955  1.00  0.00    -0.242 C  
BRANCH  17  18
HETATM   18  C   UNL     1     -11.727   6.403  71.912  1.00  0.00    -0.328 C  
BRANCH  18  19
HETATM   19  N   UNL     1     -11.597   7.618  72.750  1.00  0.00    -0.319 NA 
HETATM   20  C   UNL     1     -10.378   8.363  72.415  1.00  0.00    -0.329 C  
BRANCH  19  21
HETATM   21  C   UNL     1     -12.771   8.501  72.573  1.00  0.00    -0.270 C  
BRANCH  21  22
HETATM   22  C   UNL     1     -12.921   9.035  71.145  1.00  0.00    -0.194 C  
BRANCH  22  23
HETATM   23  C   UNL     1     -12.940  10.558  71.109  1.00  0.00    -0.411 C  
BRANCH  23  24
HETATM   24  O   UNL     1     -11.656  11.045  70.685  1.00  0.00    -0.312 OA 
BRANCH  24  25
HETATM   25  C   UNL     1     -11.247  10.632  69.459  1.00  0.00    -0.272 C  
HETATM   26  O   UNL     1     -10.782   9.537  69.187  1.00  0.00    -0.222 OA 
BRANCH  25  27
HETATM   27  C   UNL     1     -11.464  11.704  68.452  1.00  0.00    -0.360 A  
HETATM   28  C   UNL     1     -11.279  11.388  67.106  1.00  0.00    -0.363 A  
HETATM   29  C   UNL     1     -11.427  12.370  66.126  1.00  0.00    -0.379 A  
HETATM   30  C   UNL     1     -11.750  13.699  66.494  1.00  0.00    -0.382 A  
HETATM   31  C   UNL     1     -11.825  13.005  68.819  1.00  0.00    -0.355 A  
HETATM   32  C   UNL     1     -11.960  14.016  67.856  1.00  0.00    -0.351 A  
BRANCH  29  33
HETATM   33  O   UNL     1     -11.224  12.122  64.787  1.00  0.00    -0.307 OA 
HETATM   34  C   UNL     1     -10.407  10.999  64.469  1.00  0.00    -0.354 C  
ENDBRANCH  29  33
BRANCH  30  35
HETATM   35  O   UNL     1     -11.769  14.594  65.451  1.00  0.00    -0.351 OA 
HETATM   36  C   UNL     1     -10.686  15.505  65.320  1.00  0.00    -0.422 C  
ENDBRANCH  30  35
BRANCH  32  37
HETATM   37  O   UNL     1     -12.260  15.310  68.190  1.00  0.00    -0.061 OA 
HETATM   38  C   UNL     1     -11.331  16.036  68.987  1.00  0.00    -0.363 C  
ENDBRANCH  32  37
ENDBRANCH  25  27
ENDBRANCH  24  25
ENDBRANCH  23  24
ENDBRANCH  22  23
ENDBRANCH  21  22
ENDBRANCH  19  21
ENDBRANCH  18  19
ENDBRANCH  17  18
ENDBRANCH  15  17
ENDBRANCH  14  15
ENDBRANCH  13  14
ENDBRANCH  12  13
ENDBRANCH  11  12
ENDBRANCH   9  11
ENDBRANCH   5   9
BRANCH   8  39
HETATM   39  O   UNL     1      -6.048   7.442  63.659  1.00  0.00    -0.047 OA 
HETATM   40  C   UNL     1      -7.030   7.492  62.636  1.00  0.00    -0.072 C  
ENDBRANCH   8  39
BRANCH   7  41
HETATM   41  O   UNL     1      -5.785   9.279  65.865  1.00  0.00    -0.048 OA 
HETATM   42  C   UNL     1      -6.612  10.391  65.566  1.00  0.00    -0.125 C  
ENDBRANCH   7  41
ENDBRANCH   2   3
TORSDOF 21
ENDMDL
MODEL      215
REMARK 921   NORMALIZED FREE ENERGY PREDICTED BY IDOCK:   -3.44 KCAL/MOL
REMARK 922        TOTAL FREE ENERGY PREDICTED BY IDOCK:  -10.53 KCAL/MOL
REMARK 923 INTER-LIGAND FREE ENERGY PREDICTED BY IDOCK:   -8.87 KCAL/MOL
REMARK 924 INTRA-LIGAND FREE ENERGY PREDICTED BY IDOCK:   -1.66 KCAL/MOL
REMARK 927      BINDING AFFINITY PREDICTED BY RF-SCORE:    0.00 PKD
ROOT
HETATM    1  C   UNL     1     -10.209   6.235  67.623  1.00  0.00    -0.169 C  
HETATM    2  O   UNL     1     -10.769   5.359  68.598  1.00  0.00    -0.154 OA 
ENDROOT
BRANCH   2   3
HETATM    3  C   UNL     1     -10.827   5.826  69.889  1.00  0.00    -0.347 A  
HETATM    4  C   UNL     1     -11.700   6.867  70.227  1.00  0.00    -0.344 A  
HETATM    5  C   UNL     1     -11.780   7.360  71.530  1.00  0.00    -0.314 A  
HETATM    6  C   UNL     1     -10.978   6.797  72.517  1.00  0.00    -0.281 A  
HETATM    7  C   UNL     1     -10.036   5.220  70.892  1.00  0.00    -0.226 A  
HETATM    8  C   UNL     1     -10.113   5.728  72.214  1.00  0.00    -0.184 A  
BRANCH   5   9
HETATM    9  C   UNL     1     -12.730   8.474  71.767  1.00  0.00    -0.349 C  
HETATM   10  O   UNL     1     -13.393   8.563  72.791  1.00  0.00    -0.219 OA 
BRANCH   9  11
HETATM   11  O   UNL     1     -12.790   9.323  70.711  1.00  0.00    -0.107 OA 
BRANCH  11  12
HETATM   12  C   UNL     1     -11.930  10.472  70.831  1.00  0.00    -0.377 C  
BRANCH  12  13
HETATM   13  C   UNL     1     -11.166  10.676  69.526  1.00  0.00    -0.331 C  
BRANCH  13  14
HETATM   14  C   UNL     1      -9.764  10.069  69.592  1.00  0.00    -0.229 C  
BRANCH  14  15
HETATM   15  N   UNL     1      -9.000  10.218  68.335  1.00  0.00    -0.129 NA 
HETATM   16  C   UNL     1      -9.826   9.894  67.164  1.00  0.00    -0.186 C  
BRANCH  15  17
HETATM   17  C   UNL     1      -8.467  11.604  68.262  1.00  0.00    -0.160 C  
BRANCH  17  18
HETATM   18  C   UNL     1      -6.942  11.710  68.502  1.00  0.00    -0.085 C  
BRANCH  18  19
HETATM   19  N   UNL     1      -6.516  11.966  69.898  1.00  0.00    -0.099 NA 
HETATM   20  C   UNL     1      -5.533  10.973  70.341  1.00  0.00    -0.106 C  
BRANCH  19  21
HETATM   21  C   UNL     1      -5.932  13.320  70.024  1.00  0.00    -0.134 C  
BRANCH  21  22
HETATM   22  C   UNL     1      -6.269  14.240  68.846  1.00  0.00    -0.089 C  
BRANCH  22  23
HETATM   23  C   UNL     1      -7.285  15.307  69.234  1.00  0.00    -0.184 C  
BRANCH  23  24
HETATM   24  O   UNL     1      -8.471  14.678  69.748  1.00  0.00     0.163 OA 
BRANCH  24  25
HETATM   25  C   UNL     1      -9.615  15.396  69.629  1.00  0.00    -0.229 C  
HETATM   26  O   UNL     1     -10.254  15.889  70.545  1.00  0.00    -0.026 OA 
BRANCH  25  27
HETATM   27  C   UNL     1      -9.995  15.533  68.198  1.00  0.00    -0.217 A  
HETATM   28  C   UNL     1      -9.929  16.801  67.619  1.00  0.00    -0.262 A  
HETATM   29  C   UNL     1     -10.318  16.988  66.292  1.00  0.00    -0.306 A  
HETATM   30  C   UNL     1     -10.797  15.895  65.529  1.00  0.00    -0.315 A  
HETATM   31  C   UNL     1     -10.427  14.441  67.437  1.00  0.00    -0.261 A  
HETATM   32  C   UNL     1     -10.843  14.606  66.108  1.00  0.00    -0.321 A  
BRANCH  29  33
HETATM   33  O   UNL     1     -10.306  18.222  65.681  1.00  0.00    -0.607 OA 
HETATM   34  C   UNL     1     -10.529  19.348  66.524  1.00  0.00    -0.476 C  
ENDBRANCH  29  33
BRANCH  30  35
HETATM   35  O   UNL     1     -11.243  16.225  64.271  1.00  0.00    -0.770 OA 
HETATM   36  C   UNL     1     -12.513  15.745  63.855  1.00  0.00     0.665 C  
ENDBRANCH  30  35
BRANCH  32  37
HETATM   37  O   UNL     1     -11.321  13.566  65.356  1.00  0.00    -0.288 OA 
HETATM   38  C   UNL     1     -10.425  12.903  64.471  1.00  0.00    -0.377 C  
ENDBRANCH  32  37
ENDBRANCH  25  27
ENDBRANCH  24  25
ENDBRANCH  23  24
ENDBRANCH  22  23
ENDBRANCH  21  22
ENDBRANCH  19  21
ENDBRANCH  18  19
ENDBRANCH  17  18
ENDBRANCH  15  17
ENDBRANCH  14  15
ENDBRANCH  13  14
ENDBRANCH  12  13
ENDBRANCH  11  12
ENDBRANCH   9  11
ENDBRANCH   5   9
BRANCH   8  39
HETATM   39  O   UNL     1      -9.430   5.316  73.334  1.00  0.00    -0.137 OA 
HETATM   40  C   UNL     1      -9.705   4.045  73.902  1.00  0.00    -0.114 C  
ENDBRANCH   8  39
BRANCH   7  41
HETATM   41  O   UNL     1      -9.172   4.175  70.699  1.00  0.00    -0.102 OA 
HETATM   42  C   UNL     1      -9.654   2.870  70.427  1.00  0.00    -0.086 C  
ENDBRANCH   7  41
ENDBRANCH   2   3
TORSDOF 21
ENDMDL
MODEL      216
REMARK 921   NORMALIZED FREE ENERGY PREDICTED BY IDOCK:   -3.43 KCAL/MOL
REMARK 922        TOTAL FREE ENERGY PREDICTED BY IDOCK:  -10.49 KCAL/MOL
REMARK 923 INTER-LIGAND FREE ENERGY PREDICTED BY IDOCK:   -8.67 KCAL/MOL
REMARK 924 INTRA-LIGAND FREE ENERGY PREDICTED BY IDOCK:   -1.82 KCAL/MOL
REMARK 927      BINDING AFFINITY PREDICTED BY RF-SCORE:    0.00 PKD
ROOT
HETATM    1  C   UNL     1      -5.424   4.115  64.684  1.00  0.00    -0.013 C  
HETATM    2  O   UNL     1      -6.089   5.273  65.184  1.00  0.00    -0.025 OA 
ENDROOT
BRANCH   2   3
HETATM    3  C   UNL     1      -7.151   5.061  66.029  1.00  0.00    -0.072 A  
HETATM    4  C   UNL     1      -7.353   3.804  66.612  1.00  0.00    -0.069 A  
HETATM    5  C   UNL     1      -8.424   3.562  67.474  1.00  0.00    -0.105 A  
HETATM    6  C   UNL     1      -9.306   4.597  67.765  1.00  0.00    -0.171 A  
HETATM    7  C   UNL     1      -8.019   6.130  66.349  1.00  0.00    -0.106 A  
HETATM    8  C   UNL     1      -9.110   5.880  67.219  1.00  0.00    -0.111 A  
BRANCH   5   9
HETATM    9  C   UNL     1      -8.545   2.188  68.019  1.00  0.00    -0.081 C  
HETATM   10  O   UNL     1      -9.592   1.558  67.980  1.00  0.00    -0.175 OA 
BRANCH   9  11
HETATM   11  O   UNL     1      -7.388   1.762  68.584  1.00  0.00    -0.043 OA 
BRANCH  11  12
HETATM   12  C   UNL     1      -7.274   2.060  69.988  1.00  0.00    -0.033 C  
BRANCH  12  13
HETATM   13  C   UNL     1      -8.617   1.817  70.672  1.00  0.00    -0.092 C  
BRANCH  13  14
HETATM   14  C   UNL     1      -9.079   3.043  71.460  1.00  0.00    -0.103 C  
BRANCH  14  15
HETATM   15  N   UNL     1     -10.133   2.741  72.452  1.00  0.00    -0.164 NA 
HETATM   16  C   UNL     1      -9.661   1.783  73.461  1.00  0.00    -0.072 C  
BRANCH  15  17
HETATM   17  C   UNL     1     -10.582   4.015  73.074  1.00  0.00    -0.174 C  
BRANCH  17  18
HETATM   18  C   UNL     1      -9.464   4.789  73.810  1.00  0.00    -0.124 C  
BRANCH  18  19
HETATM   19  N   UNL     1      -9.216   6.176  73.349  1.00  0.00    -0.131 NA 
HETATM   20  C   UNL     1      -7.890   6.298  72.734  1.00  0.00    -0.105 C  
BRANCH  19  21
HETATM   21  C   UNL     1     -10.247   6.592  72.372  1.00  0.00    -0.185 C  
BRANCH  21  22
HETATM   22  C   UNL     1     -10.994   7.865  72.781  1.00  0.00    -0.456 C  
BRANCH  22  23
HETATM   23  C   UNL     1     -10.830   8.974  71.750  1.00  0.00    -0.367 C  
BRANCH  23  24
HETATM   24  O   UNL     1     -12.007   9.044  70.928  1.00  0.00    -0.282 OA 
BRANCH  24  25
HETATM   25  C   UNL     1     -12.948   9.938  71.325  1.00  0.00    -0.395 C  
HETATM   26  O   UNL     1     -13.929   9.693  72.009  1.00  0.00    -0.273 OA 
BRANCH  25  27
HETATM   27  C   UNL     1     -12.613  11.298  70.827  1.00  0.00    -0.425 A  
HETATM   28  C   UNL     1     -12.924  12.390  71.639  1.00  0.00    -0.409 A  
HETATM   29  C   UNL     1     -12.670  13.688  71.197  1.00  0.00    -0.353 A  
HETATM   30  C   UNL     1     -12.111  13.908  69.914  1.00  0.00    -0.344 A  
HETATM   31  C   UNL     1     -12.021  11.506  69.576  1.00  0.00    -0.402 A  
HETATM   32  C   UNL     1     -11.775  12.802  69.100  1.00  0.00    -0.322 A  
BRANCH  29  33
HETATM   33  O   UNL     1     -12.987  14.802  71.942  1.00  0.00    -0.301 OA 
HETATM   34  C   UNL     1     -12.801  14.696  73.351  1.00  0.00    -0.406 C  
ENDBRANCH  29  33
BRANCH  30  35
HETATM   35  O   UNL     1     -12.002  15.230  69.555  1.00  0.00    -0.320 OA 
HETATM   36  C   UNL     1     -10.744  15.873  69.709  1.00  0.00    -0.324 C  
ENDBRANCH  30  35
BRANCH  32  37
HETATM   37  O   UNL     1     -11.246  13.038  67.860  1.00  0.00    -0.246 OA 
HETATM   38  C   UNL     1     -10.676  11.945  67.148  1.00  0.00    -0.240 C  
ENDBRANCH  32  37
ENDBRANCH  25  27
ENDBRANCH  24  25
ENDBRANCH  23  24
ENDBRANCH  22  23
ENDBRANCH  21  22
ENDBRANCH  19  21
ENDBRANCH  18  19
ENDBRANCH  17  18
ENDBRANCH  15  17
ENDBRANCH  14  15
ENDBRANCH  13  14
ENDBRANCH  12  13
ENDBRANCH  11  12
ENDBRANCH   9  11
ENDBRANCH   5   9
BRANCH   8  39
HETATM   39  O   UNL     1     -10.084   6.750  67.649  1.00  0.00    -0.142 OA 
HETATM   40  C   UNL     1     -11.009   6.340  68.644  1.00  0.00    -0.346 C  
ENDBRANCH   8  39
BRANCH   7  41
HETATM   41  O   UNL     1      -7.910   7.411  65.876  1.00  0.00    -0.094 OA 
HETATM   42  C   UNL     1      -7.147   8.383  66.571  1.00  0.00    -0.072 C  
ENDBRANCH   7  41
ENDBRANCH   2   3
TORSDOF 21
ENDMDL
MODEL      217
REMARK 921   NORMALIZED FREE ENERGY PREDICTED BY IDOCK:   -3.42 KCAL/MOL
REMARK 922        TOTAL FREE ENERGY PREDICTED BY IDOCK:  -10.49 KCAL/MOL
REMARK 923 INTER-LIGAND FREE ENERGY PREDICTED BY IDOCK:   -8.75 KCAL/MOL
REMARK 924 INTRA-LIGAND FREE ENERGY PREDICTED BY IDOCK:   -1.74 KCAL/MOL
REMARK 927      BINDING AFFINITY PREDICTED BY RF-SCORE:    0.00 PKD
ROOT
HETATM    1  C   UNL     1     -10.808   4.294  73.917  1.00  0.00    -0.257 C  
HETATM    2  O   UNL     1     -10.556   5.482  73.171  1.00  0.00    -0.211 OA 
ENDROOT
BRANCH   2   3
HETATM    3  C   UNL     1     -10.423   5.343  71.811  1.00  0.00    -0.226 A  
HETATM    4  C   UNL     1      -9.903   4.162  71.267  1.00  0.00    -0.249 A  
HETATM    5  C   UNL     1      -9.758   3.994  69.889  1.00  0.00    -0.263 A  
HETATM    6  C   UNL     1     -10.147   5.022  69.038  1.00  0.00    -0.238 A  
HETATM    7  C   UNL     1     -10.858   6.378  70.952  1.00  0.00    -0.263 A  
HETATM    8  C   UNL     1     -10.703   6.208  69.553  1.00  0.00    -0.320 A  
BRANCH   5   9
HETATM    9  C   UNL     1      -9.181   2.707  69.430  1.00  0.00    -0.128 C  
HETATM   10  O   UNL     1      -9.475   1.637  69.945  1.00  0.00    -0.107 OA 
BRANCH   9  11
HETATM   11  O   UNL     1      -8.285   2.880  68.428  1.00  0.00    -0.063 OA 
BRANCH  11  12
HETATM   12  C   UNL     1      -8.694   2.315  67.169  1.00  0.00    -0.123 C  
BRANCH  12  13
HETATM   13  C   UNL     1      -7.894   2.953  66.037  1.00  0.00    -0.081 C  
BRANCH  13  14
HETATM   14  C   UNL     1      -8.086   4.469  65.995  1.00  0.00    -0.103 C  
BRANCH  14  15
HETATM   15  N   UNL     1      -6.819   5.220  65.868  1.00  0.00    -0.059 NA 
HETATM   16  C   UNL     1      -6.071   4.809  64.672  1.00  0.00    -0.029 C  
BRANCH  15  17
HETATM   17  C   UNL     1      -7.126   6.675  65.849  1.00  0.00    -0.062 C  
BRANCH  17  18
HETATM   18  C   UNL     1      -8.136   7.096  64.756  1.00  0.00    -0.092 C  
BRANCH  18  19
HETATM   19  N   UNL     1      -7.761   8.273  63.938  1.00  0.00    -0.133 NA 
HETATM   20  C   UNL     1      -7.829   7.965  62.506  1.00  0.00    -0.141 C  
BRANCH  19  21
HETATM   21  C   UNL     1      -8.653   9.417  64.233  1.00  0.00    -0.196 C  
BRANCH  21  22
HETATM   22  C   UNL     1      -8.058  10.409  65.237  1.00  0.00    -0.152 C  
BRANCH  22  23
HETATM   23  C   UNL     1      -9.104  10.913  66.224  1.00  0.00    -0.176 C  
BRANCH  23  24
HETATM   24  O   UNL     1      -9.030  12.346  66.314  1.00  0.00    -0.158 OA 
BRANCH  24  25
HETATM   25  C   UNL     1      -8.549  12.836  67.484  1.00  0.00    -0.187 C  
HETATM   26  O   UNL     1      -7.801  12.255  68.254  1.00  0.00    -0.138 OA 
BRANCH  25  27
HETATM   27  C   UNL     1      -9.042  14.221  67.708  1.00  0.00    -0.195 A  
HETATM   28  C   UNL     1      -8.198  15.281  67.376  1.00  0.00    -0.207 A  
HETATM   29  C   UNL     1      -8.597  16.597  67.609  1.00  0.00    -0.200 A  
HETATM   30  C   UNL     1      -9.857  16.865  68.198  1.00  0.00    -0.264 A  
HETATM   31  C   UNL     1     -10.305  14.480  68.251  1.00  0.00    -0.236 A  
HETATM   32  C   UNL     1     -10.723  15.793  68.514  1.00  0.00    -0.274 A  
BRANCH  29  33
HETATM   33  O   UNL     1      -7.791  17.678  67.333  1.00  0.00    -0.200 OA 
HETATM   34  C   UNL     1      -7.118  17.662  66.077  1.00  0.00    -0.283 C  
ENDBRANCH  29  33
BRANCH  30  35
HETATM   35  O   UNL     1     -10.093  18.192  68.468  1.00  0.00    -0.366 OA 
HETATM   36  C   UNL     1     -10.735  18.981  67.477  1.00  0.00    -0.446 C  
ENDBRANCH  30  35
BRANCH  32  37
HETATM   37  O   UNL     1     -11.931  16.074  69.093  1.00  0.00    -0.340 OA 
HETATM   38  C   UNL     1     -12.237  15.474  70.347  1.00  0.00    -0.406 C  
ENDBRANCH  32  37
ENDBRANCH  25  27
ENDBRANCH  24  25
ENDBRANCH  23  24
ENDBRANCH  22  23
ENDBRANCH  21  22
ENDBRANCH  19  21
ENDBRANCH  18  19
ENDBRANCH  17  18
ENDBRANCH  15  17
ENDBRANCH  14  15
ENDBRANCH  13  14
ENDBRANCH  12  13
ENDBRANCH  11  12
ENDBRANCH   9  11
ENDBRANCH   5   9
BRANCH   8  39
HETATM   39  O   UNL     1     -11.031   7.078  68.539  1.00  0.00    -0.166 OA 
HETATM   40  C   UNL     1     -11.011   6.632  67.192  1.00  0.00    -0.408 C  
ENDBRANCH   8  39
BRANCH   7  41
HETATM   41  O   UNL     1     -11.416   7.563  71.355  1.00  0.00    -0.254 OA 
HETATM   42  C   UNL     1     -12.820   7.700  71.490  1.00  0.00    -0.344 C  
ENDBRANCH   7  41
ENDBRANCH   2   3
TORSDOF 21
ENDMDL
MODEL      218
REMARK 921   NORMALIZED FREE ENERGY PREDICTED BY IDOCK:   -3.42 KCAL/MOL
REMARK 922        TOTAL FREE ENERGY PREDICTED BY IDOCK:  -10.48 KCAL/MOL
REMARK 923 INTER-LIGAND FREE ENERGY PREDICTED BY IDOCK:   -7.83 KCAL/MOL
REMARK 924 INTRA-LIGAND FREE ENERGY PREDICTED BY IDOCK:   -2.66 KCAL/MOL
REMARK 927      BINDING AFFINITY PREDICTED BY RF-SCORE:    0.00 PKD
ROOT
HETATM    1  C   UNL     1      -9.729   3.532  71.017  1.00  0.00    -0.155 C  
HETATM    2  O   UNL     1     -10.584   4.242  71.911  1.00  0.00    -0.059 OA 
ENDROOT
BRANCH   2   3
HETATM    3  C   UNL     1     -10.277   5.560  72.146  1.00  0.00    -0.199 A  
HETATM    4  C   UNL     1     -10.707   6.556  71.261  1.00  0.00    -0.280 A  
HETATM    5  C   UNL     1     -10.409   7.903  71.476  1.00  0.00    -0.243 A  
HETATM    6  C   UNL     1      -9.675   8.262  72.601  1.00  0.00    -0.357 A  
HETATM    7  C   UNL     1      -9.563   5.918  73.313  1.00  0.00    -0.143 A  
HETATM    8  C   UNL     1      -9.256   7.286  73.525  1.00  0.00    -0.198 A  
BRANCH   5   9
HETATM    9  C   UNL     1     -10.905   8.867  70.464  1.00  0.00    -0.236 C  
HETATM   10  O   UNL     1     -11.124  10.040  70.729  1.00  0.00    -0.311 OA 
BRANCH   9  11
HETATM   11  O   UNL     1     -11.114   8.277  69.260  1.00  0.00    -0.031 OA 
BRANCH  11  12
HETATM   12  C   UNL     1      -9.976   8.317  68.380  1.00  0.00    -0.190 C  
BRANCH  12  13
HETATM   13  C   UNL     1     -10.267   7.491  67.131  1.00  0.00    -0.350 C  
BRANCH  13  14
HETATM   14  C   UNL     1     -10.720   6.074  67.483  1.00  0.00    -0.301 C  
BRANCH  14  15
HETATM   15  N   UNL     1      -9.748   5.032  67.090  1.00  0.00    -0.151 NA 
HETATM   16  C   UNL     1      -9.336   5.184  65.688  1.00  0.00    -0.138 C  
BRANCH  15  17
HETATM   17  C   UNL     1      -8.584   5.093  68.013  1.00  0.00    -0.103 C  
BRANCH  17  18
HETATM   18  C   UNL     1      -7.219   5.248  67.302  1.00  0.00    -0.075 C  
BRANCH  18  19
HETATM   19  N   UNL     1      -6.554   6.565  67.444  1.00  0.00    -0.058 NA 
HETATM   20  C   UNL     1      -5.956   6.714  68.774  1.00  0.00    -0.022 C  
BRANCH  19  21
HETATM   21  C   UNL     1      -5.502   6.731  66.415  1.00  0.00    -0.018 C  
BRANCH  21  22
HETATM   22  C   UNL     1      -5.701   7.970  65.537  1.00  0.00    -0.037 C  
BRANCH  22  23
HETATM   23  C   UNL     1      -6.774   7.748  64.479  1.00  0.00    -0.052 C  
BRANCH  23  24
HETATM   24  O   UNL     1      -7.062   8.992  63.818  1.00  0.00    -0.091 OA 
BRANCH  24  25
HETATM   25  C   UNL     1      -8.362   9.193  63.486  1.00  0.00    -0.188 C  
HETATM   26  O   UNL     1      -9.005   8.546  62.675  1.00  0.00     0.025 OA 
BRANCH  25  27
HETATM   27  C   UNL     1      -8.931  10.318  64.274  1.00  0.00    -0.261 A  
HETATM   28  C   UNL     1     -10.001  11.028  63.727  1.00  0.00    -0.404 A  
HETATM   29  C   UNL     1     -10.540  12.120  64.407  1.00  0.00    -0.323 A  
HETATM   30  C   UNL     1      -9.994  12.525  65.650  1.00  0.00    -0.245 A  
HETATM   31  C   UNL     1      -8.415  10.686  65.521  1.00  0.00    -0.177 A  
HETATM   32  C   UNL     1      -8.926  11.793  66.216  1.00  0.00    -0.176 A  
BRANCH  29  33
HETATM   33  O   UNL     1     -11.572  12.877  63.899  1.00  0.00    -0.391 OA 
HETATM   34  C   UNL     1     -12.671  12.158  63.346  1.00  0.00    -0.381 C  
ENDBRANCH  29  33
BRANCH  30  35
HETATM   35  O   UNL     1     -10.545  13.672  66.171  1.00  0.00    -0.284 OA 
HETATM   36  C   UNL     1      -9.874  14.905  65.951  1.00  0.00    -0.332 C  
ENDBRANCH  30  35
BRANCH  32  37
HETATM   37  O   UNL     1      -8.406  12.208  67.412  1.00  0.00    -0.157 OA 
HETATM   38  C   UNL     1      -7.039  12.600  67.458  1.00  0.00    -0.152 C  
ENDBRANCH  32  37
ENDBRANCH  25  27
ENDBRANCH  24  25
ENDBRANCH  23  24
ENDBRANCH  22  23
ENDBRANCH  21  22
ENDBRANCH  19  21
ENDBRANCH  18  19
ENDBRANCH  17  18
ENDBRANCH  15  17
ENDBRANCH  14  15
ENDBRANCH  13  14
ENDBRANCH  12  13
ENDBRANCH  11  12
ENDBRANCH   9  11
ENDBRANCH   5   9
BRANCH   8  39
HETATM   39  O   UNL     1      -8.563   7.860  74.565  1.00  0.00    -0.194 OA 
HETATM   40  C   UNL     1      -7.180   8.144  74.421  1.00  0.00    -0.181 C  
ENDBRANCH   8  39
BRANCH   7  41
HETATM   41  O   UNL     1      -9.119   5.047  74.272  1.00  0.00    -0.114 OA 
HETATM   42  C   UNL     1      -7.842   4.440  74.171  1.00  0.00    -0.092 C  
ENDBRANCH   7  41
ENDBRANCH   2   3
TORSDOF 21
ENDMDL
MODEL      219
REMARK 921   NORMALIZED FREE ENERGY PREDICTED BY IDOCK:   -3.42 KCAL/MOL
REMARK 922        TOTAL FREE ENERGY PREDICTED BY IDOCK:  -10.47 KCAL/MOL
REMARK 923 INTER-LIGAND FREE ENERGY PREDICTED BY IDOCK:   -9.84 KCAL/MOL
REMARK 924 INTRA-LIGAND FREE ENERGY PREDICTED BY IDOCK:   -0.63 KCAL/MOL
REMARK 927      BINDING AFFINITY PREDICTED BY RF-SCORE:    0.00 PKD
ROOT
HETATM    1  C   UNL     1     -11.930  13.629  69.801  1.00  0.00    -0.341 C  
HETATM    2  O   UNL     1     -12.359  14.552  68.803  1.00  0.00    -0.189 OA 
ENDROOT
BRANCH   2   3
HETATM    3  C   UNL     1     -11.624  14.597  67.644  1.00  0.00    -0.361 A  
HETATM    4  C   UNL     1     -11.726  13.568  66.699  1.00  0.00    -0.425 A  
HETATM    5  C   UNL     1     -10.990  13.590  65.513  1.00  0.00    -0.295 A  
HETATM    6  C   UNL     1     -10.142  14.663  65.262  1.00  0.00    -0.393 A  
HETATM    7  C   UNL     1     -10.794  15.711  67.381  1.00  0.00    -0.315 A  
HETATM    8  C   UNL     1     -10.042  15.727  66.178  1.00  0.00    -0.318 A  
BRANCH   5   9
HETATM    9  C   UNL     1     -11.170  12.438  64.595  1.00  0.00    -0.312 C  
HETATM   10  O   UNL     1     -11.461  12.581  63.416  1.00  0.00    -0.472 OA 
BRANCH   9  11
HETATM   11  O   UNL     1     -11.014  11.252  65.232  1.00  0.00    -0.234 OA 
BRANCH  11  12
HETATM   12  C   UNL     1      -9.777  11.132  65.958  1.00  0.00    -0.226 C  
BRANCH  12  13
HETATM   13  C   UNL     1      -9.099   9.813  65.598  1.00  0.00    -0.222 C  
BRANCH  13  14
HETATM   14  C   UNL     1      -7.687  10.034  65.053  1.00  0.00    -0.138 C  
BRANCH  14  15
HETATM   15  N   UNL     1      -6.630   9.864  66.073  1.00  0.00    -0.081 NA 
HETATM   16  C   UNL     1      -6.028  11.153  66.440  1.00  0.00    -0.145 C  
BRANCH  15  17
HETATM   17  C   UNL     1      -7.214   9.175  67.255  1.00  0.00    -0.083 C  
BRANCH  17  18
HETATM   18  C   UNL     1      -6.350   9.271  68.535  1.00  0.00    -0.053 C  
BRANCH  18  19
HETATM   19  N   UNL     1      -6.995   9.895  69.714  1.00  0.00    -0.080 NA 
HETATM   20  C   UNL     1      -6.256  11.082  70.154  1.00  0.00    -0.146 C  
BRANCH  19  21
HETATM   21  C   UNL     1      -8.391  10.278  69.402  1.00  0.00    -0.161 C  
BRANCH  21  22
HETATM   22  C   UNL     1      -9.431   9.502  70.217  1.00  0.00    -0.307 C  
BRANCH  22  23
HETATM   23  C   UNL     1     -10.017   8.339  69.426  1.00  0.00    -0.188 C  
BRANCH  23  24
HETATM   24  O   UNL     1     -11.252   7.922  70.030  1.00  0.00    -0.214 OA 
BRANCH  24  25
HETATM   25  C   UNL     1     -11.216   6.729  70.677  1.00  0.00    -0.312 C  
HETATM   26  O   UNL     1     -11.671   6.499  71.786  1.00  0.00    -0.296 OA 
BRANCH  25  27
HETATM   27  C   UNL     1     -10.553   5.701  69.833  1.00  0.00    -0.399 A  
HETATM   28  C   UNL     1     -10.024   4.574  70.464  1.00  0.00    -0.278 A  
HETATM   29  C   UNL     1      -9.353   3.603  69.720  1.00  0.00    -0.173 A  
HETATM   30  C   UNL     1      -9.191   3.763  68.322  1.00  0.00    -0.162 A  
HETATM   31  C   UNL     1     -10.433   5.844  68.447  1.00  0.00    -0.294 A  
HETATM   32  C   UNL     1      -9.746   4.892  67.679  1.00  0.00    -0.159 A  
BRANCH  29  33
HETATM   33  O   UNL     1      -8.783   2.490  70.295  1.00  0.00    -0.060 OA 
HETATM   34  C   UNL     1      -7.754   2.728  71.251  1.00  0.00    -0.044 C  
ENDBRANCH  29  33
BRANCH  30  35
HETATM   35  O   UNL     1      -8.427   2.791  67.720  1.00  0.00    -0.079 OA 
HETATM   36  C   UNL     1      -9.045   1.557  67.383  1.00  0.00    -0.117 C  
ENDBRANCH  30  35
BRANCH  32  37
HETATM   37  O   UNL     1      -9.567   5.032  66.329  1.00  0.00    -0.144 OA 
HETATM   38  C   UNL     1     -10.496   4.403  65.454  1.00  0.00    -0.193 C  
ENDBRANCH  32  37
ENDBRANCH  25  27
ENDBRANCH  24  25
ENDBRANCH  23  24
ENDBRANCH  22  23
ENDBRANCH  21  22
ENDBRANCH  19  21
ENDBRANCH  18  19
ENDBRANCH  17  18
ENDBRANCH  15  17
ENDBRANCH  14  15
ENDBRANCH  13  14
ENDBRANCH  12  13
ENDBRANCH  11  12
ENDBRANCH   9  11
ENDBRANCH   5   9
BRANCH   8  39
HETATM   39  O   UNL     1      -9.164  16.684  65.726  1.00  0.00    -0.502 OA 
HETATM   40  C   UNL     1      -7.831  16.706  66.213  1.00  0.00    -0.274 C  
ENDBRANCH   8  39
BRANCH   7  41
HETATM   41  O   UNL     1     -10.634  16.795  68.203  1.00  0.00    -0.319 OA 
HETATM   42  C   UNL     1     -10.773  18.115  67.706  1.00  0.00    -0.335 C  
ENDBRANCH   7  41
ENDBRANCH   2   3
TORSDOF 21
ENDMDL
MODEL      220
REMARK 921   NORMALIZED FREE ENERGY PREDICTED BY IDOCK:   -3.41 KCAL/MOL
REMARK 922        TOTAL FREE ENERGY PREDICTED BY IDOCK:  -10.45 KCAL/MOL
REMARK 923 INTER-LIGAND FREE ENERGY PREDICTED BY IDOCK:   -8.63 KCAL/MOL
REMARK 924 INTRA-LIGAND FREE ENERGY PREDICTED BY IDOCK:   -1.81 KCAL/MOL
REMARK 927      BINDING AFFINITY PREDICTED BY RF-SCORE:    0.00 PKD
ROOT
HETATM    1  C   UNL     1      -7.176   8.894  70.669  1.00  0.00    -0.075 C  
HETATM    2  O   UNL     1      -6.998   9.314  69.318  1.00  0.00    -0.052 OA 
ENDROOT
BRANCH   2   3
HETATM    3  C   UNL     1      -8.089   9.214  68.490  1.00  0.00    -0.103 A  
HETATM    4  C   UNL     1      -8.774   7.999  68.364  1.00  0.00    -0.130 A  
HETATM    5  C   UNL     1      -9.886   7.871  67.530  1.00  0.00    -0.221 A  
HETATM    6  C   UNL     1     -10.327   8.978  66.814  1.00  0.00    -0.310 A  
HETATM    7  C   UNL     1      -8.552  10.356  67.796  1.00  0.00    -0.122 A  
HETATM    8  C   UNL     1      -9.677  10.220  66.944  1.00  0.00    -0.186 A  
BRANCH   5   9
HETATM    9  C   UNL     1     -10.521   6.532  67.467  1.00  0.00    -0.240 C  
HETATM   10  O   UNL     1     -10.670   5.927  66.414  1.00  0.00    -0.211 OA 
BRANCH   9  11
HETATM   11  O   UNL     1     -10.937   6.108  68.686  1.00  0.00    -0.307 OA 
BRANCH  11  12
HETATM   12  C   UNL     1     -10.189   4.996  69.209  1.00  0.00    -0.174 C  
BRANCH  12  13
HETATM   13  C   UNL     1     -10.257   5.005  70.733  1.00  0.00    -0.299 C  
BRANCH  13  14
HETATM   14  C   UNL     1     -10.576   6.398  71.276  1.00  0.00    -0.230 C  
BRANCH  14  15
HETATM   15  N   UNL     1     -11.971   6.542  71.744  1.00  0.00    -0.339 NA 
HETATM   16  C   UNL     1     -12.394   5.376  72.531  1.00  0.00     0.396 C  
BRANCH  15  17
HETATM   17  C   UNL     1     -12.084   7.802  72.527  1.00  0.00    -0.202 C  
BRANCH  17  18
HETATM   18  C   UNL     1     -12.720   8.977  71.746  1.00  0.00    -0.366 C  
BRANCH  18  19
HETATM   19  N   UNL     1     -11.865  10.171  71.553  1.00  0.00    -0.333 NA 
HETATM   20  C   UNL     1     -10.774   9.894  70.613  1.00  0.00    -0.303 C  
BRANCH  19  21
HETATM   21  C   UNL     1     -12.666  11.309  71.048  1.00  0.00    -0.359 C  
BRANCH  21  22
HETATM   22  C   UNL     1     -11.880  12.242  70.122  1.00  0.00    -0.352 C  
BRANCH  22  23
HETATM   23  C   UNL     1     -11.906  13.683  70.615  1.00  0.00    -0.154 C  
BRANCH  23  24
HETATM   24  O   UNL     1     -11.069  14.495  69.774  1.00  0.00    -0.251 OA 
BRANCH  24  25
HETATM   25  C   UNL     1     -11.063  15.822  70.057  1.00  0.00    -0.344 C  
HETATM   26  O   UNL     1     -11.613  16.357  71.006  1.00  0.00    -0.380 OA 
BRANCH  25  27
HETATM   27  C   UNL     1     -10.258  16.563  69.051  1.00  0.00    -0.285 A  
HETATM   28  C   UNL     1     -10.433  16.241  67.704  1.00  0.00    -0.295 A  
HETATM   29  C   UNL     1      -9.669  16.877  66.725  1.00  0.00    -0.266 A  
HETATM   30  C   UNL     1      -8.700  17.842  67.094  1.00  0.00    -0.243 A  
HETATM   31  C   UNL     1      -9.333  17.546  69.418  1.00  0.00     0.288 A  
HETATM   32  C   UNL     1      -8.538  18.186  68.455  1.00  0.00    -0.294 A  
BRANCH  29  33
HETATM   33  O   UNL     1      -9.775  16.574  65.386  1.00  0.00    -0.496 OA 
HETATM   34  C   UNL     1     -10.941  17.050  64.720  1.00  0.00     0.219 C  
ENDBRANCH  29  33
BRANCH  30  35
HETATM   35  O   UNL     1      -7.944  18.323  66.050  1.00  0.00    -0.458 OA 
HETATM   36  C   UNL     1      -7.931  19.724  65.813  1.00  0.00    -0.180 C  
ENDBRANCH  30  35
BRANCH  32  37
HETATM   37  O   UNL     1      -7.588  19.113  68.790  1.00  0.00    -0.331 OA 
HETATM   38  C   UNL     1      -6.665  18.794  69.824  1.00  0.00    -0.007 C  
ENDBRANCH  32  37
ENDBRANCH  25  27
ENDBRANCH  24  25
ENDBRANCH  23  24
ENDBRANCH  22  23
ENDBRANCH  21  22
ENDBRANCH  19  21
ENDBRANCH  18  19
ENDBRANCH  17  18
ENDBRANCH  15  17
ENDBRANCH  14  15
ENDBRANCH  13  14
ENDBRANCH  12  13
ENDBRANCH  11  12
ENDBRANCH   9  11
ENDBRANCH   5   9
BRANCH   8  39
HETATM   39  O   UNL     1     -10.285  11.176  66.163  1.00  0.00    -0.229 OA 
HETATM   40  C   UNL     1      -9.841  11.387  64.832  1.00  0.00    -0.258 C  
ENDBRANCH   8  39
BRANCH   7  41
HETATM   41  O   UNL     1      -7.995  11.606  67.861  1.00  0.00    -0.119 OA 
HETATM   42  C   UNL     1      -7.112  12.064  66.851  1.00  0.00    -0.033 C  
ENDBRANCH   7  41
ENDBRANCH   2   3
TORSDOF 21
ENDMDL
MODEL      221
REMARK 921   NORMALIZED FREE ENERGY PREDICTED BY IDOCK:   -3.38 KCAL/MOL
REMARK 922        TOTAL FREE ENERGY PREDICTED BY IDOCK:  -10.38 KCAL/MOL
REMARK 923 INTER-LIGAND FREE ENERGY PREDICTED BY IDOCK:   -7.41 KCAL/MOL
REMARK 924 INTRA-LIGAND FREE ENERGY PREDICTED BY IDOCK:   -2.97 KCAL/MOL
REMARK 927      BINDING AFFINITY PREDICTED BY RF-SCORE:    0.00 PKD
ROOT
HETATM    1  C   UNL     1     -12.230  11.395  69.288  1.00  0.00    -0.204 C  
HETATM    2  O   UNL     1     -11.976  11.831  67.955  1.00  0.00    -0.575 OA 
ENDROOT
BRANCH   2   3
HETATM    3  C   UNL     1     -10.755  12.412  67.716  1.00  0.00    -0.221 A  
HETATM    4  C   UNL     1      -9.579  11.806  68.176  1.00  0.00    -0.193 A  
HETATM    5  C   UNL     1      -8.326  12.375  67.946  1.00  0.00    -0.165 A  
HETATM    6  C   UNL     1      -8.244  13.568  67.236  1.00  0.00    -0.164 A  
HETATM    7  C   UNL     1     -10.679  13.604  66.959  1.00  0.00    -0.278 A  
HETATM    8  C   UNL     1      -9.405  14.184  66.734  1.00  0.00    -0.282 A  
BRANCH   5   9
HETATM    9  C   UNL     1      -7.153  11.650  68.493  1.00  0.00    -0.089 C  
HETATM   10  O   UNL     1      -6.041  11.731  67.991  1.00  0.00    -0.046 OA 
BRANCH   9  11
HETATM   11  O   UNL     1      -7.483  10.882  69.561  1.00  0.00    -0.137 OA 
BRANCH  11  12
HETATM   12  C   UNL     1      -6.382  10.138  70.113  1.00  0.00    -0.107 C  
BRANCH  12  13
HETATM   13  C   UNL     1      -6.601   8.647  69.873  1.00  0.00    -0.041 C  
BRANCH  13  14
HETATM   14  C   UNL     1      -5.474   8.037  69.039  1.00  0.00    -0.030 C  
BRANCH  14  15
HETATM   15  N   UNL     1      -5.784   6.683  68.533  1.00  0.00    -0.016 NA 
HETATM   16  C   UNL     1      -6.276   5.809  69.606  1.00  0.00    -0.032 C  
BRANCH  15  17
HETATM   17  C   UNL     1      -6.772   6.802  67.427  1.00  0.00    -0.067 C  
BRANCH  17  18
HETATM   18  C   UNL     1      -6.457   7.930  66.415  1.00  0.00    -0.047 C  
BRANCH  18  19
HETATM   19  N   UNL     1      -7.533   8.923  66.188  1.00  0.00    -0.090 NA 
HETATM   20  C   UNL     1      -7.141   9.903  65.170  1.00  0.00    -0.129 C  
BRANCH  19  21
HETATM   21  C   UNL     1      -8.780   8.250  65.761  1.00  0.00    -0.166 C  
BRANCH  21  22
HETATM   22  C   UNL     1     -10.050   8.973  66.222  1.00  0.00    -0.311 C  
BRANCH  22  23
HETATM   23  C   UNL     1     -10.776   8.201  67.316  1.00  0.00    -0.193 C  
BRANCH  23  24
HETATM   24  O   UNL     1      -9.847   7.854  68.357  1.00  0.00    -0.163 OA 
BRANCH  24  25
HETATM   25  C   UNL     1     -10.390   7.651  69.584  1.00  0.00    -0.213 C  
HETATM   26  O   UNL     1     -11.132   8.417  70.178  1.00  0.00    -0.245 OA 
BRANCH  25  27
HETATM   27  C   UNL     1      -9.975   6.329  70.122  1.00  0.00    -0.209 A  
HETATM   28  C   UNL     1      -9.920   5.249  69.240  1.00  0.00    -0.285 A  
HETATM   29  C   UNL     1      -9.579   3.979  69.706  1.00  0.00    -0.210 A  
HETATM   30  C   UNL     1      -9.302   3.775  71.080  1.00  0.00    -0.149 A  
HETATM   31  C   UNL     1      -9.660   6.143  71.473  1.00  0.00    -0.172 A  
HETATM   32  C   UNL     1      -9.335   4.872  71.970  1.00  0.00    -0.141 A  
BRANCH  29  33
HETATM   33  O   UNL     1      -9.543   2.872  68.888  1.00  0.00    -0.144 OA 
HETATM   34  C   UNL     1      -8.553   2.874  67.863  1.00  0.00    -0.093 C  
ENDBRANCH  29  33
BRANCH  30  35
HETATM   35  O   UNL     1      -9.078   2.464  71.431  1.00  0.00    -0.080 OA 
HETATM   36  C   UNL     1     -10.186   1.673  71.837  1.00  0.00    -0.127 C  
ENDBRANCH  30  35
BRANCH  32  37
HETATM   37  O   UNL     1      -9.075   4.650  73.296  1.00  0.00    -0.115 OA 
HETATM   38  C   UNL     1      -7.808   4.113  73.657  1.00  0.00    -0.085 C  
ENDBRANCH  32  37
ENDBRANCH  25  27
ENDBRANCH  24  25
ENDBRANCH  23  24
ENDBRANCH  22  23
ENDBRANCH  21  22
ENDBRANCH  19  21
ENDBRANCH  18  19
ENDBRANCH  17  18
ENDBRANCH  15  17
ENDBRANCH  14  15
ENDBRANCH  13  14
ENDBRANCH  12  13
ENDBRANCH  11  12
ENDBRANCH   9  11
ENDBRANCH   5   9
BRANCH   8  39
HETATM   39  O   UNL     1      -9.094  15.338  66.053  1.00  0.00    -0.310 OA 
HETATM   40  C   UNL     1      -8.084  16.201  66.552  1.00  0.00    -0.296 C  
ENDBRANCH   8  39
BRANCH   7  41
HETATM   41  O   UNL     1     -11.748  14.275  66.424  1.00  0.00    -0.362 OA 
HETATM   42  C   UNL     1     -12.244  13.948  65.137  1.00  0.00    -0.427 C  
ENDBRANCH   7  41
ENDBRANCH   2   3
TORSDOF 21
ENDMDL
MODEL      222
REMARK 921   NORMALIZED FREE ENERGY PREDICTED BY IDOCK:   -3.38 KCAL/MOL
REMARK 922        TOTAL FREE ENERGY PREDICTED BY IDOCK:  -10.38 KCAL/MOL
REMARK 923 INTER-LIGAND FREE ENERGY PREDICTED BY IDOCK:   -8.67 KCAL/MOL
REMARK 924 INTRA-LIGAND FREE ENERGY PREDICTED BY IDOCK:   -1.71 KCAL/MOL
REMARK 927      BINDING AFFINITY PREDICTED BY RF-SCORE:    0.00 PKD
ROOT
HETATM    1  C   UNL     1      -8.089   5.675  64.212  1.00  0.00    -0.127 C  
HETATM    2  O   UNL     1      -8.345   7.036  63.872  1.00  0.00     0.028 OA 
ENDROOT
BRANCH   2   3
HETATM    3  C   UNL     1      -8.242   7.957  64.885  1.00  0.00    -0.124 A  
HETATM    4  C   UNL     1      -7.588   7.628  66.079  1.00  0.00    -0.088 A  
HETATM    5  C   UNL     1      -7.469   8.545  67.124  1.00  0.00    -0.085 A  
HETATM    6  C   UNL     1      -8.006   9.819  66.971  1.00  0.00    -0.105 A  
HETATM    7  C   UNL     1      -8.757   9.262  64.705  1.00  0.00    -0.192 A  
HETATM    8  C   UNL     1      -8.641  10.189  65.771  1.00  0.00    -0.149 A  
BRANCH   5   9
HETATM    9  C   UNL     1      -6.768   8.079  68.345  1.00  0.00    -0.067 C  
HETATM   10  O   UNL     1      -6.095   7.058  68.365  1.00  0.00    -0.031 OA 
BRANCH   9  11
HETATM   11  O   UNL     1      -7.005   8.889  69.407  1.00  0.00    -0.051 OA 
BRANCH  11  12
HETATM   12  C   UNL     1      -8.327   8.762  69.960  1.00  0.00    -0.127 C  
BRANCH  12  13
HETATM   13  C   UNL     1      -8.253   8.035  71.300  1.00  0.00    -0.119 C  
BRANCH  13  14
HETATM   14  C   UNL     1      -9.041   6.725  71.276  1.00  0.00    -0.150 C  
BRANCH  14  15
HETATM   15  N   UNL     1     -10.163   6.697  72.239  1.00  0.00    -0.186 NA 
HETATM   16  C   UNL     1      -9.813   7.380  73.491  1.00  0.00    -0.312 C  
BRANCH  15  17
HETATM   17  C   UNL     1     -11.358   7.308  71.596  1.00  0.00    -0.254 C  
BRANCH  17  18
HETATM   18  C   UNL     1     -11.622   8.773  72.016  1.00  0.00    -0.366 C  
BRANCH  18  19
HETATM   19  N   UNL     1     -12.843   9.402  71.459  1.00  0.00    -0.341 NA 
HETATM   20  C   UNL     1     -14.021   9.079  72.272  1.00  0.00    -0.455 C  
BRANCH  19  21
HETATM   21  C   UNL     1     -12.687  10.872  71.391  1.00  0.00    -0.434 C  
BRANCH  21  22
HETATM   22  C   UNL     1     -11.962  11.349  70.129  1.00  0.00    -0.460 C  
BRANCH  22  23
HETATM   23  C   UNL     1     -12.398  12.750  69.720  1.00  0.00    -0.032 C  
BRANCH  23  24
HETATM   24  O   UNL     1     -11.282  13.650  69.820  1.00  0.00    -0.160 OA 
BRANCH  24  25
HETATM   25  C   UNL     1     -11.558  14.957  69.583  1.00  0.00    -0.303 C  
HETATM   26  O   UNL     1     -12.649  15.493  69.695  1.00  0.00    -0.206 OA 
BRANCH  25  27
HETATM   27  C   UNL     1     -10.325  15.683  69.179  1.00  0.00    -0.241 A  
HETATM   28  C   UNL     1     -10.466  16.938  68.586  1.00  0.00    -0.352 A  
HETATM   29  C   UNL     1      -9.342  17.640  68.150  1.00  0.00    -0.279 A  
HETATM   30  C   UNL     1      -8.051  17.074  68.292  1.00  0.00    -0.228 A  
HETATM   31  C   UNL     1      -9.050  15.138  69.362  1.00  0.00    -0.180 A  
HETATM   32  C   UNL     1      -7.905  15.814  68.913  1.00  0.00    -0.190 A  
BRANCH  29  33
HETATM   33  O   UNL     1      -9.425  18.865  67.527  1.00  0.00    -0.296 OA 
HETATM   34  C   UNL     1     -10.700  19.500  67.548  1.00  0.00    -0.440 C  
ENDBRANCH  29  33
BRANCH  30  35
HETATM   35  O   UNL     1      -7.036  17.816  67.734  1.00  0.00    -0.189 OA 
HETATM   36  C   UNL     1      -6.132  18.486  68.601  1.00  0.00    -0.204 C  
ENDBRANCH  30  35
BRANCH  32  37
HETATM   37  O   UNL     1      -6.649  15.281  69.030  1.00  0.00    -0.108 OA 
HETATM   38  C   UNL     1      -6.292  14.650  70.255  1.00  0.00    -0.171 C  
ENDBRANCH  32  37
ENDBRANCH  25  27
ENDBRANCH  24  25
ENDBRANCH  23  24
ENDBRANCH  22  23
ENDBRANCH  21  22
ENDBRANCH  19  21
ENDBRANCH  18  19
ENDBRANCH  17  18
ENDBRANCH  15  17
ENDBRANCH  14  15
ENDBRANCH  13  14
ENDBRANCH  12  13
ENDBRANCH  11  12
ENDBRANCH   9  11
ENDBRANCH   5   9
BRANCH   8  39
HETATM   39  O   UNL     1      -9.081  11.491  65.829  1.00  0.00    -0.209 OA 
HETATM   40  C   UNL     1      -9.017  12.204  67.055  1.00  0.00    -0.201 C  
ENDBRANCH   8  39
BRANCH   7  41
HETATM   41  O   UNL     1      -9.384   9.719  63.576  1.00  0.00    -0.253 OA 
HETATM   42  C   UNL     1      -8.668  10.429  62.580  1.00  0.00    -0.231 C  
ENDBRANCH   7  41
ENDBRANCH   2   3
TORSDOF 21
ENDMDL
MODEL      223
REMARK 921   NORMALIZED FREE ENERGY PREDICTED BY IDOCK:   -3.37 KCAL/MOL
REMARK 922        TOTAL FREE ENERGY PREDICTED BY IDOCK:  -10.38 KCAL/MOL
REMARK 923 INTER-LIGAND FREE ENERGY PREDICTED BY IDOCK:   -7.70 KCAL/MOL
REMARK 924 INTRA-LIGAND FREE ENERGY PREDICTED BY IDOCK:   -2.68 KCAL/MOL
REMARK 927      BINDING AFFINITY PREDICTED BY RF-SCORE:    0.00 PKD
ROOT
HETATM    1  C   UNL     1     -12.029  15.280  64.501  1.00  0.00    -0.271 C  
HETATM    2  O   UNL     1     -10.885  14.432  64.441  1.00  0.00    -0.310 OA 
ENDROOT
BRANCH   2   3
HETATM    3  C   UNL     1     -10.477  13.858  65.619  1.00  0.00    -0.312 A  
HETATM    4  C   UNL     1      -9.715  14.591  66.538  1.00  0.00    -0.301 A  
HETATM    5  C   UNL     1      -9.289  14.032  67.744  1.00  0.00    -0.205 A  
HETATM    6  C   UNL     1      -9.635  12.719  68.041  1.00  0.00    -0.217 A  
HETATM    7  C   UNL     1     -10.868  12.535  65.930  1.00  0.00    -0.269 A  
HETATM    8  C   UNL     1     -10.426  11.967  67.152  1.00  0.00    -0.220 A  
BRANCH   5   9
HETATM    9  C   UNL     1      -8.475  14.899  68.632  1.00  0.00    -0.166 C  
HETATM   10  O   UNL     1      -8.946  15.869  69.209  1.00  0.00    -0.242 OA 
BRANCH   9  11
HETATM   11  O   UNL     1      -7.179  14.505  68.677  1.00  0.00    -0.110 OA 
BRANCH  11  12
HETATM   12  C   UNL     1      -6.618  14.482  70.003  1.00  0.00    -0.140 C  
BRANCH  12  13
HETATM   13  C   UNL     1      -5.687  13.280  70.143  1.00  0.00    -0.137 C  
BRANCH  13  14
HETATM   14  C   UNL     1      -6.433  11.961  69.936  1.00  0.00    -0.048 C  
BRANCH  14  15
HETATM   15  N   UNL     1      -5.566  10.770  70.062  1.00  0.00    -0.056 NA 
HETATM   16  C   UNL     1      -5.173  10.540  71.459  1.00  0.00    -0.047 C  
BRANCH  15  17
HETATM   17  C   UNL     1      -6.282   9.597  69.494  1.00  0.00    -0.040 C  
BRANCH  17  18
HETATM   18  C   UNL     1      -5.553   8.923  68.307  1.00  0.00    -0.038 C  
BRANCH  18  19
HETATM   19  N   UNL     1      -6.025   9.297  66.953  1.00  0.00    -0.058 NA 
HETATM   20  C   UNL     1      -5.366   8.487  65.923  1.00  0.00    -0.031 C  
BRANCH  19  21
HETATM   21  C   UNL     1      -7.491   9.123  66.847  1.00  0.00    -0.091 C  
BRANCH  21  22
HETATM   22  C   UNL     1      -7.922   7.658  66.718  1.00  0.00    -0.111 C  
BRANCH  22  23
HETATM   23  C   UNL     1      -9.305   7.528  66.092  1.00  0.00    -0.069 C  
BRANCH  23  24
HETATM   24  O   UNL     1     -10.298   7.458  67.129  1.00  0.00    -0.245 OA 
BRANCH  24  25
HETATM   25  C   UNL     1     -10.738   6.212  67.436  1.00  0.00    -0.322 C  
HETATM   26  O   UNL     1     -11.001   5.325  66.639  1.00  0.00    -0.184 OA 
BRANCH  25  27
HETATM   27  C   UNL     1     -10.842   6.047  68.910  1.00  0.00    -0.400 A  
HETATM   28  C   UNL     1      -9.872   5.279  69.555  1.00  0.00    -0.270 A  
HETATM   29  C   UNL     1      -9.952   5.058  70.931  1.00  0.00    -0.216 A  
HETATM   30  C   UNL     1     -11.027   5.599  71.678  1.00  0.00    -0.211 A  
HETATM   31  C   UNL     1     -11.883   6.620  69.649  1.00  0.00    -0.071 A  
HETATM   32  C   UNL     1     -11.997   6.396  71.029  1.00  0.00    -0.201 A  
BRANCH  29  33
HETATM   33  O   UNL     1      -9.042   4.281  71.612  1.00  0.00    -0.116 OA 
HETATM   34  C   UNL     1      -7.722   4.804  71.726  1.00  0.00    -0.097 C  
ENDBRANCH  29  33
BRANCH  30  35
HETATM   35  O   UNL     1     -11.048   5.228  73.002  1.00  0.00    -0.272 OA 
HETATM   36  C   UNL     1     -10.363   6.043  73.944  1.00  0.00    -0.284 C  
ENDBRANCH  30  35
BRANCH  32  37
HETATM   37  O   UNL     1     -13.033   6.899  71.769  1.00  0.00    -0.363 OA 
HETATM   38  C   UNL     1     -13.244   8.307  71.769  1.00  0.00    -0.347 C  
ENDBRANCH  32  37
ENDBRANCH  25  27
ENDBRANCH  24  25
ENDBRANCH  23  24
ENDBRANCH  22  23
ENDBRANCH  21  22
ENDBRANCH  19  21
ENDBRANCH  18  19
ENDBRANCH  17  18
ENDBRANCH  15  17
ENDBRANCH  14  15
ENDBRANCH  13  14
ENDBRANCH  12  13
ENDBRANCH  11  12
ENDBRANCH   9  11
ENDBRANCH   5   9
BRANCH   8  39
HETATM   39  O   UNL     1     -10.662  10.706  67.648  1.00  0.00    -0.226 OA 
HETATM   40  C   UNL     1     -10.345  10.409  68.999  1.00  0.00    -0.214 C  
ENDBRANCH   8  39
BRANCH   7  41
HETATM   41  O   UNL     1     -11.638  11.727  65.135  1.00  0.00    -0.260 OA 
HETATM   42  C   UNL     1     -11.068  11.007  64.056  1.00  0.00     0.088 C  
ENDBRANCH   7  41
ENDBRANCH   2   3
TORSDOF 21
ENDMDL
MODEL      224
REMARK 921   NORMALIZED FREE ENERGY PREDICTED BY IDOCK:   -3.37 KCAL/MOL
REMARK 922        TOTAL FREE ENERGY PREDICTED BY IDOCK:  -10.38 KCAL/MOL
REMARK 923 INTER-LIGAND FREE ENERGY PREDICTED BY IDOCK:   -8.52 KCAL/MOL
REMARK 924 INTRA-LIGAND FREE ENERGY PREDICTED BY IDOCK:   -1.85 KCAL/MOL
REMARK 927      BINDING AFFINITY PREDICTED BY RF-SCORE:    0.00 PKD
ROOT
HETATM    1  C   UNL     1      -9.428   3.514  68.032  1.00  0.00    -0.160 C  
HETATM    2  O   UNL     1      -8.113   3.219  68.498  1.00  0.00    -0.061 OA 
ENDROOT
BRANCH   2   3
HETATM    3  C   UNL     1      -7.558   4.105  69.388  1.00  0.00    -0.054 A  
HETATM    4  C   UNL     1      -7.863   4.023  70.752  1.00  0.00    -0.051 A  
HETATM    5  C   UNL     1      -7.314   4.910  71.679  1.00  0.00    -0.074 A  
HETATM    6  C   UNL     1      -6.436   5.894  71.236  1.00  0.00    -0.045 A  
HETATM    7  C   UNL     1      -6.637   5.077  68.933  1.00  0.00    -0.048 A  
HETATM    8  C   UNL     1      -6.086   5.981  69.875  1.00  0.00    -0.026 A  
BRANCH   5   9
HETATM    9  C   UNL     1      -7.721   4.736  73.095  1.00  0.00    -0.092 C  
HETATM   10  O   UNL     1      -8.314   3.741  73.487  1.00  0.00    -0.086 OA 
BRANCH   9  11
HETATM   11  O   UNL     1      -7.396   5.812  73.853  1.00  0.00    -0.088 OA 
BRANCH  11  12
HETATM   12  C   UNL     1      -8.507   6.388  74.564  1.00  0.00    -0.136 C  
BRANCH  12  13
HETATM   13  C   UNL     1      -9.422   7.113  73.581  1.00  0.00    -0.265 C  
BRANCH  13  14
HETATM   14  C   UNL     1      -8.695   8.257  72.872  1.00  0.00    -0.221 C  
BRANCH  14  15
HETATM   15  N   UNL     1      -9.520   8.932  71.849  1.00  0.00    -0.324 NA 
HETATM   16  C   UNL     1      -9.187   8.464  70.497  1.00  0.00    -0.151 C  
BRANCH  15  17
HETATM   17  C   UNL     1     -10.956   8.707  72.169  1.00  0.00    -0.364 C  
BRANCH  17  18
HETATM   18  C   UNL     1     -11.896   8.775  70.942  1.00  0.00    -0.230 C  
BRANCH  18  19
HETATM   19  N   UNL     1     -12.975   9.789  71.000  1.00  0.00    -0.320 NA 
HETATM   20  C   UNL     1     -13.636   9.781  72.309  1.00  0.00    -0.308 C  
BRANCH  19  21
HETATM   21  C   UNL     1     -12.434  11.140  70.735  1.00  0.00    -0.384 C  
BRANCH  21  22
HETATM   22  C   UNL     1     -11.768  11.271  69.362  1.00  0.00    -0.409 C  
BRANCH  22  23
HETATM   23  C   UNL     1     -11.718  12.719  68.892  1.00  0.00    -0.326 C  
BRANCH  23  24
HETATM   24  O   UNL     1     -10.522  12.935  68.125  1.00  0.00    -0.223 OA 
BRANCH  24  25
HETATM   25  C   UNL     1     -10.641  13.791  67.079  1.00  0.00    -0.278 C  
HETATM   26  O   UNL     1     -11.119  13.529  65.987  1.00  0.00    -0.292 OA 
BRANCH  25  27
HETATM   27  C   UNL     1     -10.123  15.135  67.447  1.00  0.00    -0.229 A  
HETATM   28  C   UNL     1      -8.971  15.203  68.231  1.00  0.00    -0.175 A  
HETATM   29  C   UNL     1      -8.471  16.440  68.640  1.00  0.00    -0.229 A  
HETATM   30  C   UNL     1      -9.141  17.634  68.276  1.00  0.00    -0.276 A  
HETATM   31  C   UNL     1     -10.765  16.312  67.048  1.00  0.00    -0.233 A  
HETATM   32  C   UNL     1     -10.295  17.568  67.463  1.00  0.00    -0.356 A  
BRANCH  29  33
HETATM   33  O   UNL     1      -7.359  16.564  69.442  1.00  0.00    -0.230 OA 
HETATM   34  C   UNL     1      -6.212  15.811  69.055  1.00  0.00    -0.119 C  
ENDBRANCH  29  33
BRANCH  30  35
HETATM   35  O   UNL     1      -8.609  18.778  68.822  1.00  0.00    -0.336 OA 
HETATM   36  C   UNL     1      -7.600  19.468  68.099  1.00  0.00    -0.303 C  
ENDBRANCH  30  35
BRANCH  32  37
HETATM   37  O   UNL     1     -10.932  18.733  67.132  1.00  0.00    -0.380 OA 
HETATM   38  C   UNL     1     -10.411  19.509  66.060  1.00  0.00    -0.511 C  
ENDBRANCH  32  37
ENDBRANCH  25  27
ENDBRANCH  24  25
ENDBRANCH  23  24
ENDBRANCH  22  23
ENDBRANCH  21  22
ENDBRANCH  19  21
ENDBRANCH  18  19
ENDBRANCH  17  18
ENDBRANCH  15  17
ENDBRANCH  14  15
ENDBRANCH  13  14
ENDBRANCH  12  13
ENDBRANCH  11  12
ENDBRANCH   9  11
ENDBRANCH   5   9
BRANCH   8  39
HETATM   39  O   UNL     1      -5.197   7.009  69.662  1.00  0.00    -0.014 OA 
HETATM   40  C   UNL     1      -5.409   8.267  70.285  1.00  0.00    -0.022 C  
ENDBRANCH   8  39
BRANCH   7  41
HETATM   41  O   UNL     1      -6.229   5.238  67.635  1.00  0.00    -0.035 OA 
HETATM   42  C   UNL     1      -6.758   6.275  66.827  1.00  0.00    -0.061 C  
ENDBRANCH   7  41
ENDBRANCH   2   3
TORSDOF 21
ENDMDL
MODEL      225
REMARK 921   NORMALIZED FREE ENERGY PREDICTED BY IDOCK:   -3.36 KCAL/MOL
REMARK 922        TOTAL FREE ENERGY PREDICTED BY IDOCK:  -10.35 KCAL/MOL
REMARK 923 INTER-LIGAND FREE ENERGY PREDICTED BY IDOCK:   -8.09 KCAL/MOL
REMARK 924 INTRA-LIGAND FREE ENERGY PREDICTED BY IDOCK:   -2.26 KCAL/MOL
REMARK 927      BINDING AFFINITY PREDICTED BY RF-SCORE:    0.00 PKD
ROOT
HETATM    1  C   UNL     1      -9.997   5.160  73.893  1.00  0.00    -0.176 C  
HETATM    2  O   UNL     1      -9.578   6.099  72.905  1.00  0.00    -0.154 OA 
ENDROOT
BRANCH   2   3
HETATM    3  C   UNL     1      -9.636   5.688  71.596  1.00  0.00    -0.154 A  
HETATM    4  C   UNL     1      -8.829   4.635  71.148  1.00  0.00    -0.149 A  
HETATM    5  C   UNL     1      -8.868   4.197  69.823  1.00  0.00    -0.138 A  
HETATM    6  C   UNL     1      -9.735   4.817  68.931  1.00  0.00    -0.244 A  
HETATM    7  C   UNL     1     -10.549   6.299  70.706  1.00  0.00    -0.243 A  
HETATM    8  C   UNL     1     -10.581   5.857  69.359  1.00  0.00    -0.309 A  
BRANCH   5   9
HETATM    9  C   UNL     1      -7.957   3.084  69.461  1.00  0.00    -0.048 C  
HETATM   10  O   UNL     1      -7.962   2.014  70.053  1.00  0.00    -0.042 OA 
BRANCH   9  11
HETATM   11  O   UNL     1      -7.120   3.422  68.448  1.00  0.00    -0.049 OA 
BRANCH  11  12
HETATM   12  C   UNL     1      -7.116   2.487  67.353  1.00  0.00    -0.052 C  
BRANCH  12  13
HETATM   13  C   UNL     1      -6.934   3.241  66.039  1.00  0.00    -0.057 C  
BRANCH  13  14
HETATM   14  C   UNL     1      -7.561   4.635  66.096  1.00  0.00    -0.090 C  
BRANCH  14  15
HETATM   15  N   UNL     1      -6.634   5.713  65.690  1.00  0.00    -0.040 NA 
HETATM   16  C   UNL     1      -6.141   5.509  64.322  1.00  0.00    -0.022 C  
BRANCH  15  17
HETATM   17  C   UNL     1      -7.331   7.020  65.833  1.00  0.00    -0.075 C  
BRANCH  17  18
HETATM   18  C   UNL     1      -6.785   7.907  66.976  1.00  0.00    -0.068 C  
BRANCH  18  19
HETATM   19  N   UNL     1      -7.421   7.729  68.302  1.00  0.00    -0.101 NA 
HETATM   20  C   UNL     1      -6.583   6.908  69.183  1.00  0.00    -0.048 C  
BRANCH  19  21
HETATM   21  C   UNL     1      -7.664   9.040  68.944  1.00  0.00    -0.094 C  
BRANCH  21  22
HETATM   22  C   UNL     1      -8.207  10.099  67.979  1.00  0.00    -0.113 C  
BRANCH  22  23
HETATM   23  C   UNL     1      -8.037  11.509  68.530  1.00  0.00    -0.146 C  
BRANCH  23  24
HETATM   24  O   UNL     1      -8.277  12.466  67.485  1.00  0.00    -0.152 OA 
BRANCH  24  25
HETATM   25  C   UNL     1      -7.435  13.530  67.460  1.00  0.00    -0.167 C  
HETATM   26  O   UNL     1      -6.216  13.482  67.416  1.00  0.00    -0.311 OA 
BRANCH  25  27
HETATM   27  C   UNL     1      -8.206  14.801  67.468  1.00  0.00    -0.201 A  
HETATM   28  C   UNL     1      -9.300  14.901  68.328  1.00  0.00    -0.195 A  
HETATM   29  C   UNL     1     -10.082  16.056  68.340  1.00  0.00    -0.229 A  
HETATM   30  C   UNL     1      -9.779  17.129  67.467  1.00  0.00    -0.256 A  
HETATM   31  C   UNL     1      -7.876  15.874  66.633  1.00  0.00    -0.236 A  
HETATM   32  C   UNL     1      -8.658  17.039  66.611  1.00  0.00    -0.252 A  
BRANCH  29  33
HETATM   33  O   UNL     1     -11.191  16.194  69.143  1.00  0.00    -0.310 OA 
HETATM   34  C   UNL     1     -11.995  15.031  69.319  1.00  0.00    -0.289 C  
ENDBRANCH  29  33
BRANCH  30  35
HETATM   35  O   UNL     1     -10.680  18.168  67.501  1.00  0.00    -0.412 OA 
HETATM   36  C   UNL     1     -10.275  19.395  68.092  1.00  0.00    -0.431 C  
ENDBRANCH  30  35
BRANCH  32  37
HETATM   37  O   UNL     1      -8.391  18.084  65.767  1.00  0.00    -0.508 OA 
HETATM   38  C   UNL     1      -7.119  18.715  65.853  1.00  0.00    -0.255 C  
ENDBRANCH  32  37
ENDBRANCH  25  27
ENDBRANCH  24  25
ENDBRANCH  23  24
ENDBRANCH  22  23
ENDBRANCH  21  22
ENDBRANCH  19  21
ENDBRANCH  18  19
ENDBRANCH  17  18
ENDBRANCH  15  17
ENDBRANCH  14  15
ENDBRANCH  13  14
ENDBRANCH  12  13
ENDBRANCH  11  12
ENDBRANCH   9  11
ENDBRANCH   5   9
BRANCH   8  39
HETATM   39  O   UNL     1     -11.363   6.313  68.323  1.00  0.00    -0.289 OA 
HETATM   40  C   UNL     1     -10.772   7.045  67.261  1.00  0.00    -0.342 C  
ENDBRANCH   8  39
BRANCH   7  41
HETATM   41  O   UNL     1     -11.415   7.311  71.027  1.00  0.00    -0.269 OA 
HETATM   42  C   UNL     1     -12.689   7.032  71.584  1.00  0.00    -0.377 C  
ENDBRANCH   7  41
ENDBRANCH   2   3
TORSDOF 21
ENDMDL
MODEL      226
REMARK 921   NORMALIZED FREE ENERGY PREDICTED BY IDOCK:   -3.36 KCAL/MOL
REMARK 922        TOTAL FREE ENERGY PREDICTED BY IDOCK:  -10.35 KCAL/MOL
REMARK 923 INTER-LIGAND FREE ENERGY PREDICTED BY IDOCK:   -9.14 KCAL/MOL
REMARK 924 INTRA-LIGAND FREE ENERGY PREDICTED BY IDOCK:   -1.21 KCAL/MOL
REMARK 927      BINDING AFFINITY PREDICTED BY RF-SCORE:    0.00 PKD
ROOT
HETATM    1  C   UNL     1     -11.566   7.528  72.827  1.00  0.00    -0.248 C  
HETATM    2  O   UNL     1     -11.142   6.333  72.176  1.00  0.00    -0.242 OA 
ENDROOT
BRANCH   2   3
HETATM    3  C   UNL     1      -9.787   6.133  72.070  1.00  0.00    -0.155 A  
HETATM    4  C   UNL     1      -8.906   7.221  72.103  1.00  0.00    -0.143 A  
HETATM    5  C   UNL     1      -7.525   7.046  71.998  1.00  0.00    -0.090 A  
HETATM    6  C   UNL     1      -7.014   5.760  71.866  1.00  0.00    -0.080 A  
HETATM    7  C   UNL     1      -9.275   4.818  71.975  1.00  0.00    -0.136 A  
HETATM    8  C   UNL     1      -7.873   4.644  71.861  1.00  0.00    -0.098 A  
BRANCH   5   9
HETATM    9  C   UNL     1      -6.692   8.273  72.031  1.00  0.00    -0.079 C  
HETATM   10  O   UNL     1      -6.457   8.877  73.068  1.00  0.00    -0.288 OA 
BRANCH   9  11
HETATM   11  O   UNL     1      -6.279   8.639  70.792  1.00  0.00    -0.032 OA 
BRANCH  11  12
HETATM   12  C   UNL     1      -7.330   8.683  69.811  1.00  0.00    -0.052 C  
BRANCH  12  13
HETATM   13  C   UNL     1      -7.919  10.089  69.754  1.00  0.00    -0.190 C  
BRANCH  13  14
HETATM   14  C   UNL     1      -9.391  10.070  69.340  1.00  0.00    -0.223 C  
BRANCH  14  15
HETATM   15  N   UNL     1      -9.700   9.047  68.318  1.00  0.00    -0.149 NA 
HETATM   16  C   UNL     1     -10.478   7.939  68.888  1.00  0.00    -0.190 C  
BRANCH  15  17
HETATM   17  C   UNL     1     -10.420   9.701  67.192  1.00  0.00    -0.249 C  
BRANCH  17  18
HETATM   18  C   UNL     1     -10.352  11.246  67.209  1.00  0.00    -0.201 C  
BRANCH  18  19
HETATM   19  N   UNL     1      -9.760  11.887  66.011  1.00  0.00    -0.234 NA 
HETATM   20  C   UNL     1     -10.548  11.591  64.810  1.00  0.00    -0.305 C  
BRANCH  19  21
HETATM   21  C   UNL     1      -9.679  13.354  66.192  1.00  0.00    -0.250 C  
BRANCH  21  22
HETATM   22  C   UNL     1     -10.378  14.143  65.080  1.00  0.00    -0.429 C  
BRANCH  22  23
HETATM   23  C   UNL     1     -11.468  15.053  65.631  1.00  0.00    -0.248 C  
BRANCH  23  24
HETATM   24  O   UNL     1     -10.884  16.020  66.520  1.00  0.00    -0.276 OA 
BRANCH  24  25
HETATM   25  C   UNL     1     -10.442  17.162  65.937  1.00  0.00    -0.258 C  
HETATM   26  O   UNL     1     -10.922  17.699  64.951  1.00  0.00    -0.886 OA 
BRANCH  25  27
HETATM   27  C   UNL     1      -9.278  17.709  66.683  1.00  0.00    -0.284 A  
HETATM   28  C   UNL     1      -8.689  16.906  67.660  1.00  0.00    -0.212 A  
HETATM   29  C   UNL     1      -7.623  17.391  68.419  1.00  0.00    -0.255 A  
HETATM   30  C   UNL     1      -7.142  18.707  68.212  1.00  0.00    -0.253 A  
HETATM   31  C   UNL     1      -8.781  18.994  66.444  1.00  0.00    -0.322 A  
HETATM   32  C   UNL     1      -7.723  19.513  67.206  1.00  0.00    -0.255 A  
BRANCH  29  33
HETATM   33  O   UNL     1      -7.027  16.655  69.418  1.00  0.00    -0.233 OA 
HETATM   34  C   UNL     1      -5.996  15.758  69.015  1.00  0.00    -0.108 C  
ENDBRANCH  29  33
BRANCH  30  35
HETATM   35  O   UNL     1      -6.158  19.102  69.087  1.00  0.00    -0.239 OA 
HETATM   36  C   UNL     1      -6.477  20.078  70.068  1.00  0.00    -0.312 C  
ENDBRANCH  30  35
BRANCH  32  37
HETATM   37  O   UNL     1      -7.251  20.786  67.031  1.00  0.00    -0.313 OA 
HETATM   38  C   UNL     1      -6.142  20.983  66.162  1.00  0.00    -0.264 C  
ENDBRANCH  32  37
ENDBRANCH  25  27
ENDBRANCH  24  25
ENDBRANCH  23  24
ENDBRANCH  22  23
ENDBRANCH  21  22
ENDBRANCH  19  21
ENDBRANCH  18  19
ENDBRANCH  17  18
ENDBRANCH  15  17
ENDBRANCH  14  15
ENDBRANCH  13  14
ENDBRANCH  12  13
ENDBRANCH  11  12
ENDBRANCH   9  11
ENDBRANCH   5   9
BRANCH   8  39
HETATM   39  O   UNL     1      -7.159   3.475  71.737  1.00  0.00    -0.033 OA 
HETATM   40  C   UNL     1      -6.994   2.881  70.459  1.00  0.00    -0.033 C  
ENDBRANCH   8  39
BRANCH   7  41
HETATM   41  O   UNL     1     -10.025   3.672  71.968  1.00  0.00    -0.166 OA 
HETATM   42  C   UNL     1      -9.924   2.727  73.020  1.00  0.00    -0.124 C  
ENDBRANCH   7  41
ENDBRANCH   2   3
TORSDOF 21
ENDMDL
MODEL      227
REMARK 921   NORMALIZED FREE ENERGY PREDICTED BY IDOCK:   -3.35 KCAL/MOL
REMARK 922        TOTAL FREE ENERGY PREDICTED BY IDOCK:  -10.33 KCAL/MOL
REMARK 923 INTER-LIGAND FREE ENERGY PREDICTED BY IDOCK:   -9.26 KCAL/MOL
REMARK 924 INTRA-LIGAND FREE ENERGY PREDICTED BY IDOCK:   -1.08 KCAL/MOL
REMARK 927      BINDING AFFINITY PREDICTED BY RF-SCORE:    0.00 PKD
ROOT
HETATM    1  C   UNL     1      -9.751   2.466  71.839  1.00  0.00    -0.147 C  
HETATM    2  O   UNL     1     -10.266   3.113  73.000  1.00  0.00    -0.137 OA 
ENDROOT
BRANCH   2   3
HETATM    3  C   UNL     1     -10.031   4.461  73.113  1.00  0.00    -0.145 A  
HETATM    4  C   UNL     1     -10.948   5.386  72.596  1.00  0.00    -0.321 A  
HETATM    5  C   UNL     1     -10.734   6.761  72.698  1.00  0.00    -0.271 A  
HETATM    6  C   UNL     1      -9.588   7.223  73.335  1.00  0.00    -0.272 A  
HETATM    7  C   UNL     1      -8.882   4.920  73.797  1.00  0.00    -0.108 A  
HETATM    8  C   UNL     1      -8.664   6.318  73.892  1.00  0.00    -0.124 A  
BRANCH   5   9
HETATM    9  C   UNL     1     -11.766   7.643  72.101  1.00  0.00    -0.311 C  
HETATM   10  O   UNL     1     -12.423   8.428  72.770  1.00  0.00    -0.297 OA 
BRANCH   9  11
HETATM   11  O   UNL     1     -11.903   7.435  70.768  1.00  0.00    -0.299 OA 
BRANCH  11  12
HETATM   12  C   UNL     1     -10.831   7.978  69.975  1.00  0.00    -0.235 C  
BRANCH  12  13
HETATM   13  C   UNL     1     -10.782   9.493  70.152  1.00  0.00    -0.299 C  
BRANCH  13  14
HETATM   14  C   UNL     1     -11.961  10.181  69.463  1.00  0.00     0.070 C  
BRANCH  14  15
HETATM   15  N   UNL     1     -11.657  10.634  68.089  1.00  0.00    -0.456 NA 
HETATM   16  C   UNL     1     -11.574  12.099  68.015  1.00  0.00    -0.348 C  
BRANCH  15  17
HETATM   17  C   UNL     1     -10.392   9.990  67.644  1.00  0.00    -0.224 C  
BRANCH  17  18
HETATM   18  C   UNL     1      -9.311  10.985  67.159  1.00  0.00    -0.164 C  
BRANCH  18  19
HETATM   19  N   UNL     1      -7.957  10.812  67.735  1.00  0.00    -0.109 NA 
HETATM   20  C   UNL     1      -7.746   9.431  68.181  1.00  0.00    -0.083 C  
BRANCH  19  21
HETATM   21  C   UNL     1      -6.919  11.169  66.743  1.00  0.00    -0.137 C  
BRANCH  21  22
HETATM   22  C   UNL     1      -5.915  12.205  67.258  1.00  0.00    -0.152 C  
BRANCH  22  23
HETATM   23  C   UNL     1      -6.563  13.568  67.462  1.00  0.00    -0.117 C  
BRANCH  23  24
HETATM   24  O   UNL     1      -5.763  14.351  68.364  1.00  0.00    -0.091 OA 
BRANCH  24  25
HETATM   25  C   UNL     1      -6.439  15.259  69.112  1.00  0.00    -0.122 C  
HETATM   26  O   UNL     1      -6.254  15.498  70.294  1.00  0.00    -0.137 OA 
BRANCH  25  27
HETATM   27  C   UNL     1      -7.450  15.965  68.281  1.00  0.00    -0.128 A  
HETATM   28  C   UNL     1      -6.998  16.738  67.212  1.00  0.00    -0.210 A  
HETATM   29  C   UNL     1      -7.904  17.455  66.430  1.00  0.00    -0.302 A  
HETATM   30  C   UNL     1      -9.288  17.416  66.728  1.00  0.00    -0.268 A  
HETATM   31  C   UNL     1      -8.820  15.888  68.554  1.00  0.00    -0.195 A  
HETATM   32  C   UNL     1      -9.750  16.615  67.797  1.00  0.00    -0.240 A  
BRANCH  29  33
HETATM   33  O   UNL     1      -7.509  18.260  65.385  1.00  0.00    -0.502 OA 
HETATM   34  C   UNL     1      -6.365  19.078  65.612  1.00  0.00    -0.251 C  
ENDBRANCH  29  33
BRANCH  30  35
HETATM   35  O   UNL     1     -10.065  18.241  65.950  1.00  0.00    -0.542 OA 
HETATM   36  C   UNL     1     -10.172  19.611  66.314  1.00  0.00    -0.498 C  
ENDBRANCH  30  35
BRANCH  32  37
HETATM   37  O   UNL     1     -11.091  16.601  68.074  1.00  0.00    -0.343 OA 
HETATM   38  C   UNL     1     -11.534  15.914  69.238  1.00  0.00    -0.374 C  
ENDBRANCH  32  37
ENDBRANCH  25  27
ENDBRANCH  24  25
ENDBRANCH  23  24
ENDBRANCH  22  23
ENDBRANCH  21  22
ENDBRANCH  19  21
ENDBRANCH  18  19
ENDBRANCH  17  18
ENDBRANCH  15  17
ENDBRANCH  14  15
ENDBRANCH  13  14
ENDBRANCH  12  13
ENDBRANCH  11  12
ENDBRANCH   9  11
ENDBRANCH   5   9
BRANCH   8  39
HETATM   39  O   UNL     1      -7.618   6.987  74.484  1.00  0.00    -0.111 OA 
HETATM   40  C   UNL     1      -6.998   8.070  73.808  1.00  0.00    -0.124 C  
ENDBRANCH   8  39
BRANCH   7  41
HETATM   41  O   UNL     1      -7.931   4.123  74.377  1.00  0.00    -0.088 OA 
HETATM   42  C   UNL     1      -6.764   3.744  73.666  1.00  0.00    -0.044 C  
ENDBRANCH   7  41
ENDBRANCH   2   3
TORSDOF 21
ENDMDL
MODEL      228
REMARK 921   NORMALIZED FREE ENERGY PREDICTED BY IDOCK:   -3.34 KCAL/MOL
REMARK 922        TOTAL FREE ENERGY PREDICTED BY IDOCK:  -10.31 KCAL/MOL
REMARK 923 INTER-LIGAND FREE ENERGY PREDICTED BY IDOCK:   -8.18 KCAL/MOL
REMARK 924 INTRA-LIGAND FREE ENERGY PREDICTED BY IDOCK:   -2.13 KCAL/MOL
REMARK 927      BINDING AFFINITY PREDICTED BY RF-SCORE:    0.00 PKD
ROOT
HETATM    1  C   UNL     1     -10.328  11.215  63.098  1.00  0.00    -0.247 C  
HETATM    2  O   UNL     1      -9.347  10.181  63.135  1.00  0.00    -0.280 OA 
ENDROOT
BRANCH   2   3
HETATM    3  C   UNL     1      -8.580  10.095  64.271  1.00  0.00    -0.193 A  
HETATM    4  C   UNL     1      -8.819  10.950  65.353  1.00  0.00    -0.192 A  
HETATM    5  C   UNL     1      -8.056  10.884  66.520  1.00  0.00    -0.154 A  
HETATM    6  C   UNL     1      -7.039   9.939  66.610  1.00  0.00    -0.087 A  
HETATM    7  C   UNL     1      -7.575   9.105  64.368  1.00  0.00    -0.115 A  
HETATM    8  C   UNL     1      -6.796   9.045  65.551  1.00  0.00    -0.073 A  
BRANCH   5   9
HETATM    9  C   UNL     1      -8.391  11.850  67.594  1.00  0.00    -0.152 C  
HETATM   10  O   UNL     1      -8.455  11.524  68.771  1.00  0.00    -0.137 OA 
BRANCH   9  11
HETATM   11  O   UNL     1      -8.648  13.087  67.102  1.00  0.00    -0.196 OA 
BRANCH  11  12
HETATM   12  C   UNL     1      -9.927  13.621  67.491  1.00  0.00    -0.230 C  
BRANCH  12  13
HETATM   13  C   UNL     1     -10.230  14.872  66.671  1.00  0.00    -0.264 C  
BRANCH  13  14
HETATM   14  C   UNL     1     -11.059  15.881  67.466  1.00  0.00    -0.235 C  
BRANCH  14  15
HETATM   15  N   UNL     1     -10.841  15.802  68.926  1.00  0.00    -0.244 NA 
HETATM   16  C   UNL     1     -10.286  17.055  69.454  1.00  0.00    -0.230 C  
BRANCH  15  17
HETATM   17  C   UNL     1     -12.129  15.453  69.583  1.00  0.00    -0.327 C  
BRANCH  17  18
HETATM   18  C   UNL     1     -12.267  15.986  71.029  1.00  0.00    -0.285 C  
BRANCH  18  19
HETATM   19  N   UNL     1     -12.724  15.009  72.045  1.00  0.00    -0.316 NA 
HETATM   20  C   UNL     1     -14.188  14.930  72.081  1.00  0.00    -0.522 C  
BRANCH  19  21
HETATM   21  C   UNL     1     -12.171  13.665  71.761  1.00  0.00     0.173 C  
BRANCH  21  22
HETATM   22  C   UNL     1     -13.233  12.650  71.324  1.00  0.00    -0.119 C  
BRANCH  22  23
HETATM   23  C   UNL     1     -13.052  11.307  72.020  1.00  0.00    -0.326 C  
BRANCH  23  24
HETATM   24  O   UNL     1     -13.001  10.260  71.037  1.00  0.00    -0.365 OA 
BRANCH  24  25
HETATM   25  C   UNL     1     -12.032  10.385  70.096  1.00  0.00    -0.276 C  
HETATM   26  O   UNL     1     -11.979  11.242  69.228  1.00  0.00    -0.318 OA 
BRANCH  25  27
HETATM   27  C   UNL     1     -10.998   9.331  70.272  1.00  0.00    -0.286 A  
HETATM   28  C   UNL     1     -10.375   8.824  69.130  1.00  0.00    -0.227 A  
HETATM   29  C   UNL     1      -9.431   7.803  69.239  1.00  0.00    -0.155 A  
HETATM   30  C   UNL     1      -9.111   7.263  70.509  1.00  0.00    -0.158 A  
HETATM   31  C   UNL     1     -10.655   8.831  71.532  1.00  0.00    -0.379 A  
HETATM   32  C   UNL     1      -9.724   7.790  71.668  1.00  0.00    -0.163 A  
BRANCH  29  33
HETATM   33  O   UNL     1      -8.812   7.243  68.145  1.00  0.00    -0.127 OA 
HETATM   34  C   UNL     1      -9.610   7.093  66.974  1.00  0.00    -0.159 C  
ENDBRANCH  29  33
BRANCH  30  35
HETATM   35  O   UNL     1      -8.244   6.196  70.475  1.00  0.00    -0.110 OA 
HETATM   36  C   UNL     1      -6.854   6.449  70.624  1.00  0.00    -0.063 C  
ENDBRANCH  30  35
BRANCH  32  37
HETATM   37  O   UNL     1      -9.408   7.245  72.883  1.00  0.00    -0.141 OA 
HETATM   38  C   UNL     1      -8.756   8.067  73.845  1.00  0.00    -0.244 C  
ENDBRANCH  32  37
ENDBRANCH  25  27
ENDBRANCH  24  25
ENDBRANCH  23  24
ENDBRANCH  22  23
ENDBRANCH  21  22
ENDBRANCH  19  21
ENDBRANCH  18  19
ENDBRANCH  17  18
ENDBRANCH  15  17
ENDBRANCH  14  15
ENDBRANCH  13  14
ENDBRANCH  12  13
ENDBRANCH  11  12
ENDBRANCH   9  11
ENDBRANCH   5   9
BRANCH   8  39
HETATM   39  O   UNL     1      -5.762   8.190  65.857  1.00  0.00    -0.036 OA 
HETATM   40  C   UNL     1      -6.017   7.014  66.609  1.00  0.00    -0.034 C  
ENDBRANCH   8  39
BRANCH   7  41
HETATM   41  O   UNL     1      -7.267   8.188  63.398  1.00  0.00    -0.084 OA 
HETATM   42  C   UNL     1      -7.860   6.901  63.396  1.00  0.00    -0.101 C  
ENDBRANCH   7  41
ENDBRANCH   2   3
TORSDOF 21
ENDMDL
MODEL      229
REMARK 921   NORMALIZED FREE ENERGY PREDICTED BY IDOCK:   -3.34 KCAL/MOL
REMARK 922        TOTAL FREE ENERGY PREDICTED BY IDOCK:  -10.30 KCAL/MOL
REMARK 923 INTER-LIGAND FREE ENERGY PREDICTED BY IDOCK:   -8.95 KCAL/MOL
REMARK 924 INTRA-LIGAND FREE ENERGY PREDICTED BY IDOCK:   -1.34 KCAL/MOL
REMARK 927      BINDING AFFINITY PREDICTED BY RF-SCORE:    0.00 PKD
ROOT
HETATM    1  C   UNL     1     -10.426   2.300  72.390  1.00  0.00    -0.077 C  
HETATM    2  O   UNL     1     -10.922   3.150  73.422  1.00  0.00    -0.194 OA 
ENDROOT
BRANCH   2   3
HETATM    3  C   UNL     1     -10.527   4.464  73.386  1.00  0.00    -0.195 A  
HETATM    4  C   UNL     1     -11.361   5.441  72.828  1.00  0.00    -0.358 A  
HETATM    5  C   UNL     1     -10.984   6.783  72.779  1.00  0.00    -0.303 A  
HETATM    6  C   UNL     1      -9.753   7.160  73.304  1.00  0.00    -0.251 A  
HETATM    7  C   UNL     1      -9.290   4.842  73.958  1.00  0.00    -0.121 A  
HETATM    8  C   UNL     1      -8.906   6.206  73.900  1.00  0.00    -0.123 A  
BRANCH   5   9
HETATM    9  C   UNL     1     -11.943   7.725  72.152  1.00  0.00    -0.317 C  
HETATM   10  O   UNL     1     -12.558   8.561  72.799  1.00  0.00    -0.307 OA 
BRANCH   9  11
HETATM   11  O   UNL     1     -12.070   7.508  70.819  1.00  0.00    -0.259 OA 
BRANCH  11  12
HETATM   12  C   UNL     1     -10.833   7.596  70.089  1.00  0.00    -0.248 C  
BRANCH  12  13
HETATM   13  C   UNL     1     -10.313   9.030  70.135  1.00  0.00    -0.237 C  
BRANCH  13  14
HETATM   14  C   UNL     1     -11.218   9.984  69.354  1.00  0.00    -0.188 C  
BRANCH  14  15
HETATM   15  N   UNL     1     -11.024   9.910  67.890  1.00  0.00    -0.260 NA 
HETATM   16  C   UNL     1     -11.234  11.218  67.256  1.00  0.00    -0.296 C  
BRANCH  15  17
HETATM   17  C   UNL     1      -9.662   9.380  67.615  1.00  0.00    -0.155 C  
BRANCH  17  18
HETATM   18  C   UNL     1      -8.719  10.389  66.916  1.00  0.00    -0.126 C  
BRANCH  18  19
HETATM   19  N   UNL     1      -7.505  10.779  67.671  1.00  0.00    -0.094 NA 
HETATM   20  C   UNL     1      -6.947   9.637  68.402  1.00  0.00    -0.065 C  
BRANCH  19  21
HETATM   21  C   UNL     1      -6.475  11.322  66.756  1.00  0.00    -0.136 C  
BRANCH  21  22
HETATM   22  C   UNL     1      -5.746  12.546  67.319  1.00  0.00    -0.084 C  
BRANCH  22  23
HETATM   23  C   UNL     1      -6.719  13.637  67.747  1.00  0.00    -0.170 C  
BRANCH  23  24
HETATM   24  O   UNL     1      -6.015  14.643  68.495  1.00  0.00    -0.083 OA 
BRANCH  24  25
HETATM   25  C   UNL     1      -6.661  15.120  69.589  1.00  0.00    -0.173 C  
HETATM   26  O   UNL     1      -6.488  14.758  70.741  1.00  0.00    -0.075 OA 
BRANCH  25  27
HETATM   27  C   UNL     1      -7.618  16.190  69.201  1.00  0.00    -0.230 A  
HETATM   28  C   UNL     1      -8.972  15.862  69.120  1.00  0.00    -0.256 A  
HETATM   29  C   UNL     1      -9.903  16.819  68.717  1.00  0.00    -0.264 A  
HETATM   30  C   UNL     1      -9.478  18.125  68.370  1.00  0.00    -0.318 A  
HETATM   31  C   UNL     1      -7.197  17.489  68.901  1.00  0.00    -0.249 A  
HETATM   32  C   UNL     1      -8.110  18.464  68.473  1.00  0.00    -0.319 A  
BRANCH  29  33
HETATM   33  O   UNL     1     -11.246  16.541  68.587  1.00  0.00    -0.353 OA 
HETATM   34  C   UNL     1     -11.666  15.242  68.997  1.00  0.00    -0.347 C  
ENDBRANCH  29  33
BRANCH  30  35
HETATM   35  O   UNL     1     -10.474  18.944  67.894  1.00  0.00    -0.390 OA 
HETATM   36  C   UNL     1     -10.634  19.068  66.487  1.00  0.00    -0.410 C  
ENDBRANCH  30  35
BRANCH  32  37
HETATM   37  O   UNL     1      -7.720  19.729  68.123  1.00  0.00    -0.298 OA 
HETATM   38  C   UNL     1      -6.468  20.208  68.599  1.00  0.00    -0.306 C  
ENDBRANCH  32  37
ENDBRANCH  25  27
ENDBRANCH  24  25
ENDBRANCH  23  24
ENDBRANCH  22  23
ENDBRANCH  21  22
ENDBRANCH  19  21
ENDBRANCH  18  19
ENDBRANCH  17  18
ENDBRANCH  15  17
ENDBRANCH  14  15
ENDBRANCH  13  14
ENDBRANCH  12  13
ENDBRANCH  11  12
ENDBRANCH   9  11
ENDBRANCH   5   9
BRANCH   8  39
HETATM   39  O   UNL     1      -7.753   6.795  74.365  1.00  0.00    -0.106 OA 
HETATM   40  C   UNL     1      -6.802   7.310  73.446  1.00  0.00    -0.065 C  
ENDBRANCH   8  39
BRANCH   7  41
HETATM   41  O   UNL     1      -8.402   3.993  74.563  1.00  0.00    -0.088 OA 
HETATM   42  C   UNL     1      -7.211   3.593  73.906  1.00  0.00    -0.053 C  
ENDBRANCH   7  41
ENDBRANCH   2   3
TORSDOF 21
ENDMDL
MODEL      230
REMARK 921   NORMALIZED FREE ENERGY PREDICTED BY IDOCK:   -3.33 KCAL/MOL
REMARK 922        TOTAL FREE ENERGY PREDICTED BY IDOCK:  -10.27 KCAL/MOL
REMARK 923 INTER-LIGAND FREE ENERGY PREDICTED BY IDOCK:   -8.14 KCAL/MOL
REMARK 924 INTRA-LIGAND FREE ENERGY PREDICTED BY IDOCK:   -2.13 KCAL/MOL
REMARK 927      BINDING AFFINITY PREDICTED BY RF-SCORE:    0.00 PKD
ROOT
HETATM    1  C   UNL     1      -9.643   4.585  71.534  1.00  0.00    -0.163 C  
HETATM    2  O   UNL     1     -10.890   5.235  71.298  1.00  0.00    -0.182 OA 
ENDROOT
BRANCH   2   3
HETATM    3  C   UNL     1     -10.847   6.428  70.618  1.00  0.00    -0.276 A  
HETATM    4  C   UNL     1     -10.648   6.447  69.232  1.00  0.00    -0.311 A  
HETATM    5  C   UNL     1     -10.602   7.645  68.517  1.00  0.00    -0.162 A  
HETATM    6  C   UNL     1     -10.765   8.846  69.198  1.00  0.00    -0.162 A  
HETATM    7  C   UNL     1     -11.053   7.642  71.314  1.00  0.00    -0.246 A  
HETATM    8  C   UNL     1     -10.998   8.857  70.586  1.00  0.00    -0.241 A  
BRANCH   5   9
HETATM    9  C   UNL     1     -10.371   7.542  67.055  1.00  0.00    -0.324 C  
HETATM   10  O   UNL     1     -10.280   8.526  66.336  1.00  0.00    -0.273 OA 
BRANCH   9  11
HETATM   11  O   UNL     1     -10.319   6.252  66.639  1.00  0.00    -0.198 OA 
BRANCH  11  12
HETATM   12  C   UNL     1      -8.995   5.791  66.313  1.00  0.00    -0.146 C  
BRANCH  12  13
HETATM   13  C   UNL     1      -8.811   5.796  64.798  1.00  0.00     0.107 C  
BRANCH  13  14
HETATM   14  C   UNL     1      -7.636   4.918  64.369  1.00  0.00    -0.073 C  
BRANCH  14  15
HETATM   15  N   UNL     1      -6.316   5.515  64.665  1.00  0.00    -0.029 NA 
HETATM   16  C   UNL     1      -5.226   4.718  64.089  1.00  0.00    -0.009 C  
BRANCH  15  17
HETATM   17  C   UNL     1      -6.301   6.913  64.157  1.00  0.00    -0.036 C  
BRANCH  17  18
HETATM   18  C   UNL     1      -5.738   7.946  65.162  1.00  0.00    -0.037 C  
BRANCH  18  19
HETATM   19  N   UNL     1      -6.615   8.292  66.305  1.00  0.00    -0.050 NA 
HETATM   20  C   UNL     1      -6.171   7.623  67.533  1.00  0.00    -0.050 C  
BRANCH  19  21
HETATM   21  C   UNL     1      -6.630   9.755  66.526  1.00  0.00    -0.072 C  
BRANCH  21  22
HETATM   22  C   UNL     1      -7.422  10.175  67.768  1.00  0.00    -0.089 C  
BRANCH  22  23
HETATM   23  C   UNL     1      -6.665  11.200  68.603  1.00  0.00    -0.062 C  
BRANCH  23  24
HETATM   24  O   UNL     1      -7.354  12.461  68.557  1.00  0.00    -0.096 OA 
BRANCH  24  25
HETATM   25  C   UNL     1      -6.792  13.408  67.765  1.00  0.00    -0.160 C  
HETATM   26  O   UNL     1      -5.669  13.372  67.287  1.00  0.00    -0.353 OA 
BRANCH  25  27
HETATM   27  C   UNL     1      -7.751  14.518  67.524  1.00  0.00    -0.208 A  
HETATM   28  C   UNL     1      -7.312  15.824  67.746  1.00  0.00    -0.167 A  
HETATM   29  C   UNL     1      -8.188  16.897  67.577  1.00  0.00    -0.178 A  
HETATM   30  C   UNL     1      -9.532  16.666  67.195  1.00  0.00    -0.230 A  
HETATM   31  C   UNL     1      -9.065  14.286  67.105  1.00  0.00    -0.237 A  
HETATM   32  C   UNL     1      -9.971  15.345  66.948  1.00  0.00    -0.243 A  
BRANCH  29  33
HETATM   33  O   UNL     1      -7.819  18.202  67.815  1.00  0.00    -0.228 OA 
HETATM   34  C   UNL     1      -6.536  18.401  68.402  1.00  0.00    -0.222 C  
ENDBRANCH  29  33
BRANCH  30  35
HETATM   35  O   UNL     1     -10.320  17.792  67.159  1.00  0.00    -0.335 OA 
HETATM   36  C   UNL     1     -10.479  18.468  65.920  1.00  0.00    -0.347 C  
ENDBRANCH  30  35
BRANCH  32  37
HETATM   37  O   UNL     1     -11.277  15.144  66.590  1.00  0.00    -0.328 OA 
HETATM   38  C   UNL     1     -11.992  14.080  67.209  1.00  0.00    -0.413 C  
ENDBRANCH  32  37
ENDBRANCH  25  27
ENDBRANCH  24  25
ENDBRANCH  23  24
ENDBRANCH  22  23
ENDBRANCH  21  22
ENDBRANCH  19  21
ENDBRANCH  18  19
ENDBRANCH  17  18
ENDBRANCH  15  17
ENDBRANCH  14  15
ENDBRANCH  13  14
ENDBRANCH  12  13
ENDBRANCH  11  12
ENDBRANCH   9  11
ENDBRANCH   5   9
BRANCH   8  39
HETATM   39  O   UNL     1     -11.145  10.144  71.049  1.00  0.00    -0.323 OA 
HETATM   40  C   UNL     1     -11.818  11.108  70.254  1.00  0.00    -0.366 C  
ENDBRANCH   8  39
BRANCH   7  41
HETATM   41  O   UNL     1     -11.293   7.756  72.658  1.00  0.00    -0.348 OA 
HETATM   42  C   UNL     1     -10.263   7.526  73.605  1.00  0.00    -0.277 C  
ENDBRANCH   7  41
ENDBRANCH   2   3
TORSDOF 21
ENDMDL
MODEL      231
REMARK 921   NORMALIZED FREE ENERGY PREDICTED BY IDOCK:   -3.32 KCAL/MOL
REMARK 922        TOTAL FREE ENERGY PREDICTED BY IDOCK:  -10.26 KCAL/MOL
REMARK 923 INTER-LIGAND FREE ENERGY PREDICTED BY IDOCK:   -7.81 KCAL/MOL
REMARK 924 INTRA-LIGAND FREE ENERGY PREDICTED BY IDOCK:   -2.45 KCAL/MOL
REMARK 927      BINDING AFFINITY PREDICTED BY RF-SCORE:    0.00 PKD
ROOT
HETATM    1  C   UNL     1     -10.750   2.806  63.433  1.00  0.00    -0.232 C  
HETATM    2  O   UNL     1      -9.794   2.792  64.491  1.00  0.00    -0.134 OA 
ENDROOT
BRANCH   2   3
HETATM    3  C   UNL     1      -9.207   3.991  64.811  1.00  0.00    -0.152 A  
HETATM    4  C   UNL     1      -9.804   4.845  65.747  1.00  0.00    -0.186 A  
HETATM    5  C   UNL     1      -9.229   6.069  66.091  1.00  0.00    -0.154 A  
HETATM    6  C   UNL     1      -8.030   6.445  65.495  1.00  0.00    -0.116 A  
HETATM    7  C   UNL     1      -7.968   4.346  64.229  1.00  0.00    -0.091 A  
HETATM    8  C   UNL     1      -7.390   5.594  64.575  1.00  0.00    -0.068 A  
BRANCH   5   9
HETATM    9  C   UNL     1      -9.960   6.895  67.083  1.00  0.00    -0.183 C  
HETATM   10  O   UNL     1     -10.557   7.916  66.771  1.00  0.00    -0.326 OA 
BRANCH   9  11
HETATM   11  O   UNL     1      -9.841   6.403  68.341  1.00  0.00    -0.132 OA 
BRANCH  11  12
HETATM   12  C   UNL     1     -11.072   5.906  68.896  1.00  0.00    -0.184 C  
BRANCH  12  13
HETATM   13  C   UNL     1     -11.324   6.565  70.249  1.00  0.00    -0.456 C  
BRANCH  13  14
HETATM   14  C   UNL     1     -10.038   7.133  70.850  1.00  0.00    -0.193 C  
BRANCH  14  15
HETATM   15  N   UNL     1      -9.957   8.607  70.781  1.00  0.00    -0.187 NA 
HETATM   16  C   UNL     1     -10.968   9.240  71.639  1.00  0.00    -0.363 C  
BRANCH  15  17
HETATM   17  C   UNL     1      -8.580   9.028  71.154  1.00  0.00    -0.190 C  
BRANCH  17  18
HETATM   18  C   UNL     1      -7.499   7.949  70.905  1.00  0.00    -0.073 C  
BRANCH  18  19
HETATM   19  N   UNL     1      -6.345   8.360  70.071  1.00  0.00    -0.034 NA 
HETATM   20  C   UNL     1      -6.684   8.320  68.645  1.00  0.00    -0.059 C  
BRANCH  19  21
HETATM   21  C   UNL     1      -5.904   9.726  70.430  1.00  0.00    -0.060 C  
BRANCH  21  22
HETATM   22  C   UNL     1      -5.413  10.542  69.230  1.00  0.00    -0.037 C  
BRANCH  22  23
HETATM   23  C   UNL     1      -6.103  11.897  69.145  1.00  0.00    -0.078 C  
BRANCH  23  24
HETATM   24  O   UNL     1      -6.547  12.128  67.798  1.00  0.00    -0.078 OA 
BRANCH  24  25
HETATM   25  C   UNL     1      -6.851  13.415  67.493  1.00  0.00    -0.144 C  
HETATM   26  O   UNL     1      -6.074  14.356  67.489  1.00  0.00    -0.327 OA 
BRANCH  25  27
HETATM   27  C   UNL     1      -8.288  13.535  67.129  1.00  0.00    -0.151 A  
HETATM   28  C   UNL     1      -8.764  14.789  66.742  1.00  0.00    -0.255 A  
HETATM   29  C   UNL     1     -10.114  14.962  66.434  1.00  0.00    -0.284 A  
HETATM   30  C   UNL     1     -11.012  13.871  66.529  1.00  0.00    -0.300 A  
HETATM   31  C   UNL     1      -9.161  12.444  67.183  1.00  0.00    -0.199 A  
HETATM   32  C   UNL     1     -10.526  12.596  66.899  1.00  0.00    -0.233 A  
BRANCH  29  33
HETATM   33  O   UNL     1     -10.644  16.182  66.080  1.00  0.00    -0.319 OA 
HETATM   34  C   UNL     1     -10.238  17.301  66.864  1.00  0.00    -0.322 C  
ENDBRANCH  29  33
BRANCH  30  35
HETATM   35  O   UNL     1     -12.329  14.191  66.298  1.00  0.00    -0.456 OA 
HETATM   36  C   UNL     1     -12.875  13.928  65.013  1.00  0.00    -0.268 C  
ENDBRANCH  30  35
BRANCH  32  37
HETATM   37  O   UNL     1     -11.414  11.558  66.995  1.00  0.00    -0.441 OA 
HETATM   38  C   UNL     1     -11.772  11.091  68.290  1.00  0.00    -0.229 C  
ENDBRANCH  32  37
ENDBRANCH  25  27
ENDBRANCH  24  25
ENDBRANCH  23  24
ENDBRANCH  22  23
ENDBRANCH  21  22
ENDBRANCH  19  21
ENDBRANCH  18  19
ENDBRANCH  17  18
ENDBRANCH  15  17
ENDBRANCH  14  15
ENDBRANCH  13  14
ENDBRANCH  12  13
ENDBRANCH  11  12
ENDBRANCH   9  11
ENDBRANCH   5   9
BRANCH   8  39
HETATM   39  O   UNL     1      -6.216   6.152  64.123  1.00  0.00    -0.028 OA 
HETATM   40  C   UNL     1      -5.301   6.717  65.049  1.00  0.00    -0.026 C  
ENDBRANCH   8  39
BRANCH   7  41
HETATM   41  O   UNL     1      -7.266   3.586  63.331  1.00  0.00    -0.048 OA 
HETATM   42  C   UNL     1      -6.300   2.646  63.769  1.00  0.00    -0.018 C  
ENDBRANCH   7  41
ENDBRANCH   2   3
TORSDOF 21
ENDMDL
MODEL      232
REMARK 921   NORMALIZED FREE ENERGY PREDICTED BY IDOCK:   -3.32 KCAL/MOL
REMARK 922        TOTAL FREE ENERGY PREDICTED BY IDOCK:  -10.25 KCAL/MOL
REMARK 923 INTER-LIGAND FREE ENERGY PREDICTED BY IDOCK:   -9.26 KCAL/MOL
REMARK 924 INTRA-LIGAND FREE ENERGY PREDICTED BY IDOCK:   -0.99 KCAL/MOL
REMARK 927      BINDING AFFINITY PREDICTED BY RF-SCORE:    0.00 PKD
ROOT
HETATM    1  C   UNL     1     -10.744  18.658  65.828  1.00  0.00    -0.179 C  
HETATM    2  O   UNL     1     -10.605  17.361  65.254  1.00  0.00    -0.667 OA 
ENDROOT
BRANCH   2   3
HETATM    3  C   UNL     1     -10.724  16.290  66.106  1.00  0.00    -0.197 A  
HETATM    4  C   UNL     1     -10.128  16.323  67.373  1.00  0.00    -0.260 A  
HETATM    5  C   UNL     1     -10.234  15.249  68.258  1.00  0.00    -0.226 A  
HETATM    6  C   UNL     1     -10.955  14.124  67.874  1.00  0.00    -0.264 A  
HETATM    7  C   UNL     1     -11.491  15.167  65.721  1.00  0.00    -0.172 A  
HETATM    8  C   UNL     1     -11.591  14.074  66.619  1.00  0.00    -0.382 A  
BRANCH   5   9
HETATM    9  C   UNL     1      -9.550  15.392  69.566  1.00  0.00    -0.257 C  
HETATM   10  O   UNL     1     -10.162  15.571  70.609  1.00  0.00    -0.111 OA 
BRANCH   9  11
HETATM   11  O   UNL     1      -8.200  15.342  69.442  1.00  0.00    -0.227 OA 
BRANCH  11  12
HETATM   12  C   UNL     1      -7.691  14.043  69.088  1.00  0.00     0.068 C  
BRANCH  12  13
HETATM   13  C   UNL     1      -6.561  14.197  68.074  1.00  0.00    -0.156 C  
BRANCH  13  14
HETATM   14  C   UNL     1      -5.271  13.535  68.560  1.00  0.00    -0.084 C  
BRANCH  14  15
HETATM   15  N   UNL     1      -5.151  12.117  68.162  1.00  0.00    -0.051 NA 
HETATM   16  C   UNL     1      -5.857  11.235  69.102  1.00  0.00    -0.043 C  
BRANCH  15  17
HETATM   17  C   UNL     1      -5.668  11.965  66.776  1.00  0.00    -0.060 C  
BRANCH  17  18
HETATM   18  C   UNL     1      -6.880  11.011  66.652  1.00  0.00    -0.137 C  
BRANCH  18  19
HETATM   19  N   UNL     1      -6.714   9.860  65.734  1.00  0.00    -0.093 NA 
HETATM   20  C   UNL     1      -5.742  10.163  64.677  1.00  0.00    -0.119 C  
BRANCH  19  21
HETATM   21  C   UNL     1      -6.267   8.661  66.477  1.00  0.00    -0.058 C  
BRANCH  21  22
HETATM   22  C   UNL     1      -7.270   7.504  66.425  1.00  0.00    -0.075 C  
BRANCH  22  23
HETATM   23  C   UNL     1      -8.362   7.652  67.477  1.00  0.00    -0.120 C  
BRANCH  23  24
HETATM   24  O   UNL     1      -8.999   6.381  67.691  1.00  0.00    -0.115 OA 
BRANCH  24  25
HETATM   25  C   UNL     1     -10.354   6.406  67.744  1.00  0.00    -0.193 C  
HETATM   26  O   UNL     1     -11.115   5.992  66.884  1.00  0.00    -0.303 OA 
BRANCH  25  27
HETATM   27  C   UNL     1     -10.812   6.997  69.029  1.00  0.00    -0.212 A  
HETATM   28  C   UNL     1     -11.279   6.133  70.020  1.00  0.00    -0.471 A  
HETATM   29  C   UNL     1     -11.761   6.642  71.226  1.00  0.00    -0.334 A  
HETATM   30  C   UNL     1     -11.795   8.041  71.446  1.00  0.00    -0.295 A  
HETATM   31  C   UNL     1     -10.803   8.377  69.256  1.00  0.00    -0.069 A  
HETATM   32  C   UNL     1     -11.302   8.916  70.452  1.00  0.00    -0.202 A  
BRANCH  29  33
HETATM   33  O   UNL     1     -12.265   5.838  72.224  1.00  0.00    -0.188 OA 
HETATM   34  C   UNL     1     -11.312   5.259  73.112  1.00  0.00    -0.291 C  
ENDBRANCH  29  33
BRANCH  30  35
HETATM   35  O   UNL     1     -12.384   8.421  72.629  1.00  0.00    -0.365 OA 
HETATM   36  C   UNL     1     -13.579   9.186  72.575  1.00  0.00    -0.436 C  
ENDBRANCH  30  35
BRANCH  32  37
HETATM   37  O   UNL     1     -11.355  10.265  70.680  1.00  0.00    -0.313 OA 
HETATM   38  C   UNL     1     -11.977  11.093  69.705  1.00  0.00    -0.359 C  
ENDBRANCH  32  37
ENDBRANCH  25  27
ENDBRANCH  24  25
ENDBRANCH  23  24
ENDBRANCH  22  23
ENDBRANCH  21  22
ENDBRANCH  19  21
ENDBRANCH  18  19
ENDBRANCH  17  18
ENDBRANCH  15  17
ENDBRANCH  14  15
ENDBRANCH  13  14
ENDBRANCH  12  13
ENDBRANCH  11  12
ENDBRANCH   9  11
ENDBRANCH   5   9
BRANCH   8  39
HETATM   39  O   UNL     1     -12.258  12.883  66.453  1.00  0.00    -0.453 OA 
HETATM   40  C   UNL     1     -11.534  11.662  66.455  1.00  0.00    -0.187 C  
ENDBRANCH   8  39
BRANCH   7  41
HETATM   41  O   UNL     1     -12.151  15.026  64.528  1.00  0.00    -0.443 OA 
HETATM   42  C   UNL     1     -11.937  13.892  63.705  1.00  0.00    -0.165 C  
ENDBRANCH   7  41
ENDBRANCH   2   3
TORSDOF 21
ENDMDL
MODEL      233
REMARK 921   NORMALIZED FREE ENERGY PREDICTED BY IDOCK:   -3.31 KCAL/MOL
REMARK 922        TOTAL FREE ENERGY PREDICTED BY IDOCK:  -10.24 KCAL/MOL
REMARK 923 INTER-LIGAND FREE ENERGY PREDICTED BY IDOCK:   -7.30 KCAL/MOL
REMARK 924 INTRA-LIGAND FREE ENERGY PREDICTED BY IDOCK:   -2.94 KCAL/MOL
REMARK 927      BINDING AFFINITY PREDICTED BY RF-SCORE:    0.00 PKD
ROOT
HETATM    1  C   UNL     1      -9.727  16.413  66.709  1.00  0.00    -0.251 C  
HETATM    2  O   UNL     1      -9.818  15.885  68.031  1.00  0.00    -0.216 OA 
ENDROOT
BRANCH   2   3
HETATM    3  C   UNL     1      -9.892  14.518  68.148  1.00  0.00    -0.223 A  
HETATM    4  C   UNL     1      -8.791  13.718  67.818  1.00  0.00    -0.188 A  
HETATM    5  C   UNL     1      -8.839  12.328  67.929  1.00  0.00    -0.178 A  
HETATM    6  C   UNL     1     -10.006  11.725  68.385  1.00  0.00    -0.202 A  
HETATM    7  C   UNL     1     -11.070  13.918  68.650  1.00  0.00    -0.265 A  
HETATM    8  C   UNL     1     -11.118  12.505  68.754  1.00  0.00    -0.270 A  
BRANCH   5   9
HETATM    9  C   UNL     1      -7.617  11.584  67.537  1.00  0.00    -0.121 C  
HETATM   10  O   UNL     1      -6.657  12.131  67.013  1.00  0.00    -0.147 OA 
BRANCH   9  11
HETATM   11  O   UNL     1      -7.726  10.257  67.793  1.00  0.00    -0.090 OA 
BRANCH  11  12
HETATM   12  C   UNL     1      -6.564   9.490  67.430  1.00  0.00    -0.070 C  
BRANCH  12  13
HETATM   13  C   UNL     1      -6.991   8.254  66.643  1.00  0.00    -0.069 C  
BRANCH  13  14
HETATM   14  C   UNL     1      -7.718   8.630  65.352  1.00  0.00    -0.094 C  
BRANCH  14  15
HETATM   15  N   UNL     1      -8.033   7.468  64.495  1.00  0.00    -0.135 NA 
HETATM   16  C   UNL     1      -6.919   7.150  63.593  1.00  0.00    -0.061 C  
BRANCH  15  17
HETATM   17  C   UNL     1      -8.380   6.313  65.366  1.00  0.00    -0.148 C  
BRANCH  17  18
HETATM   18  C   UNL     1      -8.454   4.958  64.623  1.00  0.00    -0.143 C  
BRANCH  18  19
HETATM   19  N   UNL     1      -9.477   4.002  65.107  1.00  0.00    -0.161 NA 
HETATM   20  C   UNL     1     -10.202   3.392  63.988  1.00  0.00    -0.212 C  
BRANCH  19  21
HETATM   21  C   UNL     1      -8.850   2.936  65.920  1.00  0.00    -0.141 C  
BRANCH  21  22
HETATM   22  C   UNL     1      -9.299   2.944  67.385  1.00  0.00    -0.201 C  
BRANCH  22  23
HETATM   23  C   UNL     1      -8.120   3.101  68.338  1.00  0.00    -0.064 C  
BRANCH  23  24
HETATM   24  O   UNL     1      -7.580   4.427  68.220  1.00  0.00    -0.067 OA 
BRANCH  24  25
HETATM   25  C   UNL     1      -7.008   4.930  69.343  1.00  0.00    -0.054 C  
HETATM   26  O   UNL     1      -5.866   4.726  69.722  1.00  0.00    -0.015 OA 
BRANCH  25  27
HETATM   27  C   UNL     1      -7.967   5.806  70.066  1.00  0.00    -0.099 A  
HETATM   28  C   UNL     1      -8.825   6.605  69.309  1.00  0.00    -0.133 A  
HETATM   29  C   UNL     1      -9.713   7.477  69.940  1.00  0.00    -0.171 A  
HETATM   30  C   UNL     1      -9.737   7.569  71.353  1.00  0.00    -0.166 A  
HETATM   31  C   UNL     1      -8.016   5.861  71.462  1.00  0.00    -0.113 A  
HETATM   32  C   UNL     1      -8.884   6.744  72.121  1.00  0.00    -0.133 A  
BRANCH  29  33
HETATM   33  O   UNL     1     -10.557   8.312  69.242  1.00  0.00    -0.223 OA 
HETATM   34  C   UNL     1     -10.520   8.208  67.822  1.00  0.00    -0.214 C  
ENDBRANCH  29  33
BRANCH  30  35
HETATM   35  O   UNL     1     -10.580   8.534  71.850  1.00  0.00    -0.269 OA 
HETATM   36  C   UNL     1     -11.824   8.126  72.402  1.00  0.00    -0.388 C  
ENDBRANCH  30  35
BRANCH  32  37
HETATM   37  O   UNL     1      -8.916   6.857  73.485  1.00  0.00    -0.130 OA 
HETATM   38  C   UNL     1      -9.306   5.722  74.250  1.00  0.00    -0.139 C  
ENDBRANCH  32  37
ENDBRANCH  25  27
ENDBRANCH  24  25
ENDBRANCH  23  24
ENDBRANCH  22  23
ENDBRANCH  21  22
ENDBRANCH  19  21
ENDBRANCH  18  19
ENDBRANCH  17  18
ENDBRANCH  15  17
ENDBRANCH  14  15
ENDBRANCH  13  14
ENDBRANCH  12  13
ENDBRANCH  11  12
ENDBRANCH   9  11
ENDBRANCH   5   9
BRANCH   8  39
HETATM   39  O   UNL     1     -12.153  11.710  69.189  1.00  0.00    -0.317 OA 
HETATM   40  C   UNL     1     -12.219  11.319  70.552  1.00  0.00    -0.383 C  
ENDBRANCH   8  39
BRANCH   7  41
HETATM   41  O   UNL     1     -12.199  14.589  69.040  1.00  0.00    -0.275 OA 
HETATM   42  C   UNL     1     -12.327  15.097  70.357  1.00  0.00    -0.363 C  
ENDBRANCH   7  41
ENDBRANCH   2   3
TORSDOF 21
ENDMDL
MODEL      234
REMARK 921   NORMALIZED FREE ENERGY PREDICTED BY IDOCK:   -3.31 KCAL/MOL
REMARK 922        TOTAL FREE ENERGY PREDICTED BY IDOCK:  -10.24 KCAL/MOL
REMARK 923 INTER-LIGAND FREE ENERGY PREDICTED BY IDOCK:   -8.44 KCAL/MOL
REMARK 924 INTRA-LIGAND FREE ENERGY PREDICTED BY IDOCK:   -1.80 KCAL/MOL
REMARK 927      BINDING AFFINITY PREDICTED BY RF-SCORE:    0.00 PKD
ROOT
HETATM    1  C   UNL     1      -8.035  15.969  66.396  1.00  0.00    -0.162 C  
HETATM    2  O   UNL     1      -8.331  15.704  67.765  1.00  0.00    -0.143 OA 
ENDROOT
BRANCH   2   3
HETATM    3  C   UNL     1      -9.590  15.232  68.046  1.00  0.00    -0.203 A  
HETATM    4  C   UNL     1     -10.047  14.042  67.466  1.00  0.00    -0.237 A  
HETATM    5  C   UNL     1     -11.321  13.540  67.735  1.00  0.00    -0.327 A  
HETATM    6  C   UNL     1     -12.152  14.235  68.606  1.00  0.00    -0.295 A  
HETATM    7  C   UNL     1     -10.413  15.926  68.964  1.00  0.00    -0.234 A  
HETATM    8  C   UNL     1     -11.710  15.417  69.229  1.00  0.00    -0.349 A  
BRANCH   5   9
HETATM    9  C   UNL     1     -11.700  12.279  67.051  1.00  0.00    -0.329 C  
HETATM   10  O   UNL     1     -11.499  12.095  65.859  1.00  0.00    -0.345 OA 
BRANCH   9  11
HETATM   11  O   UNL     1     -12.317  11.412  67.891  1.00  0.00    -0.380 OA 
BRANCH  11  12
HETATM   12  C   UNL     1     -11.418  10.531  68.590  1.00  0.00    -0.223 C  
BRANCH  12  13
HETATM   13  C   UNL     1     -11.413  10.880  70.076  1.00  0.00    -0.411 C  
BRANCH  13  14
HETATM   14  C   UNL     1     -12.025   9.762  70.921  1.00  0.00    -0.328 C  
BRANCH  14  15
HETATM   15  N   UNL     1     -11.178   8.553  70.999  1.00  0.00    -0.260 NA 
HETATM   16  C   UNL     1      -9.841   8.869  71.520  1.00  0.00    -0.314 C  
BRANCH  15  17
HETATM   17  C   UNL     1     -11.869   7.540  71.840  1.00  0.00    -0.296 C  
BRANCH  17  18
HETATM   18  C   UNL     1     -11.350   6.095  71.647  1.00  0.00    -0.284 C  
BRANCH  18  19
HETATM   19  N   UNL     1     -10.451   5.577  72.705  1.00  0.00    -0.200 NA 
HETATM   20  C   UNL     1     -11.187   4.744  73.662  1.00  0.00    -0.254 C  
BRANCH  19  21
HETATM   21  C   UNL     1      -9.352   4.784  72.112  1.00  0.00    -0.136 C  
BRANCH  21  22
HETATM   22  C   UNL     1      -9.483   4.599  70.597  1.00  0.00    -0.242 C  
BRANCH  22  23
HETATM   23  C   UNL     1      -8.625   3.447  70.091  1.00  0.00    -0.062 C  
BRANCH  23  24
HETATM   24  O   UNL     1      -7.793   3.905  69.011  1.00  0.00    -0.056 OA 
BRANCH  24  25
HETATM   25  C   UNL     1      -8.286   3.701  67.764  1.00  0.00    -0.093 C  
HETATM   26  O   UNL     1      -8.858   2.697  67.371  1.00  0.00    -0.114 OA 
BRANCH  25  27
HETATM   27  C   UNL     1      -8.058   4.900  66.914  1.00  0.00    -0.107 A  
HETATM   28  C   UNL     1      -7.792   6.114  67.549  1.00  0.00    -0.102 A  
HETATM   29  C   UNL     1      -7.615   7.276  66.797  1.00  0.00    -0.100 A  
HETATM   30  C   UNL     1      -7.720   7.233  65.385  1.00  0.00    -0.111 A  
HETATM   31  C   UNL     1      -8.121   4.843  65.518  1.00  0.00    -0.113 A  
HETATM   32  C   UNL     1      -7.967   6.000  64.740  1.00  0.00    -0.127 A  
BRANCH  29  33
HETATM   33  O   UNL     1      -7.384   8.505  67.372  1.00  0.00    -0.086 OA 
HETATM   34  C   UNL     1      -6.354   8.561  68.355  1.00  0.00    -0.055 C  
ENDBRANCH  29  33
BRANCH  30  35
HETATM   35  O   UNL     1      -7.626   8.457  64.766  1.00  0.00    -0.091 OA 
HETATM   36  C   UNL     1      -6.788   8.576  63.625  1.00  0.00    -0.087 C  
ENDBRANCH  30  35
BRANCH  32  37
HETATM   37  O   UNL     1      -8.076   5.984  63.375  1.00  0.00    -0.120 OA 
HETATM   38  C   UNL     1      -8.902   4.994  62.773  1.00  0.00    -0.074 C  
ENDBRANCH  32  37
ENDBRANCH  25  27
ENDBRANCH  24  25
ENDBRANCH  23  24
ENDBRANCH  22  23
ENDBRANCH  21  22
ENDBRANCH  19  21
ENDBRANCH  18  19
ENDBRANCH  17  18
ENDBRANCH  15  17
ENDBRANCH  14  15
ENDBRANCH  13  14
ENDBRANCH  12  13
ENDBRANCH  11  12
ENDBRANCH   9  11
ENDBRANCH   5   9
BRANCH   8  39
HETATM   39  O   UNL     1     -12.680  15.929  70.059  1.00  0.00    -0.253 OA 
HETATM   40  C   UNL     1     -12.856  15.387  71.359  1.00  0.00    -0.439 C  
ENDBRANCH   8  39
BRANCH   7  41
HETATM   41  O   UNL     1     -10.072  17.076  69.624  1.00  0.00    -0.106 OA 
HETATM   42  C   UNL     1     -10.187  18.341  68.994  1.00  0.00    -0.192 C  
ENDBRANCH   7  41
ENDBRANCH   2   3
TORSDOF 21
ENDMDL
MODEL      235
REMARK 921   NORMALIZED FREE ENERGY PREDICTED BY IDOCK:   -3.30 KCAL/MOL
REMARK 922        TOTAL FREE ENERGY PREDICTED BY IDOCK:  -10.22 KCAL/MOL
REMARK 923 INTER-LIGAND FREE ENERGY PREDICTED BY IDOCK:   -7.77 KCAL/MOL
REMARK 924 INTRA-LIGAND FREE ENERGY PREDICTED BY IDOCK:   -2.45 KCAL/MOL
REMARK 927      BINDING AFFINITY PREDICTED BY RF-SCORE:    0.00 PKD
ROOT
HETATM    1  C   UNL     1     -10.434  16.367  67.201  1.00  0.00    -0.297 C  
HETATM    2  O   UNL     1      -9.925  15.612  68.298  1.00  0.00    -0.211 OA 
ENDROOT
BRANCH   2   3
HETATM    3  C   UNL     1      -9.588  14.304  68.047  1.00  0.00    -0.223 A  
HETATM    4  C   UNL     1      -8.260  13.955  67.773  1.00  0.00    -0.173 A  
HETATM    5  C   UNL     1      -7.891  12.634  67.515  1.00  0.00    -0.175 A  
HETATM    6  C   UNL     1      -8.864  11.642  67.538  1.00  0.00    -0.158 A  
HETATM    7  C   UNL     1     -10.579  13.298  68.111  1.00  0.00    -0.249 A  
HETATM    8  C   UNL     1     -10.202  11.958  67.841  1.00  0.00    -0.193 A  
BRANCH   5   9
HETATM    9  C   UNL     1      -6.457  12.386  67.224  1.00  0.00    -0.140 C  
HETATM   10  O   UNL     1      -5.610  13.263  67.312  1.00  0.00    -0.356 OA 
BRANCH   9  11
HETATM   11  O   UNL     1      -6.234  11.111  66.821  1.00  0.00    -0.095 OA 
BRANCH  11  12
HETATM   12  C   UNL     1      -5.549  11.004  65.560  1.00  0.00    -0.023 C  
BRANCH  12  13
HETATM   13  C   UNL     1      -5.916   9.684  64.888  1.00  0.00    -0.081 C  
BRANCH  13  14
HETATM   14  C   UNL     1      -7.143   9.830  63.988  1.00  0.00    -0.123 C  
BRANCH  14  15
HETATM   15  N   UNL     1      -8.073   8.684  64.072  1.00  0.00    -0.159 NA 
HETATM   16  C   UNL     1      -7.840   7.724  62.985  1.00  0.00    -0.136 C  
BRANCH  15  17
HETATM   17  C   UNL     1      -7.926   8.047  65.408  1.00  0.00    -0.121 C  
BRANCH  17  18
HETATM   18  C   UNL     1      -8.423   6.583  65.470  1.00  0.00    -0.136 C  
BRANCH  18  19
HETATM   19  N   UNL     1      -8.963   6.131  66.773  1.00  0.00    -0.120 NA 
HETATM   20  C   UNL     1     -10.423   6.003  66.724  1.00  0.00    -0.267 C  
BRANCH  19  21
HETATM   21  C   UNL     1      -8.372   4.830  67.159  1.00  0.00    -0.106 C  
BRANCH  21  22
HETATM   22  C   UNL     1      -9.417   3.740  67.417  1.00  0.00    -0.239 C  
BRANCH  22  23
HETATM   23  C   UNL     1      -9.238   3.098  68.787  1.00  0.00    -0.164 C  
BRANCH  23  24
HETATM   24  O   UNL     1      -8.801   4.091  69.730  1.00  0.00    -0.078 OA 
BRANCH  24  25
HETATM   25  C   UNL     1      -9.434   4.080  70.930  1.00  0.00    -0.166 C  
HETATM   26  O   UNL     1      -9.611   3.104  71.641  1.00  0.00    -0.136 OA 
BRANCH  25  27
HETATM   27  C   UNL     1      -9.879   5.451  71.293  1.00  0.00    -0.235 A  
HETATM   28  C   UNL     1     -11.204   5.626  71.696  1.00  0.00    -0.204 A  
HETATM   29  C   UNL     1     -11.682   6.900  72.005  1.00  0.00    -0.300 A  
HETATM   30  C   UNL     1     -10.829   8.026  71.895  1.00  0.00    -0.257 A  
HETATM   31  C   UNL     1      -9.020   6.553  71.224  1.00  0.00    -0.141 A  
HETATM   32  C   UNL     1      -9.481   7.847  71.509  1.00  0.00    -0.147 A  
BRANCH  29  33
HETATM   33  O   UNL     1     -12.987   7.135  72.374  1.00  0.00     0.044 OA 
HETATM   34  C   UNL     1     -13.957   7.098  71.331  1.00  0.00    -0.255 C  
ENDBRANCH  29  33
BRANCH  30  35
HETATM   35  O   UNL     1     -11.443   9.234  72.128  1.00  0.00    -0.301 OA 
HETATM   36  C   UNL     1     -11.522  10.170  71.062  1.00  0.00    -0.354 C  
ENDBRANCH  30  35
BRANCH  32  37
HETATM   37  O   UNL     1      -8.678   8.951  71.399  1.00  0.00    -0.200 OA 
HETATM   38  C   UNL     1      -7.271   8.779  71.523  1.00  0.00    -0.088 C  
ENDBRANCH  32  37
ENDBRANCH  25  27
ENDBRANCH  24  25
ENDBRANCH  23  24
ENDBRANCH  22  23
ENDBRANCH  21  22
ENDBRANCH  19  21
ENDBRANCH  18  19
ENDBRANCH  17  18
ENDBRANCH  15  17
ENDBRANCH  14  15
ENDBRANCH  13  14
ENDBRANCH  12  13
ENDBRANCH  11  12
ENDBRANCH   9  11
ENDBRANCH   5   9
BRANCH   8  39
HETATM   39  O   UNL     1     -10.989  10.830  67.825  1.00  0.00    -0.252 OA 
HETATM   40  C   UNL     1     -10.566   9.683  67.105  1.00  0.00    -0.228 C  
ENDBRANCH   8  39
BRANCH   7  41
HETATM   41  O   UNL     1     -11.902  13.503  68.402  1.00  0.00    -0.341 OA 
HETATM   42  C   UNL     1     -12.357  13.534  69.745  1.00  0.00    -0.190 C  
ENDBRANCH   7  41
ENDBRANCH   2   3
TORSDOF 21
ENDMDL
MODEL      236
REMARK 921   NORMALIZED FREE ENERGY PREDICTED BY IDOCK:   -3.26 KCAL/MOL
REMARK 922        TOTAL FREE ENERGY PREDICTED BY IDOCK:  -10.13 KCAL/MOL
REMARK 923 INTER-LIGAND FREE ENERGY PREDICTED BY IDOCK:   -7.29 KCAL/MOL
REMARK 924 INTRA-LIGAND FREE ENERGY PREDICTED BY IDOCK:   -2.84 KCAL/MOL
REMARK 927      BINDING AFFINITY PREDICTED BY RF-SCORE:    0.00 PKD
ROOT
HETATM    1  C   UNL     1     -10.477  15.666  67.616  1.00  0.00    -0.283 C  
HETATM    2  O   UNL     1      -9.830  14.838  68.579  1.00  0.00    -0.206 OA 
ENDROOT
BRANCH   2   3
HETATM    3  C   UNL     1      -9.547  13.549  68.197  1.00  0.00    -0.215 A  
HETATM    4  C   UNL     1      -8.265  13.208  67.751  1.00  0.00    -0.168 A  
HETATM    5  C   UNL     1      -7.950  11.906  67.358  1.00  0.00    -0.162 A  
HETATM    6  C   UNL     1      -8.933  10.925  67.418  1.00  0.00    -0.136 A  
HETATM    7  C   UNL     1     -10.543  12.550  68.299  1.00  0.00    -0.231 A  
HETATM    8  C   UNL     1     -10.223  11.231  67.891  1.00  0.00    -0.181 A  
BRANCH   5   9
HETATM    9  C   UNL     1      -6.563  11.667  66.890  1.00  0.00    -0.129 C  
HETATM   10  O   UNL     1      -5.727  12.558  66.835  1.00  0.00    -0.319 OA 
BRANCH   9  11
HETATM   11  O   UNL     1      -6.371  10.380  66.507  1.00  0.00    -0.071 OA 
BRANCH  11  12
HETATM   12  C   UNL     1      -6.087  10.220  65.105  1.00  0.00    -0.130 C  
BRANCH  12  13
HETATM   13  C   UNL     1      -6.237   8.751  64.718  1.00  0.00    -0.065 C  
BRANCH  13  14
HETATM   14  C   UNL     1      -7.516   8.506  63.918  1.00  0.00    -0.118 C  
BRANCH  14  15
HETATM   15  N   UNL     1      -8.149   7.201  64.207  1.00  0.00    -0.091 NA 
HETATM   16  C   UNL     1      -7.591   6.136  63.363  1.00  0.00    -0.085 C  
BRANCH  15  17
HETATM   17  C   UNL     1      -7.979   6.899  65.654  1.00  0.00    -0.120 C  
BRANCH  17  18
HETATM   18  C   UNL     1      -7.929   5.388  65.984  1.00  0.00    -0.105 C  
BRANCH  18  19
HETATM   19  N   UNL     1      -8.790   4.934  67.100  1.00  0.00    -0.107 NA 
HETATM   20  C   UNL     1     -10.176   4.751  66.657  1.00  0.00    -0.238 C  
BRANCH  19  21
HETATM   21  C   UNL     1      -8.286   3.661  67.663  1.00  0.00    -0.093 C  
BRANCH  21  22
HETATM   22  C   UNL     1      -9.340   2.550  67.695  1.00  0.00    -0.199 C  
BRANCH  22  23
HETATM   23  C   UNL     1      -9.229   1.700  68.954  1.00  0.00    -0.139 C  
BRANCH  23  24
HETATM   24  O   UNL     1      -8.575   2.455  69.988  1.00  0.00    -0.046 OA 
BRANCH  24  25
HETATM   25  C   UNL     1      -9.366   2.848  71.018  1.00  0.00    -0.148 C  
HETATM   26  O   UNL     1      -9.990   2.113  71.765  1.00  0.00    -0.152 OA 
BRANCH  25  27
HETATM   27  C   UNL     1      -9.359   4.330  71.142  1.00  0.00    -0.218 A  
HETATM   28  C   UNL     1      -8.243   4.935  71.722  1.00  0.00    -0.114 A  
HETATM   29  C   UNL     1      -8.208   6.318  71.901  1.00  0.00    -0.110 A  
HETATM   30  C   UNL     1      -9.312   7.115  71.510  1.00  0.00    -0.153 A  
HETATM   31  C   UNL     1     -10.434   5.115  70.714  1.00  0.00    -0.263 A  
HETATM   32  C   UNL     1     -10.433   6.506  70.901  1.00  0.00    -0.223 A  
BRANCH  29  33
HETATM   33  O   UNL     1      -7.149   6.963  72.499  1.00  0.00    -0.070 OA 
HETATM   34  C   UNL     1      -5.929   6.992  71.764  1.00  0.00    -0.037 C  
ENDBRANCH  29  33
BRANCH  30  35
HETATM   35  O   UNL     1      -9.199   8.447  71.829  1.00  0.00    -0.175 OA 
HETATM   36  C   UNL     1      -8.942   9.374  70.784  1.00  0.00    -0.191 C  
ENDBRANCH  30  35
BRANCH  32  37
HETATM   37  O   UNL     1     -11.493   7.293  70.540  1.00  0.00    -0.288 OA 
HETATM   38  C   UNL     1     -12.621   7.349  71.406  1.00  0.00    -0.370 C  
ENDBRANCH  32  37
ENDBRANCH  25  27
ENDBRANCH  24  25
ENDBRANCH  23  24
ENDBRANCH  22  23
ENDBRANCH  21  22
ENDBRANCH  19  21
ENDBRANCH  18  19
ENDBRANCH  17  18
ENDBRANCH  15  17
ENDBRANCH  14  15
ENDBRANCH  13  14
ENDBRANCH  12  13
ENDBRANCH  11  12
ENDBRANCH   9  11
ENDBRANCH   5   9
BRANCH   8  39
HETATM   39  O   UNL     1     -11.027  10.115  67.882  1.00  0.00    -0.272 OA 
HETATM   40  C   UNL     1     -10.518   8.881  67.398  1.00  0.00    -0.277 C  
ENDBRANCH   8  39
BRANCH   7  41
HETATM   41  O   UNL     1     -11.821  12.746  68.752  1.00  0.00    -0.304 OA 
HETATM   42  C   UNL     1     -12.153  12.539  70.114  1.00  0.00    -0.292 C  
ENDBRANCH   7  41
ENDBRANCH   2   3
TORSDOF 21
ENDMDL
MODEL      237
REMARK 921   NORMALIZED FREE ENERGY PREDICTED BY IDOCK:   -3.24 KCAL/MOL
REMARK 922        TOTAL FREE ENERGY PREDICTED BY IDOCK:  -10.07 KCAL/MOL
REMARK 923 INTER-LIGAND FREE ENERGY PREDICTED BY IDOCK:   -8.51 KCAL/MOL
REMARK 924 INTRA-LIGAND FREE ENERGY PREDICTED BY IDOCK:   -1.56 KCAL/MOL
REMARK 927      BINDING AFFINITY PREDICTED BY RF-SCORE:    0.00 PKD
ROOT
HETATM    1  C   UNL     1      -5.875   1.701  66.272  1.00  0.00    -0.018 C  
HETATM    2  O   UNL     1      -7.260   2.034  66.342  1.00  0.00    -0.054 OA 
ENDROOT
BRANCH   2   3
HETATM    3  C   UNL     1      -7.571   3.368  66.442  1.00  0.00    -0.077 A  
HETATM    4  C   UNL     1      -7.710   3.970  67.698  1.00  0.00    -0.071 A  
HETATM    5  C   UNL     1      -8.026   5.323  67.829  1.00  0.00    -0.099 A  
HETATM    6  C   UNL     1      -8.198   6.092  66.683  1.00  0.00    -0.106 A  
HETATM    7  C   UNL     1      -7.706   4.149  65.271  1.00  0.00    -0.085 A  
HETATM    8  C   UNL     1      -8.034   5.521  65.406  1.00  0.00    -0.109 A  
BRANCH   5   9
HETATM    9  C   UNL     1      -8.161   5.848  69.210  1.00  0.00    -0.113 C  
HETATM   10  O   UNL     1      -7.634   6.891  69.569  1.00  0.00    -0.094 OA 
BRANCH   9  11
HETATM   11  O   UNL     1      -8.888   5.018  69.999  1.00  0.00    -0.099 OA 
BRANCH  11  12
HETATM   12  C   UNL     1     -10.261   4.872  69.591  1.00  0.00    -0.195 C  
BRANCH  12  13
HETATM   13  C   UNL     1     -10.979   6.212  69.723  1.00  0.00    -0.459 C  
BRANCH  13  14
HETATM   14  C   UNL     1     -11.326   6.525  71.178  1.00  0.00    -0.314 C  
BRANCH  14  15
HETATM   15  N   UNL     1     -10.997   7.911  71.576  1.00  0.00    -0.228 NA 
HETATM   16  C   UNL     1      -9.931   7.940  72.586  1.00  0.00    -0.266 C  
BRANCH  15  17
HETATM   17  C   UNL     1     -10.620   8.679  70.359  1.00  0.00    -0.220 C  
BRANCH  17  18
HETATM   18  C   UNL     1     -11.370  10.024  70.201  1.00  0.00    -0.291 C  
BRANCH  18  19
HETATM   19  N   UNL     1     -10.727  11.031  69.325  1.00  0.00    -0.227 NA 
HETATM   20  C   UNL     1      -9.355  10.639  68.988  1.00  0.00    -0.180 C  
BRANCH  19  21
HETATM   21  C   UNL     1     -11.504  11.208  68.078  1.00  0.00    -0.293 C  
BRANCH  21  22
HETATM   22  C   UNL     1     -10.633  11.245  66.818  1.00  0.00    -0.305 C  
BRANCH  22  23
HETATM   23  C   UNL     1     -11.349  11.918  65.654  1.00  0.00    -0.284 C  
BRANCH  23  24
HETATM   24  O   UNL     1     -10.722  13.180  65.369  1.00  0.00    -0.283 OA 
BRANCH  24  25
HETATM   25  C   UNL     1     -11.555  14.250  65.316  1.00  0.00    -0.348 C  
HETATM   26  O   UNL     1     -12.526  14.369  64.587  1.00  0.00    -0.566 OA 
BRANCH  25  27
HETATM   27  C   UNL     1     -11.137  15.282  66.302  1.00  0.00    -0.273 A  
HETATM   28  C   UNL     1     -10.205  16.238  65.897  1.00  0.00    -0.384 A  
HETATM   29  C   UNL     1      -9.749  17.200  66.799  1.00  0.00    -0.271 A  
HETATM   30  C   UNL     1     -10.216  17.201  68.136  1.00  0.00    -0.332 A  
HETATM   31  C   UNL     1     -11.636  15.304  67.609  1.00  0.00    -0.249 A  
HETATM   32  C   UNL     1     -11.178  16.247  68.541  1.00  0.00    -0.359 A  
BRANCH  29  33
HETATM   33  O   UNL     1      -8.805  18.145  66.463  1.00  0.00    -0.272 OA 
HETATM   34  C   UNL     1      -9.300  19.398  66.002  1.00  0.00    -0.187 C  
ENDBRANCH  29  33
BRANCH  30  35
HETATM   35  O   UNL     1      -9.618  18.132  68.951  1.00  0.00    -0.301 OA 
HETATM   36  C   UNL     1     -10.339  19.315  69.271  1.00  0.00     0.160 C  
ENDBRANCH  30  35
BRANCH  32  37
HETATM   37  O   UNL     1     -11.608  16.260  69.840  1.00  0.00    -0.277 OA 
HETATM   38  C   UNL     1     -10.757  15.711  70.840  1.00  0.00    -0.058 C  
ENDBRANCH  32  37
ENDBRANCH  25  27
ENDBRANCH  24  25
ENDBRANCH  23  24
ENDBRANCH  22  23
ENDBRANCH  21  22
ENDBRANCH  19  21
ENDBRANCH  18  19
ENDBRANCH  17  18
ENDBRANCH  15  17
ENDBRANCH  14  15
ENDBRANCH  13  14
ENDBRANCH  12  13
ENDBRANCH  11  12
ENDBRANCH   9  11
ENDBRANCH   5   9
BRANCH   8  39
HETATM   39  O   UNL     1      -8.233   6.459  64.420  1.00  0.00    -0.106 OA 
HETATM   40  C   UNL     1      -7.687   7.761  64.562  1.00  0.00    -0.122 C  
ENDBRANCH   8  39
BRANCH   7  41
HETATM   41  O   UNL     1      -7.560   3.689  63.988  1.00  0.00    -0.072 OA 
HETATM   42  C   UNL     1      -6.390   3.974  63.240  1.00  0.00    -0.022 C  
ENDBRANCH   7  41
ENDBRANCH   2   3
TORSDOF 21
ENDMDL
MODEL      238
REMARK 921   NORMALIZED FREE ENERGY PREDICTED BY IDOCK:   -3.22 KCAL/MOL
REMARK 922        TOTAL FREE ENERGY PREDICTED BY IDOCK:  -10.04 KCAL/MOL
REMARK 923 INTER-LIGAND FREE ENERGY PREDICTED BY IDOCK:   -9.13 KCAL/MOL
REMARK 924 INTRA-LIGAND FREE ENERGY PREDICTED BY IDOCK:   -0.91 KCAL/MOL
REMARK 927      BINDING AFFINITY PREDICTED BY RF-SCORE:    0.00 PKD
ROOT
HETATM    1  C   UNL     1      -6.891   7.125  73.431  1.00  0.00    -0.069 C  
HETATM    2  O   UNL     1      -8.228   7.582  73.620  1.00  0.00    -0.122 OA 
ENDROOT
BRANCH   2   3
HETATM    3  C   UNL     1      -9.234   6.724  73.246  1.00  0.00    -0.134 A  
HETATM    4  C   UNL     1      -9.111   5.348  73.469  1.00  0.00    -0.128 A  
HETATM    5  C   UNL     1     -10.118   4.455  73.100  1.00  0.00    -0.202 A  
HETATM    6  C   UNL     1     -11.274   4.947  72.504  1.00  0.00    -0.122 A  
HETATM    7  C   UNL     1     -10.422   7.239  72.676  1.00  0.00    -0.246 A  
HETATM    8  C   UNL     1     -11.440   6.329  72.296  1.00  0.00    -0.306 A  
BRANCH   5   9
HETATM    9  C   UNL     1      -9.870   3.018  73.373  1.00  0.00    -0.104 C  
HETATM   10  O   UNL     1      -9.419   2.622  74.438  1.00  0.00    -0.084 OA 
BRANCH   9  11
HETATM   11  O   UNL     1     -10.162   2.240  72.301  1.00  0.00    -0.156 OA 
BRANCH  11  12
HETATM   12  C   UNL     1      -9.071   2.081  71.375  1.00  0.00    -0.092 C  
BRANCH  12  13
HETATM   13  C   UNL     1      -9.458   2.675  70.024  1.00  0.00    -0.148 C  
BRANCH  13  14
HETATM   14  C   UNL     1      -8.701   3.973  69.740  1.00  0.00    -0.075 C  
BRANCH  14  15
HETATM   15  N   UNL     1      -8.437   4.197  68.303  1.00  0.00    -0.092 NA 
HETATM   16  C   UNL     1      -9.524   3.669  67.469  1.00  0.00    -0.191 C  
BRANCH  15  17
HETATM   17  C   UNL     1      -8.230   5.653  68.077  1.00  0.00    -0.100 C  
BRANCH  17  18
HETATM   18  C   UNL     1      -9.457   6.381  67.479  1.00  0.00    -0.117 C  
BRANCH  18  19
HETATM   19  N   UNL     1      -9.530   7.842  67.717  1.00  0.00    -0.142 NA 
HETATM   20  C   UNL     1      -8.207   8.393  68.026  1.00  0.00    -0.127 C  
BRANCH  19  21
HETATM   21  C   UNL     1     -10.082   8.536  66.531  1.00  0.00    -0.258 C  
BRANCH  21  22
HETATM   22  C   UNL     1     -10.422  10.007  66.791  1.00  0.00    -0.267 C  
BRANCH  22  23
HETATM   23  C   UNL     1     -11.176  10.191  68.102  1.00  0.00    -0.180 C  
BRANCH  23  24
HETATM   24  O   UNL     1     -11.963  11.392  68.039  1.00  0.00    -0.613 OA 
BRANCH  24  25
HETATM   25  C   UNL     1     -11.554  12.405  68.843  1.00  0.00    -0.316 C  
HETATM   26  O   UNL     1     -11.576  12.407  70.064  1.00  0.00    -0.248 OA 
BRANCH  25  27
HETATM   27  C   UNL     1     -11.039  13.537  68.030  1.00  0.00    -0.283 A  
HETATM   28  C   UNL     1      -9.953  14.261  68.525  1.00  0.00    -0.235 A  
HETATM   29  C   UNL     1      -9.462  15.360  67.820  1.00  0.00    -0.204 A  
HETATM   30  C   UNL     1     -10.072  15.758  66.606  1.00  0.00    -0.279 A  
HETATM   31  C   UNL     1     -11.619  13.899  66.809  1.00  0.00    -0.398 A  
HETATM   32  C   UNL     1     -11.157  15.012  66.092  1.00  0.00    -0.329 A  
BRANCH  29  33
HETATM   33  O   UNL     1      -8.416  16.130  68.279  1.00  0.00    -0.171 OA 
HETATM   34  C   UNL     1      -7.453  15.468  69.093  1.00  0.00    -0.191 C  
ENDBRANCH  29  33
BRANCH  30  35
HETATM   35  O   UNL     1      -9.562  16.912  66.059  1.00  0.00    -0.406 OA 
HETATM   36  C   UNL     1     -10.465  17.949  65.702  1.00  0.00    -0.104 C  
ENDBRANCH  30  35
BRANCH  32  37
HETATM   37  O   UNL     1     -11.739  15.421  64.922  1.00  0.00    -0.281 OA 
HETATM   38  C   UNL     1     -12.362  14.443  64.097  1.00  0.00    -0.307 C  
ENDBRANCH  32  37
ENDBRANCH  25  27
ENDBRANCH  24  25
ENDBRANCH  23  24
ENDBRANCH  22  23
ENDBRANCH  21  22
ENDBRANCH  19  21
ENDBRANCH  18  19
ENDBRANCH  17  18
ENDBRANCH  15  17
ENDBRANCH  14  15
ENDBRANCH  13  14
ENDBRANCH  12  13
ENDBRANCH  11  12
ENDBRANCH   9  11
ENDBRANCH   5   9
BRANCH   8  39
HETATM   39  O   UNL     1     -12.656   6.595  71.711  1.00  0.00    -0.354 OA 
HETATM   40  C   UNL     1     -13.103   7.937  71.589  1.00  0.00    -0.332 C  
ENDBRANCH   8  39
BRANCH   7  41
HETATM   41  O   UNL     1     -10.680   8.563  72.440  1.00  0.00    -0.341 OA 
HETATM   42  C   UNL     1     -10.038   9.255  71.382  1.00  0.00    -0.278 C  
ENDBRANCH   7  41
ENDBRANCH   2   3
TORSDOF 21
ENDMDL
MODEL      239
REMARK 921   NORMALIZED FREE ENERGY PREDICTED BY IDOCK:   -3.22 KCAL/MOL
REMARK 922        TOTAL FREE ENERGY PREDICTED BY IDOCK:  -10.02 KCAL/MOL
REMARK 923 INTER-LIGAND FREE ENERGY PREDICTED BY IDOCK:   -7.74 KCAL/MOL
REMARK 924 INTRA-LIGAND FREE ENERGY PREDICTED BY IDOCK:   -2.28 KCAL/MOL
REMARK 927      BINDING AFFINITY PREDICTED BY RF-SCORE:    0.00 PKD
ROOT
HETATM    1  C   UNL     1     -12.035  13.647  68.319  1.00  0.00    -0.350 C  
HETATM    2  O   UNL     1     -10.697  13.774  67.844  1.00  0.00    -0.241 OA 
ENDROOT
BRANCH   2   3
HETATM    3  C   UNL     1     -10.247  12.797  66.991  1.00  0.00    -0.241 A  
HETATM    4  C   UNL     1      -9.520  11.706  67.483  1.00  0.00    -0.173 A  
HETATM    5  C   UNL     1      -9.053  10.698  66.638  1.00  0.00    -0.176 A  
HETATM    6  C   UNL     1      -9.322  10.777  65.277  1.00  0.00    -0.247 A  
HETATM    7  C   UNL     1     -10.560  12.867  65.613  1.00  0.00    -0.277 A  
HETATM    8  C   UNL     1     -10.077  11.846  64.756  1.00  0.00    -0.262 A  
BRANCH   5   9
HETATM    9  C   UNL     1      -8.282   9.600  67.271  1.00  0.00    -0.114 C  
HETATM   10  O   UNL     1      -8.825   8.635  67.792  1.00  0.00    -0.135 OA 
BRANCH   9  11
HETATM   11  O   UNL     1      -6.946   9.827  67.231  1.00  0.00    -0.082 OA 
BRANCH  11  12
HETATM   12  C   UNL     1      -6.190   9.067  68.191  1.00  0.00    -0.054 C  
BRANCH  12  13
HETATM   13  C   UNL     1      -5.790   9.967  69.355  1.00  0.00    -0.037 C  
BRANCH  13  14
HETATM   14  C   UNL     1      -6.700   9.763  70.567  1.00  0.00    -0.125 C  
BRANCH  14  15
HETATM   15  N   UNL     1      -6.550   8.434  71.197  1.00  0.00    -0.045 NA 
HETATM   16  C   UNL     1      -5.190   8.238  71.716  1.00  0.00    -0.034 C  
BRANCH  15  17
HETATM   17  C   UNL     1      -7.572   8.296  72.269  1.00  0.00    -0.123 C  
BRANCH  17  18
HETATM   18  C   UNL     1      -8.922   7.715  71.787  1.00  0.00    -0.119 C  
BRANCH  18  19
HETATM   19  N   UNL     1     -10.119   8.553  72.034  1.00  0.00    -0.287 NA 
HETATM   20  C   UNL     1     -10.274   9.574  70.993  1.00  0.00    -0.262 C  
BRANCH  19  21
HETATM   21  C   UNL     1     -11.339   7.717  72.083  1.00  0.00    -0.293 C  
BRANCH  21  22
HETATM   22  C   UNL     1     -11.197   6.389  71.332  1.00  0.00    -0.340 C  
BRANCH  22  23
HETATM   23  C   UNL     1     -11.651   6.507  69.882  1.00  0.00    -0.368 C  
BRANCH  23  24
HETATM   24  O   UNL     1     -11.018   5.484  69.096  1.00  0.00    -0.225 OA 
BRANCH  24  25
HETATM   25  C   UNL     1     -10.835   5.781  67.784  1.00  0.00    -0.167 C  
HETATM   26  O   UNL     1     -11.294   6.746  67.195  1.00  0.00    -0.330 OA 
BRANCH  25  27
HETATM   27  C   UNL     1      -9.960   4.766  67.140  1.00  0.00    -0.224 A  
HETATM   28  C   UNL     1      -9.739   4.868  65.766  1.00  0.00    -0.184 A  
HETATM   29  C   UNL     1      -8.962   3.915  65.107  1.00  0.00    -0.132 A  
HETATM   30  C   UNL     1      -8.406   2.828  65.826  1.00  0.00    -0.093 A  
HETATM   31  C   UNL     1      -9.379   3.720  67.864  1.00  0.00    -0.236 A  
HETATM   32  C   UNL     1      -8.611   2.737  67.222  1.00  0.00    -0.105 A  
BRANCH  29  33
HETATM   33  O   UNL     1      -8.739   3.947  63.749  1.00  0.00    -0.096 OA 
HETATM   34  C   UNL     1      -7.979   5.048  63.258  1.00  0.00    -0.089 C  
ENDBRANCH  29  33
BRANCH  30  35
HETATM   35  O   UNL     1      -7.747   1.905  65.051  1.00  0.00    -0.066 OA 
HETATM   36  C   UNL     1      -6.327   1.946  65.009  1.00  0.00    -0.022 C  
ENDBRANCH  30  35
BRANCH  32  37
HETATM   37  O   UNL     1      -8.075   1.672  67.896  1.00  0.00    -0.058 OA 
HETATM   38  C   UNL     1      -8.286   1.584  69.300  1.00  0.00    -0.044 C  
ENDBRANCH  32  37
ENDBRANCH  25  27
ENDBRANCH  24  25
ENDBRANCH  23  24
ENDBRANCH  22  23
ENDBRANCH  21  22
ENDBRANCH  19  21
ENDBRANCH  18  19
ENDBRANCH  17  18
ENDBRANCH  15  17
ENDBRANCH  14  15
ENDBRANCH  13  14
ENDBRANCH  12  13
ENDBRANCH  11  12
ENDBRANCH   9  11
ENDBRANCH   5   9
BRANCH   8  39
HETATM   39  O   UNL     1     -10.237  11.718  63.396  1.00  0.00    -0.392 OA 
HETATM   40  C   UNL     1      -9.560  10.683  62.699  1.00  0.00    -0.257 C  
ENDBRANCH   8  39
BRANCH   7  41
HETATM   41  O   UNL     1     -11.290  13.859  65.014  1.00  0.00    -0.313 OA 
HETATM   42  C   UNL     1     -10.736  15.146  64.800  1.00  0.00    -0.319 C  
ENDBRANCH   7  41
ENDBRANCH   2   3
TORSDOF 21
ENDMDL
MODEL      240
REMARK 921   NORMALIZED FREE ENERGY PREDICTED BY IDOCK:   -3.21 KCAL/MOL
REMARK 922        TOTAL FREE ENERGY PREDICTED BY IDOCK:  -10.01 KCAL/MOL
REMARK 923 INTER-LIGAND FREE ENERGY PREDICTED BY IDOCK:   -8.21 KCAL/MOL
REMARK 924 INTRA-LIGAND FREE ENERGY PREDICTED BY IDOCK:   -1.80 KCAL/MOL
REMARK 927      BINDING AFFINITY PREDICTED BY RF-SCORE:    0.00 PKD
ROOT
HETATM    1  C   UNL     1      -8.565   4.435  68.303  1.00  0.00    -0.094 C  
HETATM    2  O   UNL     1      -7.529   3.991  69.176  1.00  0.00    -0.054 OA 
ENDROOT
BRANCH   2   3
HETATM    3  C   UNL     1      -7.510   4.530  70.439  1.00  0.00    -0.050 A  
HETATM    4  C   UNL     1      -7.357   5.911  70.617  1.00  0.00    -0.085 A  
HETATM    5  C   UNL     1      -7.335   6.485  71.889  1.00  0.00    -0.091 A  
HETATM    6  C   UNL     1      -7.477   5.666  73.004  1.00  0.00    -0.092 A  
HETATM    7  C   UNL     1      -7.694   3.694  71.564  1.00  0.00    -0.057 A  
HETATM    8  C   UNL     1      -7.664   4.279  72.855  1.00  0.00    -0.081 A  
BRANCH   5   9
HETATM    9  C   UNL     1      -7.152   7.956  71.956  1.00  0.00    -0.074 C  
HETATM   10  O   UNL     1      -7.456   8.609  72.943  1.00  0.00    -0.335 OA 
BRANCH   9  11
HETATM   11  O   UNL     1      -6.660   8.459  70.797  1.00  0.00    -0.036 OA 
BRANCH  11  12
HETATM   12  C   UNL     1      -7.357   9.624  70.319  1.00  0.00    -0.149 C  
BRANCH  12  13
HETATM   13  C   UNL     1      -8.619   9.197  69.576  1.00  0.00    -0.138 C  
BRANCH  13  14
HETATM   14  C   UNL     1      -8.321   8.826  68.123  1.00  0.00    -0.122 C  
BRANCH  14  15
HETATM   15  N   UNL     1      -9.404   8.051  67.480  1.00  0.00    -0.145 NA 
HETATM   16  C   UNL     1     -10.460   7.707  68.442  1.00  0.00    -0.169 C  
BRANCH  15  17
HETATM   17  C   UNL     1      -9.939   8.838  66.336  1.00  0.00    -0.275 C  
BRANCH  17  18
HETATM   18  C   UNL     1     -10.193  10.330  66.657  1.00  0.00    -0.233 C  
BRANCH  18  19
HETATM   19  N   UNL     1      -9.886  11.292  65.573  1.00  0.00    -0.220 NA 
HETATM   20  C   UNL     1      -9.171  10.638  64.472  1.00  0.00    -0.231 C  
BRANCH  19  21
HETATM   21  C   UNL     1     -11.129  11.903  65.052  1.00  0.00    -0.305 C  
BRANCH  21  22
HETATM   22  C   UNL     1     -11.954  12.617  66.128  1.00  0.00    -0.458 C  
BRANCH  22  23
HETATM   23  C   UNL     1     -11.505  14.060  66.320  1.00  0.00    -0.351 C  
BRANCH  23  24
HETATM   24  O   UNL     1     -12.070  14.581  67.535  1.00  0.00    -0.366 OA 
BRANCH  24  25
HETATM   25  C   UNL     1     -11.285  14.481  68.638  1.00  0.00    -0.261 C  
HETATM   26  O   UNL     1     -11.366  13.624  69.502  1.00  0.00    -0.261 OA 
BRANCH  25  27
HETATM   27  C   UNL     1     -10.266  15.564  68.650  1.00  0.00    -0.216 A  
HETATM   28  C   UNL     1     -10.706  16.880  68.500  1.00  0.00    -0.359 A  
HETATM   29  C   UNL     1      -9.785  17.927  68.460  1.00  0.00    -0.351 A  
HETATM   30  C   UNL     1      -8.397  17.659  68.555  1.00  0.00    -0.291 A  
HETATM   31  C   UNL     1      -8.900  15.296  68.786  1.00  0.00    -0.192 A  
HETATM   32  C   UNL     1      -7.953  16.329  68.729  1.00  0.00    -0.221 A  
BRANCH  29  33
HETATM   33  O   UNL     1     -10.160  19.240  68.281  1.00  0.00    -0.379 OA 
HETATM   34  C   UNL     1     -10.712  19.573  67.011  1.00  0.00    -0.477 C  
ENDBRANCH  29  33
BRANCH  30  35
HETATM   35  O   UNL     1      -7.589  18.761  68.402  1.00  0.00    -0.280 OA 
HETATM   36  C   UNL     1      -6.948  19.295  69.552  1.00  0.00    -0.207 C  
ENDBRANCH  30  35
BRANCH  32  37
HETATM   37  O   UNL     1      -6.606  16.092  68.806  1.00  0.00    -0.117 OA 
HETATM   38  C   UNL     1      -6.101  15.427  69.958  1.00  0.00    -0.146 C  
ENDBRANCH  32  37
ENDBRANCH  25  27
ENDBRANCH  24  25
ENDBRANCH  23  24
ENDBRANCH  22  23
ENDBRANCH  21  22
ENDBRANCH  19  21
ENDBRANCH  18  19
ENDBRANCH  17  18
ENDBRANCH  15  17
ENDBRANCH  14  15
ENDBRANCH  13  14
ENDBRANCH  12  13
ENDBRANCH  11  12
ENDBRANCH   9  11
ENDBRANCH   5   9
BRANCH   8  39
HETATM   39  O   UNL     1      -7.798   3.667  74.079  1.00  0.00    -0.069 OA 
HETATM   40  C   UNL     1      -6.951   2.581  74.422  1.00  0.00    -0.035 C  
ENDBRANCH   8  39
BRANCH   7  41
HETATM   41  O   UNL     1      -7.889   2.338  71.523  1.00  0.00    -0.040 OA 
HETATM   42  C   UNL     1      -9.187   1.792  71.362  1.00  0.00    -0.098 C  
ENDBRANCH   7  41
ENDBRANCH   2   3
TORSDOF 21
ENDMDL
MODEL      241
REMARK 921   NORMALIZED FREE ENERGY PREDICTED BY IDOCK:   -3.20 KCAL/MOL
REMARK 922        TOTAL FREE ENERGY PREDICTED BY IDOCK:  -10.00 KCAL/MOL
REMARK 923 INTER-LIGAND FREE ENERGY PREDICTED BY IDOCK:   -9.25 KCAL/MOL
REMARK 924 INTRA-LIGAND FREE ENERGY PREDICTED BY IDOCK:   -0.74 KCAL/MOL
REMARK 927      BINDING AFFINITY PREDICTED BY RF-SCORE:    0.00 PKD
ROOT
HETATM    1  C   UNL     1     -10.273  19.775  69.310  1.00  0.00    -0.132 C  
HETATM    2  O   UNL     1      -8.893  19.457  69.143  1.00  0.00    -0.300 OA 
ENDROOT
BRANCH   2   3
HETATM    3  C   UNL     1      -8.595  18.421  68.292  1.00  0.00    -0.303 A  
HETATM    4  C   UNL     1      -9.583  17.499  67.925  1.00  0.00    -0.277 A  
HETATM    5  C   UNL     1      -9.308  16.437  67.062  1.00  0.00    -0.241 A  
HETATM    6  C   UNL     1      -8.023  16.297  66.550  1.00  0.00    -0.326 A  
HETATM    7  C   UNL     1      -7.295  18.310  67.747  1.00  0.00    -0.216 A  
HETATM    8  C   UNL     1      -7.016  17.226  66.876  1.00  0.00    -0.194 A  
BRANCH   5   9
HETATM    9  C   UNL     1     -10.430  15.516  66.756  1.00  0.00    -0.295 C  
HETATM   10  O   UNL     1     -10.954  14.816  67.611  1.00  0.00    -0.274 OA 
BRANCH   9  11
HETATM   11  O   UNL     1     -10.751  15.528  65.439  1.00  0.00    -0.354 OA 
BRANCH  11  12
HETATM   12  C   UNL     1     -10.475  14.291  64.756  1.00  0.00    -0.395 C  
BRANCH  12  13
HETATM   13  C   UNL     1      -9.956  13.260  65.754  1.00  0.00    -0.261 C  
BRANCH  13  14
HETATM   14  C   UNL     1     -10.641  11.905  65.575  1.00  0.00    -0.269 C  
BRANCH  14  15
HETATM   15  N   UNL     1      -9.961  10.804  66.289  1.00  0.00    -0.215 NA 
HETATM   16  C   UNL     1     -10.740  10.357  67.451  1.00  0.00    -0.283 C  
BRANCH  15  17
HETATM   17  C   UNL     1      -9.719   9.692  65.330  1.00  0.00    -0.295 C  
BRANCH  17  18
HETATM   18  C   UNL     1      -8.255   9.193  65.296  1.00  0.00    -0.134 C  
BRANCH  18  19
HETATM   19  N   UNL     1      -7.961   7.976  66.087  1.00  0.00    -0.099 NA 
HETATM   20  C   UNL     1      -7.690   8.310  67.489  1.00  0.00    -0.099 C  
BRANCH  19  21
HETATM   21  C   UNL     1      -9.094   7.026  66.023  1.00  0.00    -0.069 C  
BRANCH  21  22
HETATM   22  C   UNL     1      -8.668   5.593  65.687  1.00  0.00    -0.151 C  
BRANCH  22  23
HETATM   23  C   UNL     1      -9.823   4.610  65.835  1.00  0.00    -0.220 C  
BRANCH  23  24
HETATM   24  O   UNL     1     -10.516   4.864  67.068  1.00  0.00    -0.194 OA 
BRANCH  24  25
HETATM   25  C   UNL     1      -9.994   4.267  68.169  1.00  0.00     0.035 C  
HETATM   26  O   UNL     1      -9.554   3.130  68.229  1.00  0.00    -0.176 OA 
BRANCH  25  27
HETATM   27  C   UNL     1     -10.004   5.205  69.322  1.00  0.00    -0.280 A  
HETATM   28  C   UNL     1      -8.904   5.201  70.181  1.00  0.00    -0.139 A  
HETATM   29  C   UNL     1      -8.886   6.032  71.302  1.00  0.00    -0.136 A  
HETATM   30  C   UNL     1      -9.991   6.871  71.584  1.00  0.00    -0.171 A  
HETATM   31  C   UNL     1     -11.080   6.063  69.571  1.00  0.00    -0.468 A  
HETATM   32  C   UNL     1     -11.096   6.893  70.703  1.00  0.00    -0.278 A  
BRANCH  29  33
HETATM   33  O   UNL     1      -7.843   6.044  72.201  1.00  0.00    -0.101 OA 
HETATM   34  C   UNL     1      -6.553   6.336  71.670  1.00  0.00    -0.055 C  
ENDBRANCH  29  33
BRANCH  30  35
HETATM   35  O   UNL     1      -9.896   7.565  72.768  1.00  0.00    -0.175 OA 
HETATM   36  C   UNL     1     -10.394   6.956  73.951  1.00  0.00    -0.365 C  
ENDBRANCH  30  35
BRANCH  32  37
HETATM   37  O   UNL     1     -12.158   7.704  71.001  1.00  0.00    -0.305 OA 
HETATM   38  C   UNL     1     -11.992   9.111  70.874  1.00  0.00    -0.242 C  
ENDBRANCH  32  37
ENDBRANCH  25  27
ENDBRANCH  24  25
ENDBRANCH  23  24
ENDBRANCH  22  23
ENDBRANCH  21  22
ENDBRANCH  19  21
ENDBRANCH  18  19
ENDBRANCH  17  18
ENDBRANCH  15  17
ENDBRANCH  14  15
ENDBRANCH  13  14
ENDBRANCH  12  13
ENDBRANCH  11  12
ENDBRANCH   9  11
ENDBRANCH   5   9
BRANCH   8  39
HETATM   39  O   UNL     1      -5.833  16.909  66.251  1.00  0.00    -0.308 OA 
HETATM   40  C   UNL     1      -5.193  17.866  65.422  1.00  0.00    -0.090 C  
ENDBRANCH   8  39
BRANCH   7  41
HETATM   41  O   UNL     1      -6.254  19.164  67.997  1.00  0.00    -0.208 OA 
HETATM   42  C   UNL     1      -5.400  18.967  69.111  1.00  0.00    -0.195 C  
ENDBRANCH   7  41
ENDBRANCH   2   3
TORSDOF 21
ENDMDL
MODEL      242
REMARK 921   NORMALIZED FREE ENERGY PREDICTED BY IDOCK:   -3.19 KCAL/MOL
REMARK 922        TOTAL FREE ENERGY PREDICTED BY IDOCK:   -9.97 KCAL/MOL
REMARK 923 INTER-LIGAND FREE ENERGY PREDICTED BY IDOCK:   -8.90 KCAL/MOL
REMARK 924 INTRA-LIGAND FREE ENERGY PREDICTED BY IDOCK:   -1.06 KCAL/MOL
REMARK 927      BINDING AFFINITY PREDICTED BY RF-SCORE:    0.00 PKD
ROOT
HETATM    1  C   UNL     1      -6.091   2.032  65.578  1.00  0.00    -0.022 C  
HETATM    2  O   UNL     1      -7.453   2.308  65.898  1.00  0.00    -0.065 OA 
ENDROOT
BRANCH   2   3
HETATM    3  C   UNL     1      -7.714   3.512  66.505  1.00  0.00    -0.081 A  
HETATM    4  C   UNL     1      -7.619   3.641  67.896  1.00  0.00    -0.066 A  
HETATM    5  C   UNL     1      -7.878   4.853  68.538  1.00  0.00    -0.081 A  
HETATM    6  C   UNL     1      -8.231   5.960  67.775  1.00  0.00    -0.105 A  
HETATM    7  C   UNL     1      -8.034   4.642  65.717  1.00  0.00    -0.099 A  
HETATM    8  C   UNL     1      -8.304   5.870  66.372  1.00  0.00    -0.114 A  
BRANCH   5   9
HETATM    9  C   UNL     1      -7.760   4.865  70.016  1.00  0.00    -0.059 C  
HETATM   10  O   UNL     1      -7.294   5.816  70.628  1.00  0.00    -0.079 OA 
BRANCH   9  11
HETATM   11  O   UNL     1      -8.184   3.701  70.569  1.00  0.00    -0.053 OA 
BRANCH  11  12
HETATM   12  C   UNL     1      -9.603   3.486  70.468  1.00  0.00    -0.176 C  
BRANCH  12  13
HETATM   13  C   UNL     1     -10.345   4.693  71.033  1.00  0.00    -0.143 C  
BRANCH  13  14
HETATM   14  C   UNL     1     -10.432   4.639  72.559  1.00  0.00    -0.195 C  
BRANCH  14  15
HETATM   15  N   UNL     1     -10.586   5.969  73.186  1.00  0.00    -0.232 NA 
HETATM   16  C   UNL     1      -9.851   6.051  74.456  1.00  0.00    -0.287 C  
BRANCH  15  17
HETATM   17  C   UNL     1     -10.131   7.007  72.222  1.00  0.00    -0.177 C  
BRANCH  17  18
HETATM   18  C   UNL     1     -11.102   8.202  72.072  1.00  0.00    -0.306 C  
BRANCH  18  19
HETATM   19  N   UNL     1     -10.516   9.459  71.552  1.00  0.00    -0.310 NA 
HETATM   20  C   UNL     1      -9.174   9.230  71.006  1.00  0.00    -0.202 C  
BRANCH  19  21
HETATM   21  C   UNL     1     -11.378  10.039  70.498  1.00  0.00    -0.335 C  
BRANCH  21  22
HETATM   22  C   UNL     1     -10.641  10.289  69.178  1.00  0.00    -0.254 C  
BRANCH  22  23
HETATM   23  C   UNL     1     -11.585  10.779  68.087  1.00  0.00    -0.197 C  
BRANCH  23  24
HETATM   24  O   UNL     1     -10.875  11.654  67.195  1.00  0.00    -0.234 OA 
BRANCH  24  25
HETATM   25  C   UNL     1     -11.641  12.542  66.511  1.00  0.00    -0.388 C  
HETATM   26  O   UNL     1     -12.448  12.271  65.637  1.00  0.00    -0.591 OA 
BRANCH  25  27
HETATM   27  C   UNL     1     -11.384  13.926  66.990  1.00  0.00    -0.343 A  
HETATM   28  C   UNL     1     -11.858  14.282  68.253  1.00  0.00    -0.370 A  
HETATM   29  C   UNL     1     -11.681  15.581  68.729  1.00  0.00    -0.357 A  
HETATM   30  C   UNL     1     -11.034  16.552  67.926  1.00  0.00    -0.288 A  
HETATM   31  C   UNL     1     -10.706  14.867  66.209  1.00  0.00    -0.320 A  
HETATM   32  C   UNL     1     -10.533  16.186  66.656  1.00  0.00    -0.300 A  
BRANCH  29  33
HETATM   33  O   UNL     1     -12.158  15.996  69.952  1.00  0.00    -0.278 OA 
HETATM   34  C   UNL     1     -12.772  14.999  70.764  1.00  0.00    -0.381 C  
ENDBRANCH  29  33
BRANCH  30  35
HETATM   35  O   UNL     1     -11.010  17.817  68.463  1.00  0.00    -0.120 OA 
HETATM   36  C   UNL     1      -9.844  18.236  69.158  1.00  0.00    -0.153 C  
ENDBRANCH  30  35
BRANCH  32  37
HETATM   37  O   UNL     1      -9.921  17.143  65.891  1.00  0.00    -0.478 OA 
HETATM   38  C   UNL     1     -10.604  18.370  65.667  1.00  0.00    -0.103 C  
ENDBRANCH  32  37
ENDBRANCH  25  27
ENDBRANCH  24  25
ENDBRANCH  23  24
ENDBRANCH  22  23
ENDBRANCH  21  22
ENDBRANCH  19  21
ENDBRANCH  18  19
ENDBRANCH  17  18
ENDBRANCH  15  17
ENDBRANCH  14  15
ENDBRANCH  13  14
ENDBRANCH  12  13
ENDBRANCH  11  12
ENDBRANCH   9  11
ENDBRANCH   5   9
BRANCH   8  39
HETATM   39  O   UNL     1      -8.653   7.081  65.819  1.00  0.00    -0.145 OA 
HETATM   40  C   UNL     1      -9.164   8.114  66.647  1.00  0.00    -0.180 C  
ENDBRANCH   8  39
BRANCH   7  41
HETATM   41  O   UNL     1      -8.123   4.658  64.350  1.00  0.00    -0.097 OA 
HETATM   42  C   UNL     1      -9.247   4.104  63.686  1.00  0.00    -0.141 C  
ENDBRANCH   7  41
ENDBRANCH   2   3
TORSDOF 21
ENDMDL
MODEL      243
REMARK 921   NORMALIZED FREE ENERGY PREDICTED BY IDOCK:   -3.17 KCAL/MOL
REMARK 922        TOTAL FREE ENERGY PREDICTED BY IDOCK:   -9.93 KCAL/MOL
REMARK 923 INTER-LIGAND FREE ENERGY PREDICTED BY IDOCK:   -8.50 KCAL/MOL
REMARK 924 INTRA-LIGAND FREE ENERGY PREDICTED BY IDOCK:   -1.43 KCAL/MOL
REMARK 927      BINDING AFFINITY PREDICTED BY RF-SCORE:    0.00 PKD
ROOT
HETATM    1  C   UNL     1     -10.389   4.228  66.836  1.00  0.00     0.248 C  
HETATM    2  O   UNL     1     -11.053   5.322  67.463  1.00  0.00     0.218 OA 
ENDROOT
BRANCH   2   3
HETATM    3  C   UNL     1     -10.268   6.371  67.873  1.00  0.00    -0.168 A  
HETATM    4  C   UNL     1      -9.460   7.052  66.954  1.00  0.00    -0.199 A  
HETATM    5  C   UNL     1      -8.653   8.122  67.343  1.00  0.00    -0.125 A  
HETATM    6  C   UNL     1      -8.658   8.525  68.673  1.00  0.00    -0.135 A  
HETATM    7  C   UNL     1     -10.310   6.797  69.220  1.00  0.00    -0.200 A  
HETATM    8  C   UNL     1      -9.483   7.880  69.614  1.00  0.00    -0.160 A  
BRANCH   5   9
HETATM    9  C   UNL     1      -7.830   8.758  66.284  1.00  0.00    -0.102 C  
HETATM   10  O   UNL     1      -8.012   8.540  65.095  1.00  0.00    -0.114 OA 
BRANCH   9  11
HETATM   11  O   UNL     1      -6.858   9.549  66.803  1.00  0.00    -0.078 OA 
BRANCH  11  12
HETATM   12  C   UNL     1      -7.109  10.959  66.660  1.00  0.00    -0.135 C  
BRANCH  12  13
HETATM   13  C   UNL     1      -5.783  11.709  66.588  1.00  0.00    -0.115 C  
BRANCH  13  14
HETATM   14  C   UNL     1      -5.216  11.990  67.980  1.00  0.00    -0.053 C  
BRANCH  14  15
HETATM   15  N   UNL     1      -6.197  12.602  68.902  1.00  0.00    -0.075 NA 
HETATM   16  C   UNL     1      -6.255  11.880  70.180  1.00  0.00    -0.087 C  
BRANCH  15  17
HETATM   17  C   UNL     1      -5.841  14.033  69.096  1.00  0.00    -0.087 C  
BRANCH  17  18
HETATM   18  C   UNL     1      -7.019  15.013  68.885  1.00  0.00    -0.114 C  
BRANCH  18  19
HETATM   19  N   UNL     1      -6.809  16.400  69.361  1.00  0.00    -0.218 NA 
HETATM   20  C   UNL     1      -5.442  16.853  69.080  1.00  0.00    -0.136 C  
BRANCH  19  21
HETATM   21  C   UNL     1      -7.770  17.323  68.718  1.00  0.00    -0.261 C  
BRANCH  21  22
HETATM   22  C   UNL     1      -7.595  17.424  67.199  1.00  0.00    -0.226 C  
BRANCH  22  23
HETATM   23  C   UNL     1      -8.051  16.155  66.491  1.00  0.00    -0.296 C  
BRANCH  23  24
HETATM   24  O   UNL     1      -9.182  16.451  65.655  1.00  0.00    -0.465 OA 
BRANCH  24  25
HETATM   25  C   UNL     1     -10.331  16.758  66.309  1.00  0.00    -0.310 C  
HETATM   26  O   UNL     1     -10.872  17.851  66.336  1.00  0.00    -0.180 OA 
BRANCH  25  27
HETATM   27  C   UNL     1     -10.878  15.555  66.989  1.00  0.00    -0.314 A  
HETATM   28  C   UNL     1     -11.035  15.598  68.375  1.00  0.00    -0.308 A  
HETATM   29  C   UNL     1     -11.503  14.479  69.064  1.00  0.00    -0.290 A  
HETATM   30  C   UNL     1     -11.805  13.286  68.363  1.00  0.00    -0.360 A  
HETATM   31  C   UNL     1     -11.216  14.394  66.286  1.00  0.00    -0.338 A  
HETATM   32  C   UNL     1     -11.669  13.248  66.957  1.00  0.00    -0.389 A  
BRANCH  29  33
HETATM   33  O   UNL     1     -11.644  14.455  70.434  1.00  0.00    -0.270 OA 
HETATM   34  C   UNL     1     -12.977  14.391  70.932  1.00  0.00    -0.348 C  
ENDBRANCH  29  33
BRANCH  30  35
HETATM   35  O   UNL     1     -12.160  12.226  69.163  1.00  0.00    -0.264 OA 
HETATM   36  C   UNL     1     -11.181  11.236  69.449  1.00  0.00    -0.280 C  
ENDBRANCH  30  35
BRANCH  32  37
HETATM   37  O   UNL     1     -11.957  12.081  66.301  1.00  0.00    -0.596 OA 
HETATM   38  C   UNL     1     -11.034  11.607  65.327  1.00  0.00    -0.268 C  
ENDBRANCH  32  37
ENDBRANCH  25  27
ENDBRANCH  24  25
ENDBRANCH  23  24
ENDBRANCH  22  23
ENDBRANCH  21  22
ENDBRANCH  19  21
ENDBRANCH  18  19
ENDBRANCH  17  18
ENDBRANCH  15  17
ENDBRANCH  14  15
ENDBRANCH  13  14
ENDBRANCH  12  13
ENDBRANCH  11  12
ENDBRANCH   9  11
ENDBRANCH   5   9
BRANCH   8  39
HETATM   39  O   UNL     1      -9.343   8.446  70.860  1.00  0.00    -0.152 OA 
HETATM   40  C   UNL     1      -8.134   8.276  71.582  1.00  0.00    -0.134 C  
ENDBRANCH   8  39
BRANCH   7  41
HETATM   41  O   UNL     1     -11.081   6.241  70.206  1.00  0.00    -0.303 OA 
HETATM   42  C   UNL     1     -12.175   6.949  70.764  1.00  0.00    -0.312 C  
ENDBRANCH   7  41
ENDBRANCH   2   3
TORSDOF 21
ENDMDL
MODEL      244
REMARK 921   NORMALIZED FREE ENERGY PREDICTED BY IDOCK:   -3.15 KCAL/MOL
REMARK 922        TOTAL FREE ENERGY PREDICTED BY IDOCK:   -9.88 KCAL/MOL
REMARK 923 INTER-LIGAND FREE ENERGY PREDICTED BY IDOCK:   -7.75 KCAL/MOL
REMARK 924 INTRA-LIGAND FREE ENERGY PREDICTED BY IDOCK:   -2.13 KCAL/MOL
REMARK 927      BINDING AFFINITY PREDICTED BY RF-SCORE:    0.00 PKD
ROOT
HETATM    1  C   UNL     1     -10.718  18.269  65.212  1.00  0.00     0.446 C  
HETATM    2  O   UNL     1     -11.143  16.980  64.776  1.00  0.00    -0.850 OA 
ENDROOT
BRANCH   2   3
HETATM    3  C   UNL     1     -10.987  15.944  65.664  1.00  0.00    -0.203 A  
HETATM    4  C   UNL     1     -10.138  16.080  66.770  1.00  0.00    -0.272 A  
HETATM    5  C   UNL     1      -9.962  15.044  67.688  1.00  0.00    -0.225 A  
HETATM    6  C   UNL     1     -10.653  13.851  67.503  1.00  0.00    -0.256 A  
HETATM    7  C   UNL     1     -11.724  14.750  65.489  1.00  0.00    -0.274 A  
HETATM    8  C   UNL     1     -11.538  13.696  66.419  1.00  0.00    -0.350 A  
BRANCH   5   9
HETATM    9  C   UNL     1      -9.027  15.297  68.811  1.00  0.00    -0.200 C  
HETATM   10  O   UNL     1      -9.415  15.529  69.947  1.00  0.00    -0.256 OA 
BRANCH   9  11
HETATM   11  O   UNL     1      -7.732  15.280  68.407  1.00  0.00    -0.118 OA 
BRANCH  11  12
HETATM   12  C   UNL     1      -7.052  14.038  68.665  1.00  0.00    -0.108 C  
BRANCH  12  13
HETATM   13  C   UNL     1      -6.627  13.404  67.344  1.00  0.00    -0.038 C  
BRANCH  13  14
HETATM   14  C   UNL     1      -5.413  12.491  67.521  1.00  0.00    -0.123 C  
BRANCH  14  15
HETATM   15  N   UNL     1      -5.745  11.052  67.450  1.00  0.00    -0.045 NA 
HETATM   16  C   UNL     1      -5.968  10.487  68.788  1.00  0.00    -0.040 C  
BRANCH  15  17
HETATM   17  C   UNL     1      -6.938  10.880  66.577  1.00  0.00    -0.139 C  
BRANCH  17  18
HETATM   18  C   UNL     1      -8.023   9.947  67.165  1.00  0.00    -0.109 C  
BRANCH  18  19
HETATM   19  N   UNL     1      -8.520   8.876  66.269  1.00  0.00    -0.119 NA 
HETATM   20  C   UNL     1      -7.798   8.879  64.992  1.00  0.00    -0.112 C  
BRANCH  19  21
HETATM   21  C   UNL     1      -8.371   7.551  66.909  1.00  0.00    -0.125 C  
BRANCH  21  22
HETATM   22  C   UNL     1      -9.520   6.589  66.591  1.00  0.00    -0.193 C  
BRANCH  22  23
HETATM   23  C   UNL     1     -10.685   6.758  67.558  1.00  0.00    -0.311 C  
BRANCH  23  24
HETATM   24  O   UNL     1     -10.194   7.232  68.823  1.00  0.00    -0.172 OA 
BRANCH  24  25
HETATM   25  C   UNL     1     -10.788   6.698  69.920  1.00  0.00    -0.278 C  
HETATM   26  O   UNL     1     -11.980   6.731  70.181  1.00  0.00    -0.328 OA 
BRANCH  25  27
HETATM   27  C   UNL     1      -9.779   6.025  70.780  1.00  0.00    -0.208 A  
HETATM   28  C   UNL     1      -8.432   6.318  70.564  1.00  0.00    -0.138 A  
HETATM   29  C   UNL     1      -7.444   5.679  71.315  1.00  0.00    -0.094 A  
HETATM   30  C   UNL     1      -7.803   4.718  72.291  1.00  0.00    -0.098 A  
HETATM   31  C   UNL     1     -10.142   5.108  71.772  1.00  0.00    -0.260 A  
HETATM   32  C   UNL     1      -9.168   4.437  72.527  1.00  0.00    -0.123 A  
BRANCH  29  33
HETATM   33  O   UNL     1      -6.100   5.904  71.120  1.00  0.00    -0.035 OA 
HETATM   34  C   UNL     1      -5.731   6.496  69.877  1.00  0.00    -0.015 C  
ENDBRANCH  29  33
BRANCH  30  35
HETATM   35  O   UNL     1      -6.739   4.087  72.892  1.00  0.00    -0.042 OA 
HETATM   36  C   UNL     1      -6.420   4.429  74.234  1.00  0.00    -0.053 C  
ENDBRANCH  30  35
BRANCH  32  37
HETATM   37  O   UNL     1      -9.491   3.496  73.468  1.00  0.00    -0.102 OA 
HETATM   38  C   UNL     1     -10.849   3.084  73.574  1.00  0.00    -0.215 C  
ENDBRANCH  32  37
ENDBRANCH  25  27
ENDBRANCH  24  25
ENDBRANCH  23  24
ENDBRANCH  22  23
ENDBRANCH  21  22
ENDBRANCH  19  21
ENDBRANCH  18  19
ENDBRANCH  17  18
ENDBRANCH  15  17
ENDBRANCH  14  15
ENDBRANCH  13  14
ENDBRANCH  12  13
ENDBRANCH  11  12
ENDBRANCH   9  11
ENDBRANCH   5   9
BRANCH   8  39
HETATM   39  O   UNL     1     -12.124  12.452  66.437  1.00  0.00    -0.607 OA 
HETATM   40  C   UNL     1     -11.311  11.289  66.480  1.00  0.00    -0.047 C  
ENDBRANCH   8  39
BRANCH   7  41
HETATM   41  O   UNL     1     -12.611  14.506  64.474  1.00  0.00    -0.644 OA 
HETATM   42  C   UNL     1     -12.332  13.535  63.479  1.00  0.00    -0.274 C  
ENDBRANCH   7  41
ENDBRANCH   2   3
TORSDOF 21
ENDMDL
MODEL      245
REMARK 921   NORMALIZED FREE ENERGY PREDICTED BY IDOCK:   -3.14 KCAL/MOL
REMARK 922        TOTAL FREE ENERGY PREDICTED BY IDOCK:   -9.86 KCAL/MOL
REMARK 923 INTER-LIGAND FREE ENERGY PREDICTED BY IDOCK:   -8.26 KCAL/MOL
REMARK 924 INTRA-LIGAND FREE ENERGY PREDICTED BY IDOCK:   -1.61 KCAL/MOL
REMARK 927      BINDING AFFINITY PREDICTED BY RF-SCORE:    0.00 PKD
ROOT
HETATM    1  C   UNL     1     -10.904   2.880  63.110  1.00  0.00    -0.215 C  
HETATM    2  O   UNL     1     -10.067   2.548  64.215  1.00  0.00    -0.100 OA 
ENDROOT
BRANCH   2   3
HETATM    3  C   UNL     1      -9.445   3.591  64.857  1.00  0.00    -0.158 A  
HETATM    4  C   UNL     1     -10.163   4.412  65.735  1.00  0.00    -0.257 A  
HETATM    5  C   UNL     1      -9.555   5.478  66.400  1.00  0.00    -0.174 A  
HETATM    6  C   UNL     1      -8.203   5.724  66.190  1.00  0.00    -0.111 A  
HETATM    7  C   UNL     1      -8.061   3.809  64.666  1.00  0.00    -0.090 A  
HETATM    8  C   UNL     1      -7.448   4.897  65.337  1.00  0.00    -0.077 A  
BRANCH   5   9
HETATM    9  C   UNL     1     -10.418   6.287  67.295  1.00  0.00    -0.254 C  
HETATM   10  O   UNL     1     -11.260   7.064  66.866  1.00  0.00    -0.302 OA 
BRANCH   9  11
HETATM   11  O   UNL     1     -10.125   6.084  68.603  1.00  0.00    -0.146 OA 
BRANCH  11  12
HETATM   12  C   UNL     1     -11.280   5.996  69.458  1.00  0.00    -0.346 C  
BRANCH  12  13
HETATM   13  C   UNL     1     -11.054   6.837  70.711  1.00  0.00    -0.323 C  
BRANCH  13  14
HETATM   14  C   UNL     1      -9.711   7.567  70.667  1.00  0.00    -0.175 C  
BRANCH  14  15
HETATM   15  N   UNL     1      -9.820   8.970  70.214  1.00  0.00    -0.182 NA 
HETATM   16  C   UNL     1     -10.805   9.715  71.010  1.00  0.00    -0.342 C  
BRANCH  15  17
HETATM   17  C   UNL     1      -8.473   9.598  70.281  1.00  0.00    -0.188 C  
BRANCH  17  18
HETATM   18  C   UNL     1      -7.444   8.996  69.295  1.00  0.00    -0.075 C  
BRANCH  18  19
HETATM   19  N   UNL     1      -6.779   9.952  68.379  1.00  0.00    -0.055 NA 
HETATM   20  C   UNL     1      -7.743  10.552  67.451  1.00  0.00    -0.102 C  
BRANCH  19  21
HETATM   21  C   UNL     1      -6.107  11.025  69.145  1.00  0.00    -0.045 C  
BRANCH  21  22
HETATM   22  C   UNL     1      -6.126  12.383  68.435  1.00  0.00    -0.056 C  
BRANCH  22  23
HETATM   23  C   UNL     1      -6.542  13.507  69.375  1.00  0.00    -0.082 C  
BRANCH  23  24
HETATM   24  O   UNL     1      -6.446  14.767  68.689  1.00  0.00    -0.080 OA 
BRANCH  24  25
HETATM   25  C   UNL     1      -6.481  15.869  69.479  1.00  0.00    -0.186 C  
HETATM   26  O   UNL     1      -5.775  16.080  70.452  1.00  0.00    -0.164 OA 
BRANCH  25  27
HETATM   27  C   UNL     1      -7.503  16.830  68.984  1.00  0.00    -0.228 A  
HETATM   28  C   UNL     1      -8.800  16.359  68.775  1.00  0.00    -0.246 A  
HETATM   29  C   UNL     1      -9.783  17.210  68.269  1.00  0.00    -0.280 A  
HETATM   30  C   UNL     1      -9.466  18.553  67.950  1.00  0.00    -0.296 A  
HETATM   31  C   UNL     1      -7.194  18.166  68.712  1.00  0.00    -0.287 A  
HETATM   32  C   UNL     1      -8.159  19.037  68.183  1.00  0.00    -0.312 A  
BRANCH  29  33
HETATM   33  O   UNL     1     -11.068  16.790  68.011  1.00  0.00    -0.336 OA 
HETATM   34  C   UNL     1     -11.631  15.866  68.938  1.00  0.00    -0.388 C  
ENDBRANCH  29  33
BRANCH  30  35
HETATM   35  O   UNL     1     -10.490  19.260  67.367  1.00  0.00    -0.401 OA 
HETATM   36  C   UNL     1     -10.475  19.436  65.957  1.00  0.00    -0.505 C  
ENDBRANCH  30  35
BRANCH  32  37
HETATM   37  O   UNL     1      -7.872  20.336  67.857  1.00  0.00    -0.273 OA 
HETATM   38  C   UNL     1      -6.507  20.714  67.721  1.00  0.00    -0.308 C  
ENDBRANCH  32  37
ENDBRANCH  25  27
ENDBRANCH  24  25
ENDBRANCH  23  24
ENDBRANCH  22  23
ENDBRANCH  21  22
ENDBRANCH  19  21
ENDBRANCH  18  19
ENDBRANCH  17  18
ENDBRANCH  15  17
ENDBRANCH  14  15
ENDBRANCH  13  14
ENDBRANCH  12  13
ENDBRANCH  11  12
ENDBRANCH   9  11
ENDBRANCH   5   9
BRANCH   8  39
HETATM   39  O   UNL     1      -6.136   5.309  65.287  1.00  0.00    -0.028 OA 
HETATM   40  C   UNL     1      -5.537   5.900  66.430  1.00  0.00    -0.013 C  
ENDBRANCH   8  39
BRANCH   7  41
HETATM   41  O   UNL     1      -7.242   3.059  63.864  1.00  0.00    -0.051 OA 
HETATM   42  C   UNL     1      -6.614   1.886  64.356  1.00  0.00    -0.023 C  
ENDBRANCH   7  41
ENDBRANCH   2   3
TORSDOF 21
ENDMDL
MODEL      246
REMARK 921   NORMALIZED FREE ENERGY PREDICTED BY IDOCK:   -3.14 KCAL/MOL
REMARK 922        TOTAL FREE ENERGY PREDICTED BY IDOCK:   -9.86 KCAL/MOL
REMARK 923 INTER-LIGAND FREE ENERGY PREDICTED BY IDOCK:   -8.66 KCAL/MOL
REMARK 924 INTRA-LIGAND FREE ENERGY PREDICTED BY IDOCK:   -1.20 KCAL/MOL
REMARK 927      BINDING AFFINITY PREDICTED BY RF-SCORE:    0.00 PKD
ROOT
HETATM    1  C   UNL     1      -7.099  19.451  69.088  1.00  0.00    -0.349 C  
HETATM    2  O   UNL     1      -7.677  18.986  67.870  1.00  0.00    -0.256 OA 
ENDROOT
BRANCH   2   3
HETATM    3  C   UNL     1      -8.237  17.732  67.890  1.00  0.00    -0.237 A  
HETATM    4  C   UNL     1      -7.431  16.595  67.754  1.00  0.00    -0.169 A  
HETATM    5  C   UNL     1      -7.974  15.309  67.771  1.00  0.00    -0.159 A  
HETATM    6  C   UNL     1      -9.346  15.156  67.935  1.00  0.00    -0.185 A  
HETATM    7  C   UNL     1      -9.628  17.586  68.097  1.00  0.00    -0.294 A  
HETATM    8  C   UNL     1     -10.177  16.279  68.106  1.00  0.00    -0.258 A  
BRANCH   5   9
HETATM    9  C   UNL     1      -7.025  14.181  67.603  1.00  0.00    -0.184 C  
HETATM   10  O   UNL     1      -5.818  14.351  67.498  1.00  0.00    -0.342 OA 
BRANCH   9  11
HETATM   11  O   UNL     1      -7.663  12.986  67.541  1.00  0.00    -0.148 OA 
BRANCH  11  12
HETATM   12  C   UNL     1      -7.717  12.283  68.795  1.00  0.00    -0.016 C  
BRANCH  12  13
HETATM   13  C   UNL     1      -6.456  11.439  68.963  1.00  0.00    -0.069 C  
BRANCH  13  14
HETATM   14  C   UNL     1      -6.785   9.950  69.077  1.00  0.00    -0.053 C  
BRANCH  14  15
HETATM   15  N   UNL     1      -7.320   9.566  70.401  1.00  0.00    -0.126 NA 
HETATM   16  C   UNL     1      -8.783   9.438  70.370  1.00  0.00    -0.240 C  
BRANCH  15  17
HETATM   17  C   UNL     1      -6.668   8.300  70.831  1.00  0.00    -0.040 C  
BRANCH  17  18
HETATM   18  C   UNL     1      -7.049   7.069  69.974  1.00  0.00    -0.070 C  
BRANCH  18  19
HETATM   19  N   UNL     1      -5.931   6.382  69.286  1.00  0.00    -0.021 NA 
HETATM   20  C   UNL     1      -5.625   5.099  69.927  1.00  0.00    -0.012 C  
BRANCH  19  21
HETATM   21  C   UNL     1      -6.261   6.148  67.862  1.00  0.00    -0.032 C  
BRANCH  21  22
HETATM   22  C   UNL     1      -7.299   5.041  67.652  1.00  0.00    -0.078 C  
BRANCH  22  23
HETATM   23  C   UNL     1      -8.583   5.578  67.032  1.00  0.00    -0.109 C  
BRANCH  23  24
HETATM   24  O   UNL     1      -9.716   5.059  67.748  1.00  0.00    -0.140 OA 
BRANCH  24  25
HETATM   25  C   UNL     1     -10.663   5.969  68.087  1.00  0.00    -0.278 C  
HETATM   26  O   UNL     1     -11.286   6.680  67.315  1.00  0.00    -0.366 OA 
BRANCH  25  27
HETATM   27  C   UNL     1     -10.872   5.976  69.559  1.00  0.00    -0.439 A  
HETATM   28  C   UNL     1     -10.025   5.195  70.346  1.00  0.00    -0.316 A  
HETATM   29  C   UNL     1     -10.209   5.133  71.728  1.00  0.00    -0.209 A  
HETATM   30  C   UNL     1     -11.266   5.851  72.338  1.00  0.00    -0.291 A  
HETATM   31  C   UNL     1     -11.891   6.722  70.160  1.00  0.00    -0.321 A  
HETATM   32  C   UNL     1     -12.110   6.662  71.545  1.00  0.00    -0.355 A  
BRANCH  29  33
HETATM   33  O   UNL     1      -9.426   4.352  72.548  1.00  0.00    -0.131 OA 
HETATM   34  C   UNL     1      -8.625   3.364  71.905  1.00  0.00    -0.081 C  
ENDBRANCH  29  33
BRANCH  30  35
HETATM   35  O   UNL     1     -11.404   5.631  73.688  1.00  0.00    -0.047 OA 
HETATM   36  C   UNL     1     -10.399   6.127  74.561  1.00  0.00    -0.221 C  
ENDBRANCH  30  35
BRANCH  32  37
HETATM   37  O   UNL     1     -13.132   7.338  72.154  1.00  0.00    -0.166 OA 
HETATM   38  C   UNL     1     -13.371   8.689  71.775  1.00  0.00    -0.374 C  
ENDBRANCH  32  37
ENDBRANCH  25  27
ENDBRANCH  24  25
ENDBRANCH  23  24
ENDBRANCH  22  23
ENDBRANCH  21  22
ENDBRANCH  19  21
ENDBRANCH  18  19
ENDBRANCH  17  18
ENDBRANCH  15  17
ENDBRANCH  14  15
ENDBRANCH  13  14
ENDBRANCH  12  13
ENDBRANCH  11  12
ENDBRANCH   9  11
ENDBRANCH   5   9
BRANCH   8  39
HETATM   39  O   UNL     1     -11.489  15.899  68.267  1.00  0.00    -0.363 OA 
HETATM   40  C   UNL     1     -11.839  14.524  68.213  1.00  0.00    -0.312 C  
ENDBRANCH   8  39
BRANCH   7  41
HETATM   41  O   UNL     1     -10.517  18.612  68.279  1.00  0.00    -0.353 OA 
HETATM   42  C   UNL     1     -10.898  19.447  67.199  1.00  0.00    -0.450 C  
ENDBRANCH   7  41
ENDBRANCH   2   3
TORSDOF 21
ENDMDL
MODEL      247
REMARK 921   NORMALIZED FREE ENERGY PREDICTED BY IDOCK:   -3.13 KCAL/MOL
REMARK 922        TOTAL FREE ENERGY PREDICTED BY IDOCK:   -9.83 KCAL/MOL
REMARK 923 INTER-LIGAND FREE ENERGY PREDICTED BY IDOCK:   -8.76 KCAL/MOL
REMARK 924 INTRA-LIGAND FREE ENERGY PREDICTED BY IDOCK:   -1.08 KCAL/MOL
REMARK 927      BINDING AFFINITY PREDICTED BY RF-SCORE:    0.00 PKD
ROOT
HETATM    1  C   UNL     1     -14.392   6.791  72.228  1.00  0.00     0.083 C  
HETATM    2  O   UNL     1     -13.073   6.379  71.877  1.00  0.00    -0.153 OA 
ENDROOT
BRANCH   2   3
HETATM    3  C   UNL     1     -12.149   7.374  71.668  1.00  0.00    -0.317 A  
HETATM    4  C   UNL     1     -12.552   8.629  71.196  1.00  0.00    -0.176 A  
HETATM    5  C   UNL     1     -11.634   9.656  70.976  1.00  0.00    -0.436 A  
HETATM    6  C   UNL     1     -10.288   9.429  71.240  1.00  0.00    -0.363 A  
HETATM    7  C   UNL     1     -10.788   7.145  71.977  1.00  0.00    -0.222 A  
HETATM    8  C   UNL     1      -9.856   8.188  71.746  1.00  0.00    -0.194 A  
BRANCH   5   9
HETATM    9  C   UNL     1     -12.176  10.938  70.461  1.00  0.00    -0.367 C  
HETATM   10  O   UNL     1     -12.423  11.886  71.193  1.00  0.00    -0.348 OA 
BRANCH   9  11
HETATM   11  O   UNL     1     -12.391  10.896  69.123  1.00  0.00    -0.435 OA 
BRANCH  11  12
HETATM   12  C   UNL     1     -11.226  11.189  68.331  1.00  0.00    -0.262 C  
BRANCH  12  13
HETATM   13  C   UNL     1     -11.154  10.225  67.151  1.00  0.00    -0.165 C  
BRANCH  13  14
HETATM   14  C   UNL     1      -9.942   9.299  67.251  1.00  0.00    -0.207 C  
BRANCH  14  15
HETATM   15  N   UNL     1      -9.432   8.854  65.936  1.00  0.00    -0.245 NA 
HETATM   16  C   UNL     1      -9.209   9.993  65.035  1.00  0.00    -0.225 C  
BRANCH  15  17
HETATM   17  C   UNL     1      -8.185   8.071  66.148  1.00  0.00    -0.116 C  
BRANCH  17  18
HETATM   18  C   UNL     1      -6.891   8.820  65.749  1.00  0.00    -0.072 C  
BRANCH  18  19
HETATM   19  N   UNL     1      -6.192   9.542  66.838  1.00  0.00    -0.064 NA 
HETATM   20  C   UNL     1      -5.218   8.673  67.507  1.00  0.00    -0.034 C  
BRANCH  19  21
HETATM   21  C   UNL     1      -5.497  10.736  66.308  1.00  0.00    -0.101 C  
BRANCH  21  22
HETATM   22  C   UNL     1      -5.707  11.991  67.161  1.00  0.00    -0.142 C  
BRANCH  22  23
HETATM   23  C   UNL     1      -7.173  12.399  67.217  1.00  0.00    -0.125 C  
BRANCH  23  24
HETATM   24  O   UNL     1      -7.277  13.831  67.164  1.00  0.00    -0.052 OA 
BRANCH  24  25
HETATM   25  C   UNL     1      -8.539  14.329  67.156  1.00  0.00    -0.216 C  
HETATM   26  O   UNL     1      -9.555  13.708  66.885  1.00  0.00    -0.245 OA 
BRANCH  25  27
HETATM   27  C   UNL     1      -8.535  15.761  67.554  1.00  0.00    -0.183 A  
HETATM   28  C   UNL     1      -9.609  16.557  67.154  1.00  0.00    -0.243 A  
HETATM   29  C   UNL     1      -9.629  17.917  67.464  1.00  0.00    -0.269 A  
HETATM   30  C   UNL     1      -8.551  18.502  68.172  1.00  0.00    -0.303 A  
HETATM   31  C   UNL     1      -7.487  16.324  68.291  1.00  0.00    -0.157 A  
HETATM   32  C   UNL     1      -7.473  17.693  68.597  1.00  0.00    -0.273 A  
BRANCH  29  33
HETATM   33  O   UNL     1     -10.646  18.756  67.066  1.00  0.00    -0.405 OA 
HETATM   34  C   UNL     1     -10.831  18.903  65.661  1.00  0.00    -0.051 C  
ENDBRANCH  29  33
BRANCH  30  35
HETATM   35  O   UNL     1      -8.640  19.865  68.329  1.00  0.00    -0.302 OA 
HETATM   36  C   UNL     1      -8.564  20.686  67.171  1.00  0.00    -0.199 C  
ENDBRANCH  30  35
BRANCH  32  37
HETATM   37  O   UNL     1      -6.436  18.281  69.271  1.00  0.00    -0.252 OA 
HETATM   38  C   UNL     1      -5.217  18.507  68.573  1.00  0.00    -0.174 C  
ENDBRANCH  32  37
ENDBRANCH  25  27
ENDBRANCH  24  25
ENDBRANCH  23  24
ENDBRANCH  22  23
ENDBRANCH  21  22
ENDBRANCH  19  21
ENDBRANCH  18  19
ENDBRANCH  17  18
ENDBRANCH  15  17
ENDBRANCH  14  15
ENDBRANCH  13  14
ENDBRANCH  12  13
ENDBRANCH  11  12
ENDBRANCH   9  11
ENDBRANCH   5   9
BRANCH   8  39
HETATM   39  O   UNL     1      -8.496   8.187  71.949  1.00  0.00    -0.123 OA 
HETATM   40  C   UNL     1      -7.979   8.251  73.269  1.00  0.00    -0.149 C  
ENDBRANCH   8  39
BRANCH   7  41
HETATM   41  O   UNL     1     -10.272   5.978  72.477  1.00  0.00    -0.181 OA 
HETATM   42  C   UNL     1     -10.862   5.339  73.596  1.00  0.00    -0.294 C  
ENDBRANCH   7  41
ENDBRANCH   2   3
TORSDOF 21
ENDMDL
MODEL      248
REMARK 921   NORMALIZED FREE ENERGY PREDICTED BY IDOCK:   -3.13 KCAL/MOL
REMARK 922        TOTAL FREE ENERGY PREDICTED BY IDOCK:   -9.82 KCAL/MOL
REMARK 923 INTER-LIGAND FREE ENERGY PREDICTED BY IDOCK:   -6.61 KCAL/MOL
REMARK 924 INTRA-LIGAND FREE ENERGY PREDICTED BY IDOCK:   -3.22 KCAL/MOL
REMARK 927      BINDING AFFINITY PREDICTED BY RF-SCORE:    0.00 PKD
ROOT
HETATM    1  C   UNL     1     -12.033  10.641  69.831  1.00  0.00    -0.310 C  
HETATM    2  O   UNL     1     -11.364  10.611  68.572  1.00  0.00    -0.268 OA 
ENDROOT
BRANCH   2   3
HETATM    3  C   UNL     1     -10.128  11.207  68.513  1.00  0.00    -0.201 A  
HETATM    4  C   UNL     1      -9.031  10.627  69.162  1.00  0.00    -0.139 A  
HETATM    5  C   UNL     1      -7.764  11.211  69.118  1.00  0.00    -0.076 A  
HETATM    6  C   UNL     1      -7.587  12.391  68.405  1.00  0.00    -0.129 A  
HETATM    7  C   UNL     1      -9.951  12.386  67.753  1.00  0.00    -0.205 A  
HETATM    8  C   UNL     1      -8.664  12.980  67.716  1.00  0.00    -0.188 A  
BRANCH   5   9
HETATM    9  C   UNL     1      -6.681  10.514  69.856  1.00  0.00    -0.142 C  
HETATM   10  O   UNL     1      -5.504  10.617  69.541  1.00  0.00    -0.038 OA 
BRANCH   9  11
HETATM   11  O   UNL     1      -7.166   9.745  70.862  1.00  0.00    -0.310 OA 
BRANCH  11  12
HETATM   12  C   UNL     1      -6.320   8.634  71.212  1.00  0.00    -0.053 C  
BRANCH  12  13
HETATM   13  C   UNL     1      -6.638   7.445  70.309  1.00  0.00    -0.046 C  
BRANCH  13  14
HETATM   14  C   UNL     1      -5.449   7.076  69.421  1.00  0.00    -0.015 C  
BRANCH  14  15
HETATM   15  N   UNL     1      -5.491   5.682  68.932  1.00  0.00    -0.010 NA 
HETATM   16  C   UNL     1      -6.026   4.772  69.954  1.00  0.00    -0.017 C  
BRANCH  15  17
HETATM   17  C   UNL     1      -6.298   5.639  67.683  1.00  0.00    -0.042 C  
BRANCH  17  18
HETATM   18  C   UNL     1      -6.113   6.871  66.766  1.00  0.00    -0.037 C  
BRANCH  18  19
HETATM   19  N   UNL     1      -7.211   7.866  66.778  1.00  0.00    -0.086 NA 
HETATM   20  C   UNL     1      -6.845   9.067  66.020  1.00  0.00    -0.080 C  
BRANCH  19  21
HETATM   21  C   UNL     1      -8.446   7.285  66.205  1.00  0.00    -0.134 C  
BRANCH  21  22
HETATM   22  C   UNL     1      -9.704   8.102  66.517  1.00  0.00    -0.309 C  
BRANCH  22  23
HETATM   23  C   UNL     1     -10.612   7.388  67.509  1.00  0.00    -0.269 C  
BRANCH  23  24
HETATM   24  O   UNL     1      -9.912   7.199  68.751  1.00  0.00    -0.156 OA 
BRANCH  24  25
HETATM   25  C   UNL     1     -10.655   6.706  69.774  1.00  0.00    -0.228 C  
HETATM   26  O   UNL     1     -11.573   7.280  70.338  1.00  0.00    -0.279 OA 
BRANCH  25  27
HETATM   27  C   UNL     1     -10.214   5.329  70.118  1.00  0.00    -0.350 A  
HETATM   28  C   UNL     1     -10.319   4.918  71.448  1.00  0.00    -0.221 A  
HETATM   29  C   UNL     1      -9.877   3.651  71.828  1.00  0.00    -0.165 A  
HETATM   30  C   UNL     1      -9.303   2.779  70.871  1.00  0.00    -0.149 A  
HETATM   31  C   UNL     1      -9.688   4.457  69.159  1.00  0.00    -0.240 A  
HETATM   32  C   UNL     1      -9.217   3.185  69.520  1.00  0.00    -0.151 A  
BRANCH  29  33
HETATM   33  O   UNL     1      -9.926   3.207  73.131  1.00  0.00    -0.115 OA 
HETATM   34  C   UNL     1     -11.221   2.952  73.665  1.00  0.00    -0.206 C  
ENDBRANCH  29  33
BRANCH  30  35
HETATM   35  O   UNL     1      -8.816   1.602  71.387  1.00  0.00    -0.056 OA 
HETATM   36  C   UNL     1      -7.419   1.493  71.622  1.00  0.00    -0.036 C  
ENDBRANCH  30  35
BRANCH  32  37
HETATM   37  O   UNL     1      -8.649   2.331  68.613  1.00  0.00    -0.064 OA 
HETATM   38  C   UNL     1      -8.671   2.692  67.237  1.00  0.00    -0.118 C  
ENDBRANCH  32  37
ENDBRANCH  25  27
ENDBRANCH  24  25
ENDBRANCH  23  24
ENDBRANCH  22  23
ENDBRANCH  21  22
ENDBRANCH  19  21
ENDBRANCH  18  19
ENDBRANCH  17  18
ENDBRANCH  15  17
ENDBRANCH  14  15
ENDBRANCH  13  14
ENDBRANCH  12  13
ENDBRANCH  11  12
ENDBRANCH   9  11
ENDBRANCH   5   9
BRANCH   8  39
HETATM   39  O   UNL     1      -8.265  14.126  67.068  1.00  0.00    -0.170 OA 
HETATM   40  C   UNL     1      -7.090  14.803  67.489  1.00  0.00    -0.184 C  
ENDBRANCH   8  39
BRANCH   7  41
HETATM   41  O   UNL     1     -10.931  13.030  67.045  1.00  0.00    -0.258 OA 
HETATM   42  C   UNL     1     -11.935  13.781  67.706  1.00  0.00    -0.356 C  
ENDBRANCH   7  41
ENDBRANCH   2   3
TORSDOF 21
ENDMDL
MODEL      249
REMARK 921   NORMALIZED FREE ENERGY PREDICTED BY IDOCK:   -3.10 KCAL/MOL
REMARK 922        TOTAL FREE ENERGY PREDICTED BY IDOCK:   -9.78 KCAL/MOL
REMARK 923 INTER-LIGAND FREE ENERGY PREDICTED BY IDOCK:   -7.85 KCAL/MOL
REMARK 924 INTRA-LIGAND FREE ENERGY PREDICTED BY IDOCK:   -1.92 KCAL/MOL
REMARK 927      BINDING AFFINITY PREDICTED BY RF-SCORE:    0.00 PKD
ROOT
HETATM    1  C   UNL     1      -7.437   4.746  74.440  1.00  0.00    -0.089 C  
HETATM    2  O   UNL     1      -7.132   5.693  73.419  1.00  0.00    -0.083 OA 
ENDROOT
BRANCH   2   3
HETATM    3  C   UNL     1      -7.785   5.544  72.221  1.00  0.00    -0.102 A  
HETATM    4  C   UNL     1      -7.405   4.536  71.327  1.00  0.00    -0.056 A  
HETATM    5  C   UNL     1      -8.053   4.362  70.103  1.00  0.00    -0.059 A  
HETATM    6  C   UNL     1      -9.105   5.206  69.768  1.00  0.00    -0.154 A  
HETATM    7  C   UNL     1      -8.880   6.383  71.907  1.00  0.00    -0.138 A  
HETATM    8  C   UNL     1      -9.531   6.209  70.660  1.00  0.00    -0.168 A  
BRANCH   5   9
HETATM    9  C   UNL     1      -7.553   3.270  69.232  1.00  0.00    -0.048 C  
HETATM   10  O   UNL     1      -7.477   2.111  69.614  1.00  0.00    -0.043 OA 
BRANCH   9  11
HETATM   11  O   UNL     1      -7.168   3.727  68.015  1.00  0.00    -0.057 OA 
BRANCH  11  12
HETATM   12  C   UNL     1      -6.441   2.765  67.228  1.00  0.00    -0.036 C  
BRANCH  12  13
HETATM   13  C   UNL     1      -7.336   2.240  66.109  1.00  0.00    -0.066 C  
BRANCH  13  14
HETATM   14  C   UNL     1      -8.734   2.857  66.166  1.00  0.00    -0.133 C  
BRANCH  14  15
HETATM   15  N   UNL     1      -8.968   3.881  65.126  1.00  0.00    -0.126 NA 
HETATM   16  C   UNL     1      -9.875   3.386  64.082  1.00  0.00    -0.172 C  
BRANCH  15  17
HETATM   17  C   UNL     1      -9.498   5.109  65.777  1.00  0.00    -0.141 C  
BRANCH  17  18
HETATM   18  C   UNL     1      -8.631   6.370  65.553  1.00  0.00    -0.109 C  
BRANCH  18  19
HETATM   19  N   UNL     1      -7.439   6.507  66.423  1.00  0.00    -0.084 NA 
HETATM   20  C   UNL     1      -6.203   6.480  65.634  1.00  0.00    -0.034 C  
BRANCH  19  21
HETATM   21  C   UNL     1      -7.499   7.769  67.193  1.00  0.00    -0.096 C  
BRANCH  21  22
HETATM   22  C   UNL     1      -8.925   8.288  67.402  1.00  0.00    -0.142 C  
BRANCH  22  23
HETATM   23  C   UNL     1      -8.953   9.527  68.288  1.00  0.00    -0.124 C  
BRANCH  23  24
HETATM   24  O   UNL     1     -10.107  10.322  67.966  1.00  0.00    -0.153 OA 
BRANCH  24  25
HETATM   25  C   UNL     1      -9.866  11.635  67.725  1.00  0.00    -0.179 C  
HETATM   26  O   UNL     1      -9.041  12.084  66.945  1.00  0.00    -0.184 OA 
BRANCH  25  27
HETATM   27  C   UNL     1     -10.775  12.487  68.537  1.00  0.00    -0.263 A  
HETATM   28  C   UNL     1     -10.905  13.831  68.185  1.00  0.00    -0.261 A  
HETATM   29  C   UNL     1     -11.711  14.680  68.943  1.00  0.00    -0.309 A  
HETATM   30  C   UNL     1     -12.389  14.188  70.085  1.00  0.00    -0.351 A  
HETATM   31  C   UNL     1     -11.475  11.984  69.639  1.00  0.00    -0.322 A  
HETATM   32  C   UNL     1     -12.276  12.822  70.430  1.00  0.00    -0.293 A  
BRANCH  29  33
HETATM   33  O   UNL     1     -11.849  16.021  68.661  1.00  0.00    -0.367 OA 
HETATM   34  C   UNL     1     -10.663  16.714  68.283  1.00  0.00    -0.351 C  
ENDBRANCH  29  33
BRANCH  30  35
HETATM   35  O   UNL     1     -13.069  15.142  70.804  1.00  0.00    -0.402 OA 
HETATM   36  C   UNL     1     -12.867  15.203  72.209  1.00  0.00    -0.343 C  
ENDBRANCH  30  35
BRANCH  32  37
HETATM   37  O   UNL     1     -12.931  12.370  71.544  1.00  0.00    -0.383 OA 
HETATM   38  C   UNL     1     -13.088  10.966  71.714  1.00  0.00    -0.459 C  
ENDBRANCH  32  37
ENDBRANCH  25  27
ENDBRANCH  24  25
ENDBRANCH  23  24
ENDBRANCH  22  23
ENDBRANCH  21  22
ENDBRANCH  19  21
ENDBRANCH  18  19
ENDBRANCH  17  18
ENDBRANCH  15  17
ENDBRANCH  14  15
ENDBRANCH  13  14
ENDBRANCH  12  13
ENDBRANCH  11  12
ENDBRANCH   9  11
ENDBRANCH   5   9
BRANCH   8  39
HETATM   39  O   UNL     1     -10.591   6.913  70.138  1.00  0.00    -0.206 OA 
HETATM   40  C   UNL     1     -11.331   6.375  69.054  1.00  0.00    -0.255 C  
ENDBRANCH   8  39
BRANCH   7  41
HETATM   41  O   UNL     1      -9.372   7.380  72.708  1.00  0.00    -0.142 OA 
HETATM   42  C   UNL     1     -10.450   7.137  73.596  1.00  0.00    -0.370 C  
ENDBRANCH   7  41
ENDBRANCH   2   3
TORSDOF 21
ENDMDL
MODEL      250
REMARK 921   NORMALIZED FREE ENERGY PREDICTED BY IDOCK:   -3.08 KCAL/MOL
REMARK 922        TOTAL FREE ENERGY PREDICTED BY IDOCK:   -9.73 KCAL/MOL
REMARK 923 INTER-LIGAND FREE ENERGY PREDICTED BY IDOCK:   -7.72 KCAL/MOL
REMARK 924 INTRA-LIGAND FREE ENERGY PREDICTED BY IDOCK:   -2.01 KCAL/MOL
REMARK 927      BINDING AFFINITY PREDICTED BY RF-SCORE:    0.00 PKD
ROOT
HETATM    1  C   UNL     1     -10.881  19.267  66.937  1.00  0.00    -0.381 C  
HETATM    2  O   UNL     1      -9.684  18.736  67.501  1.00  0.00    -0.295 OA 
ENDROOT
BRANCH   2   3
HETATM    3  C   UNL     1      -9.445  17.398  67.300  1.00  0.00    -0.251 A  
HETATM    4  C   UNL     1     -10.449  16.569  66.785  1.00  0.00    -0.269 A  
HETATM    5  C   UNL     1     -10.233  15.207  66.570  1.00  0.00    -0.283 A  
HETATM    6  C   UNL     1      -8.988  14.664  66.868  1.00  0.00    -0.275 A  
HETATM    7  C   UNL     1      -8.164  16.864  67.569  1.00  0.00    -0.178 A  
HETATM    8  C   UNL     1      -7.950  15.479  67.357  1.00  0.00    -0.185 A  
BRANCH   5   9
HETATM    9  C   UNL     1     -11.375  14.426  66.034  1.00  0.00    -0.335 C  
HETATM   10  O   UNL     1     -12.140  13.805  66.759  1.00  0.00    -0.411 OA 
BRANCH   9  11
HETATM   11  O   UNL     1     -11.423  14.460  64.680  1.00  0.00    -0.377 OA 
BRANCH  11  12
HETATM   12  C   UNL     1     -11.639  13.176  64.067  1.00  0.00    -0.428 C  
BRANCH  12  13
HETATM   13  C   UNL     1     -10.298  12.478  63.856  1.00  0.00    -0.436 C  
BRANCH  13  14
HETATM   14  C   UNL     1     -10.302  11.062  64.434  1.00  0.00    -0.358 C  
BRANCH  14  15
HETATM   15  N   UNL     1      -9.162  10.794  65.337  1.00  0.00    -0.197 NA 
HETATM   16  C   UNL     1      -9.621  10.414  66.680  1.00  0.00    -0.177 C  
BRANCH  15  17
HETATM   17  C   UNL     1      -8.311   9.736  64.729  1.00  0.00    -0.155 C  
BRANCH  17  18
HETATM   18  C   UNL     1      -6.841  10.160  64.499  1.00  0.00    -0.113 C  
BRANCH  18  19
HETATM   19  N   UNL     1      -5.846   9.610  65.449  1.00  0.00    -0.062 NA 
HETATM   20  C   UNL     1      -5.395  10.636  66.395  1.00  0.00    -0.071 C  
BRANCH  19  21
HETATM   21  C   UNL     1      -6.417   8.471  66.201  1.00  0.00    -0.053 C  
BRANCH  21  22
HETATM   22  C   UNL     1      -6.055   7.106  65.606  1.00  0.00    -0.037 C  
BRANCH  22  23
HETATM   23  C   UNL     1      -7.262   6.427  64.972  1.00  0.00    -0.067 C  
BRANCH  23  24
HETATM   24  O   UNL     1      -8.335   6.363  65.927  1.00  0.00    -0.130 OA 
BRANCH  24  25
HETATM   25  C   UNL     1      -8.474   5.180  66.576  1.00  0.00    -0.111 C  
HETATM   26  O   UNL     1      -8.579   4.082  66.054  1.00  0.00    -0.109 OA 
BRANCH  25  27
HETATM   27  C   UNL     1      -8.460   5.390  68.048  1.00  0.00    -0.097 A  
HETATM   28  C   UNL     1      -7.330   4.983  68.758  1.00  0.00    -0.062 A  
HETATM   29  C   UNL     1      -7.287   5.118  70.146  1.00  0.00    -0.062 A  
HETATM   30  C   UNL     1      -8.397   5.655  70.844  1.00  0.00    -0.124 A  
HETATM   31  C   UNL     1      -9.542   5.961  68.726  1.00  0.00    -0.152 A  
HETATM   32  C   UNL     1      -9.533   6.089  70.123  1.00  0.00    -0.158 A  
BRANCH  29  33
HETATM   33  O   UNL     1      -6.213   4.702  70.901  1.00  0.00    -0.017 OA 
HETATM   34  C   UNL     1      -6.154   3.312  71.206  1.00  0.00    -0.014 C  
ENDBRANCH  29  33
BRANCH  30  35
HETATM   35  O   UNL     1      -8.273   5.644  72.213  1.00  0.00    -0.107 OA 
HETATM   36  C   UNL     1      -8.096   6.882  72.887  1.00  0.00    -0.107 C  
ENDBRANCH  30  35
BRANCH  32  37
HETATM   37  O   UNL     1     -10.598   6.594  70.819  1.00  0.00    -0.215 OA 
HETATM   38  C   UNL     1     -10.703   8.005  70.966  1.00  0.00    -0.220 C  
ENDBRANCH  32  37
ENDBRANCH  25  27
ENDBRANCH  24  25
ENDBRANCH  23  24
ENDBRANCH  22  23
ENDBRANCH  21  22
ENDBRANCH  19  21
ENDBRANCH  18  19
ENDBRANCH  17  18
ENDBRANCH  15  17
ENDBRANCH  14  15
ENDBRANCH  13  14
ENDBRANCH  12  13
ENDBRANCH  11  12
ENDBRANCH   9  11
ENDBRANCH   5   9
BRANCH   8  39
HETATM   39  O   UNL     1      -6.806  14.744  67.567  1.00  0.00    -0.177 OA 
HETATM   40  C   UNL     1      -6.799  13.712  68.541  1.00  0.00    -0.098 C  
ENDBRANCH   8  39
BRANCH   7  41
HETATM   41  O   UNL     1      -7.090  17.573  68.040  1.00  0.00    -0.191 OA 
HETATM   42  C   UNL     1      -6.300  18.365  67.169  1.00  0.00    -0.174 C  
ENDBRANCH   7  41
ENDBRANCH   2   3
TORSDOF 21
ENDMDL
MODEL      251
REMARK 921   NORMALIZED FREE ENERGY PREDICTED BY IDOCK:   -3.08 KCAL/MOL
REMARK 922        TOTAL FREE ENERGY PREDICTED BY IDOCK:   -9.73 KCAL/MOL
REMARK 923 INTER-LIGAND FREE ENERGY PREDICTED BY IDOCK:   -8.15 KCAL/MOL
REMARK 924 INTRA-LIGAND FREE ENERGY PREDICTED BY IDOCK:   -1.58 KCAL/MOL
REMARK 927      BINDING AFFINITY PREDICTED BY RF-SCORE:    0.00 PKD
ROOT
HETATM    1  C   UNL     1     -12.385  15.308  70.073  1.00  0.00    -0.328 C  
HETATM    2  O   UNL     1     -11.501  16.278  69.514  1.00  0.00    -0.308 OA 
ENDROOT
BRANCH   2   3
HETATM    3  C   UNL     1     -10.820  15.914  68.379  1.00  0.00    -0.316 A  
HETATM    4  C   UNL     1     -10.881  14.597  67.907  1.00  0.00    -0.261 A  
HETATM    5  C   UNL     1     -10.200  14.201  66.755  1.00  0.00    -0.262 A  
HETATM    6  C   UNL     1      -9.450  15.140  66.056  1.00  0.00    -0.358 A  
HETATM    7  C   UNL     1     -10.092  16.886  67.654  1.00  0.00    -0.278 A  
HETATM    8  C   UNL     1      -9.395  16.479  66.488  1.00  0.00    -0.269 A  
BRANCH   5   9
HETATM    9  C   UNL     1     -10.327  12.777  66.360  1.00  0.00    -0.258 C  
HETATM   10  O   UNL     1     -10.541  11.889  67.173  1.00  0.00    -0.219 OA 
BRANCH   9  11
HETATM   11  O   UNL     1     -10.137  12.600  65.029  1.00  0.00    -0.282 OA 
BRANCH  11  12
HETATM   12  C   UNL     1     -11.079  11.701  64.415  1.00  0.00    -0.317 C  
BRANCH  12  13
HETATM   13  C   UNL     1     -10.410  10.980  63.248  1.00  0.00    -0.317 C  
BRANCH  13  14
HETATM   14  C   UNL     1      -8.948  11.399  63.088  1.00  0.00    -0.068 C  
BRANCH  14  15
HETATM   15  N   UNL     1      -8.085  10.325  62.552  1.00  0.00    -0.143 NA 
HETATM   16  C   UNL     1      -6.748  10.358  63.161  1.00  0.00    -0.074 C  
BRANCH  15  17
HETATM   17  C   UNL     1      -8.757   9.017  62.776  1.00  0.00    -0.154 C  
BRANCH  17  18
HETATM   18  C   UNL     1      -7.966   8.047  63.686  1.00  0.00    -0.130 C  
BRANCH  18  19
HETATM   19  N   UNL     1      -7.715   6.694  63.137  1.00  0.00    -0.098 NA 
HETATM   20  C   UNL     1      -6.299   6.517  62.797  1.00  0.00    -0.038 C  
BRANCH  19  21
HETATM   21  C   UNL     1      -8.116   5.653  64.110  1.00  0.00    -0.129 C  
BRANCH  21  22
HETATM   22  C   UNL     1      -8.628   6.225  65.435  1.00  0.00    -0.097 C  
BRANCH  22  23
HETATM   23  C   UNL     1      -9.549   5.248  66.156  1.00  0.00    -0.161 C  
BRANCH  23  24
HETATM   24  O   UNL     1      -9.694   5.648  67.529  1.00  0.00    -0.114 OA 
BRANCH  24  25
HETATM   25  C   UNL     1      -9.517   4.665  68.448  1.00  0.00    -0.145 C  
HETATM   26  O   UNL     1      -9.588   3.464  68.239  1.00  0.00    -0.169 OA 
BRANCH  25  27
HETATM   27  C   UNL     1      -9.194   5.249  69.776  1.00  0.00    -0.167 A  
HETATM   28  C   UNL     1      -8.365   6.371  69.816  1.00  0.00    -0.127 A  
HETATM   29  C   UNL     1      -7.996   6.929  71.041  1.00  0.00    -0.102 A  
HETATM   30  C   UNL     1      -8.448   6.349  72.252  1.00  0.00    -0.110 A  
HETATM   31  C   UNL     1      -9.678   4.698  70.967  1.00  0.00    -0.258 A  
HETATM   32  C   UNL     1      -9.306   5.227  72.212  1.00  0.00    -0.142 A  
BRANCH  29  33
HETATM   33  O   UNL     1      -7.154   8.013  71.140  1.00  0.00    -0.051 OA 
HETATM   34  C   UNL     1      -7.592   9.214  70.511  1.00  0.00    -0.125 C  
ENDBRANCH  29  33
BRANCH  30  35
HETATM   35  O   UNL     1      -7.936   6.928  73.389  1.00  0.00    -0.097 OA 
HETATM   36  C   UNL     1      -8.793   7.740  74.180  1.00  0.00    -0.199 C  
ENDBRANCH  30  35
BRANCH  32  37
HETATM   37  O   UNL     1      -9.722   4.677  73.395  1.00  0.00    -0.130 OA 
HETATM   38  C   UNL     1     -10.469   3.466  73.353  1.00  0.00    -0.175 C  
ENDBRANCH  32  37
ENDBRANCH  25  27
ENDBRANCH  24  25
ENDBRANCH  23  24
ENDBRANCH  22  23
ENDBRANCH  21  22
ENDBRANCH  19  21
ENDBRANCH  18  19
ENDBRANCH  17  18
ENDBRANCH  15  17
ENDBRANCH  14  15
ENDBRANCH  13  14
ENDBRANCH  12  13
ENDBRANCH  11  12
ENDBRANCH   9  11
ENDBRANCH   5   9
BRANCH   8  39
HETATM   39  O   UNL     1      -8.613  17.235  65.646  1.00  0.00    -0.476 OA 
HETATM   40  C   UNL     1      -7.299  17.598  66.038  1.00  0.00    -0.266 C  
ENDBRANCH   8  39
BRANCH   7  41
HETATM   41  O   UNL     1      -9.983  18.210  67.988  1.00  0.00    -0.310 OA 
HETATM   42  C   UNL     1      -9.164  18.625  69.068  1.00  0.00    -0.123 C  
ENDBRANCH   7  41
ENDBRANCH   2   3
TORSDOF 21
ENDMDL
MODEL      252
REMARK 921   NORMALIZED FREE ENERGY PREDICTED BY IDOCK:   -3.07 KCAL/MOL
REMARK 922        TOTAL FREE ENERGY PREDICTED BY IDOCK:   -9.69 KCAL/MOL
REMARK 923 INTER-LIGAND FREE ENERGY PREDICTED BY IDOCK:   -7.50 KCAL/MOL
REMARK 924 INTRA-LIGAND FREE ENERGY PREDICTED BY IDOCK:   -2.20 KCAL/MOL
REMARK 927      BINDING AFFINITY PREDICTED BY RF-SCORE:    0.00 PKD
ROOT
HETATM    1  C   UNL     1     -12.433  13.113  63.309  1.00  0.00    -0.162 C  
HETATM    2  O   UNL     1     -11.989  13.913  64.402  1.00  0.00    -0.412 OA 
ENDROOT
BRANCH   2   3
HETATM    3  C   UNL     1     -11.157  13.310  65.313  1.00  0.00    -0.288 A  
HETATM    4  C   UNL     1     -10.742  11.986  65.127  1.00  0.00    -0.332 A  
HETATM    5  C   UNL     1      -9.896  11.350  66.036  1.00  0.00    -0.256 A  
HETATM    6  C   UNL     1      -9.450  12.052  67.150  1.00  0.00    -0.187 A  
HETATM    7  C   UNL     1     -10.677  14.046  66.422  1.00  0.00    -0.278 A  
HETATM    8  C   UNL     1      -9.824  13.394  67.349  1.00  0.00    -0.227 A  
BRANCH   5   9
HETATM    9  C   UNL     1      -9.536   9.941  65.742  1.00  0.00    -0.250 C  
HETATM   10  O   UNL     1      -9.427   9.519  64.599  1.00  0.00    -0.228 OA 
BRANCH   9  11
HETATM   11  O   UNL     1      -9.392   9.207  66.872  1.00  0.00    -0.144 OA 
BRANCH  11  12
HETATM   12  C   UNL     1     -10.396   8.190  67.044  1.00  0.00    -0.333 C  
BRANCH  12  13
HETATM   13  C   UNL     1      -9.777   6.815  66.805  1.00  0.00    -0.222 C  
BRANCH  13  14
HETATM   14  C   UNL     1     -10.844   5.756  66.524  1.00  0.00    -0.153 C  
BRANCH  14  15
HETATM   15  N   UNL     1     -10.349   4.371  66.666  1.00  0.00    -0.099 NA 
HETATM   16  C   UNL     1      -9.575   3.955  65.489  1.00  0.00    -0.184 C  
BRANCH  15  17
HETATM   17  C   UNL     1      -9.542   4.278  67.913  1.00  0.00    -0.152 C  
BRANCH  17  18
HETATM   18  C   UNL     1      -9.120   2.838  68.289  1.00  0.00    -0.177 C  
BRANCH  18  19
HETATM   19  N   UNL     1      -7.680   2.632  68.572  1.00  0.00    -0.054 NA 
HETATM   20  C   UNL     1      -7.049   3.874  69.030  1.00  0.00    -0.047 C  
BRANCH  19  21
HETATM   21  C   UNL     1      -7.497   1.584  69.601  1.00  0.00    -0.036 C  
BRANCH  21  22
HETATM   22  C   UNL     1      -7.287   2.145  71.011  1.00  0.00    -0.033 C  
BRANCH  22  23
HETATM   23  C   UNL     1      -8.377   1.686  71.971  1.00  0.00    -0.048 C  
BRANCH  23  24
HETATM   24  O   UNL     1      -9.456   2.636  71.963  1.00  0.00    -0.099 OA 
BRANCH  24  25
HETATM   25  C   UNL     1      -9.753   3.196  73.163  1.00  0.00    -0.106 C  
HETATM   26  O   UNL     1     -10.205   2.614  74.136  1.00  0.00    -0.108 OA 
BRANCH  25  27
HETATM   27  C   UNL     1      -9.427   4.647  73.153  1.00  0.00    -0.140 A  
HETATM   28  C   UNL     1     -10.270   5.504  72.446  1.00  0.00    -0.238 A  
HETATM   29  C   UNL     1      -9.982   6.867  72.370  1.00  0.00    -0.165 A  
HETATM   30  C   UNL     1      -8.822   7.386  72.996  1.00  0.00    -0.142 A  
HETATM   31  C   UNL     1      -8.303   5.159  73.809  1.00  0.00    -0.111 A  
HETATM   32  C   UNL     1      -7.979   6.522  73.731  1.00  0.00    -0.100 A  
BRANCH  29  33
HETATM   33  O   UNL     1     -10.760   7.753  71.659  1.00  0.00    -0.216 OA 
HETATM   34  C   UNL     1     -11.770   7.184  70.830  1.00  0.00    -0.323 C  
ENDBRANCH  29  33
BRANCH  30  35
HETATM   35  O   UNL     1      -8.595   8.722  72.765  1.00  0.00    -0.412 OA 
HETATM   36  C   UNL     1      -7.806   9.090  71.642  1.00  0.00     0.084 C  
ENDBRANCH  30  35
BRANCH  32  37
HETATM   37  O   UNL     1      -6.857   7.043  74.318  1.00  0.00    -0.085 OA 
HETATM   38  C   UNL     1      -5.601   6.830  73.686  1.00  0.00    -0.050 C  
ENDBRANCH  32  37
ENDBRANCH  25  27
ENDBRANCH  24  25
ENDBRANCH  23  24
ENDBRANCH  22  23
ENDBRANCH  21  22
ENDBRANCH  19  21
ENDBRANCH  18  19
ENDBRANCH  17  18
ENDBRANCH  15  17
ENDBRANCH  14  15
ENDBRANCH  13  14
ENDBRANCH  12  13
ENDBRANCH  11  12
ENDBRANCH   9  11
ENDBRANCH   5   9
BRANCH   8  39
HETATM   39  O   UNL     1      -9.260  13.897  68.498  1.00  0.00    -0.198 OA 
HETATM   40  C   UNL     1      -7.853  14.071  68.576  1.00  0.00    -0.140 C  
ENDBRANCH   8  39
BRANCH   7  41
HETATM   41  O   UNL     1     -10.978  15.353  66.698  1.00  0.00    -0.313 OA 
HETATM   42  C   UNL     1     -10.157  16.407  66.223  1.00  0.00    -0.331 C  
ENDBRANCH   7  41
ENDBRANCH   2   3
TORSDOF 21
ENDMDL
MODEL      253
REMARK 921   NORMALIZED FREE ENERGY PREDICTED BY IDOCK:   -3.06 KCAL/MOL
REMARK 922        TOTAL FREE ENERGY PREDICTED BY IDOCK:   -9.67 KCAL/MOL
REMARK 923 INTER-LIGAND FREE ENERGY PREDICTED BY IDOCK:   -8.78 KCAL/MOL
REMARK 924 INTRA-LIGAND FREE ENERGY PREDICTED BY IDOCK:   -0.89 KCAL/MOL
REMARK 927      BINDING AFFINITY PREDICTED BY RF-SCORE:    0.00 PKD
ROOT
HETATM    1  C   UNL     1      -8.163   9.458  70.454  1.00  0.00    -0.188 C  
HETATM    2  O   UNL     1      -6.928   8.789  70.210  1.00  0.00    -0.039 OA 
ENDROOT
BRANCH   2   3
HETATM    3  C   UNL     1      -6.795   8.159  68.997  1.00  0.00    -0.060 A  
HETATM    4  C   UNL     1      -7.474   6.961  68.743  1.00  0.00    -0.099 A  
HETATM    5  C   UNL     1      -7.356   6.300  67.519  1.00  0.00    -0.080 A  
HETATM    6  C   UNL     1      -6.551   6.850  66.528  1.00  0.00    -0.052 A  
HETATM    7  C   UNL     1      -6.004   8.746  67.982  1.00  0.00    -0.046 A  
HETATM    8  C   UNL     1      -5.881   8.069  66.743  1.00  0.00    -0.044 A  
BRANCH   5   9
HETATM    9  C   UNL     1      -8.111   5.032  67.370  1.00  0.00    -0.103 C  
HETATM   10  O   UNL     1      -7.740   3.985  67.883  1.00  0.00    -0.067 OA 
BRANCH   9  11
HETATM   11  O   UNL     1      -9.203   5.181  66.580  1.00  0.00    -0.123 OA 
BRANCH  11  12
HETATM   12  C   UNL     1     -10.413   5.478  67.301  1.00  0.00    -0.236 C  
BRANCH  12  13
HETATM   13  C   UNL     1     -10.931   6.852  66.884  1.00  0.00    -0.328 C  
BRANCH  13  14
HETATM   14  C   UNL     1     -10.581   7.925  67.916  1.00  0.00    -0.149 C  
BRANCH  14  15
HETATM   15  N   UNL     1     -10.105   9.187  67.311  1.00  0.00    -0.214 NA 
HETATM   16  C   UNL     1      -9.492   8.955  65.997  1.00  0.00    -0.252 C  
BRANCH  15  17
HETATM   17  C   UNL     1     -11.250  10.134  67.223  1.00  0.00     0.053 C  
BRANCH  17  18
HETATM   18  C   UNL     1     -10.841  11.626  67.251  1.00  0.00    -0.256 C  
BRANCH  18  19
HETATM   19  N   UNL     1     -10.317  12.184  65.982  1.00  0.00    -0.231 NA 
HETATM   20  C   UNL     1     -11.375  12.284  64.972  1.00  0.00    -0.328 C  
BRANCH  19  21
HETATM   21  C   UNL     1      -9.729  13.524  66.206  1.00  0.00    -0.277 C  
BRANCH  21  22
HETATM   22  C   UNL     1     -10.186  14.568  65.182  1.00  0.00    -0.420 C  
BRANCH  22  23
HETATM   23  C   UNL     1     -10.371  15.940  65.816  1.00  0.00    -0.376 C  
BRANCH  23  24
HETATM   24  O   UNL     1     -11.203  15.822  66.983  1.00  0.00    -0.229 OA 
BRANCH  24  25
HETATM   25  C   UNL     1     -10.704  16.374  68.118  1.00  0.00    -0.336 C  
HETATM   26  O   UNL     1      -9.966  17.344  68.181  1.00  0.00    -0.278 OA 
BRANCH  25  27
HETATM   27  C   UNL     1     -11.201  15.641  69.312  1.00  0.00    -0.320 A  
HETATM   28  C   UNL     1     -11.687  14.346  69.133  1.00  0.00    -0.354 A  
HETATM   29  C   UNL     1     -12.205  13.634  70.215  1.00  0.00    -0.353 A  
HETATM   30  C   UNL     1     -12.256  14.229  71.499  1.00  0.00    -0.301 A  
HETATM   31  C   UNL     1     -11.209  16.219  70.586  1.00  0.00    -0.310 A  
HETATM   32  C   UNL     1     -11.743  15.532  71.687  1.00  0.00    -0.426 A  
BRANCH  29  33
HETATM   33  O   UNL     1     -12.729  12.367  70.089  1.00  0.00     0.053 OA 
HETATM   34  C   UNL     1     -11.889  11.291  70.497  1.00  0.00    -0.324 C  
ENDBRANCH  29  33
BRANCH  30  35
HETATM   35  O   UNL     1     -12.879  13.466  72.459  1.00  0.00    -0.238 OA 
HETATM   36  C   UNL     1     -14.284  13.276  72.366  1.00  0.00    -0.234 C  
ENDBRANCH  30  35
BRANCH  32  37
HETATM   37  O   UNL     1     -11.813  16.092  72.934  1.00  0.00    -0.465 OA 
HETATM   38  C   UNL     1     -13.009  15.923  73.686  1.00  0.00    -0.568 C  
ENDBRANCH  32  37
ENDBRANCH  25  27
ENDBRANCH  24  25
ENDBRANCH  23  24
ENDBRANCH  22  23
ENDBRANCH  21  22
ENDBRANCH  19  21
ENDBRANCH  18  19
ENDBRANCH  17  18
ENDBRANCH  15  17
ENDBRANCH  14  15
ENDBRANCH  13  14
ENDBRANCH  12  13
ENDBRANCH  11  12
ENDBRANCH   9  11
ENDBRANCH   5   9
BRANCH   8  39
HETATM   39  O   UNL     1      -5.158   8.435  65.631  1.00  0.00    -0.027 OA 
HETATM   40  C   UNL     1      -5.831   8.912  64.477  1.00  0.00    -0.065 C  
ENDBRANCH   8  39
BRANCH   7  41
HETATM   41  O   UNL     1      -5.321   9.928  68.092  1.00  0.00    -0.039 OA 
HETATM   42  C   UNL     1      -5.999  11.172  68.035  1.00  0.00    -0.049 C  
ENDBRANCH   7  41
ENDBRANCH   2   3
TORSDOF 21
ENDMDL
MODEL      254
REMARK 921   NORMALIZED FREE ENERGY PREDICTED BY IDOCK:   -3.05 KCAL/MOL
REMARK 922        TOTAL FREE ENERGY PREDICTED BY IDOCK:   -9.65 KCAL/MOL
REMARK 923 INTER-LIGAND FREE ENERGY PREDICTED BY IDOCK:   -7.88 KCAL/MOL
REMARK 924 INTRA-LIGAND FREE ENERGY PREDICTED BY IDOCK:   -1.77 KCAL/MOL
REMARK 927      BINDING AFFINITY PREDICTED BY RF-SCORE:    0.00 PKD
ROOT
HETATM    1  C   UNL     1     -11.017   2.247  63.099  1.00  0.00    -0.245 C  
HETATM    2  O   UNL     1      -9.977   2.194  64.072  1.00  0.00    -0.139 OA 
ENDROOT
BRANCH   2   3
HETATM    3  C   UNL     1      -9.510   3.396  64.545  1.00  0.00    -0.149 A  
HETATM    4  C   UNL     1     -10.189   4.068  65.569  1.00  0.00    -0.102 A  
HETATM    5  C   UNL     1      -9.736   5.290  66.067  1.00  0.00    -0.159 A  
HETATM    6  C   UNL     1      -8.577   5.848  65.539  1.00  0.00    -0.150 A  
HETATM    7  C   UNL     1      -8.310   3.936  64.027  1.00  0.00    -0.092 A  
HETATM    8  C   UNL     1      -7.855   5.182  64.531  1.00  0.00    -0.096 A  
BRANCH   5   9
HETATM    9  C   UNL     1     -10.545   5.915  67.142  1.00  0.00    -0.299 C  
HETATM   10  O   UNL     1     -11.368   6.790  66.916  1.00  0.00    -0.318 OA 
BRANCH   9  11
HETATM   11  O   UNL     1     -10.226   5.428  68.367  1.00  0.00    -0.173 OA 
BRANCH  11  12
HETATM   12  C   UNL     1     -10.980   6.011  69.445  1.00  0.00    -0.385 C  
BRANCH  12  13
HETATM   13  C   UNL     1     -10.041   6.787  70.364  1.00  0.00    -0.200 C  
BRANCH  13  14
HETATM   14  C   UNL     1      -8.645   6.928  69.756  1.00  0.00    -0.141 C  
BRANCH  14  15
HETATM   15  N   UNL     1      -8.370   8.278  69.221  1.00  0.00    -0.121 NA 
HETATM   16  C   UNL     1      -8.977   9.320  70.060  1.00  0.00    -0.198 C  
BRANCH  15  17
HETATM   17  C   UNL     1      -6.898   8.456  69.106  1.00  0.00    -0.055 C  
BRANCH  17  18
HETATM   18  C   UNL     1      -6.307   7.992  67.753  1.00  0.00    -0.052 C  
BRANCH  18  19
HETATM   19  N   UNL     1      -5.988   9.062  66.779  1.00  0.00    -0.052 NA 
HETATM   20  C   UNL     1      -6.968   9.093  65.688  1.00  0.00    -0.081 C  
BRANCH  19  21
HETATM   21  C   UNL     1      -5.960  10.383  67.446  1.00  0.00    -0.053 C  
BRANCH  21  22
HETATM   22  C   UNL     1      -7.001  11.364  66.897  1.00  0.00    -0.140 C  
BRANCH  22  23
HETATM   23  C   UNL     1      -7.524  12.299  67.980  1.00  0.00    -0.115 C  
BRANCH  23  24
HETATM   24  O   UNL     1      -8.137  13.447  67.369  1.00  0.00    -0.167 OA 
BRANCH  24  25
HETATM   25  C   UNL     1      -7.345  14.543  67.255  1.00  0.00    -0.068 C  
HETATM   26  O   UNL     1      -6.125  14.551  67.242  1.00  0.00    -0.301 OA 
BRANCH  25  27
HETATM   27  C   UNL     1      -8.175  15.770  67.120  1.00  0.00    -0.237 A  
HETATM   28  C   UNL     1      -7.942  16.821  68.008  1.00  0.00    -0.179 A  
HETATM   29  C   UNL     1      -8.724  17.975  67.951  1.00  0.00    -0.257 A  
HETATM   30  C   UNL     1      -9.770  18.080  67.001  1.00  0.00    -0.303 A  
HETATM   31  C   UNL     1      -9.178  15.885  66.152  1.00  0.00    -0.384 A  
HETATM   32  C   UNL     1      -9.991  17.026  66.086  1.00  0.00    -0.298 A  
BRANCH  29  33
HETATM   33  O   UNL     1      -8.562  19.027  68.824  1.00  0.00    -0.354 OA 
HETATM   34  C   UNL     1      -7.244  19.238  69.322  1.00  0.00    -0.276 C  
ENDBRANCH  29  33
BRANCH  30  35
HETATM   35  O   UNL     1     -10.531  19.220  67.110  1.00  0.00    -0.398 OA 
HETATM   36  C   UNL     1     -10.234  20.316  66.257  1.00  0.00    -0.326 C  
ENDBRANCH  30  35
BRANCH  32  37
HETATM   37  O   UNL     1     -11.014  17.144  65.184  1.00  0.00    -0.543 OA 
HETATM   38  C   UNL     1     -11.290  16.044  64.325  1.00  0.00    -0.137 C  
ENDBRANCH  32  37
ENDBRANCH  25  27
ENDBRANCH  24  25
ENDBRANCH  23  24
ENDBRANCH  22  23
ENDBRANCH  21  22
ENDBRANCH  19  21
ENDBRANCH  18  19
ENDBRANCH  17  18
ENDBRANCH  15  17
ENDBRANCH  14  15
ENDBRANCH  13  14
ENDBRANCH  12  13
ENDBRANCH  11  12
ENDBRANCH   9  11
ENDBRANCH   5   9
BRANCH   8  39
HETATM   39  O   UNL     1      -6.740   5.900  64.168  1.00  0.00    -0.039 OA 
HETATM   40  C   UNL     1      -5.599   5.908  65.011  1.00  0.00    -0.020 C  
ENDBRANCH   8  39
BRANCH   7  41
HETATM   41  O   UNL     1      -7.535   3.363  63.054  1.00  0.00    -0.052 OA 
HETATM   42  C   UNL     1      -6.464   2.497  63.389  1.00  0.00    -0.022 C  
ENDBRANCH   7  41
ENDBRANCH   2   3
TORSDOF 21
ENDMDL
MODEL      255
REMARK 921   NORMALIZED FREE ENERGY PREDICTED BY IDOCK:   -3.04 KCAL/MOL
REMARK 922        TOTAL FREE ENERGY PREDICTED BY IDOCK:   -9.62 KCAL/MOL
REMARK 923 INTER-LIGAND FREE ENERGY PREDICTED BY IDOCK:   -8.80 KCAL/MOL
REMARK 924 INTRA-LIGAND FREE ENERGY PREDICTED BY IDOCK:   -0.82 KCAL/MOL
REMARK 927      BINDING AFFINITY PREDICTED BY RF-SCORE:    0.00 PKD
ROOT
HETATM    1  C   UNL     1     -13.329  11.796  63.088  1.00  0.00     0.887 C  
HETATM    2  O   UNL     1     -12.561  12.937  63.464  1.00  0.00    -0.711 OA 
ENDROOT
BRANCH   2   3
HETATM    3  C   UNL     1     -11.419  12.703  64.190  1.00  0.00    -0.387 A  
HETATM    4  C   UNL     1     -10.668  11.541  63.974  1.00  0.00    -0.445 A  
HETATM    5  C   UNL     1      -9.503  11.279  64.697  1.00  0.00    -0.215 A  
HETATM    6  C   UNL     1      -9.076  12.199  65.648  1.00  0.00     0.132 A  
HETATM    7  C   UNL     1     -10.972  13.663  65.127  1.00  0.00    -0.330 A  
HETATM    8  C   UNL     1      -9.792  13.391  65.865  1.00  0.00    -0.238 A  
BRANCH   5   9
HETATM    9  C   UNL     1      -8.799  10.009  64.393  1.00  0.00    -0.213 C  
HETATM   10  O   UNL     1      -9.033   9.356  63.386  1.00  0.00    -0.223 OA 
BRANCH   9  11
HETATM   11  O   UNL     1      -7.925   9.666  65.372  1.00  0.00    -0.113 OA 
BRANCH  11  12
HETATM   12  C   UNL     1      -8.449   9.809  66.704  1.00  0.00    -0.124 C  
BRANCH  12  13
HETATM   13  C   UNL     1      -9.423   8.670  66.995  1.00  0.00    -0.221 C  
BRANCH  13  14
HETATM   14  C   UNL     1     -10.634   9.152  67.795  1.00  0.00    -0.227 C  
BRANCH  14  15
HETATM   15  N   UNL     1     -10.422   9.123  69.257  1.00  0.00    -0.219 NA 
HETATM   16  C   UNL     1      -8.996   9.008  69.590  1.00  0.00    -0.153 C  
BRANCH  15  17
HETATM   17  C   UNL     1     -11.027  10.345  69.852  1.00  0.00    -0.305 C  
BRANCH  17  18
HETATM   18  C   UNL     1     -11.188  11.519  68.858  1.00  0.00    -0.247 C  
BRANCH  18  19
HETATM   19  N   UNL     1     -12.213  12.532  69.204  1.00  0.00    -0.111 NA 
HETATM   20  C   UNL     1     -12.375  12.644  70.657  1.00  0.00    -0.290 C  
BRANCH  19  21
HETATM   21  C   UNL     1     -11.846  13.855  68.651  1.00  0.00    -0.372 C  
BRANCH  21  22
HETATM   22  C   UNL     1     -11.462  14.878  69.724  1.00  0.00    -0.328 C  
BRANCH  22  23
HETATM   23  C   UNL     1      -9.951  14.997  69.878  1.00  0.00    -0.005 C  
BRANCH  23  24
HETATM   24  O   UNL     1      -9.539  16.337  69.558  1.00  0.00    -0.216 OA 
BRANCH  24  25
HETATM   25  C   UNL     1      -8.202  16.521  69.415  1.00  0.00     0.066 C  
HETATM   26  O   UNL     1      -7.324  15.836  69.914  1.00  0.00    -0.095 OA 
BRANCH  25  27
HETATM   27  C   UNL     1      -7.932  17.684  68.528  1.00  0.00    -0.283 A  
HETATM   28  C   UNL     1      -8.843  17.958  67.508  1.00  0.00    -0.248 A  
HETATM   29  C   UNL     1      -8.611  19.010  66.622  1.00  0.00    -0.313 A  
HETATM   30  C   UNL     1      -7.439  19.797  66.743  1.00  0.00    -0.249 A  
HETATM   31  C   UNL     1      -6.794  18.483  68.680  1.00  0.00    -0.279 A  
HETATM   32  C   UNL     1      -6.526  19.535  67.790  1.00  0.00    -0.222 A  
BRANCH  29  33
HETATM   33  O   UNL     1      -9.458  19.303  65.578  1.00  0.00    -0.186 OA 
HETATM   34  C   UNL     1     -10.735  19.831  65.927  1.00  0.00    -0.383 C  
ENDBRANCH  29  33
BRANCH  30  35
HETATM   35  O   UNL     1      -7.275  20.736  65.753  1.00  0.00    -0.060 OA 
HETATM   36  C   UNL     1      -6.422  20.425  64.660  1.00  0.00    -0.284 C  
ENDBRANCH  30  35
BRANCH  32  37
HETATM   37  O   UNL     1      -5.395  20.300  67.881  1.00  0.00    -0.189 OA 
HETATM   38  C   UNL     1      -5.136  20.982  69.103  1.00  0.00    -0.316 C  
ENDBRANCH  32  37
ENDBRANCH  25  27
ENDBRANCH  24  25
ENDBRANCH  23  24
ENDBRANCH  22  23
ENDBRANCH  21  22
ENDBRANCH  19  21
ENDBRANCH  18  19
ENDBRANCH  17  18
ENDBRANCH  15  17
ENDBRANCH  14  15
ENDBRANCH  13  14
ENDBRANCH  12  13
ENDBRANCH  11  12
ENDBRANCH   9  11
ENDBRANCH   5   9
BRANCH   8  39
HETATM   39  O   UNL     1      -9.187  14.159  66.833  1.00  0.00    -0.237 OA 
HETATM   40  C   UNL     1      -8.001  13.698  67.461  1.00  0.00    -0.182 C  
ENDBRANCH   8  39
BRANCH   7  41
HETATM   41  O   UNL     1     -11.593  14.852  65.404  1.00  0.00    -0.339 OA 
HETATM   42  C   UNL     1     -11.263  16.032  64.690  1.00  0.00    -0.330 C  
ENDBRANCH   7  41
ENDBRANCH   2   3
TORSDOF 21
ENDMDL
MODEL      256
REMARK 921   NORMALIZED FREE ENERGY PREDICTED BY IDOCK:   -3.03 KCAL/MOL
REMARK 922        TOTAL FREE ENERGY PREDICTED BY IDOCK:   -9.60 KCAL/MOL
REMARK 923 INTER-LIGAND FREE ENERGY PREDICTED BY IDOCK:   -8.37 KCAL/MOL
REMARK 924 INTRA-LIGAND FREE ENERGY PREDICTED BY IDOCK:   -1.23 KCAL/MOL
REMARK 927      BINDING AFFINITY PREDICTED BY RF-SCORE:    0.00 PKD
ROOT
HETATM    1  C   UNL     1      -7.537   7.204  69.749  1.00  0.00    -0.103 C  
HETATM    2  O   UNL     1      -7.608   7.618  68.386  1.00  0.00    -0.108 OA 
ENDROOT
BRANCH   2   3
HETATM    3  C   UNL     1      -7.812   6.634  67.450  1.00  0.00    -0.113 A  
HETATM    4  C   UNL     1      -7.811   5.285  67.828  1.00  0.00    -0.092 A  
HETATM    5  C   UNL     1      -8.017   4.266  66.897  1.00  0.00    -0.098 A  
HETATM    6  C   UNL     1      -8.236   4.599  65.565  1.00  0.00    -0.115 A  
HETATM    7  C   UNL     1      -8.073   6.985  66.105  1.00  0.00    -0.119 A  
HETATM    8  C   UNL     1      -8.275   5.947  65.161  1.00  0.00    -0.141 A  
BRANCH   5   9
HETATM    9  C   UNL     1      -7.979   2.875  67.411  1.00  0.00    -0.076 C  
HETATM   10  O   UNL     1      -7.317   1.997  66.875  1.00  0.00    -0.058 OA 
BRANCH   9  11
HETATM   11  O   UNL     1      -8.784   2.710  68.490  1.00  0.00    -0.073 OA 
BRANCH  11  12
HETATM   12  C   UNL     1      -8.304   1.740  69.439  1.00  0.00    -0.045 C  
BRANCH  12  13
HETATM   13  C   UNL     1      -8.385   2.320  70.848  1.00  0.00    -0.075 C  
BRANCH  13  14
HETATM   14  C   UNL     1      -9.108   3.666  70.864  1.00  0.00    -0.110 C  
BRANCH  14  15
HETATM   15  N   UNL     1      -9.653   4.025  72.190  1.00  0.00    -0.141 NA 
HETATM   16  C   UNL     1      -8.817   3.492  73.275  1.00  0.00    -0.088 C  
BRANCH  15  17
HETATM   17  C   UNL     1      -9.777   5.505  72.271  1.00  0.00    -0.156 C  
BRANCH  17  18
HETATM   18  C   UNL     1     -11.175   6.001  72.712  1.00  0.00    -0.261 C  
BRANCH  18  19
HETATM   19  N   UNL     1     -11.245   7.389  73.224  1.00  0.00    -0.267 NA 
HETATM   20  C   UNL     1      -9.972   8.090  73.025  1.00  0.00    -0.279 C  
BRANCH  19  21
HETATM   21  C   UNL     1     -12.325   8.140  72.547  1.00  0.00    -0.242 C  
BRANCH  21  22
HETATM   22  C   UNL     1     -11.952   8.603  71.135  1.00  0.00    -0.320 C  
BRANCH  22  23
HETATM   23  C   UNL     1     -12.397  10.036  70.872  1.00  0.00    -0.341 C  
BRANCH  23  24
HETATM   24  O   UNL     1     -11.324  10.768  70.256  1.00  0.00    -0.298 OA 
BRANCH  24  25
HETATM   25  C   UNL     1     -11.540  11.160  68.975  1.00  0.00    -0.324 C  
HETATM   26  O   UNL     1     -11.826  10.431  68.039  1.00  0.00    -0.328 OA 
BRANCH  25  27
HETATM   27  C   UNL     1     -11.405  12.635  68.855  1.00  0.00    -0.345 A  
HETATM   28  C   UNL     1     -12.106  13.435  69.759  1.00  0.00    -0.374 A  
HETATM   29  C   UNL     1     -12.047  14.825  69.659  1.00  0.00    -0.304 A  
HETATM   30  C   UNL     1     -11.288  15.434  68.629  1.00  0.00    -0.330 A  
HETATM   31  C   UNL     1     -10.620  13.230  67.861  1.00  0.00    -0.246 A  
HETATM   32  C   UNL     1     -10.560  14.625  67.727  1.00  0.00    -0.251 A  
BRANCH  29  33
HETATM   33  O   UNL     1     -12.744  15.661  70.501  1.00  0.00    -0.447 OA 
HETATM   34  C   UNL     1     -12.698  15.343  71.889  1.00  0.00    -0.387 C  
ENDBRANCH  29  33
BRANCH  30  35
HETATM   35  O   UNL     1     -11.390  16.804  68.575  1.00  0.00    -0.268 OA 
HETATM   36  C   UNL     1     -10.324  17.583  69.099  1.00  0.00    -0.239 C  
ENDBRANCH  30  35
BRANCH  32  37
HETATM   37  O   UNL     1      -9.843  15.234  66.732  1.00  0.00    -0.226 OA 
HETATM   38  C   UNL     1      -8.434  15.360  66.893  1.00  0.00    -0.252 C  
ENDBRANCH  32  37
ENDBRANCH  25  27
ENDBRANCH  24  25
ENDBRANCH  23  24
ENDBRANCH  22  23
ENDBRANCH  21  22
ENDBRANCH  19  21
ENDBRANCH  18  19
ENDBRANCH  17  18
ENDBRANCH  15  17
ENDBRANCH  14  15
ENDBRANCH  13  14
ENDBRANCH  12  13
ENDBRANCH  11  12
ENDBRANCH   9  11
ENDBRANCH   5   9
BRANCH   8  39
HETATM   39  O   UNL     1      -8.520   6.049  63.811  1.00  0.00    -0.012 OA 
HETATM   40  C   UNL     1      -8.400   4.902  62.984  1.00  0.00    -0.115 C  
ENDBRANCH   8  39
BRANCH   7  41
HETATM   41  O   UNL     1      -8.137   8.263  65.616  1.00  0.00    -0.109 OA 
HETATM   42  C   UNL     1      -7.591   9.351  66.343  1.00  0.00    -0.097 C  
ENDBRANCH   7  41
ENDBRANCH   2   3
TORSDOF 21
ENDMDL
MODEL      257
REMARK 921   NORMALIZED FREE ENERGY PREDICTED BY IDOCK:   -3.01 KCAL/MOL
REMARK 922        TOTAL FREE ENERGY PREDICTED BY IDOCK:   -9.56 KCAL/MOL
REMARK 923 INTER-LIGAND FREE ENERGY PREDICTED BY IDOCK:   -8.21 KCAL/MOL
REMARK 924 INTRA-LIGAND FREE ENERGY PREDICTED BY IDOCK:   -1.35 KCAL/MOL
REMARK 927      BINDING AFFINITY PREDICTED BY RF-SCORE:    0.00 PKD
ROOT
HETATM    1  C   UNL     1     -12.172  16.229  72.912  1.00  0.00    -0.514 C  
HETATM    2  O   UNL     1     -13.023  15.286  72.265  1.00  0.00    -0.319 OA 
ENDROOT
BRANCH   2   3
HETATM    3  C   UNL     1     -12.573  14.756  71.081  1.00  0.00    -0.337 A  
HETATM    4  C   UNL     1     -11.976  15.579  70.118  1.00  0.00    -0.389 A  
HETATM    5  C   UNL     1     -11.509  15.066  68.907  1.00  0.00    -0.333 A  
HETATM    6  C   UNL     1     -11.634  13.705  68.655  1.00  0.00    -0.364 A  
HETATM    7  C   UNL     1     -12.669  13.364  70.851  1.00  0.00    -0.272 A  
HETATM    8  C   UNL     1     -12.201  12.847  69.617  1.00  0.00    -0.141 A  
BRANCH   5   9
HETATM    9  C   UNL     1     -10.908  16.036  67.958  1.00  0.00    -0.335 C  
HETATM   10  O   UNL     1     -11.241  17.212  67.925  1.00  0.00    -0.200 OA 
BRANCH   9  11
HETATM   11  O   UNL     1     -10.004  15.448  67.135  1.00  0.00    -0.231 OA 
BRANCH  11  12
HETATM   12  C   UNL     1      -9.600  16.268  66.024  1.00  0.00    -0.337 C  
BRANCH  12  13
HETATM   13  C   UNL     1      -8.273  16.949  66.348  1.00  0.00    -0.342 C  
BRANCH  13  14
HETATM   14  C   UNL     1      -7.390  16.072  67.237  1.00  0.00    -0.208 C  
BRANCH  14  15
HETATM   15  N   UNL     1      -6.071  16.672  67.530  1.00  0.00    -0.140 NA 
HETATM   16  C   UNL     1      -6.207  17.909  68.311  1.00  0.00    -0.178 C  
BRANCH  15  17
HETATM   17  C   UNL     1      -5.236  15.665  68.238  1.00  0.00    -0.108 C  
BRANCH  17  18
HETATM   18  C   UNL     1      -5.536  14.201  67.839  1.00  0.00    -0.077 C  
BRANCH  18  19
HETATM   19  N   UNL     1      -6.000  13.309  68.927  1.00  0.00    -0.075 NA 
HETATM   20  C   UNL     1      -6.122  14.040  70.193  1.00  0.00    -0.154 C  
BRANCH  19  21
HETATM   21  C   UNL     1      -7.308  12.707  68.585  1.00  0.00    -0.101 C  
BRANCH  21  22
HETATM   22  C   UNL     1      -7.214  11.227  68.199  1.00  0.00    -0.081 C  
BRANCH  22  23
HETATM   23  C   UNL     1      -7.668  10.317  69.333  1.00  0.00    -0.146 C  
BRANCH  23  24
HETATM   24  O   UNL     1      -8.040   9.035  68.801  1.00  0.00    -0.103 OA 
BRANCH  24  25
HETATM   25  C   UNL     1      -7.161   8.026  69.029  1.00  0.00    -0.078 C  
HETATM   26  O   UNL     1      -6.002   8.151  69.389  1.00  0.00    -0.035 OA 
BRANCH  25  27
HETATM   27  C   UNL     1      -7.812   6.709  68.802  1.00  0.00    -0.111 A  
HETATM   28  C   UNL     1      -8.524   6.137  69.857  1.00  0.00    -0.129 A  
HETATM   29  C   UNL     1      -9.115   4.882  69.708  1.00  0.00    -0.110 A  
HETATM   30  C   UNL     1      -8.982   4.174  68.488  1.00  0.00    -0.118 A  
HETATM   31  C   UNL     1      -7.714   6.034  67.581  1.00  0.00    -0.097 A  
HETATM   32  C   UNL     1      -8.282   4.762  67.411  1.00  0.00    -0.105 A  
BRANCH  29  33
HETATM   33  O   UNL     1      -9.798   4.256  70.726  1.00  0.00    -0.195 OA 
HETATM   34  C   UNL     1     -10.361   5.102  71.724  1.00  0.00    -0.209 C  
ENDBRANCH  29  33
BRANCH  30  35
HETATM   35  O   UNL     1      -9.522   2.909  68.499  1.00  0.00    -0.189 OA 
HETATM   36  C   UNL     1      -8.640   1.797  68.563  1.00  0.00    -0.064 C  
ENDBRANCH  30  35
BRANCH  32  37
HETATM   37  O   UNL     1      -8.157   4.055  66.245  1.00  0.00    -0.097 OA 
HETATM   38  C   UNL     1      -9.214   4.122  65.295  1.00  0.00    -0.152 C  
ENDBRANCH  32  37
ENDBRANCH  25  27
ENDBRANCH  24  25
ENDBRANCH  23  24
ENDBRANCH  22  23
ENDBRANCH  21  22
ENDBRANCH  19  21
ENDBRANCH  18  19
ENDBRANCH  17  18
ENDBRANCH  15  17
ENDBRANCH  14  15
ENDBRANCH  13  14
ENDBRANCH  12  13
ENDBRANCH  11  12
ENDBRANCH   9  11
ENDBRANCH   5   9
BRANCH   8  39
HETATM   39  O   UNL     1     -12.211  11.546  69.170  1.00  0.00    -0.298 OA 
HETATM   40  C   UNL     1     -11.087  11.029  68.476  1.00  0.00    -0.243 C  
ENDBRANCH   8  39
BRANCH   7  41
HETATM   41  O   UNL     1     -13.197  12.450  71.724  1.00  0.00    -0.440 OA 
HETATM   42  C   UNL     1     -12.572  11.195  71.934  1.00  0.00    -0.057 C  
ENDBRANCH   7  41
ENDBRANCH   2   3
TORSDOF 21
ENDMDL
MODEL      258
REMARK 921   NORMALIZED FREE ENERGY PREDICTED BY IDOCK:   -3.00 KCAL/MOL
REMARK 922        TOTAL FREE ENERGY PREDICTED BY IDOCK:   -9.55 KCAL/MOL
REMARK 923 INTER-LIGAND FREE ENERGY PREDICTED BY IDOCK:   -7.94 KCAL/MOL
REMARK 924 INTRA-LIGAND FREE ENERGY PREDICTED BY IDOCK:   -1.60 KCAL/MOL
REMARK 927      BINDING AFFINITY PREDICTED BY RF-SCORE:    0.00 PKD
ROOT
HETATM    1  C   UNL     1     -10.768  18.111  65.328  1.00  0.00     0.400 C  
HETATM    2  O   UNL     1     -10.958  16.790  64.826  1.00  0.00    -0.732 OA 
ENDROOT
BRANCH   2   3
HETATM    3  C   UNL     1     -10.835  15.762  65.727  1.00  0.00    -0.280 A  
HETATM    4  C   UNL     1     -10.123  15.945  66.919  1.00  0.00    -0.267 A  
HETATM    5  C   UNL     1      -9.984  14.916  67.852  1.00  0.00    -0.219 A  
HETATM    6  C   UNL     1     -10.574  13.684  67.595  1.00  0.00    -0.245 A  
HETATM    7  C   UNL     1     -11.471  14.524  65.473  1.00  0.00    -0.343 A  
HETATM    8  C   UNL     1     -11.322  13.479  66.420  1.00  0.00    -0.316 A  
BRANCH   5   9
HETATM    9  C   UNL     1      -9.196  15.222  69.071  1.00  0.00    -0.223 C  
HETATM   10  O   UNL     1      -9.723  15.468  70.147  1.00  0.00    -0.191 OA 
BRANCH   9  11
HETATM   11  O   UNL     1      -7.863  15.233  68.825  1.00  0.00    -0.133 OA 
BRANCH  11  12
HETATM   12  C   UNL     1      -7.236  13.942  68.927  1.00  0.00    -0.103 C  
BRANCH  12  13
HETATM   13  C   UNL     1      -6.428  13.664  67.662  1.00  0.00    -0.164 C  
BRANCH  13  14
HETATM   14  C   UNL     1      -5.379  12.575  67.889  1.00  0.00    -0.092 C  
BRANCH  14  15
HETATM   15  N   UNL     1      -5.816  11.236  67.439  1.00  0.00    -0.054 NA 
HETATM   16  C   UNL     1      -6.135  10.366  68.578  1.00  0.00    -0.043 C  
BRANCH  15  17
HETATM   17  C   UNL     1      -6.981  11.396  66.528  1.00  0.00    -0.062 C  
BRANCH  17  18
HETATM   18  C   UNL     1      -8.261  10.667  67.003  1.00  0.00    -0.124 C  
BRANCH  18  19
HETATM   19  N   UNL     1      -8.812   9.646  66.082  1.00  0.00    -0.145 NA 
HETATM   20  C   UNL     1      -8.169   9.721  64.765  1.00  0.00    -0.148 C  
BRANCH  19  21
HETATM   21  C   UNL     1      -8.625   8.287  66.638  1.00  0.00    -0.129 C  
BRANCH  21  22
HETATM   22  C   UNL     1      -9.783   7.335  66.321  1.00  0.00    -0.068 C  
BRANCH  22  23
HETATM   23  C   UNL     1     -10.777   7.249  67.472  1.00  0.00    -0.256 C  
BRANCH  23  24
HETATM   24  O   UNL     1     -10.073   7.338  68.723  1.00  0.00    -0.166 OA 
BRANCH  24  25
HETATM   25  C   UNL     1     -10.715   6.810  69.796  1.00  0.00    -0.249 C  
HETATM   26  O   UNL     1     -11.634   7.327  70.410  1.00  0.00    -0.279 OA 
BRANCH  25  27
HETATM   27  C   UNL     1     -10.158   5.472  70.126  1.00  0.00    -0.308 A  
HETATM   28  C   UNL     1     -10.344   4.984  71.420  1.00  0.00    -0.251 A  
HETATM   29  C   UNL     1      -9.802   3.753  71.792  1.00  0.00    -0.174 A  
HETATM   30  C   UNL     1      -9.045   2.999  70.863  1.00  0.00    -0.114 A  
HETATM   31  C   UNL     1      -9.447   4.712  69.191  1.00  0.00    -0.224 A  
HETATM   32  C   UNL     1      -8.874   3.481  69.545  1.00  0.00    -0.090 A  
BRANCH  29  33
HETATM   33  O   UNL     1      -9.926   3.241  73.064  1.00  0.00    -0.125 OA 
HETATM   34  C   UNL     1     -10.891   3.864  73.907  1.00  0.00    -0.230 C  
ENDBRANCH  29  33
BRANCH  30  35
HETATM   35  O   UNL     1      -8.481   1.856  71.377  1.00  0.00    -0.050 OA 
HETATM   36  C   UNL     1      -7.121   1.897  71.787  1.00  0.00    -0.030 C  
ENDBRANCH  30  35
BRANCH  32  37
HETATM   37  O   UNL     1      -8.129   2.741  68.667  1.00  0.00    -0.056 OA 
HETATM   38  C   UNL     1      -7.222   3.421  67.808  1.00  0.00    -0.054 C  
ENDBRANCH  32  37
ENDBRANCH  25  27
ENDBRANCH  24  25
ENDBRANCH  23  24
ENDBRANCH  22  23
ENDBRANCH  21  22
ENDBRANCH  19  21
ENDBRANCH  18  19
ENDBRANCH  17  18
ENDBRANCH  15  17
ENDBRANCH  14  15
ENDBRANCH  13  14
ENDBRANCH  12  13
ENDBRANCH  11  12
ENDBRANCH   9  11
ENDBRANCH   5   9
BRANCH   8  39
HETATM   39  O   UNL     1     -11.827  12.200  66.375  1.00  0.00    -0.563 OA 
HETATM   40  C   UNL     1     -11.911  11.432  67.565  1.00  0.00    -0.022 C  
ENDBRANCH   8  39
BRANCH   7  41
HETATM   41  O   UNL     1     -12.224  14.230  64.367  1.00  0.00    -0.483 OA 
HETATM   42  C   UNL     1     -11.985  13.053  63.614  1.00  0.00    -0.539 C  
ENDBRANCH   7  41
ENDBRANCH   2   3
TORSDOF 21
ENDMDL
MODEL      259
REMARK 921   NORMALIZED FREE ENERGY PREDICTED BY IDOCK:   -2.99 KCAL/MOL
REMARK 922        TOTAL FREE ENERGY PREDICTED BY IDOCK:   -9.52 KCAL/MOL
REMARK 923 INTER-LIGAND FREE ENERGY PREDICTED BY IDOCK:   -7.42 KCAL/MOL
REMARK 924 INTRA-LIGAND FREE ENERGY PREDICTED BY IDOCK:   -2.10 KCAL/MOL
REMARK 927      BINDING AFFINITY PREDICTED BY RF-SCORE:    0.00 PKD
ROOT
HETATM    1  C   UNL     1     -12.601  10.914  69.872  1.00  0.00    -0.144 C  
HETATM    2  O   UNL     1     -11.597  11.927  69.876  1.00  0.00    -0.296 OA 
ENDROOT
BRANCH   2   3
HETATM    3  C   UNL     1     -11.024  12.235  68.667  1.00  0.00    -0.239 A  
HETATM    4  C   UNL     1     -10.842  11.242  67.696  1.00  0.00    -0.286 A  
HETATM    5  C   UNL     1     -10.263  11.528  66.459  1.00  0.00    -0.253 A  
HETATM    6  C   UNL     1      -9.865  12.832  66.183  1.00  0.00    -0.269 A  
HETATM    7  C   UNL     1     -10.658  13.571  68.381  1.00  0.00    -0.248 A  
HETATM    8  C   UNL     1     -10.063  13.857  67.127  1.00  0.00    -0.252 A  
BRANCH   5   9
HETATM    9  C   UNL     1     -10.107  10.394  65.515  1.00  0.00    -0.283 C  
HETATM   10  O   UNL     1     -10.363  10.494  64.324  1.00  0.00    -0.332 OA 
BRANCH   9  11
HETATM   11  O   UNL     1      -9.700   9.263  66.143  1.00  0.00    -0.238 OA 
BRANCH  11  12
HETATM   12  C   UNL     1     -10.774   8.467  66.677  1.00  0.00     0.129 C  
BRANCH  12  13
HETATM   13  C   UNL     1     -10.216   7.155  67.220  1.00  0.00    -0.315 C  
BRANCH  13  14
HETATM   14  C   UNL     1      -9.327   6.452  66.195  1.00  0.00    -0.076 C  
BRANCH  14  15
HETATM   15  N   UNL     1      -9.141   5.011  66.468  1.00  0.00    -0.122 NA 
HETATM   16  C   UNL     1      -9.893   4.183  65.515  1.00  0.00    -0.207 C  
BRANCH  15  17
HETATM   17  C   UNL     1      -7.686   4.702  66.432  1.00  0.00    -0.091 C  
BRANCH  17  18
HETATM   18  C   UNL     1      -6.814   5.661  67.277  1.00  0.00    -0.064 C  
BRANCH  18  19
HETATM   19  N   UNL     1      -5.571   6.149  66.636  1.00  0.00    -0.012 NA 
HETATM   20  C   UNL     1      -5.545   5.813  65.208  1.00  0.00    -0.016 C  
BRANCH  19  21
HETATM   21  C   UNL     1      -5.443   7.614  66.795  1.00  0.00    -0.028 C  
BRANCH  21  22
HETATM   22  C   UNL     1      -6.621   8.251  67.538  1.00  0.00    -0.058 C  
BRANCH  22  23
HETATM   23  C   UNL     1      -6.157   9.089  68.723  1.00  0.00    -0.045 C  
BRANCH  23  24
HETATM   24  O   UNL     1      -6.769   8.598  69.928  1.00  0.00    -0.041 OA 
BRANCH  24  25
HETATM   25  C   UNL     1      -8.059   8.970  70.124  1.00  0.00    -0.126 C  
HETATM   26  O   UNL     1      -8.567  10.021  69.767  1.00  0.00    -0.186 OA 
BRANCH  25  27
HETATM   27  C   UNL     1      -8.807   7.897  70.830  1.00  0.00    -0.141 A  
HETATM   28  C   UNL     1      -8.074   6.879  71.442  1.00  0.00    -0.109 A  
HETATM   29  C   UNL     1      -8.730   5.825  72.079  1.00  0.00    -0.137 A  
HETATM   30  C   UNL     1     -10.146   5.774  72.094  1.00  0.00    -0.183 A  
HETATM   31  C   UNL     1     -10.205   7.874  70.879  1.00  0.00    -0.213 A  
HETATM   32  C   UNL     1     -10.889   6.816  71.495  1.00  0.00    -0.234 A  
BRANCH  29  33
HETATM   33  O   UNL     1      -8.058   4.779  72.668  1.00  0.00    -0.098 OA 
HETATM   34  C   UNL     1      -6.867   5.109  73.377  1.00  0.00    -0.075 C  
ENDBRANCH  29  33
BRANCH  30  35
HETATM   35  O   UNL     1     -10.672   4.638  72.663  1.00  0.00    -0.206 OA 
HETATM   36  C   UNL     1     -11.054   4.681  74.031  1.00  0.00    -0.067 C  
ENDBRANCH  30  35
BRANCH  32  37
HETATM   37  O   UNL     1     -12.256   6.740  71.511  1.00  0.00    -0.338 OA 
HETATM   38  C   UNL     1     -12.999   7.939  71.697  1.00  0.00    -0.334 C  
ENDBRANCH  32  37
ENDBRANCH  25  27
ENDBRANCH  24  25
ENDBRANCH  23  24
ENDBRANCH  22  23
ENDBRANCH  21  22
ENDBRANCH  19  21
ENDBRANCH  18  19
ENDBRANCH  17  18
ENDBRANCH  15  17
ENDBRANCH  14  15
ENDBRANCH  13  14
ENDBRANCH  12  13
ENDBRANCH  11  12
ENDBRANCH   9  11
ENDBRANCH   5   9
BRANCH   8  39
HETATM   39  O   UNL     1      -9.614  15.064  66.644  1.00  0.00    -0.237 OA 
HETATM   40  C   UNL     1     -10.369  15.757  65.663  1.00  0.00    -0.388 C  
ENDBRANCH   8  39
BRANCH   7  41
HETATM   41  O   UNL     1     -10.816  14.636  69.228  1.00  0.00    -0.248 OA 
HETATM   42  C   UNL     1     -12.075  14.921  69.815  1.00  0.00    -0.314 C  
ENDBRANCH   7  41
ENDBRANCH   2   3
TORSDOF 21
ENDMDL
MODEL      260
REMARK 921   NORMALIZED FREE ENERGY PREDICTED BY IDOCK:   -2.98 KCAL/MOL
REMARK 922        TOTAL FREE ENERGY PREDICTED BY IDOCK:   -9.50 KCAL/MOL
REMARK 923 INTER-LIGAND FREE ENERGY PREDICTED BY IDOCK:   -8.24 KCAL/MOL
REMARK 924 INTRA-LIGAND FREE ENERGY PREDICTED BY IDOCK:   -1.26 KCAL/MOL
REMARK 927      BINDING AFFINITY PREDICTED BY RF-SCORE:    0.00 PKD
ROOT
HETATM    1  C   UNL     1     -12.290  14.803  70.314  1.00  0.00    -0.345 C  
HETATM    2  O   UNL     1     -11.257  15.732  69.995  1.00  0.00    -0.282 OA 
ENDROOT
BRANCH   2   3
HETATM    3  C   UNL     1     -10.564  15.512  68.830  1.00  0.00    -0.242 A  
HETATM    4  C   UNL     1     -10.355  14.208  68.366  1.00  0.00    -0.249 A  
HETATM    5  C   UNL     1      -9.655  13.956  67.184  1.00  0.00    -0.247 A  
HETATM    6  C   UNL     1      -9.162  15.028  66.448  1.00  0.00    -0.328 A  
HETATM    7  C   UNL     1     -10.101  16.610  68.069  1.00  0.00    -0.262 A  
HETATM    8  C   UNL     1      -9.384  16.351  66.873  1.00  0.00    -0.227 A  
BRANCH   5   9
HETATM    9  C   UNL     1      -9.483  12.534  66.800  1.00  0.00    -0.231 C  
HETATM   10  O   UNL     1      -9.382  11.639  67.628  1.00  0.00    -0.171 OA 
BRANCH   9  11
HETATM   11  O   UNL     1      -9.412  12.376  65.455  1.00  0.00    -0.130 OA 
BRANCH  11  12
HETATM   12  C   UNL     1     -10.383  11.458  64.919  1.00  0.00    -0.292 C  
BRANCH  12  13
HETATM   13  C   UNL     1      -9.795  10.744  63.706  1.00  0.00    -0.396 C  
BRANCH  13  14
HETATM   14  C   UNL     1      -8.303  11.038  63.545  1.00  0.00     0.219 C  
BRANCH  14  15
HETATM   15  N   UNL     1      -7.520   9.870  63.086  1.00  0.00    -0.128 NA 
HETATM   16  C   UNL     1      -6.318   9.675  63.907  1.00  0.00    -0.110 C  
BRANCH  15  17
HETATM   17  C   UNL     1      -8.398   8.670  63.105  1.00  0.00    -0.144 C  
BRANCH  17  18
HETATM   18  C   UNL     1      -7.906   7.540  64.041  1.00  0.00    -0.127 C  
BRANCH  18  19
HETATM   19  N   UNL     1      -7.537   6.263  63.386  1.00  0.00    -0.080 NA 
HETATM   20  C   UNL     1      -6.081   6.090  63.347  1.00  0.00    -0.022 C  
BRANCH  19  21
HETATM   21  C   UNL     1      -8.145   5.118  64.098  1.00  0.00    -0.119 C  
BRANCH  21  22
HETATM   22  C   UNL     1      -8.981   5.531  65.314  1.00  0.00    -0.074 C  
BRANCH  22  23
HETATM   23  C   UNL     1      -9.890   4.404  65.787  1.00  0.00    -0.225 C  
BRANCH  23  24
HETATM   24  O   UNL     1     -10.167   4.565  67.188  1.00  0.00    -0.158 OA 
BRANCH  24  25
HETATM   25  C   UNL     1      -9.716   3.570  67.993  1.00  0.00    -0.018 C  
HETATM   26  O   UNL     1      -9.390   2.449  67.638  1.00  0.00    -0.184 OA 
BRANCH  25  27
HETATM   27  C   UNL     1      -9.644   4.037  69.403  1.00  0.00    -0.257 A  
HETATM   28  C   UNL     1      -8.990   3.226  70.331  1.00  0.00    -0.169 A  
HETATM   29  C   UNL     1      -8.934   3.599  71.674  1.00  0.00    -0.106 A  
HETATM   30  C   UNL     1      -9.556   4.795  72.107  1.00  0.00    -0.153 A  
HETATM   31  C   UNL     1     -10.223   5.242  69.816  1.00  0.00    -0.364 A  
HETATM   32  C   UNL     1     -10.199   5.629  71.165  1.00  0.00    -0.220 A  
BRANCH  29  33
HETATM   33  O   UNL     1      -8.332   2.820  72.637  1.00  0.00    -0.068 OA 
HETATM   34  C   UNL     1      -6.910   2.739  72.588  1.00  0.00    -0.026 C  
ENDBRANCH  29  33
BRANCH  30  35
HETATM   35  O   UNL     1      -9.518   5.002  73.466  1.00  0.00    -0.132 OA 
HETATM   36  C   UNL     1     -10.662   4.657  74.235  1.00  0.00    -0.221 C  
ENDBRANCH  30  35
BRANCH  32  37
HETATM   37  O   UNL     1     -10.803   6.776  71.607  1.00  0.00    -0.224 OA 
HETATM   38  C   UNL     1     -11.623   7.502  70.699  1.00  0.00    -0.248 C  
ENDBRANCH  32  37
ENDBRANCH  25  27
ENDBRANCH  24  25
ENDBRANCH  23  24
ENDBRANCH  22  23
ENDBRANCH  21  22
ENDBRANCH  19  21
ENDBRANCH  18  19
ENDBRANCH  17  18
ENDBRANCH  15  17
ENDBRANCH  14  15
ENDBRANCH  13  14
ENDBRANCH  12  13
ENDBRANCH  11  12
ENDBRANCH   9  11
ENDBRANCH   5   9
BRANCH   8  39
HETATM   39  O   UNL     1      -8.828  17.250  65.993  1.00  0.00    -0.495 OA 
HETATM   40  C   UNL     1      -7.484  17.670  66.168  1.00  0.00    -0.299 C  
ENDBRANCH   8  39
BRANCH   7  41
HETATM   41  O   UNL     1     -10.272  17.930  68.393  1.00  0.00    -0.357 OA 
HETATM   42  C   UNL     1     -10.867  18.835  67.479  1.00  0.00    -0.331 C  
ENDBRANCH   7  41
ENDBRANCH   2   3
TORSDOF 21
ENDMDL
MODEL      261
REMARK 921   NORMALIZED FREE ENERGY PREDICTED BY IDOCK:   -2.98 KCAL/MOL
REMARK 922        TOTAL FREE ENERGY PREDICTED BY IDOCK:   -9.49 KCAL/MOL
REMARK 923 INTER-LIGAND FREE ENERGY PREDICTED BY IDOCK:   -8.40 KCAL/MOL
REMARK 924 INTRA-LIGAND FREE ENERGY PREDICTED BY IDOCK:   -1.10 KCAL/MOL
REMARK 927      BINDING AFFINITY PREDICTED BY RF-SCORE:    0.00 PKD
ROOT
HETATM    1  C   UNL     1     -11.898  12.260  65.906  1.00  0.00    -0.354 C  
HETATM    2  O   UNL     1     -10.828  13.024  65.354  1.00  0.00    -0.277 OA 
ENDROOT
BRANCH   2   3
HETATM    3  C   UNL     1      -9.570  12.772  65.845  1.00  0.00    -0.136 A  
HETATM    4  C   UNL     1      -8.967  13.665  66.740  1.00  0.00    -0.196 A  
HETATM    5  C   UNL     1      -7.690  13.433  67.254  1.00  0.00    -0.092 A  
HETATM    6  C   UNL     1      -7.006  12.283  66.874  1.00  0.00     0.051 A  
HETATM    7  C   UNL     1      -8.900  11.581  65.483  1.00  0.00     0.038 A  
HETATM    8  C   UNL     1      -7.600  11.352  66.001  1.00  0.00     0.187 A  
BRANCH   5   9
HETATM    9  C   UNL     1      -7.148  14.455  68.182  1.00  0.00    -0.124 C  
HETATM   10  O   UNL     1      -6.948  14.224  69.366  1.00  0.00    -0.128 OA 
BRANCH   9  11
HETATM   11  O   UNL     1      -6.953  15.647  67.566  1.00  0.00    -0.156 OA 
BRANCH  11  12
HETATM   12  C   UNL     1      -5.855  16.411  68.098  1.00  0.00    -0.111 C  
BRANCH  12  13
HETATM   13  C   UNL     1      -6.315  17.172  69.338  1.00  0.00    -0.238 C  
BRANCH  13  14
HETATM   14  C   UNL     1      -5.472  18.425  69.577  1.00  0.00    -0.211 C  
BRANCH  14  15
HETATM   15  N   UNL     1      -6.022  19.635  68.930  1.00  0.00    -0.231 NA 
HETATM   16  C   UNL     1      -5.236  20.015  67.749  1.00  0.00    -0.181 C  
BRANCH  15  17
HETATM   17  C   UNL     1      -7.447  19.385  68.583  1.00  0.00    -0.350 C  
BRANCH  17  18
HETATM   18  C   UNL     1      -7.863  19.919  67.192  1.00  0.00    -0.290 C  
BRANCH  18  19
HETATM   19  N   UNL     1      -8.260  18.899  66.193  1.00  0.00    -0.434 NA 
HETATM   20  C   UNL     1      -7.100  18.430  65.427  1.00  0.00     0.084 C  
BRANCH  19  21
HETATM   21  C   UNL     1      -8.905  17.744  66.856  1.00  0.00    -0.248 C  
BRANCH  21  22
HETATM   22  C   UNL     1     -10.194  17.287  66.164  1.00  0.00    -0.338 C  
BRANCH  22  23
HETATM   23  C   UNL     1     -10.849  16.125  66.899  1.00  0.00    -0.175 C  
BRANCH  23  24
HETATM   24  O   UNL     1     -11.404  16.592  68.140  1.00  0.00    -0.289 OA 
BRANCH  24  25
HETATM   25  C   UNL     1     -10.797  16.134  69.264  1.00  0.00    -0.310 C  
HETATM   26  O   UNL     1      -9.818  16.624  69.802  1.00  0.00    -0.033 OA 
BRANCH  25  27
HETATM   27  C   UNL     1     -11.510  14.938  69.787  1.00  0.00    -0.328 A  
HETATM   28  C   UNL     1     -12.508  15.134  70.742  1.00  0.00    -0.429 A  
HETATM   29  C   UNL     1     -13.174  14.041  71.296  1.00  0.00    -0.303 A  
HETATM   30  C   UNL     1     -12.830  12.724  70.904  1.00  0.00    -0.105 A  
HETATM   31  C   UNL     1     -11.194  13.643  69.364  1.00  0.00    -0.252 A  
HETATM   32  C   UNL     1     -11.835  12.525  69.920  1.00  0.00    -0.303 A  
BRANCH  29  33
HETATM   33  O   UNL     1     -14.142  14.174  72.266  1.00  0.00    -0.494 OA 
HETATM   34  C   UNL     1     -14.103  15.369  73.040  1.00  0.00     0.116 C  
ENDBRANCH  29  33
BRANCH  30  35
HETATM   35  O   UNL     1     -13.485  11.731  71.593  1.00  0.00    -0.232 OA 
HETATM   36  C   UNL     1     -12.857  10.463  71.715  1.00  0.00    -0.456 C  
ENDBRANCH  30  35
BRANCH  32  37
HETATM   37  O   UNL     1     -11.510  11.244  69.565  1.00  0.00    -0.254 OA 
HETATM   38  C   UNL     1     -10.159  10.958  69.220  1.00  0.00    -0.140 C  
ENDBRANCH  32  37
ENDBRANCH  25  27
ENDBRANCH  24  25
ENDBRANCH  23  24
ENDBRANCH  22  23
ENDBRANCH  21  22
ENDBRANCH  19  21
ENDBRANCH  18  19
ENDBRANCH  17  18
ENDBRANCH  15  17
ENDBRANCH  14  15
ENDBRANCH  13  14
ENDBRANCH  12  13
ENDBRANCH  11  12
ENDBRANCH   9  11
ENDBRANCH   5   9
BRANCH   8  39
HETATM   39  O   UNL     1      -6.759  10.287  65.773  1.00  0.00    -0.106 OA 
HETATM   40  C   UNL     1      -6.439   9.400  66.834  1.00  0.00    -0.067 C  
ENDBRANCH   8  39
BRANCH   7  41
HETATM   41  O   UNL     1      -9.393  10.614  64.648  1.00  0.00    -0.204 OA 
HETATM   42  C   UNL     1      -9.318  10.757  63.240  1.00  0.00    -0.304 C  
ENDBRANCH   7  41
ENDBRANCH   2   3
TORSDOF 21
ENDMDL
MODEL      262
REMARK 921   NORMALIZED FREE ENERGY PREDICTED BY IDOCK:   -2.98 KCAL/MOL
REMARK 922        TOTAL FREE ENERGY PREDICTED BY IDOCK:   -9.49 KCAL/MOL
REMARK 923 INTER-LIGAND FREE ENERGY PREDICTED BY IDOCK:   -7.34 KCAL/MOL
REMARK 924 INTRA-LIGAND FREE ENERGY PREDICTED BY IDOCK:   -2.15 KCAL/MOL
REMARK 927      BINDING AFFINITY PREDICTED BY RF-SCORE:    0.00 PKD
ROOT
HETATM    1  C   UNL     1      -5.432   3.888  64.524  1.00  0.00    -0.013 C  
HETATM    2  O   UNL     1      -6.066   5.050  65.053  1.00  0.00    -0.028 OA 
ENDROOT
BRANCH   2   3
HETATM    3  C   UNL     1      -7.233   4.856  65.750  1.00  0.00    -0.076 A  
HETATM    4  C   UNL     1      -7.388   3.735  66.574  1.00  0.00    -0.072 A  
HETATM    5  C   UNL     1      -8.563   3.514  67.294  1.00  0.00    -0.119 A  
HETATM    6  C   UNL     1      -9.601   4.434  67.194  1.00  0.00    -0.221 A  
HETATM    7  C   UNL     1      -8.267   5.818  65.671  1.00  0.00    -0.128 A  
HETATM    8  C   UNL     1      -9.463   5.587  66.398  1.00  0.00    -0.155 A  
BRANCH   5   9
HETATM    9  C   UNL     1      -8.618   2.285  68.123  1.00  0.00    -0.082 C  
HETATM   10  O   UNL     1      -9.538   1.484  68.046  1.00  0.00    -0.175 OA 
BRANCH   9  11
HETATM   11  O   UNL     1      -7.566   2.201  68.976  1.00  0.00    -0.043 OA 
BRANCH  11  12
HETATM   12  C   UNL     1      -7.598   3.162  70.046  1.00  0.00    -0.044 C  
BRANCH  12  13
HETATM   13  C   UNL     1      -8.958   3.111  70.738  1.00  0.00    -0.165 C  
BRANCH  13  14
HETATM   14  C   UNL     1      -9.460   4.508  71.100  1.00  0.00    -0.160 C  
BRANCH  14  15
HETATM   15  N   UNL     1     -10.498   4.505  72.153  1.00  0.00    -0.163 NA 
HETATM   16  C   UNL     1      -9.956   4.048  73.439  1.00  0.00    -0.131 C  
BRANCH  15  17
HETATM   17  C   UNL     1     -11.077   5.872  72.257  1.00  0.00    -0.280 C  
BRANCH  17  18
HETATM   18  C   UNL     1     -10.132   6.912  72.905  1.00  0.00    -0.189 C  
BRANCH  18  19
HETATM   19  N   UNL     1      -9.940   8.176  72.157  1.00  0.00    -0.222 NA 
HETATM   20  C   UNL     1      -8.561   8.297  71.670  1.00  0.00    -0.155 C  
BRANCH  19  21
HETATM   21  C   UNL     1     -10.870   8.248  71.008  1.00  0.00    -0.233 C  
BRANCH  21  22
HETATM   22  C   UNL     1     -11.971   9.300  71.182  1.00  0.00    -0.394 C  
BRANCH  22  23
HETATM   23  C   UNL     1     -11.513  10.679  70.725  1.00  0.00    -0.214 C  
BRANCH  23  24
HETATM   24  O   UNL     1     -10.407  10.542  69.817  1.00  0.00    -0.232 OA 
BRANCH  24  25
HETATM   25  C   UNL     1     -10.710  10.668  68.500  1.00  0.00    -0.217 C  
HETATM   26  O   UNL     1     -10.950   9.755  67.728  1.00  0.00    -0.274 OA 
BRANCH  25  27
HETATM   27  C   UNL     1     -10.736  12.102  68.109  1.00  0.00    -0.238 A  
HETATM   28  C   UNL     1     -11.834  12.564  67.381  1.00  0.00    -0.381 A  
HETATM   29  C   UNL     1     -11.884  13.891  66.952  1.00  0.00    -0.423 A  
HETATM   30  C   UNL     1     -10.813  14.773  67.239  1.00  0.00    -0.309 A  
HETATM   31  C   UNL     1      -9.695  12.979  68.432  1.00  0.00    -0.192 A  
HETATM   32  C   UNL     1      -9.712  14.312  67.995  1.00  0.00    -0.223 A  
BRANCH  29  33
HETATM   33  O   UNL     1     -12.925  14.391  66.203  1.00  0.00    -0.140 OA 
HETATM   34  C   UNL     1     -13.032  13.909  64.867  1.00  0.00    -0.050 C  
ENDBRANCH  29  33
BRANCH  30  35
HETATM   35  O   UNL     1     -10.934  16.022  66.678  1.00  0.00    -0.234 OA 
HETATM   36  C   UNL     1     -10.162  16.324  65.524  1.00  0.00    -0.298 C  
ENDBRANCH  30  35
BRANCH  32  37
HETATM   37  O   UNL     1      -8.683  15.178  68.251  1.00  0.00    -0.162 OA 
HETATM   38  C   UNL     1      -7.348  14.701  68.125  1.00  0.00    -0.125 C  
ENDBRANCH  32  37
ENDBRANCH  25  27
ENDBRANCH  24  25
ENDBRANCH  23  24
ENDBRANCH  22  23
ENDBRANCH  21  22
ENDBRANCH  19  21
ENDBRANCH  18  19
ENDBRANCH  17  18
ENDBRANCH  15  17
ENDBRANCH  14  15
ENDBRANCH  13  14
ENDBRANCH  12  13
ENDBRANCH  11  12
ENDBRANCH   9  11
ENDBRANCH   5   9
BRANCH   8  39
HETATM   39  O   UNL     1     -10.596   6.363  66.456  1.00  0.00    -0.180 OA 
HETATM   40  C   UNL     1     -11.379   6.383  67.640  1.00  0.00     0.035 C  
ENDBRANCH   8  39
BRANCH   7  41
HETATM   41  O   UNL     1      -8.226   6.970  64.932  1.00  0.00    -0.132 OA 
HETATM   42  C   UNL     1      -7.809   8.195  65.512  1.00  0.00    -0.104 C  
ENDBRANCH   7  41
ENDBRANCH   2   3
TORSDOF 21
ENDMDL
MODEL      263
REMARK 921   NORMALIZED FREE ENERGY PREDICTED BY IDOCK:   -2.95 KCAL/MOL
REMARK 922        TOTAL FREE ENERGY PREDICTED BY IDOCK:   -9.44 KCAL/MOL
REMARK 923 INTER-LIGAND FREE ENERGY PREDICTED BY IDOCK:   -7.61 KCAL/MOL
REMARK 924 INTRA-LIGAND FREE ENERGY PREDICTED BY IDOCK:   -1.83 KCAL/MOL
REMARK 927      BINDING AFFINITY PREDICTED BY RF-SCORE:    0.00 PKD
ROOT
HETATM    1  C   UNL     1      -7.024  19.661  69.158  1.00  0.00    -0.351 C  
HETATM    2  O   UNL     1      -7.439  19.269  67.852  1.00  0.00    -0.248 OA 
ENDROOT
BRANCH   2   3
HETATM    3  C   UNL     1      -7.949  18.001  67.719  1.00  0.00    -0.235 A  
HETATM    4  C   UNL     1      -7.093  16.894  67.670  1.00  0.00    -0.158 A  
HETATM    5  C   UNL     1      -7.585  15.595  67.536  1.00  0.00    -0.200 A  
HETATM    6  C   UNL     1      -8.959  15.396  67.458  1.00  0.00    -0.191 A  
HETATM    7  C   UNL     1      -9.349  17.807  67.680  1.00  0.00    -0.250 A  
HETATM    8  C   UNL     1      -9.846  16.486  67.537  1.00  0.00    -0.248 A  
BRANCH   5   9
HETATM    9  C   UNL     1      -6.582  14.503  67.481  1.00  0.00    -0.081 C  
HETATM   10  O   UNL     1      -5.379  14.717  67.526  1.00  0.00    -0.338 OA 
BRANCH   9  11
HETATM   11  O   UNL     1      -7.163  13.287  67.336  1.00  0.00    -0.161 OA 
BRANCH  11  12
HETATM   12  C   UNL     1      -7.264  12.534  68.558  1.00  0.00    -0.110 C  
BRANCH  12  13
HETATM   13  C   UNL     1      -5.981  11.737  68.775  1.00  0.00    -0.048 C  
BRANCH  13  14
HETATM   14  C   UNL     1      -6.196  10.243  68.535  1.00  0.00    -0.047 C  
BRANCH  14  15
HETATM   15  N   UNL     1      -5.806   9.400  69.686  1.00  0.00    -0.033 NA 
HETATM   16  C   UNL     1      -6.651   9.669  70.857  1.00  0.00    -0.072 C  
BRANCH  15  17
HETATM   17  C   UNL     1      -5.875   7.972  69.276  1.00  0.00    -0.034 C  
BRANCH  17  18
HETATM   18  C   UNL     1      -7.254   7.537  68.726  1.00  0.00    -0.082 C  
BRANCH  18  19
HETATM   19  N   UNL     1      -7.301   7.186  67.287  1.00  0.00    -0.089 NA 
HETATM   20  C   UNL     1      -7.357   5.733  67.098  1.00  0.00    -0.077 C  
BRANCH  19  21
HETATM   21  C   UNL     1      -8.478   7.807  66.638  1.00  0.00    -0.129 C  
BRANCH  21  22
HETATM   22  C   UNL     1      -9.711   6.898  66.615  1.00  0.00    -0.221 C  
BRANCH  22  23
HETATM   23  C   UNL     1     -10.741   7.314  67.657  1.00  0.00    -0.224 C  
BRANCH  23  24
HETATM   24  O   UNL     1     -11.282   6.144  68.292  1.00  0.00    -0.323 OA 
BRANCH  24  25
HETATM   25  C   UNL     1     -11.263   6.151  69.649  1.00  0.00    -0.418 C  
HETATM   26  O   UNL     1     -12.068   6.709  70.377  1.00  0.00    -0.374 OA 
BRANCH  25  27
HETATM   27  C   UNL     1     -10.117   5.351  70.155  1.00  0.00    -0.322 A  
HETATM   28  C   UNL     1      -9.687   4.263  69.393  1.00  0.00    -0.257 A  
HETATM   29  C   UNL     1      -8.645   3.455  69.848  1.00  0.00    -0.063 A  
HETATM   30  C   UNL     1      -8.027   3.724  71.094  1.00  0.00    -0.063 A  
HETATM   31  C   UNL     1      -9.482   5.647  71.366  1.00  0.00    -0.176 A  
HETATM   32  C   UNL     1      -8.446   4.838  71.856  1.00  0.00    -0.119 A  
BRANCH  29  33
HETATM   33  O   UNL     1      -8.204   2.351  69.154  1.00  0.00    -0.050 OA 
HETATM   34  C   UNL     1      -8.813   2.114  67.888  1.00  0.00    -0.124 C  
ENDBRANCH  29  33
BRANCH  30  35
HETATM   35  O   UNL     1      -7.084   2.800  71.477  1.00  0.00    -0.031 OA 
HETATM   36  C   UNL     1      -5.728   3.029  71.121  1.00  0.00    -0.013 C  
ENDBRANCH  30  35
BRANCH  32  37
HETATM   37  O   UNL     1      -7.842   5.072  73.062  1.00  0.00    -0.095 OA 
HETATM   38  C   UNL     1      -7.522   6.414  73.410  1.00  0.00    -0.086 C  
ENDBRANCH  32  37
ENDBRANCH  25  27
ENDBRANCH  24  25
ENDBRANCH  23  24
ENDBRANCH  22  23
ENDBRANCH  21  22
ENDBRANCH  19  21
ENDBRANCH  18  19
ENDBRANCH  17  18
ENDBRANCH  15  17
ENDBRANCH  14  15
ENDBRANCH  13  14
ENDBRANCH  12  13
ENDBRANCH  11  12
ENDBRANCH   9  11
ENDBRANCH   5   9
BRANCH   8  39
HETATM   39  O   UNL     1     -11.152  16.063  67.455  1.00  0.00    -0.278 OA 
HETATM   40  C   UNL     1     -11.554  14.877  68.122  1.00  0.00    -0.334 C  
ENDBRANCH   8  39
BRANCH   7  41
HETATM   41  O   UNL     1     -10.291  18.798  67.755  1.00  0.00    -0.371 OA 
HETATM   42  C   UNL     1     -10.566  19.630  66.640  1.00  0.00    -0.487 C  
ENDBRANCH   7  41
ENDBRANCH   2   3
TORSDOF 21
ENDMDL
MODEL      264
REMARK 921   NORMALIZED FREE ENERGY PREDICTED BY IDOCK:   -2.94 KCAL/MOL
REMARK 922        TOTAL FREE ENERGY PREDICTED BY IDOCK:   -9.41 KCAL/MOL
REMARK 923 INTER-LIGAND FREE ENERGY PREDICTED BY IDOCK:   -7.41 KCAL/MOL
REMARK 924 INTRA-LIGAND FREE ENERGY PREDICTED BY IDOCK:   -1.99 KCAL/MOL
REMARK 927      BINDING AFFINITY PREDICTED BY RF-SCORE:    0.00 PKD
ROOT
HETATM    1  C   UNL     1     -10.679   3.513  63.735  1.00  0.00    -0.256 C  
HETATM    2  O   UNL     1      -9.345   3.355  64.214  1.00  0.00    -0.123 OA 
ENDROOT
BRANCH   2   3
HETATM    3  C   UNL     1      -8.848   4.363  65.003  1.00  0.00    -0.141 A  
HETATM    4  C   UNL     1      -9.679   5.026  65.914  1.00  0.00    -0.182 A  
HETATM    5  C   UNL     1      -9.199   6.053  66.728  1.00  0.00    -0.143 A  
HETATM    6  C   UNL     1      -7.861   6.420  66.636  1.00  0.00    -0.104 A  
HETATM    7  C   UNL     1      -7.477   4.703  64.929  1.00  0.00    -0.073 A  
HETATM    8  C   UNL     1      -6.993   5.751  65.751  1.00  0.00    -0.068 A  
BRANCH   5   9
HETATM    9  C   UNL     1     -10.175   6.691  67.644  1.00  0.00    -0.177 C  
HETATM   10  O   UNL     1     -10.744   7.738  67.369  1.00  0.00    -0.278 OA 
BRANCH   9  11
HETATM   11  O   UNL     1     -10.310   6.000  68.804  1.00  0.00    -0.172 OA 
BRANCH  11  12
HETATM   12  C   UNL     1     -11.511   6.308  69.535  1.00  0.00    -0.317 C  
BRANCH  12  13
HETATM   13  C   UNL     1     -11.151   6.715  70.961  1.00  0.00    -0.330 C  
BRANCH  13  14
HETATM   14  C   UNL     1      -9.639   6.840  71.148  1.00  0.00    -0.173 C  
BRANCH  14  15
HETATM   15  N   UNL     1      -9.142   8.226  71.012  1.00  0.00    -0.150 NA 
HETATM   16  C   UNL     1     -10.223   9.203  71.203  1.00  0.00    -0.314 C  
BRANCH  15  17
HETATM   17  C   UNL     1      -8.037   8.434  71.986  1.00  0.00    -0.141 C  
BRANCH  17  18
HETATM   18  C   UNL     1      -6.742   7.656  71.649  1.00  0.00    -0.045 C  
BRANCH  18  19
HETATM   19  N   UNL     1      -5.738   8.380  70.835  1.00  0.00    -0.032 NA 
HETATM   20  C   UNL     1      -5.617   7.790  69.498  1.00  0.00    -0.023 C  
BRANCH  19  21
HETATM   21  C   UNL     1      -6.104   9.808  70.706  1.00  0.00    -0.092 C  
BRANCH  21  22
HETATM   22  C   UNL     1      -6.190  10.285  69.253  1.00  0.00    -0.045 C  
BRANCH  22  23
HETATM   23  C   UNL     1      -7.465  11.077  68.991  1.00  0.00    -0.129 C  
BRANCH  23  24
HETATM   24  O   UNL     1      -7.220  12.060  67.971  1.00  0.00    -0.082 OA 
BRANCH  24  25
HETATM   25  C   UNL     1      -7.029  13.329  68.412  1.00  0.00    -0.105 C  
HETATM   26  O   UNL     1      -6.282  13.672  69.314  1.00  0.00    -0.092 OA 
BRANCH  25  27
HETATM   27  C   UNL     1      -7.852  14.282  67.622  1.00  0.00    -0.191 A  
HETATM   28  C   UNL     1      -9.194  13.967  67.403  1.00  0.00    -0.224 A  
HETATM   29  C   UNL     1      -9.996  14.807  66.630  1.00  0.00    -0.264 A  
HETATM   30  C   UNL     1      -9.448  15.976  66.048  1.00  0.00    -0.349 A  
HETATM   31  C   UNL     1      -7.316  15.457  67.085  1.00  0.00    -0.203 A  
HETATM   32  C   UNL     1      -8.095  16.308  66.287  1.00  0.00    -0.232 A  
BRANCH  29  33
HETATM   33  O   UNL     1     -11.316  14.528  66.355  1.00  0.00    -0.335 OA 
HETATM   34  C   UNL     1     -11.637  13.161  66.114  1.00  0.00    -0.355 C  
ENDBRANCH  29  33
BRANCH  30  35
HETATM   35  O   UNL     1     -10.310  16.666  65.228  1.00  0.00    -0.609 OA 
HETATM   36  C   UNL     1     -10.770  17.942  65.650  1.00  0.00    -0.052 C  
ENDBRANCH  30  35
BRANCH  32  37
HETATM   37  O   UNL     1      -7.584  17.437  65.706  1.00  0.00    -0.484 OA 
HETATM   38  C   UNL     1      -6.819  18.327  66.511  1.00  0.00    -0.215 C  
ENDBRANCH  32  37
ENDBRANCH  25  27
ENDBRANCH  24  25
ENDBRANCH  23  24
ENDBRANCH  22  23
ENDBRANCH  21  22
ENDBRANCH  19  21
ENDBRANCH  18  19
ENDBRANCH  17  18
ENDBRANCH  15  17
ENDBRANCH  14  15
ENDBRANCH  13  14
ENDBRANCH  12  13
ENDBRANCH  11  12
ENDBRANCH   9  11
ENDBRANCH   5   9
BRANCH   8  39
HETATM   39  O   UNL     1      -5.719   6.262  65.833  1.00  0.00    -0.022 OA 
HETATM   40  C   UNL     1      -5.491   7.639  65.574  1.00  0.00    -0.029 C  
ENDBRANCH   8  39
BRANCH   7  41
HETATM   41  O   UNL     1      -6.555   4.109  64.108  1.00  0.00    -0.040 OA 
HETATM   42  C   UNL     1      -5.925   2.893  64.476  1.00  0.00    -0.018 C  
ENDBRANCH   7  41
ENDBRANCH   2   3
TORSDOF 21
ENDMDL
MODEL      265
REMARK 921   NORMALIZED FREE ENERGY PREDICTED BY IDOCK:   -2.89 KCAL/MOL
REMARK 922        TOTAL FREE ENERGY PREDICTED BY IDOCK:   -9.30 KCAL/MOL
REMARK 923 INTER-LIGAND FREE ENERGY PREDICTED BY IDOCK:   -8.63 KCAL/MOL
REMARK 924 INTRA-LIGAND FREE ENERGY PREDICTED BY IDOCK:   -0.67 KCAL/MOL
REMARK 927      BINDING AFFINITY PREDICTED BY RF-SCORE:    0.00 PKD
ROOT
HETATM    1  C   UNL     1      -5.768   8.404  73.599  1.00  0.00    -0.090 C  
HETATM    2  O   UNL     1      -6.431   9.269  72.679  1.00  0.00    -0.304 OA 
ENDROOT
BRANCH   2   3
HETATM    3  C   UNL     1      -7.124   8.670  71.656  1.00  0.00    -0.092 A  
HETATM    4  C   UNL     1      -6.494   8.407  70.433  1.00  0.00    -0.035 A  
HETATM    5  C   UNL     1      -7.174   7.799  69.377  1.00  0.00    -0.080 A  
HETATM    6  C   UNL     1      -8.506   7.440  69.547  1.00  0.00    -0.133 A  
HETATM    7  C   UNL     1      -8.467   8.274  71.852  1.00  0.00    -0.160 A  
HETATM    8  C   UNL     1      -9.157   7.663  70.775  1.00  0.00    -0.153 A  
BRANCH   5   9
HETATM    9  C   UNL     1      -6.408   7.584  68.124  1.00  0.00    -0.048 C  
HETATM   10  O   UNL     1      -6.801   6.841  67.236  1.00  0.00    -0.067 OA 
BRANCH   9  11
HETATM   11  O   UNL     1      -5.236   8.267  68.122  1.00  0.00    -0.032 OA 
BRANCH  11  12
HETATM   12  C   UNL     1      -5.390   9.698  68.105  1.00  0.00    -0.040 C  
BRANCH  12  13
HETATM   13  C   UNL     1      -5.911  10.140  66.741  1.00  0.00    -0.051 C  
BRANCH  13  14
HETATM   14  C   UNL     1      -6.584  11.511  66.810  1.00  0.00    -0.119 C  
BRANCH  14  15
HETATM   15  N   UNL     1      -7.185  11.804  68.129  1.00  0.00    -0.080 NA 
HETATM   16  C   UNL     1      -6.431  12.844  68.842  1.00  0.00    -0.091 C  
BRANCH  15  17
HETATM   17  C   UNL     1      -8.606  12.197  67.928  1.00  0.00    -0.167 C  
BRANCH  17  18
HETATM   18  C   UNL     1      -9.079  12.135  66.456  1.00  0.00    -0.199 C  
BRANCH  18  19
HETATM   19  N   UNL     1     -10.170  11.176  66.161  1.00  0.00    -0.237 NA 
HETATM   20  C   UNL     1     -11.248  11.282  67.149  1.00  0.00    -0.275 C  
BRANCH  19  21
HETATM   21  C   UNL     1     -10.722  11.417  64.809  1.00  0.00    -0.298 C  
BRANCH  21  22
HETATM   22  C   UNL     1     -10.573  12.868  64.340  1.00  0.00    -0.418 C  
BRANCH  22  23
HETATM   23  C   UNL     1     -11.840  13.676  64.590  1.00  0.00    -0.397 C  
BRANCH  23  24
HETATM   24  O   UNL     1     -11.549  14.761  65.488  1.00  0.00    -0.342 OA 
BRANCH  24  25
HETATM   25  C   UNL     1     -11.419  15.982  64.910  1.00  0.00    -0.125 C  
HETATM   26  O   UNL     1     -12.029  16.383  63.932  1.00  0.00    -1.023 OA 
BRANCH  25  27
HETATM   27  C   UNL     1     -10.428  16.804  65.652  1.00  0.00    -0.284 A  
HETATM   28  C   UNL     1      -9.110  16.349  65.712  1.00  0.00    -0.078 A  
HETATM   29  C   UNL     1      -8.153  17.062  66.435  1.00  0.00    -0.300 A  
HETATM   30  C   UNL     1      -8.516  18.244  67.125  1.00  0.00    -0.250 A  
HETATM   31  C   UNL     1     -10.784  17.994  66.296  1.00  0.00    -0.134 A  
HETATM   32  C   UNL     1      -9.845  18.719  67.046  1.00  0.00    -0.325 A  
BRANCH  29  33
HETATM   33  O   UNL     1      -6.847  16.641  66.556  1.00  0.00    -0.215 OA 
HETATM   34  C   UNL     1      -5.856  17.472  65.958  1.00  0.00    -0.138 C  
ENDBRANCH  29  33
BRANCH  30  35
HETATM   35  O   UNL     1      -7.511  18.800  67.880  1.00  0.00    -0.236 OA 
HETATM   36  C   UNL     1      -7.393  18.411  69.241  1.00  0.00    -0.045 C  
ENDBRANCH  30  35
BRANCH  32  37
HETATM   37  O   UNL     1     -10.178  19.857  67.730  1.00  0.00    -0.402 OA 
HETATM   38  C   UNL     1      -9.466  21.055  67.438  1.00  0.00    -0.120 C  
ENDBRANCH  32  37
ENDBRANCH  25  27
ENDBRANCH  24  25
ENDBRANCH  23  24
ENDBRANCH  22  23
ENDBRANCH  21  22
ENDBRANCH  19  21
ENDBRANCH  18  19
ENDBRANCH  17  18
ENDBRANCH  15  17
ENDBRANCH  14  15
ENDBRANCH  13  14
ENDBRANCH  12  13
ENDBRANCH  11  12
ENDBRANCH   9  11
ENDBRANCH   5   9
BRANCH   8  39
HETATM   39  O   UNL     1     -10.459   7.220  70.729  1.00  0.00    -0.210 OA 
HETATM   40  C   UNL     1     -10.781   6.051  69.991  1.00  0.00    -0.311 C  
ENDBRANCH   8  39
BRANCH   7  41
HETATM   41  O   UNL     1      -9.183   8.441  73.008  1.00  0.00    -0.253 OA 
HETATM   42  C   UNL     1      -9.379   7.363  73.908  1.00  0.00    -0.270 C  
ENDBRANCH   7  41
ENDBRANCH   2   3
TORSDOF 21
ENDMDL
MODEL      266
REMARK 921   NORMALIZED FREE ENERGY PREDICTED BY IDOCK:   -2.87 KCAL/MOL
REMARK 922        TOTAL FREE ENERGY PREDICTED BY IDOCK:   -9.26 KCAL/MOL
REMARK 923 INTER-LIGAND FREE ENERGY PREDICTED BY IDOCK:   -6.27 KCAL/MOL
REMARK 924 INTRA-LIGAND FREE ENERGY PREDICTED BY IDOCK:   -2.99 KCAL/MOL
REMARK 927      BINDING AFFINITY PREDICTED BY RF-SCORE:    0.00 PKD
ROOT
HETATM    1  C   UNL     1     -12.283  14.685  64.169  1.00  0.00    -0.315 C  
HETATM    2  O   UNL     1     -11.233  15.485  64.706  1.00  0.00    -0.422 OA 
ENDROOT
BRANCH   2   3
HETATM    3  C   UNL     1     -10.537  14.963  65.769  1.00  0.00    -0.331 A  
HETATM    4  C   UNL     1     -10.133  13.622  65.761  1.00  0.00    -0.311 A  
HETATM    5  C   UNL     1      -9.425  13.066  66.827  1.00  0.00    -0.250 A  
HETATM    6  C   UNL     1      -9.106  13.866  67.919  1.00  0.00    -0.194 A  
HETATM    7  C   UNL     1     -10.185  15.795  66.856  1.00  0.00    -0.280 A  
HETATM    8  C   UNL     1      -9.471  15.226  67.942  1.00  0.00    -0.197 A  
BRANCH   5   9
HETATM    9  C   UNL     1      -9.063  11.632  66.714  1.00  0.00    -0.186 C  
HETATM   10  O   UNL     1      -8.470  11.181  65.744  1.00  0.00    -0.158 OA 
BRANCH   9  11
HETATM   11  O   UNL     1      -9.503  10.912  67.775  1.00  0.00    -0.154 OA 
BRANCH  11  12
HETATM   12  C   UNL     1     -10.499   9.927  67.444  1.00  0.00    -0.267 C  
BRANCH  12  13
HETATM   13  C   UNL     1     -10.061   8.561  67.966  1.00  0.00    -0.245 C  
BRANCH  13  14
HETATM   14  C   UNL     1     -10.641   7.423  67.127  1.00  0.00    -0.342 C  
BRANCH  14  15
HETATM   15  N   UNL     1      -9.712   6.285  66.957  1.00  0.00    -0.137 NA 
HETATM   16  C   UNL     1     -10.288   5.040  67.483  1.00  0.00    -0.089 C  
BRANCH  15  17
HETATM   17  C   UNL     1      -9.366   6.163  65.516  1.00  0.00     0.245 C  
BRANCH  17  18
HETATM   18  C   UNL     1      -9.156   4.707  65.036  1.00  0.00    -0.156 C  
BRANCH  18  19
HETATM   19  N   UNL     1      -8.003   4.476  64.135  1.00  0.00    -0.089 NA 
HETATM   20  C   UNL     1      -7.586   5.720  63.480  1.00  0.00    -0.079 C  
BRANCH  19  21
HETATM   21  C   UNL     1      -6.859   3.914  64.887  1.00  0.00    -0.049 C  
BRANCH  21  22
HETATM   22  C   UNL     1      -7.276   3.147  66.146  1.00  0.00    -0.070 C  
BRANCH  22  23
HETATM   23  C   UNL     1      -6.308   3.381  67.298  1.00  0.00    -0.036 C  
BRANCH  23  24
HETATM   24  O   UNL     1      -6.375   4.756  67.711  1.00  0.00    -0.038 OA 
BRANCH  24  25
HETATM   25  C   UNL     1      -6.799   4.968  68.982  1.00  0.00    -0.051 C  
HETATM   26  O   UNL     1      -7.042   4.106  69.812  1.00  0.00    -0.041 OA 
BRANCH  25  27
HETATM   27  C   UNL     1      -6.913   6.425  69.256  1.00  0.00    -0.067 A  
HETATM   28  C   UNL     1      -6.287   7.309  68.376  1.00  0.00    -0.036 A  
HETATM   29  C   UNL     1      -6.327   8.683  68.615  1.00  0.00    -0.053 A  
HETATM   30  C   UNL     1      -6.991   9.188  69.760  1.00  0.00    -0.056 A  
HETATM   31  C   UNL     1      -7.607   6.920  70.365  1.00  0.00    -0.088 A  
HETATM   32  C   UNL     1      -7.645   8.295  70.638  1.00  0.00    -0.071 A  
BRANCH  29  33
HETATM   33  O   UNL     1      -5.698   9.597  67.800  1.00  0.00    -0.040 OA 
HETATM   34  C   UNL     1      -5.626   9.267  66.416  1.00  0.00    -0.052 C  
ENDBRANCH  29  33
BRANCH  30  35
HETATM   35  O   UNL     1      -6.875  10.546  69.936  1.00  0.00    -0.120 OA 
HETATM   36  C   UNL     1      -5.876  11.031  70.823  1.00  0.00    -0.065 C  
ENDBRANCH  30  35
BRANCH  32  37
HETATM   37  O   UNL     1      -8.271   8.804  71.745  1.00  0.00    -0.254 OA 
HETATM   38  C   UNL     1      -7.770   8.451  73.029  1.00  0.00    -0.069 C  
ENDBRANCH  32  37
ENDBRANCH  25  27
ENDBRANCH  24  25
ENDBRANCH  23  24
ENDBRANCH  22  23
ENDBRANCH  21  22
ENDBRANCH  19  21
ENDBRANCH  18  19
ENDBRANCH  17  18
ENDBRANCH  15  17
ENDBRANCH  14  15
ENDBRANCH  13  14
ENDBRANCH  12  13
ENDBRANCH  11  12
ENDBRANCH   9  11
ENDBRANCH   5   9
BRANCH   8  39
HETATM   39  O   UNL     1      -9.045  15.830  69.102  1.00  0.00    -0.228 OA 
HETATM   40  C   UNL     1      -7.693  15.698  69.511  1.00  0.00    -0.185 C  
ENDBRANCH   8  39
BRANCH   7  41
HETATM   41  O   UNL     1     -10.487  17.127  66.969  1.00  0.00    -0.320 OA 
HETATM   42  C   UNL     1      -9.612  18.119  66.460  1.00  0.00    -0.317 C  
ENDBRANCH   7  41
ENDBRANCH   2   3
TORSDOF 21
ENDMDL
MODEL      267
REMARK 921   NORMALIZED FREE ENERGY PREDICTED BY IDOCK:   -2.86 KCAL/MOL
REMARK 922        TOTAL FREE ENERGY PREDICTED BY IDOCK:   -9.23 KCAL/MOL
REMARK 923 INTER-LIGAND FREE ENERGY PREDICTED BY IDOCK:   -7.76 KCAL/MOL
REMARK 924 INTRA-LIGAND FREE ENERGY PREDICTED BY IDOCK:   -1.47 KCAL/MOL
REMARK 927      BINDING AFFINITY PREDICTED BY RF-SCORE:    0.00 PKD
ROOT
HETATM    1  C   UNL     1     -13.867  14.206  72.304  1.00  0.00    -0.544 C  
HETATM    2  O   UNL     1     -13.499  12.829  72.268  1.00  0.00    -0.565 OA 
ENDROOT
BRANCH   2   3
HETATM    3  C   UNL     1     -12.852  12.391  71.139  1.00  0.00    -0.205 A  
HETATM    4  C   UNL     1     -12.569  13.279  70.094  1.00  0.00    -0.112 A  
HETATM    5  C   UNL     1     -11.911  12.860  68.937  1.00  0.00    -0.291 A  
HETATM    6  C   UNL     1     -11.522  11.530  68.823  1.00  0.00    -0.349 A  
HETATM    7  C   UNL     1     -12.426  11.045  71.050  1.00  0.00    -0.409 A  
HETATM    8  C   UNL     1     -11.765  10.621  69.869  1.00  0.00    -0.317 A  
BRANCH   5   9
HETATM    9  C   UNL     1     -11.679  13.887  67.891  1.00  0.00    -0.361 C  
HETATM   10  O   UNL     1     -12.419  14.019  66.927  1.00  0.00    -0.364 OA 
BRANCH   9  11
HETATM   11  O   UNL     1     -10.551  14.603  68.125  1.00  0.00    -0.232 OA 
BRANCH  11  12
HETATM   12  C   UNL     1      -9.391  14.117  67.424  1.00  0.00    -0.215 C  
BRANCH  12  13
HETATM   13  C   UNL     1      -8.278  13.816  68.424  1.00  0.00    -0.151 C  
BRANCH  13  14
HETATM   14  C   UNL     1      -7.122  13.059  67.771  1.00  0.00    -0.139 C  
BRANCH  14  15
HETATM   15  N   UNL     1      -7.519  11.751  67.209  1.00  0.00    -0.142 NA 
HETATM   16  C   UNL     1      -6.387  11.083  66.554  1.00  0.00    -0.132 C  
BRANCH  15  17
HETATM   17  C   UNL     1      -8.092  10.916  68.300  1.00  0.00    -0.124 C  
BRANCH  17  18
HETATM   18  C   UNL     1      -7.248  10.904  69.596  1.00  0.00    -0.095 C  
BRANCH  18  19
HETATM   19  N   UNL     1      -6.314   9.765  69.758  1.00  0.00    -0.046 NA 
HETATM   20  C   UNL     1      -5.753   9.729  71.112  1.00  0.00    -0.077 C  
BRANCH  19  21
HETATM   21  C   UNL     1      -7.003   8.484  69.482  1.00  0.00    -0.048 C  
BRANCH  21  22
HETATM   22  C   UNL     1      -7.116   7.577  70.712  1.00  0.00    -0.059 C  
BRANCH  22  23
HETATM   23  C   UNL     1      -7.396   6.130  70.324  1.00  0.00    -0.088 C  
BRANCH  23  24
HETATM   24  O   UNL     1      -8.687   6.042  69.697  1.00  0.00    -0.130 OA 
BRANCH  24  25
HETATM   25  C   UNL     1      -9.050   4.806  69.272  1.00  0.00    -0.105 C  
HETATM   26  O   UNL     1      -9.511   3.914  69.966  1.00  0.00    -0.160 OA 
BRANCH  25  27
HETATM   27  C   UNL     1      -8.830   4.676  67.807  1.00  0.00    -0.115 A  
HETATM   28  C   UNL     1      -8.143   5.699  67.153  1.00  0.00    -0.102 A  
HETATM   29  C   UNL     1      -7.951   5.644  65.772  1.00  0.00    -0.109 A  
HETATM   30  C   UNL     1      -8.467   4.558  65.024  1.00  0.00    -0.128 A  
HETATM   31  C   UNL     1      -9.306   3.579  67.080  1.00  0.00    -0.229 A  
HETATM   32  C   UNL     1      -9.144   3.510  65.688  1.00  0.00    -0.149 A  
BRANCH  29  33
HETATM   33  O   UNL     1      -7.311   6.641  65.071  1.00  0.00    -0.073 OA 
HETATM   34  C   UNL     1      -8.069   7.819  64.810  1.00  0.00    -0.131 C  
ENDBRANCH  29  33
BRANCH  30  35
HETATM   35  O   UNL     1      -8.301   4.669  63.663  1.00  0.00    -0.104 OA 
HETATM   36  C   UNL     1      -9.457   4.812  62.850  1.00  0.00     0.089 C  
ENDBRANCH  30  35
BRANCH  32  37
HETATM   37  O   UNL     1      -9.645   2.476  64.944  1.00  0.00    -0.118 OA 
HETATM   38  C   UNL     1      -8.728   1.565  64.348  1.00  0.00    -0.093 C  
ENDBRANCH  32  37
ENDBRANCH  25  27
ENDBRANCH  24  25
ENDBRANCH  23  24
ENDBRANCH  22  23
ENDBRANCH  21  22
ENDBRANCH  19  21
ENDBRANCH  18  19
ENDBRANCH  17  18
ENDBRANCH  15  17
ENDBRANCH  14  15
ENDBRANCH  13  14
ENDBRANCH  12  13
ENDBRANCH  11  12
ENDBRANCH   9  11
ENDBRANCH   5   9
BRANCH   8  39
HETATM   39  O   UNL     1     -11.286   9.370  69.555  1.00  0.00    -0.164 OA 
HETATM   40  C   UNL     1     -10.831   9.099  68.238  1.00  0.00    -0.051 C  
ENDBRANCH   8  39
BRANCH   7  41
HETATM   41  O   UNL     1     -12.608  10.088  72.013  1.00  0.00    -0.372 OA 
HETATM   42  C   UNL     1     -13.711   9.199  71.959  1.00  0.00    -0.448 C  
ENDBRANCH   7  41
ENDBRANCH   2   3
TORSDOF 21
ENDMDL
MODEL      268
REMARK 921   NORMALIZED FREE ENERGY PREDICTED BY IDOCK:   -2.74 KCAL/MOL
REMARK 922        TOTAL FREE ENERGY PREDICTED BY IDOCK:   -8.97 KCAL/MOL
REMARK 923 INTER-LIGAND FREE ENERGY PREDICTED BY IDOCK:   -7.58 KCAL/MOL
REMARK 924 INTRA-LIGAND FREE ENERGY PREDICTED BY IDOCK:   -1.39 KCAL/MOL
REMARK 927      BINDING AFFINITY PREDICTED BY RF-SCORE:    0.00 PKD
ROOT
HETATM    1  C   UNL     1      -7.681  14.998  68.888  1.00  0.00    -0.152 C  
HETATM    2  O   UNL     1      -9.092  14.898  69.068  1.00  0.00    -0.196 OA 
ENDROOT
BRANCH   2   3
HETATM    3  C   UNL     1      -9.780  14.133  68.158  1.00  0.00    -0.225 A  
HETATM    4  C   UNL     1      -9.259  12.907  67.725  1.00  0.00    -0.200 A  
HETATM    5  C   UNL     1      -9.937  12.110  66.803  1.00  0.00    -0.218 A  
HETATM    6  C   UNL     1     -11.163  12.540  66.308  1.00  0.00    -0.359 A  
HETATM    7  C   UNL     1     -11.044  14.561  67.692  1.00  0.00    -0.304 A  
HETATM    8  C   UNL     1     -11.728  13.752  66.749  1.00  0.00    -0.391 A  
BRANCH   5   9
HETATM    9  C   UNL     1      -9.280  10.840  66.407  1.00  0.00    -0.170 C  
HETATM   10  O   UNL     1      -8.233  10.813  65.777  1.00  0.00    -0.162 OA 
BRANCH   9  11
HETATM   11  O   UNL     1      -9.999   9.755  66.790  1.00  0.00    -0.194 OA 
BRANCH  11  12
HETATM   12  C   UNL     1      -9.423   8.498  66.393  1.00  0.00    -0.232 C  
BRANCH  12  13
HETATM   13  C   UNL     1      -9.924   7.392  67.317  1.00  0.00    -0.259 C  
BRANCH  13  14
HETATM   14  C   UNL     1      -8.767   6.626  67.961  1.00  0.00    -0.117 C  
BRANCH  14  15
HETATM   15  N   UNL     1      -8.263   5.514  67.127  1.00  0.00    -0.102 NA 
HETATM   16  C   UNL     1      -6.875   5.748  66.706  1.00  0.00    -0.063 C  
BRANCH  15  17
HETATM   17  C   UNL     1      -8.398   4.245  67.891  1.00  0.00    -0.094 C  
BRANCH  17  18
HETATM   18  C   UNL     1      -8.474   4.435  69.425  1.00  0.00    -0.073 C  
BRANCH  18  19
HETATM   19  N   UNL     1      -7.254   4.084  70.188  1.00  0.00    -0.042 NA 
HETATM   20  C   UNL     1      -6.709   5.257  70.882  1.00  0.00    -0.043 C  
BRANCH  19  21
HETATM   21  C   UNL     1      -7.545   3.024  71.179  1.00  0.00    -0.040 C  
BRANCH  21  22
HETATM   22  C   UNL     1      -8.897   2.339  70.956  1.00  0.00    -0.127 C  
BRANCH  22  23
HETATM   23  C   UNL     1      -9.815   2.491  72.163  1.00  0.00    -0.155 C  
BRANCH  23  24
HETATM   24  O   UNL     1     -10.656   3.643  71.985  1.00  0.00     0.024 OA 
BRANCH  24  25
HETATM   25  C   UNL     1     -10.688   4.513  73.026  1.00  0.00    -0.225 C  
HETATM   26  O   UNL     1     -10.662   4.218  74.210  1.00  0.00    -0.248 OA 
BRANCH  25  27
HETATM   27  C   UNL     1     -10.738   5.913  72.530  1.00  0.00    -0.274 A  
HETATM   28  C   UNL     1      -9.529   6.571  72.299  1.00  0.00    -0.144 A  
HETATM   29  C   UNL     1      -9.522   7.901  71.876  1.00  0.00    -0.168 A  
HETATM   30  C   UNL     1     -10.743   8.596  71.695  1.00  0.00    -0.303 A  
HETATM   31  C   UNL     1     -11.947   6.581  72.311  1.00  0.00    -0.272 A  
HETATM   32  C   UNL     1     -11.968   7.924  71.906  1.00  0.00    -0.305 A  
BRANCH  29  33
HETATM   33  O   UNL     1      -8.360   8.608  71.666  1.00  0.00    -0.154 OA 
HETATM   34  C   UNL     1      -8.154   9.111  70.349  1.00  0.00    -0.152 C  
ENDBRANCH  29  33
BRANCH  30  35
HETATM   35  O   UNL     1     -10.602   9.926  71.374  1.00  0.00    -0.119 OA 
HETATM   36  C   UNL     1     -11.270  10.418  70.221  1.00  0.00    -0.320 C  
ENDBRANCH  30  35
BRANCH  32  37
HETATM   37  O   UNL     1     -13.135   8.619  71.736  1.00  0.00    -0.330 OA 
HETATM   38  C   UNL     1     -14.193   8.404  72.663  1.00  0.00    -0.065 C  
ENDBRANCH  32  37
ENDBRANCH  25  27
ENDBRANCH  24  25
ENDBRANCH  23  24
ENDBRANCH  22  23
ENDBRANCH  21  22
ENDBRANCH  19  21
ENDBRANCH  18  19
ENDBRANCH  17  18
ENDBRANCH  15  17
ENDBRANCH  14  15
ENDBRANCH  13  14
ENDBRANCH  12  13
ENDBRANCH  11  12
ENDBRANCH   9  11
ENDBRANCH   5   9
BRANCH   8  39
HETATM   39  O   UNL     1     -12.945  13.975  66.147  1.00  0.00    -0.302 OA 
HETATM   40  C   UNL     1     -13.004  14.268  64.760  1.00  0.00     0.169 C  
ENDBRANCH   8  39
BRANCH   7  41
HETATM   41  O   UNL     1     -11.678  15.717  68.063  1.00  0.00    -0.306 OA 
HETATM   42  C   UNL     1     -12.114  15.914  69.398  1.00  0.00    -0.168 C  
ENDBRANCH   7  41
ENDBRANCH   2   3
TORSDOF 21
ENDMDL
MODEL      269
REMARK 921   NORMALIZED FREE ENERGY PREDICTED BY IDOCK:   -2.74 KCAL/MOL
REMARK 922        TOTAL FREE ENERGY PREDICTED BY IDOCK:   -8.97 KCAL/MOL
REMARK 923 INTER-LIGAND FREE ENERGY PREDICTED BY IDOCK:   -8.09 KCAL/MOL
REMARK 924 INTRA-LIGAND FREE ENERGY PREDICTED BY IDOCK:   -0.88 KCAL/MOL
REMARK 927      BINDING AFFINITY PREDICTED BY RF-SCORE:    0.00 PKD
ROOT
HETATM    1  C   UNL     1      -6.940   8.395  70.599  1.00  0.00    -0.040 C  
HETATM    2  O   UNL     1      -6.613   8.188  69.226  1.00  0.00    -0.035 OA 
ENDROOT
BRANCH   2   3
HETATM    3  C   UNL     1      -7.648   7.858  68.387  1.00  0.00    -0.108 A  
HETATM    4  C   UNL     1      -8.195   6.569  68.408  1.00  0.00    -0.114 A  
HETATM    5  C   UNL     1      -9.247   6.207  67.565  1.00  0.00    -0.111 A  
HETATM    6  C   UNL     1      -9.770   7.153  66.691  1.00  0.00    -0.233 A  
HETATM    7  C   UNL     1      -8.198   8.839  67.529  1.00  0.00    -0.110 A  
HETATM    8  C   UNL     1      -9.263   8.466  66.669  1.00  0.00    -0.180 A  
BRANCH   5   9
HETATM    9  C   UNL     1      -9.734   4.809  67.666  1.00  0.00    -0.160 C  
HETATM   10  O   UNL     1     -10.187   4.203  66.706  1.00  0.00    -0.113 OA 
BRANCH   9  11
HETATM   11  O   UNL     1      -9.648   4.332  68.933  1.00  0.00    -0.160 OA 
BRANCH  11  12
HETATM   12  C   UNL     1      -8.869   3.128  69.056  1.00  0.00    -0.107 C  
BRANCH  12  13
HETATM   13  C   UNL     1      -8.670   2.797  70.532  1.00  0.00    -0.126 C  
BRANCH  13  14
HETATM   14  C   UNL     1      -9.297   3.857  71.438  1.00  0.00    -0.139 C  
BRANCH  14  15
HETATM   15  N   UNL     1     -10.423   3.346  72.249  1.00  0.00    -0.043 NA 
HETATM   16  C   UNL     1     -10.061   2.105  72.946  1.00  0.00    -0.125 C  
BRANCH  15  17
HETATM   17  C   UNL     1     -10.845   4.407  73.202  1.00  0.00    -0.240 C  
BRANCH  17  18
HETATM   18  C   UNL     1     -11.992   5.306  72.682  1.00  0.00     0.056 C  
BRANCH  18  19
HETATM   19  N   UNL     1     -11.664   6.737  72.485  1.00  0.00    -0.208 NA 
HETATM   20  C   UNL     1     -10.512   6.897  71.593  1.00  0.00    -0.204 C  
BRANCH  19  21
HETATM   21  C   UNL     1     -12.823   7.464  71.921  1.00  0.00    -0.272 C  
BRANCH  21  22
HETATM   22  C   UNL     1     -12.457   8.369  70.740  1.00  0.00     0.126 C  
BRANCH  22  23
HETATM   23  C   UNL     1     -12.673   9.841  71.067  1.00  0.00    -0.304 C  
BRANCH  23  24
HETATM   24  O   UNL     1     -12.038  10.654  70.066  1.00  0.00    -0.296 OA 
BRANCH  24  25
HETATM   25  C   UNL     1     -12.117  11.995  70.262  1.00  0.00    -0.312 C  
HETATM   26  O   UNL     1     -12.271  12.557  71.334  1.00  0.00    -0.076 OA 
BRANCH  25  27
HETATM   27  C   UNL     1     -11.963  12.717  68.971  1.00  0.00    -0.288 A  
HETATM   28  C   UNL     1     -11.890  11.962  67.800  1.00  0.00    -0.289 A  
HETATM   29  C   UNL     1     -11.701  12.591  66.569  1.00  0.00    -0.391 A  
HETATM   30  C   UNL     1     -11.565  13.999  66.503  1.00  0.00    -0.374 A  
HETATM   31  C   UNL     1     -11.872  14.112  68.908  1.00  0.00    -0.382 A  
HETATM   32  C   UNL     1     -11.661  14.767  67.686  1.00  0.00    -0.341 A  
BRANCH  29  33
HETATM   33  O   UNL     1     -11.587  11.893  65.388  1.00  0.00    -0.316 OA 
HETATM   34  C   UNL     1     -12.643  12.066  64.447  1.00  0.00    -0.193 C  
ENDBRANCH  29  33
BRANCH  30  35
HETATM   35  O   UNL     1     -11.283  14.489  65.250  1.00  0.00    -0.322 OA 
HETATM   36  C   UNL     1     -10.627  15.745  65.146  1.00  0.00    -0.411 C  
ENDBRANCH  30  35
BRANCH  32  37
HETATM   37  O   UNL     1     -11.516  16.126  67.600  1.00  0.00    -0.143 OA 
HETATM   38  C   UNL     1     -10.623  16.770  68.500  1.00  0.00    -0.354 C  
ENDBRANCH  32  37
ENDBRANCH  25  27
ENDBRANCH  24  25
ENDBRANCH  23  24
ENDBRANCH  22  23
ENDBRANCH  21  22
ENDBRANCH  19  21
ENDBRANCH  18  19
ENDBRANCH  17  18
ENDBRANCH  15  17
ENDBRANCH  14  15
ENDBRANCH  13  14
ENDBRANCH  12  13
ENDBRANCH  11  12
ENDBRANCH   9  11
ENDBRANCH   5   9
BRANCH   8  39
HETATM   39  O   UNL     1      -9.932   9.236  65.746  1.00  0.00    -0.299 OA 
HETATM   40  C   UNL     1      -9.290   9.605  64.535  1.00  0.00    -0.182 C  
ENDBRANCH   8  39
BRANCH   7  41
HETATM   41  O   UNL     1      -7.780  10.140  67.439  1.00  0.00    -0.095 OA 
HETATM   42  C   UNL     1      -6.517  10.464  66.882  1.00  0.00    -0.076 C  
ENDBRANCH   7  41
ENDBRANCH   2   3
TORSDOF 21
ENDMDL
MODEL      270
REMARK 921   NORMALIZED FREE ENERGY PREDICTED BY IDOCK:   -2.70 KCAL/MOL
REMARK 922        TOTAL FREE ENERGY PREDICTED BY IDOCK:   -8.87 KCAL/MOL
REMARK 923 INTER-LIGAND FREE ENERGY PREDICTED BY IDOCK:   -8.02 KCAL/MOL
REMARK 924 INTRA-LIGAND FREE ENERGY PREDICTED BY IDOCK:   -0.84 KCAL/MOL
REMARK 927      BINDING AFFINITY PREDICTED BY RF-SCORE:    0.00 PKD
ROOT
HETATM    1  C   UNL     1      -5.621   6.474  65.615  1.00  0.00    -0.021 C  
HETATM    2  O   UNL     1      -6.600   7.052  64.755  1.00  0.00    -0.042 OA 
ENDROOT
BRANCH   2   3
HETATM    3  C   UNL     1      -7.756   7.500  65.346  1.00  0.00    -0.109 A  
HETATM    4  C   UNL     1      -8.536   6.636  66.124  1.00  0.00    -0.135 A  
HETATM    5  C   UNL     1      -9.714   7.065  66.736  1.00  0.00    -0.241 A  
HETATM    6  C   UNL     1     -10.118   8.386  66.575  1.00  0.00    -0.317 A  
HETATM    7  C   UNL     1      -8.137   8.855  65.208  1.00  0.00    -0.126 A  
HETATM    8  C   UNL     1      -9.339   9.287  65.825  1.00  0.00    -0.244 A  
BRANCH   5   9
HETATM    9  C   UNL     1     -10.465   6.056  67.523  1.00  0.00    -0.240 C  
HETATM   10  O   UNL     1     -11.132   6.355  68.503  1.00  0.00    -0.318 OA 
BRANCH   9  11
HETATM   11  O   UNL     1     -10.279   4.800  67.047  1.00  0.00    -0.203 OA 
BRANCH  11  12
HETATM   12  C   UNL     1      -8.921   4.331  67.140  1.00  0.00    -0.123 C  
BRANCH  12  13
HETATM   13  C   UNL     1      -8.817   3.282  68.243  1.00  0.00    -0.159 C  
BRANCH  13  14
HETATM   14  C   UNL     1      -9.655   3.661  69.464  1.00  0.00    -0.137 C  
BRANCH  14  15
HETATM   15  N   UNL     1      -8.844   4.114  70.615  1.00  0.00    -0.076 NA 
HETATM   16  C   UNL     1      -7.636   4.823  70.173  1.00  0.00    -0.055 C  
BRANCH  15  17
HETATM   17  C   UNL     1      -9.693   4.969  71.489  1.00  0.00    -0.169 C  
BRANCH  17  18
HETATM   18  C   UNL     1      -9.120   6.385  71.739  1.00  0.00    -0.143 C  
BRANCH  18  19
HETATM   19  N   UNL     1      -9.844   7.217  72.728  1.00  0.00    -0.166 NA 
HETATM   20  C   UNL     1      -9.129   7.257  74.008  1.00  0.00    -0.242 C  
BRANCH  19  21
HETATM   21  C   UNL     1     -10.015   8.597  72.221  1.00  0.00    -0.291 C  
BRANCH  21  22
HETATM   22  C   UNL     1      -9.674   8.747  70.735  1.00  0.00    -0.257 C  
BRANCH  22  23
HETATM   23  C   UNL     1     -10.761   9.498  69.977  1.00  0.00    -0.243 C  
BRANCH  23  24
HETATM   24  O   UNL     1     -10.315  10.836  69.699  1.00  0.00    -0.201 OA 
BRANCH  24  25
HETATM   25  C   UNL     1     -11.287  11.782  69.659  1.00  0.00    -0.215 C  
HETATM   26  O   UNL     1     -12.347  11.749  70.263  1.00  0.00    -0.294 OA 
BRANCH  25  27
HETATM   27  C   UNL     1     -10.878  12.910  68.781  1.00  0.00    -0.277 A  
HETATM   28  C   UNL     1      -9.717  13.610  69.110  1.00  0.00     0.314 A  
HETATM   29  C   UNL     1      -9.315  14.704  68.343  1.00  0.00    -0.201 A  
HETATM   30  C   UNL     1     -10.093  15.121  67.235  1.00  0.00    -0.235 A  
HETATM   31  C   UNL     1     -11.627  13.289  67.663  1.00  0.00    -0.386 A  
HETATM   32  C   UNL     1     -11.257  14.398  66.887  1.00  0.00    -0.334 A  
BRANCH  29  33
HETATM   33  O   UNL     1      -8.198  15.452  68.642  1.00  0.00    -0.141 OA 
HETATM   34  C   UNL     1      -7.436  15.029  69.769  1.00  0.00    -0.102 C  
ENDBRANCH  29  33
BRANCH  30  35
HETATM   35  O   UNL     1      -9.649  16.268  66.622  1.00  0.00    -0.224 OA 
HETATM   36  C   UNL     1     -10.261  17.502  66.970  1.00  0.00    -0.327 C  
ENDBRANCH  30  35
BRANCH  32  37
HETATM   37  O   UNL     1     -12.000  14.825  65.819  1.00  0.00    -0.281 OA 
HETATM   38  C   UNL     1     -12.635  13.848  65.002  1.00  0.00    -0.390 C  
ENDBRANCH  32  37
ENDBRANCH  25  27
ENDBRANCH  24  25
ENDBRANCH  23  24
ENDBRANCH  22  23
ENDBRANCH  21  22
ENDBRANCH  19  21
ENDBRANCH  18  19
ENDBRANCH  17  18
ENDBRANCH  15  17
ENDBRANCH  14  15
ENDBRANCH  13  14
ENDBRANCH  12  13
ENDBRANCH  11  12
ENDBRANCH   9  11
ENDBRANCH   5   9
BRANCH   8  39
HETATM   39  O   UNL     1      -9.912  10.537  65.809  1.00  0.00    -0.231 OA 
HETATM   40  C   UNL     1     -10.675  10.950  64.686  1.00  0.00    -0.184 C  
ENDBRANCH   8  39
BRANCH   7  41
HETATM   41  O   UNL     1      -7.446   9.808  64.507  1.00  0.00    -0.122 OA 
HETATM   42  C   UNL     1      -7.588   9.927  63.102  1.00  0.00    -0.135 C  
ENDBRANCH   7  41
ENDBRANCH   2   3
TORSDOF 21
ENDMDL
MODEL      271
REMARK 921   NORMALIZED FREE ENERGY PREDICTED BY IDOCK:   -2.69 KCAL/MOL
REMARK 922        TOTAL FREE ENERGY PREDICTED BY IDOCK:   -8.86 KCAL/MOL
REMARK 923 INTER-LIGAND FREE ENERGY PREDICTED BY IDOCK:   -8.56 KCAL/MOL
REMARK 924 INTRA-LIGAND FREE ENERGY PREDICTED BY IDOCK:   -0.31 KCAL/MOL
REMARK 927      BINDING AFFINITY PREDICTED BY RF-SCORE:    0.00 PKD
ROOT
HETATM    1  C   UNL     1     -10.793  18.595  65.407  1.00  0.00     0.341 C  
HETATM    2  O   UNL     1     -10.746  17.272  64.877  1.00  0.00    -0.723 OA 
ENDROOT
BRANCH   2   3
HETATM    3  C   UNL     1     -10.735  16.241  65.785  1.00  0.00    -0.255 A  
HETATM    4  C   UNL     1     -10.027  16.364  66.987  1.00  0.00    -0.261 A  
HETATM    5  C   UNL     1     -10.000  15.333  67.927  1.00  0.00    -0.228 A  
HETATM    6  C   UNL     1     -10.698  14.159  67.665  1.00  0.00    -0.260 A  
HETATM    7  C   UNL     1     -11.480  15.068  65.526  1.00  0.00    -0.265 A  
HETATM    8  C   UNL     1     -11.444  14.019  66.480  1.00  0.00    -0.357 A  
BRANCH   5   9
HETATM    9  C   UNL     1      -9.205  15.571  69.157  1.00  0.00    -0.246 C  
HETATM   10  O   UNL     1      -9.714  15.952  70.201  1.00  0.00    -0.027 OA 
BRANCH   9  11
HETATM   11  O   UNL     1      -7.881  15.356  68.956  1.00  0.00    -0.159 OA 
BRANCH  11  12
HETATM   12  C   UNL     1      -7.529  13.970  68.790  1.00  0.00    -0.124 C  
BRANCH  12  13
HETATM   13  C   UNL     1      -6.344  13.854  67.836  1.00  0.00    -0.167 C  
BRANCH  13  14
HETATM   14  C   UNL     1      -5.190  13.069  68.461  1.00  0.00    -0.064 C  
BRANCH  14  15
HETATM   15  N   UNL     1      -5.217  11.627  68.136  1.00  0.00    -0.043 NA 
HETATM   16  C   UNL     1      -6.257  10.925  68.900  1.00  0.00    -0.041 C  
BRANCH  15  17
HETATM   17  C   UNL     1      -5.416  11.472  66.670  1.00  0.00    -0.133 C  
BRANCH  17  18
HETATM   18  C   UNL     1      -6.728  10.751  66.281  1.00  0.00    -0.134 C  
BRANCH  18  19
HETATM   19  N   UNL     1      -6.597   9.623  65.329  1.00  0.00    -0.082 NA 
HETATM   20  C   UNL     1      -5.495   9.852  64.389  1.00  0.00    -0.084 C  
BRANCH  19  21
HETATM   21  C   UNL     1      -6.364   8.354  66.054  1.00  0.00    -0.053 C  
BRANCH  21  22
HETATM   22  C   UNL     1      -7.513   7.351  65.911  1.00  0.00    -0.080 C  
BRANCH  22  23
HETATM   23  C   UNL     1      -8.536   7.498  67.031  1.00  0.00    -0.122 C  
BRANCH  23  24
HETATM   24  O   UNL     1      -9.370   6.329  67.076  1.00  0.00    -0.120 OA 
BRANCH  24  25
HETATM   25  C   UNL     1     -10.667   6.546  67.413  1.00  0.00    -0.340 C  
HETATM   26  O   UNL     1     -11.629   6.449  66.669  1.00  0.00     0.137 OA 
BRANCH  25  27
HETATM   27  C   UNL     1     -10.776   6.904  68.852  1.00  0.00    -0.254 A  
HETATM   28  C   UNL     1     -10.615   8.243  69.209  1.00  0.00    -0.191 A  
HETATM   29  C   UNL     1     -10.664   8.623  70.551  1.00  0.00    -0.221 A  
HETATM   30  C   UNL     1     -10.861   7.649  71.560  1.00  0.00    -0.227 A  
HETATM   31  C   UNL     1     -11.013   5.943  69.840  1.00  0.00    -0.444 A  
HETATM   32  C   UNL     1     -11.047   6.295  71.198  1.00  0.00    -0.298 A  
BRANCH  29  33
HETATM   33  O   UNL     1     -10.478   9.924  70.962  1.00  0.00    -0.252 OA 
HETATM   34  C   UNL     1     -11.433  10.876  70.503  1.00  0.00    -0.220 C  
ENDBRANCH  29  33
BRANCH  30  35
HETATM   35  O   UNL     1     -10.790   8.132  72.845  1.00  0.00    -0.357 OA 
HETATM   36  C   UNL     1     -10.008   7.420  73.794  1.00  0.00    -0.282 C  
ENDBRANCH  30  35
BRANCH  32  37
HETATM   37  O   UNL     1     -11.225   5.369  72.190  1.00  0.00    -0.217 OA 
HETATM   38  C   UNL     1     -10.117   4.559  72.566  1.00  0.00    -0.176 C  
ENDBRANCH  32  37
ENDBRANCH  25  27
ENDBRANCH  24  25
ENDBRANCH  23  24
ENDBRANCH  22  23
ENDBRANCH  21  22
ENDBRANCH  19  21
ENDBRANCH  18  19
ENDBRANCH  17  18
ENDBRANCH  15  17
ENDBRANCH  14  15
ENDBRANCH  13  14
ENDBRANCH  12  13
ENDBRANCH  11  12
ENDBRANCH   9  11
ENDBRANCH   5   9
BRANCH   8  39
HETATM   39  O   UNL     1     -12.065  12.792  66.433  1.00  0.00    -0.470 OA 
HETATM   40  C   UNL     1     -11.287  11.608  66.361  1.00  0.00    -0.245 C  
ENDBRANCH   8  39
BRANCH   7  41
HETATM   41  O   UNL     1     -12.240  14.839  64.410  1.00  0.00    -0.491 OA 
HETATM   42  C   UNL     1     -12.025  13.692  63.603  1.00  0.00    -0.321 C  
ENDBRANCH   7  41
ENDBRANCH   2   3
TORSDOF 21
ENDMDL
MODEL      272
REMARK 921   NORMALIZED FREE ENERGY PREDICTED BY IDOCK:   -2.69 KCAL/MOL
REMARK 922        TOTAL FREE ENERGY PREDICTED BY IDOCK:   -8.85 KCAL/MOL
REMARK 923 INTER-LIGAND FREE ENERGY PREDICTED BY IDOCK:   -8.48 KCAL/MOL
REMARK 924 INTRA-LIGAND FREE ENERGY PREDICTED BY IDOCK:   -0.36 KCAL/MOL
REMARK 927      BINDING AFFINITY PREDICTED BY RF-SCORE:    0.00 PKD
ROOT
HETATM    1  C   UNL     1     -13.053  15.121  73.637  1.00  0.00    -0.236 C  
HETATM    2  O   UNL     1     -13.866  14.494  72.647  1.00  0.00    -0.480 OA 
ENDROOT
BRANCH   2   3
HETATM    3  C   UNL     1     -13.264  13.537  71.867  1.00  0.00    -0.422 A  
HETATM    4  C   UNL     1     -13.389  12.180  72.188  1.00  0.00    -0.438 A  
HETATM    5  C   UNL     1     -12.788  11.188  71.412  1.00  0.00    -0.544 A  
HETATM    6  C   UNL     1     -12.055  11.557  70.290  1.00  0.00    -0.444 A  
HETATM    7  C   UNL     1     -12.553  13.921  70.706  1.00  0.00    -0.354 A  
HETATM    8  C   UNL     1     -11.937  12.911  69.924  1.00  0.00    -0.307 A  
BRANCH   5   9
HETATM    9  C   UNL     1     -12.977   9.785  71.857  1.00  0.00    -0.440 C  
HETATM   10  O   UNL     1     -14.073   9.243  71.863  1.00  0.00    -0.319 OA 
BRANCH   9  11
HETATM   11  O   UNL     1     -11.816   9.226  72.280  1.00  0.00    -0.276 OA 
BRANCH  11  12
HETATM   12  C   UNL     1     -11.308   8.198  71.409  1.00  0.00    -0.259 C  
BRANCH  12  13
HETATM   13  C   UNL     1     -11.367   6.850  72.122  1.00  0.00    -0.302 C  
BRANCH  13  14
HETATM   14  C   UNL     1     -10.205   5.944  71.713  1.00  0.00    -0.203 C  
BRANCH  14  15
HETATM   15  N   UNL     1      -9.323   5.575  72.841  1.00  0.00    -0.138 NA 
HETATM   16  C   UNL     1      -9.338   6.602  73.891  1.00  0.00    -0.180 C  
BRANCH  15  17
HETATM   17  C   UNL     1      -9.748   4.249  73.365  1.00  0.00    -0.121 C  
BRANCH  17  18
HETATM   18  C   UNL     1      -9.983   3.181  72.270  1.00  0.00    -0.166 C  
BRANCH  18  19
HETATM   19  N   UNL     1      -8.771   2.660  71.595  1.00  0.00    -0.071 NA 
HETATM   20  C   UNL     1      -8.225   1.502  72.310  1.00  0.00    -0.045 C  
BRANCH  19  21
HETATM   21  C   UNL     1      -9.078   2.271  70.200  1.00  0.00    -0.107 C  
BRANCH  21  22
HETATM   22  C   UNL     1      -8.014   2.723  69.195  1.00  0.00    -0.059 C  
BRANCH  22  23
HETATM   23  C   UNL     1      -7.803   4.231  69.233  1.00  0.00    -0.057 C  
BRANCH  23  24
HETATM   24  O   UNL     1      -6.896   4.616  68.186  1.00  0.00    -0.053 OA 
BRANCH  24  25
HETATM   25  C   UNL     1      -7.463   5.218  67.111  1.00  0.00    -0.084 C  
HETATM   26  O   UNL     1      -8.081   4.661  66.218  1.00  0.00    -0.102 OA 
BRANCH  25  27
HETATM   27  C   UNL     1      -7.253   6.689  67.169  1.00  0.00    -0.081 A  
HETATM   28  C   UNL     1      -7.403   7.421  65.990  1.00  0.00    -0.075 A  
HETATM   29  C   UNL     1      -7.173   8.797  65.984  1.00  0.00    -0.088 A  
HETATM   30  C   UNL     1      -6.768   9.457  67.170  1.00  0.00    -0.076 A  
HETATM   31  C   UNL     1      -6.895   7.341  68.353  1.00  0.00    -0.073 A  
HETATM   32  C   UNL     1      -6.637   8.720  68.369  1.00  0.00    -0.060 A  
BRANCH  29  33
HETATM   33  O   UNL     1      -7.273   9.562  64.843  1.00  0.00    -0.102 OA 
HETATM   34  C   UNL     1      -6.091   9.686  64.058  1.00  0.00    -0.102 C  
ENDBRANCH  29  33
BRANCH  30  35
HETATM   35  O   UNL     1      -6.475  10.791  67.012  1.00  0.00    -0.072 OA 
HETATM   36  C   UNL     1      -5.629  11.416  67.967  1.00  0.00    -0.043 C  
ENDBRANCH  30  35
BRANCH  32  37
HETATM   37  O   UNL     1      -6.235   9.376  69.502  1.00  0.00    -0.039 OA 
HETATM   38  C   UNL     1      -7.216  10.058  70.275  1.00  0.00    -0.147 C  
ENDBRANCH  32  37
ENDBRANCH  25  27
ENDBRANCH  24  25
ENDBRANCH  23  24
ENDBRANCH  22  23
ENDBRANCH  21  22
ENDBRANCH  19  21
ENDBRANCH  18  19
ENDBRANCH  17  18
ENDBRANCH  15  17
ENDBRANCH  14  15
ENDBRANCH  13  14
ENDBRANCH  12  13
ENDBRANCH  11  12
ENDBRANCH   9  11
ENDBRANCH   5   9
BRANCH   8  39
HETATM   39  O   UNL     1     -11.187  13.049  68.780  1.00  0.00    -0.252 OA 
HETATM   40  C   UNL     1     -11.802  13.491  67.580  1.00  0.00    -0.368 C  
ENDBRANCH   8  39
BRANCH   7  41
HETATM   41  O   UNL     1     -12.388  15.208  70.265  1.00  0.00    -0.321 OA 
HETATM   42  C   UNL     1     -11.196  15.925  70.536  1.00  0.00    -0.377 C  
ENDBRANCH   7  41
ENDBRANCH   2   3
TORSDOF 21
ENDMDL
MODEL      273
REMARK 921   NORMALIZED FREE ENERGY PREDICTED BY IDOCK:   -2.65 KCAL/MOL
REMARK 922        TOTAL FREE ENERGY PREDICTED BY IDOCK:   -8.76 KCAL/MOL
REMARK 923 INTER-LIGAND FREE ENERGY PREDICTED BY IDOCK:   -7.39 KCAL/MOL
REMARK 924 INTRA-LIGAND FREE ENERGY PREDICTED BY IDOCK:   -1.37 KCAL/MOL
REMARK 927      BINDING AFFINITY PREDICTED BY RF-SCORE:    0.00 PKD
ROOT
HETATM    1  C   UNL     1      -9.256  15.125  65.940  1.00  0.00    -0.158 C  
HETATM    2  O   UNL     1      -7.985  15.705  66.226  1.00  0.00    -0.071 OA 
ENDROOT
BRANCH   2   3
HETATM    3  C   UNL     1      -7.895  17.072  66.139  1.00  0.00    -0.260 A  
HETATM    4  C   UNL     1      -9.046  17.866  66.227  1.00  0.00    -0.198 A  
HETATM    5  C   UNL     1      -8.982  19.257  66.142  1.00  0.00    -0.270 A  
HETATM    6  C   UNL     1      -7.745  19.869  65.974  1.00  0.00    -0.337 A  
HETATM    7  C   UNL     1      -6.628  17.687  66.008  1.00  0.00    -0.245 A  
HETATM    8  C   UNL     1      -6.567  19.100  65.914  1.00  0.00    -0.239 A  
BRANCH   5   9
HETATM    9  C   UNL     1     -10.268  19.992  66.233  1.00  0.00    -0.478 C  
HETATM   10  O   UNL     1     -11.105  19.959  65.342  1.00  0.00    -0.338 OA 
BRANCH   9  11
HETATM   11  O   UNL     1     -10.362  20.710  67.380  1.00  0.00    -0.221 OA 
BRANCH  11  12
HETATM   12  C   UNL     1     -10.297  19.916  68.578  1.00  0.00    -0.338 C  
BRANCH  12  13
HETATM   13  C   UNL     1      -8.970  20.169  69.287  1.00  0.00     0.454 C  
BRANCH  13  14
HETATM   14  C   UNL     1      -8.210  18.867  69.546  1.00  0.00     0.406 C  
BRANCH  14  15
HETATM   15  N   UNL     1      -6.749  18.993  69.359  1.00  0.00    -0.292 NA 
HETATM   16  C   UNL     1      -6.134  19.762  70.449  1.00  0.00    -0.277 C  
BRANCH  15  17
HETATM   17  C   UNL     1      -6.163  17.629  69.252  1.00  0.00    -0.239 C  
BRANCH  17  18
HETATM   18  C   UNL     1      -6.891  16.559  70.099  1.00  0.00     0.611 C  
BRANCH  18  19
HETATM   19  N   UNL     1      -7.681  15.556  69.346  1.00  0.00    -0.224 NA 
HETATM   20  C   UNL     1      -6.987  14.265  69.297  1.00  0.00    -0.116 C  
BRANCH  19  21
HETATM   21  C   UNL     1      -9.012  15.370  69.966  1.00  0.00     0.309 C  
BRANCH  21  22
HETATM   22  C   UNL     1     -10.159  15.350  68.950  1.00  0.00    -0.219 C  
BRANCH  22  23
HETATM   23  C   UNL     1     -11.519  15.433  69.630  1.00  0.00    -0.320 C  
BRANCH  23  24
HETATM   24  O   UNL     1     -12.389  14.425  69.089  1.00  0.00    -0.256 OA 
BRANCH  24  25
HETATM   25  C   UNL     1     -11.924  13.152  69.154  1.00  0.00    -0.281 C  
HETATM   26  O   UNL     1     -11.738  12.506  70.173  1.00  0.00    -0.280 OA 
BRANCH  25  27
HETATM   27  C   UNL     1     -11.684  12.617  67.788  1.00  0.00    -0.412 A  
HETATM   28  C   UNL     1     -10.828  11.524  67.652  1.00  0.00    -0.277 A  
HETATM   29  C   UNL     1     -10.535  11.014  66.386  1.00  0.00    -0.258 A  
HETATM   30  C   UNL     1     -11.094  11.613  65.231  1.00  0.00    -0.236 A  
HETATM   31  C   UNL     1     -12.273  13.187  66.654  1.00  0.00    -0.331 A  
HETATM   32  C   UNL     1     -11.980  12.706  65.369  1.00  0.00    -0.446 A  
BRANCH  29  33
HETATM   33  O   UNL     1      -9.671   9.960  66.191  1.00  0.00    -0.201 OA 
HETATM   34  C   UNL     1      -8.518   9.923  67.028  1.00  0.00    -0.121 C  
ENDBRANCH  29  33
BRANCH  30  35
HETATM   35  O   UNL     1     -10.652  11.085  64.041  1.00  0.00    -0.366 OA 
HETATM   36  C   UNL     1      -9.683  11.810  63.297  1.00  0.00    -0.324 C  
ENDBRANCH  30  35
BRANCH  32  37
HETATM   37  O   UNL     1     -12.499  13.277  64.238  1.00  0.00    -0.573 OA 
HETATM   38  C   UNL     1     -12.700  14.685  64.222  1.00  0.00     0.145 C  
ENDBRANCH  32  37
ENDBRANCH  25  27
ENDBRANCH  24  25
ENDBRANCH  23  24
ENDBRANCH  22  23
ENDBRANCH  21  22
ENDBRANCH  19  21
ENDBRANCH  18  19
ENDBRANCH  17  18
ENDBRANCH  15  17
ENDBRANCH  14  15
ENDBRANCH  13  14
ENDBRANCH  12  13
ENDBRANCH  11  12
ENDBRANCH   9  11
ENDBRANCH   5   9
BRANCH   8  39
HETATM   39  O   UNL     1      -5.462  19.905  65.763  1.00  0.00    -0.160 OA 
HETATM   40  C   UNL     1      -5.183  20.910  66.725  1.00  0.00    -0.189 C  
ENDBRANCH   8  39
BRANCH   7  41
HETATM   41  O   UNL     1      -5.428  17.028  65.947  1.00  0.00    -0.211 OA 
HETATM   42  C   UNL     1      -5.129  15.973  66.844  1.00  0.00     0.448 C  
ENDBRANCH   7  41
ENDBRANCH   2   3
TORSDOF 21
ENDMDL
MODEL      274
REMARK 921   NORMALIZED FREE ENERGY PREDICTED BY IDOCK:   -2.64 KCAL/MOL
REMARK 922        TOTAL FREE ENERGY PREDICTED BY IDOCK:   -8.74 KCAL/MOL
REMARK 923 INTER-LIGAND FREE ENERGY PREDICTED BY IDOCK:   -6.90 KCAL/MOL
REMARK 924 INTRA-LIGAND FREE ENERGY PREDICTED BY IDOCK:   -1.84 KCAL/MOL
REMARK 927      BINDING AFFINITY PREDICTED BY RF-SCORE:    0.00 PKD
ROOT
HETATM    1  C   UNL     1      -8.788   4.702  73.853  1.00  0.00    -0.104 C  
HETATM    2  O   UNL     1      -8.109   5.381  72.799  1.00  0.00    -0.108 OA 
ENDROOT
BRANCH   2   3
HETATM    3  C   UNL     1      -8.584   5.181  71.526  1.00  0.00    -0.129 A  
HETATM    4  C   UNL     1      -8.147   4.086  70.770  1.00  0.00    -0.063 A  
HETATM    5  C   UNL     1      -8.614   3.859  69.475  1.00  0.00    -0.107 A  
HETATM    6  C   UNL     1      -9.541   4.738  68.926  1.00  0.00    -0.229 A  
HETATM    7  C   UNL     1      -9.556   6.058  70.992  1.00  0.00    -0.172 A  
HETATM    8  C   UNL     1     -10.023   5.829  69.673  1.00  0.00    -0.189 A  
BRANCH   5   9
HETATM    9  C   UNL     1      -8.068   2.675  68.766  1.00  0.00    -0.052 C  
HETATM   10  O   UNL     1      -8.007   1.571  69.287  1.00  0.00    -0.045 OA 
BRANCH   9  11
HETATM   11  O   UNL     1      -7.625   2.987  67.523  1.00  0.00    -0.064 OA 
BRANCH  11  12
HETATM   12  C   UNL     1      -7.130   1.862  66.775  1.00  0.00    -0.047 C  
BRANCH  12  13
HETATM   13  C   UNL     1      -7.621   1.950  65.333  1.00  0.00    -0.070 C  
BRANCH  13  14
HETATM   14  C   UNL     1      -8.538   3.155  65.122  1.00  0.00    -0.104 C  
BRANCH  14  15
HETATM   15  N   UNL     1      -7.844   4.326  64.544  1.00  0.00    -0.084 NA 
HETATM   16  C   UNL     1      -7.734   4.217  63.083  1.00  0.00    -0.066 C  
BRANCH  15  17
HETATM   17  C   UNL     1      -8.573   5.559  64.948  1.00  0.00    -0.111 C  
BRANCH  17  18
HETATM   18  C   UNL     1      -7.660   6.786  65.181  1.00  0.00    -0.098 C  
BRANCH  18  19
HETATM   19  N   UNL     1      -6.956   6.840  66.484  1.00  0.00    -0.061 NA 
HETATM   20  C   UNL     1      -5.502   6.774  66.302  1.00  0.00    -0.018 C  
BRANCH  19  21
HETATM   21  C   UNL     1      -7.300   8.082  67.211  1.00  0.00    -0.089 C  
BRANCH  21  22
HETATM   22  C   UNL     1      -8.575   8.756  66.694  1.00  0.00    -0.120 C  
BRANCH  22  23
HETATM   23  C   UNL     1      -8.887  10.038  67.456  1.00  0.00    -0.128 C  
BRANCH  23  24
HETATM   24  O   UNL     1      -8.430  11.171  66.698  1.00  0.00    -0.153 OA 
BRANCH  24  25
HETATM   25  C   UNL     1      -7.807  12.142  67.412  1.00  0.00    -0.168 C  
HETATM   26  O   UNL     1      -6.897  11.978  68.208  1.00  0.00    -0.059 OA 
BRANCH  25  27
HETATM   27  C   UNL     1      -8.373  13.476  67.076  1.00  0.00    -0.096 A  
HETATM   28  C   UNL     1      -7.579  14.601  67.302  1.00  0.00    -0.173 A  
HETATM   29  C   UNL     1      -8.081  15.877  67.045  1.00  0.00    -0.230 A  
HETATM   30  C   UNL     1      -9.405  16.039  66.569  1.00  0.00    -0.268 A  
HETATM   31  C   UNL     1      -9.666  13.626  66.566  1.00  0.00    -0.298 A  
HETATM   32  C   UNL     1     -10.202  14.899  66.318  1.00  0.00    -0.294 A  
BRANCH  29  33
HETATM   33  O   UNL     1      -7.355  17.023  67.281  1.00  0.00    -0.146 OA 
HETATM   34  C   UNL     1      -7.161  17.380  68.647  1.00  0.00    -0.237 C  
ENDBRANCH  29  33
BRANCH  30  35
HETATM   35  O   UNL     1      -9.816  17.346  66.450  1.00  0.00    -0.281 OA 
HETATM   36  C   UNL     1     -10.595  17.908  67.496  1.00  0.00    -0.376 C  
ENDBRANCH  30  35
BRANCH  32  37
HETATM   37  O   UNL     1     -11.483  15.079  65.869  1.00  0.00    -0.321 OA 
HETATM   38  C   UNL     1     -12.301  13.931  65.677  1.00  0.00    -0.482 C  
ENDBRANCH  32  37
ENDBRANCH  25  27
ENDBRANCH  24  25
ENDBRANCH  23  24
ENDBRANCH  22  23
ENDBRANCH  21  22
ENDBRANCH  19  21
ENDBRANCH  18  19
ENDBRANCH  17  18
ENDBRANCH  15  17
ENDBRANCH  14  15
ENDBRANCH  13  14
ENDBRANCH  12  13
ENDBRANCH  11  12
ENDBRANCH   9  11
ENDBRANCH   5   9
BRANCH   8  39
HETATM   39  O   UNL     1     -10.939   6.555  68.947  1.00  0.00    -0.282 OA 
HETATM   40  C   UNL     1     -11.031   6.373  67.543  1.00  0.00    -0.364 C  
ENDBRANCH   8  39
BRANCH   7  41
HETATM   41  O   UNL     1     -10.090   7.141  71.639  1.00  0.00    -0.185 OA 
HETATM   42  C   UNL     1      -9.286   8.259  71.978  1.00  0.00    -0.230 C  
ENDBRANCH   7  41
ENDBRANCH   2   3
TORSDOF 21
ENDMDL
MODEL      275
REMARK 921   NORMALIZED FREE ENERGY PREDICTED BY IDOCK:   -2.55 KCAL/MOL
REMARK 922        TOTAL FREE ENERGY PREDICTED BY IDOCK:   -8.54 KCAL/MOL
REMARK 923 INTER-LIGAND FREE ENERGY PREDICTED BY IDOCK:   -7.29 KCAL/MOL
REMARK 924 INTRA-LIGAND FREE ENERGY PREDICTED BY IDOCK:   -1.25 KCAL/MOL
REMARK 927      BINDING AFFINITY PREDICTED BY RF-SCORE:    0.00 PKD
ROOT
HETATM    1  C   UNL     1     -13.655  14.087  72.334  1.00  0.00    -0.557 C  
HETATM    2  O   UNL     1     -13.210  12.785  71.958  1.00  0.00    -0.454 OA 
ENDROOT
BRANCH   2   3
HETATM    3  C   UNL     1     -12.538  12.681  70.765  1.00  0.00    -0.217 A  
HETATM    4  C   UNL     1     -12.089  13.830  70.102  1.00  0.00    -0.429 A  
HETATM    5  C   UNL     1     -11.403  13.752  68.889  1.00  0.00    -0.328 A  
HETATM    6  C   UNL     1     -11.154  12.504  68.331  1.00  0.00    -0.293 A  
HETATM    7  C   UNL     1     -12.256  11.405  70.226  1.00  0.00    -0.349 A  
HETATM    8  C   UNL     1     -11.565  11.329  68.989  1.00  0.00    -0.319 A  
BRANCH   5   9
HETATM    9  C   UNL     1     -10.988  15.037  68.273  1.00  0.00    -0.271 C  
HETATM   10  O   UNL     1     -11.500  15.466  67.249  1.00  0.00    -0.286 OA 
BRANCH   9  11
HETATM   11  O   UNL     1      -9.972  15.622  68.954  1.00  0.00    -0.196 OA 
BRANCH  11  12
HETATM   12  C   UNL     1      -8.663  15.189  68.544  1.00  0.00    -0.172 C  
BRANCH  12  13
HETATM   13  C   UNL     1      -7.930  14.580  69.735  1.00  0.00     0.327 C  
BRANCH  13  14
HETATM   14  C   UNL     1      -6.597  13.955  69.320  1.00  0.00    -0.113 C  
BRANCH  14  15
HETATM   15  N   UNL     1      -6.691  13.133  68.095  1.00  0.00    -0.096 NA 
HETATM   16  C   UNL     1      -5.359  12.784  67.581  1.00  0.00    -0.112 C  
BRANCH  15  17
HETATM   17  C   UNL     1      -7.498  11.920  68.394  1.00  0.00    -0.102 C  
BRANCH  17  18
HETATM   18  C   UNL     1      -7.157  11.249  69.746  1.00  0.00     0.052 C  
BRANCH  18  19
HETATM   19  N   UNL     1      -5.736  10.882  69.952  1.00  0.00    -0.058 NA 
HETATM   20  C   UNL     1      -5.214  11.469  71.191  1.00  0.00    -0.096 C  
BRANCH  19  21
HETATM   21  C   UNL     1      -5.582   9.411  70.007  1.00  0.00    -0.035 C  
BRANCH  21  22
HETATM   22  C   UNL     1      -5.819   8.825  71.402  1.00  0.00    -0.049 C  
BRANCH  22  23
HETATM   23  C   UNL     1      -5.528   7.331  71.446  1.00  0.00    -0.035 C  
BRANCH  23  24
HETATM   24  O   UNL     1      -6.438   6.690  72.356  1.00  0.00    -0.056 OA 
BRANCH  24  25
HETATM   25  C   UNL     1      -7.137   5.644  71.848  1.00  0.00    -0.086 C  
HETATM   26  O   UNL     1      -7.189   4.518  72.317  1.00  0.00    -0.066 OA 
BRANCH  25  27
HETATM   27  C   UNL     1      -7.874   6.058  70.625  1.00  0.00    -0.106 A  
HETATM   28  C   UNL     1      -9.178   6.531  70.773  1.00  0.00    -0.156 A  
HETATM   29  C   UNL     1      -9.926   6.889  69.651  1.00  0.00    -0.171 A  
HETATM   30  C   UNL     1      -9.372   6.759  68.354  1.00  0.00    -0.124 A  
HETATM   31  C   UNL     1      -7.305   5.967  69.350  1.00  0.00    -0.079 A  
HETATM   32  C   UNL     1      -8.043   6.302  68.205  1.00  0.00    -0.115 A  
BRANCH  29  33
HETATM   33  O   UNL     1     -11.228   7.329  69.735  1.00  0.00    -0.219 OA 
HETATM   34  C   UNL     1     -12.021   6.765  70.776  1.00  0.00    -0.378 C  
ENDBRANCH  29  33
BRANCH  30  35
HETATM   35  O   UNL     1     -10.240   7.048  67.328  1.00  0.00    -0.185 OA 
HETATM   36  C   UNL     1     -10.888   5.971  66.666  1.00  0.00    -0.213 C  
ENDBRANCH  30  35
BRANCH  32  37
HETATM   37  O   UNL     1      -7.531   6.173  66.942  1.00  0.00    -0.084 OA 
HETATM   38  C   UNL     1      -7.126   7.350  66.252  1.00  0.00    -0.070 C  
ENDBRANCH  32  37
ENDBRANCH  25  27
ENDBRANCH  24  25
ENDBRANCH  23  24
ENDBRANCH  22  23
ENDBRANCH  21  22
ENDBRANCH  19  21
ENDBRANCH  18  19
ENDBRANCH  17  18
ENDBRANCH  15  17
ENDBRANCH  14  15
ENDBRANCH  13  14
ENDBRANCH  12  13
ENDBRANCH  11  12
ENDBRANCH   9  11
ENDBRANCH   5   9
BRANCH   8  39
HETATM   39  O   UNL     1     -11.204  10.212  68.273  1.00  0.00    -0.255 OA 
HETATM   40  C   UNL     1     -10.693  10.351  66.956  1.00  0.00    -0.235 C  
ENDBRANCH   8  39
BRANCH   7  41
HETATM   41  O   UNL     1     -12.607  10.208  70.791  1.00  0.00    -0.316 OA 
HETATM   42  C   UNL     1     -12.611  10.039  72.199  1.00  0.00    -0.189 C  
ENDBRANCH   7  41
ENDBRANCH   2   3
TORSDOF 21
ENDMDL
MODEL      276
REMARK 921   NORMALIZED FREE ENERGY PREDICTED BY IDOCK:   -2.54 KCAL/MOL
REMARK 922        TOTAL FREE ENERGY PREDICTED BY IDOCK:   -8.51 KCAL/MOL
REMARK 923 INTER-LIGAND FREE ENERGY PREDICTED BY IDOCK:   -6.83 KCAL/MOL
REMARK 924 INTRA-LIGAND FREE ENERGY PREDICTED BY IDOCK:   -1.68 KCAL/MOL
REMARK 927      BINDING AFFINITY PREDICTED BY RF-SCORE:    0.00 PKD
ROOT
HETATM    1  C   UNL     1      -6.537  14.543  68.578  1.00  0.00    -0.093 C  
HETATM    2  O   UNL     1      -7.781  15.113  68.980  1.00  0.00    -0.148 OA 
ENDROOT
BRANCH   2   3
HETATM    3  C   UNL     1      -8.664  15.440  67.980  1.00  0.00    -0.160 A  
HETATM    4  C   UNL     1      -9.405  14.443  67.334  1.00  0.00    -0.199 A  
HETATM    5  C   UNL     1     -10.309  14.748  66.316  1.00  0.00    -0.305 A  
HETATM    6  C   UNL     1     -10.482  16.075  65.939  1.00  0.00    -0.373 A  
HETATM    7  C   UNL     1      -8.861  16.796  67.631  1.00  0.00    -0.205 A  
HETATM    8  C   UNL     1      -9.774  17.102  66.591  1.00  0.00    -0.276 A  
BRANCH   5   9
HETATM    9  C   UNL     1     -11.026  13.607  65.695  1.00  0.00    -0.290 C  
HETATM   10  O   UNL     1     -10.841  13.270  64.535  1.00  0.00    -0.351 OA 
BRANCH   9  11
HETATM   11  O   UNL     1     -11.913  13.040  66.550  1.00  0.00    -0.393 OA 
BRANCH  11  12
HETATM   12  C   UNL     1     -11.517  11.743  67.034  1.00  0.00    -0.298 C  
BRANCH  12  13
HETATM   13  C   UNL     1     -11.131  11.843  68.507  1.00  0.00    -0.290 C  
BRANCH  13  14
HETATM   14  C   UNL     1      -9.945  10.938  68.842  1.00  0.00    -0.196 C  
BRANCH  14  15
HETATM   15  N   UNL     1     -10.227   9.501  68.639  1.00  0.00    -0.188 NA 
HETATM   16  C   UNL     1      -8.992   8.743  68.395  1.00  0.00    -0.141 C  
BRANCH  15  17
HETATM   17  C   UNL     1     -10.960   8.986  69.826  1.00  0.00    -0.166 C  
BRANCH  17  18
HETATM   18  C   UNL     1     -10.110   8.087  70.756  1.00  0.00    -0.192 C  
BRANCH  18  19
HETATM   19  N   UNL     1      -9.667   8.699  72.030  1.00  0.00    -0.303 NA 
HETATM   20  C   UNL     1     -10.460   8.202  73.159  1.00  0.00    -0.039 C  
BRANCH  19  21
HETATM   21  C   UNL     1      -8.236   8.412  72.276  1.00  0.00    -0.140 C  
BRANCH  21  22
HETATM   22  C   UNL     1      -7.769   7.085  71.668  1.00  0.00    -0.093 C  
BRANCH  22  23
HETATM   23  C   UNL     1      -7.482   6.042  72.740  1.00  0.00    -0.094 C  
BRANCH  23  24
HETATM   24  O   UNL     1      -7.760   4.730  72.221  1.00  0.00    -0.086 OA 
BRANCH  24  25
HETATM   25  C   UNL     1      -9.028   4.531  71.779  1.00  0.00    -0.125 C  
HETATM   26  O   UNL     1     -10.044   4.609  72.450  1.00  0.00    -0.169 OA 
BRANCH  25  27
HETATM   27  C   UNL     1      -9.027   4.220  70.325  1.00  0.00    -0.147 A  
HETATM   28  C   UNL     1      -9.992   4.828  69.522  1.00  0.00    -0.287 A  
HETATM   29  C   UNL     1     -10.061   4.534  68.160  1.00  0.00     0.039 A  
HETATM   30  C   UNL     1      -9.160   3.602  67.587  1.00  0.00    -0.157 A  
HETATM   31  C   UNL     1      -8.107   3.331  69.757  1.00  0.00    -0.061 A  
HETATM   32  C   UNL     1      -8.167   3.003  68.395  1.00  0.00    -0.064 A  
BRANCH  29  33
HETATM   33  O   UNL     1     -11.013   5.078  67.329  1.00  0.00     0.136 OA 
HETATM   34  C   UNL     1     -10.909   6.476  67.076  1.00  0.00    -0.395 C  
ENDBRANCH  29  33
BRANCH  30  35
HETATM   35  O   UNL     1      -9.393   3.322  66.261  1.00  0.00    -0.164 OA 
HETATM   36  C   UNL     1      -8.618   3.998  65.281  1.00  0.00    -0.114 C  
ENDBRANCH  30  35
BRANCH  32  37
HETATM   37  O   UNL     1      -7.315   2.097  67.822  1.00  0.00    -0.053 OA 
HETATM   38  C   UNL     1      -6.045   2.554  67.371  1.00  0.00    -0.027 C  
ENDBRANCH  32  37
ENDBRANCH  25  27
ENDBRANCH  24  25
ENDBRANCH  23  24
ENDBRANCH  22  23
ENDBRANCH  21  22
ENDBRANCH  19  21
ENDBRANCH  18  19
ENDBRANCH  17  18
ENDBRANCH  15  17
ENDBRANCH  14  15
ENDBRANCH  13  14
ENDBRANCH  12  13
ENDBRANCH  11  12
ENDBRANCH   9  11
ENDBRANCH   5   9
BRANCH   8  39
HETATM   39  O   UNL     1     -10.108  18.333  66.074  1.00  0.00    -0.493 OA 
HETATM   40  C   UNL     1     -11.225  19.038  66.593  1.00  0.00     0.354 C  
ENDBRANCH   8  39
BRANCH   7  41
HETATM   41  O   UNL     1      -8.227  17.865  68.208  1.00  0.00    -0.272 OA 
HETATM   42  C   UNL     1      -8.842  18.602  69.252  1.00  0.00     0.192 C  
ENDBRANCH   7  41
ENDBRANCH   2   3
TORSDOF 21
ENDMDL
MODEL      277
REMARK 921   NORMALIZED FREE ENERGY PREDICTED BY IDOCK:   -2.53 KCAL/MOL
REMARK 922        TOTAL FREE ENERGY PREDICTED BY IDOCK:   -8.50 KCAL/MOL
REMARK 923 INTER-LIGAND FREE ENERGY PREDICTED BY IDOCK:   -6.60 KCAL/MOL
REMARK 924 INTRA-LIGAND FREE ENERGY PREDICTED BY IDOCK:   -1.90 KCAL/MOL
REMARK 927      BINDING AFFINITY PREDICTED BY RF-SCORE:    0.00 PKD
ROOT
HETATM    1  C   UNL     1     -12.110  13.947  64.223  1.00  0.00    -0.440 C  
HETATM    2  O   UNL     1     -11.387  14.947  64.938  1.00  0.00    -0.381 OA 
ENDROOT
BRANCH   2   3
HETATM    3  C   UNL     1     -10.630  14.523  66.002  1.00  0.00    -0.307 A  
HETATM    4  C   UNL     1     -10.044  13.251  65.992  1.00  0.00    -0.301 A  
HETATM    5  C   UNL     1      -9.269  12.795  67.060  1.00  0.00    -0.221 A  
HETATM    6  C   UNL     1      -9.070  13.628  68.155  1.00  0.00    -0.195 A  
HETATM    7  C   UNL     1     -10.401  15.392  67.094  1.00  0.00    -0.271 A  
HETATM    8  C   UNL     1      -9.620  14.923  68.180  1.00  0.00    -0.210 A  
BRANCH   5   9
HETATM    9  C   UNL     1      -8.711  11.426  66.943  1.00  0.00    -0.165 C  
HETATM   10  O   UNL     1      -7.942  11.106  66.048  1.00  0.00    -0.134 OA 
BRANCH   9  11
HETATM   11  O   UNL     1      -9.189  10.599  67.906  1.00  0.00    -0.145 OA 
BRANCH  11  12
HETATM   12  C   UNL     1     -10.109   9.603  67.423  1.00  0.00    -0.204 C  
BRANCH  12  13
HETATM   13  C   UNL     1      -9.597   8.213  67.791  1.00  0.00    -0.180 C  
BRANCH  13  14
HETATM   14  C   UNL     1     -10.359   7.116  67.048  1.00  0.00    -0.298 C  
BRANCH  14  15
HETATM   15  N   UNL     1      -9.664   5.811  67.054  1.00  0.00    -0.133 NA 
HETATM   16  C   UNL     1     -10.567   4.722  66.657  1.00  0.00    -0.050 C  
BRANCH  15  17
HETATM   17  C   UNL     1      -8.481   5.896  66.157  1.00  0.00    -0.132 C  
BRANCH  17  18
HETATM   18  C   UNL     1      -8.256   4.640  65.283  1.00  0.00    -0.117 C  
BRANCH  18  19
HETATM   19  N   UNL     1      -6.853   4.343  64.913  1.00  0.00    -0.048 NA 
HETATM   20  C   UNL     1      -5.980   5.489  65.188  1.00  0.00    -0.022 C  
BRANCH  19  21
HETATM   21  C   UNL     1      -6.356   3.163  65.656  1.00  0.00    -0.031 C  
BRANCH  21  22
HETATM   22  C   UNL     1      -7.462   2.172  66.033  1.00  0.00    -0.066 C  
BRANCH  22  23
HETATM   23  C   UNL     1      -7.312   1.674  67.465  1.00  0.00    -0.054 C  
BRANCH  23  24
HETATM   24  O   UNL     1      -7.724   2.705  68.378  1.00  0.00    -0.054 OA 
BRANCH  24  25
HETATM   25  C   UNL     1      -8.916   2.503  68.994  1.00  0.00    -0.114 C  
HETATM   26  O   UNL     1      -9.764   1.687  68.668  1.00  0.00    -0.153 OA 
BRANCH  25  27
HETATM   27  C   UNL     1      -9.056   3.408  70.164  1.00  0.00    -0.203 A  
HETATM   28  C   UNL     1      -9.233   2.832  71.423  1.00  0.00    -0.190 A  
HETATM   29  C   UNL     1      -9.413   3.640  72.546  1.00  0.00    -0.124 A  
HETATM   30  C   UNL     1      -9.434   5.050  72.413  1.00  0.00    -0.140 A  
HETATM   31  C   UNL     1      -9.032   4.801  70.032  1.00  0.00    -0.139 A  
HETATM   32  C   UNL     1      -9.232   5.635  71.142  1.00  0.00    -0.149 A  
BRANCH  29  33
HETATM   33  O   UNL     1      -9.626   3.125  73.805  1.00  0.00    -0.091 OA 
HETATM   34  C   UNL     1      -8.471   2.682  74.512  1.00  0.00    -0.067 C  
ENDBRANCH  29  33
BRANCH  30  35
HETATM   35  O   UNL     1      -9.719   5.731  73.573  1.00  0.00    -0.152 OA 
HETATM   36  C   UNL     1     -11.044   6.205  73.772  1.00  0.00     0.263 C  
ENDBRANCH  30  35
BRANCH  32  37
HETATM   37  O   UNL     1      -9.267   7.000  71.035  1.00  0.00    -0.155 OA 
HETATM   38  C   UNL     1      -8.035   7.711  71.031  1.00  0.00    -0.094 C  
ENDBRANCH  32  37
ENDBRANCH  25  27
ENDBRANCH  24  25
ENDBRANCH  23  24
ENDBRANCH  22  23
ENDBRANCH  21  22
ENDBRANCH  19  21
ENDBRANCH  18  19
ENDBRANCH  17  18
ENDBRANCH  15  17
ENDBRANCH  14  15
ENDBRANCH  13  14
ENDBRANCH  12  13
ENDBRANCH  11  12
ENDBRANCH   9  11
ENDBRANCH   5   9
BRANCH   8  39
HETATM   39  O   UNL     1      -9.287  15.576  69.344  1.00  0.00    -0.254 OA 
HETATM   40  C   UNL     1     -10.286  15.839  70.318  1.00  0.00    -0.060 C  
ENDBRANCH   8  39
BRANCH   7  41
HETATM   41  O   UNL     1     -10.886  16.668  67.208  1.00  0.00    -0.273 OA 
HETATM   42  C   UNL     1     -10.093  17.786  66.847  1.00  0.00    -0.342 C  
ENDBRANCH   7  41
ENDBRANCH   2   3
TORSDOF 21
ENDMDL
MODEL      278
REMARK 921   NORMALIZED FREE ENERGY PREDICTED BY IDOCK:   -2.49 KCAL/MOL
REMARK 922        TOTAL FREE ENERGY PREDICTED BY IDOCK:   -8.41 KCAL/MOL
REMARK 923 INTER-LIGAND FREE ENERGY PREDICTED BY IDOCK:   -7.32 KCAL/MOL
REMARK 924 INTRA-LIGAND FREE ENERGY PREDICTED BY IDOCK:   -1.09 KCAL/MOL
REMARK 927      BINDING AFFINITY PREDICTED BY RF-SCORE:    0.00 PKD
ROOT
HETATM    1  C   UNL     1      -7.753  17.349  67.817  1.00  0.00    -0.195 C  
HETATM    2  O   UNL     1      -7.991  16.719  66.560  1.00  0.00    -0.239 OA 
ENDROOT
BRANCH   2   3
HETATM    3  C   UNL     1      -8.723  15.558  66.578  1.00  0.00    -0.305 A  
HETATM    4  C   UNL     1      -8.283  14.454  67.319  1.00  0.00    -0.223 A  
HETATM    5  C   UNL     1      -9.008  13.262  67.355  1.00  0.00    -0.215 A  
HETATM    6  C   UNL     1     -10.199  13.173  66.643  1.00  0.00    -0.259 A  
HETATM    7  C   UNL     1      -9.952  15.491  65.882  1.00  0.00    -0.349 A  
HETATM    8  C   UNL     1     -10.683  14.276  65.914  1.00  0.00    -0.303 A  
BRANCH   5   9
HETATM    9  C   UNL     1      -8.437  12.156  68.162  1.00  0.00    -0.175 C  
HETATM   10  O   UNL     1      -7.340  12.235  68.696  1.00  0.00    -0.105 OA 
BRANCH   9  11
HETATM   11  O   UNL     1      -9.251  11.073  68.188  1.00  0.00    -0.153 OA 
BRANCH  11  12
HETATM   12  C   UNL     1      -8.880  10.081  69.162  1.00  0.00    -0.168 C  
BRANCH  12  13
HETATM   13  C   UNL     1      -9.304   8.699  68.672  1.00  0.00    -0.142 C  
BRANCH  13  14
HETATM   14  C   UNL     1      -8.314   8.132  67.654  1.00  0.00    -0.127 C  
BRANCH  14  15
HETATM   15  N   UNL     1      -8.903   7.926  66.314  1.00  0.00    -0.152 NA 
HETATM   16  C   UNL     1      -9.001   9.190  65.571  1.00  0.00    -0.205 C  
BRANCH  15  17
HETATM   17  C   UNL     1      -8.084   6.922  65.582  1.00  0.00    -0.129 C  
BRANCH  17  18
HETATM   18  C   UNL     1      -7.658   5.706  66.439  1.00  0.00    -0.091 C  
BRANCH  18  19
HETATM   19  N   UNL     1      -8.129   4.381  65.972  1.00  0.00    -0.102 NA 
HETATM   20  C   UNL     1      -7.056   3.384  66.044  1.00  0.00    -0.063 C  
BRANCH  19  21
HETATM   21  C   UNL     1      -9.278   3.921  66.784  1.00  0.00    -0.172 C  
BRANCH  21  22
HETATM   22  C   UNL     1      -9.073   2.532  67.396  1.00  0.00    -0.201 C  
BRANCH  22  23
HETATM   23  C   UNL     1      -9.574   2.466  68.833  1.00  0.00     0.003 C  
BRANCH  23  24
HETATM   24  O   UNL     1      -9.883   3.792  69.295  1.00  0.00    -0.119 OA 
BRANCH  24  25
HETATM   25  C   UNL     1      -9.405   4.111  70.524  1.00  0.00    -0.141 C  
HETATM   26  O   UNL     1      -8.579   3.477  71.161  1.00  0.00    -0.070 OA 
BRANCH  25  27
HETATM   27  C   UNL     1     -10.014   5.380  71.004  1.00  0.00    -0.261 A  
HETATM   28  C   UNL     1     -11.381   5.570  70.802  1.00  0.00     0.188 A  
HETATM   29  C   UNL     1     -11.990   6.762  71.194  1.00  0.00    -0.370 A  
HETATM   30  C   UNL     1     -11.221   7.794  71.785  1.00  0.00    -0.256 A  
HETATM   31  C   UNL     1      -9.256   6.377  71.627  1.00  0.00    -0.144 A  
HETATM   32  C   UNL     1      -9.840   7.593  72.012  1.00  0.00    -0.167 A  
BRANCH  29  33
HETATM   33  O   UNL     1     -13.327   7.017  70.987  1.00  0.00    -0.244 OA 
HETATM   34  C   UNL     1     -14.145   7.093  72.152  1.00  0.00    -0.045 C  
ENDBRANCH  29  33
BRANCH  30  35
HETATM   35  O   UNL     1     -11.914   8.955  72.035  1.00  0.00    -0.341 OA 
HETATM   36  C   UNL     1     -11.675  10.079  71.200  1.00  0.00    -0.387 C  
ENDBRANCH  30  35
BRANCH  32  37
HETATM   37  O   UNL     1      -9.113   8.608  72.575  1.00  0.00    -0.322 OA 
HETATM   38  C   UNL     1      -8.206   8.290  73.624  1.00  0.00    -0.192 C  
ENDBRANCH  32  37
ENDBRANCH  25  27
ENDBRANCH  24  25
ENDBRANCH  23  24
ENDBRANCH  22  23
ENDBRANCH  21  22
ENDBRANCH  19  21
ENDBRANCH  18  19
ENDBRANCH  17  18
ENDBRANCH  15  17
ENDBRANCH  14  15
ENDBRANCH  13  14
ENDBRANCH  12  13
ENDBRANCH  11  12
ENDBRANCH   9  11
ENDBRANCH   5   9
BRANCH   8  39
HETATM   39  O   UNL     1     -11.878  13.975  65.303  1.00  0.00    -0.332 OA 
HETATM   40  C   UNL     1     -13.011  13.645  66.091  1.00  0.00     0.132 C  
ENDBRANCH   8  39
BRANCH   7  41
HETATM   41  O   UNL     1     -10.509  16.508  65.153  1.00  0.00    -0.637 OA 
HETATM   42  C   UNL     1     -11.347  16.235  64.042  1.00  0.00     0.456 C  
ENDBRANCH   7  41
ENDBRANCH   2   3
TORSDOF 21
ENDMDL
MODEL      279
REMARK 921   NORMALIZED FREE ENERGY PREDICTED BY IDOCK:   -2.44 KCAL/MOL
REMARK 922        TOTAL FREE ENERGY PREDICTED BY IDOCK:   -8.30 KCAL/MOL
REMARK 923 INTER-LIGAND FREE ENERGY PREDICTED BY IDOCK:   -7.09 KCAL/MOL
REMARK 924 INTRA-LIGAND FREE ENERGY PREDICTED BY IDOCK:   -1.21 KCAL/MOL
REMARK 927      BINDING AFFINITY PREDICTED BY RF-SCORE:    0.00 PKD
ROOT
HETATM    1  C   UNL     1      -6.417  14.429  68.675  1.00  0.00    -0.087 C  
HETATM    2  O   UNL     1      -7.660  15.060  68.976  1.00  0.00    -0.136 OA 
ENDROOT
BRANCH   2   3
HETATM    3  C   UNL     1      -8.420  15.473  67.910  1.00  0.00    -0.143 A  
HETATM    4  C   UNL     1      -9.267  14.573  67.252  1.00  0.00    -0.213 A  
HETATM    5  C   UNL     1     -10.050  14.967  66.166  1.00  0.00    -0.316 A  
HETATM    6  C   UNL     1      -9.992  16.287  65.733  1.00  0.00    -0.353 A  
HETATM    7  C   UNL     1      -8.383  16.827  67.502  1.00  0.00    -0.188 A  
HETATM    8  C   UNL     1      -9.174  17.222  66.394  1.00  0.00    -0.253 A  
BRANCH   5   9
HETATM    9  C   UNL     1     -10.898  13.923  65.540  1.00  0.00    -0.306 C  
HETATM   10  O   UNL     1     -10.897  13.714  64.335  1.00  0.00    -0.396 OA 
BRANCH   9  11
HETATM   11  O   UNL     1     -11.675  13.286  66.451  1.00  0.00    -0.338 OA 
BRANCH  11  12
HETATM   12  C   UNL     1     -11.100  12.074  66.970  1.00  0.00    -0.298 C  
BRANCH  12  13
HETATM   13  C   UNL     1     -10.602  11.209  65.815  1.00  0.00    -0.289 C  
BRANCH  13  14
HETATM   14  C   UNL     1     -10.724   9.718  66.133  1.00  0.00     0.185 C  
BRANCH  14  15
HETATM   15  N   UNL     1      -9.918   9.298  67.299  1.00  0.00    -0.192 NA 
HETATM   16  C   UNL     1     -10.489   8.109  67.945  1.00  0.00    -0.197 C  
BRANCH  15  17
HETATM   17  C   UNL     1      -8.519   9.061  66.852  1.00  0.00    -0.119 C  
BRANCH  17  18
HETATM   18  C   UNL     1      -8.088   7.575  66.884  1.00  0.00    -0.116 C  
BRANCH  18  19
HETATM   19  N   UNL     1      -8.036   6.882  65.575  1.00  0.00    -0.119 NA 
HETATM   20  C   UNL     1      -6.651   6.706  65.126  1.00  0.00    -0.046 C  
BRANCH  19  21
HETATM   21  C   UNL     1      -8.692   5.558  65.661  1.00  0.00    -0.153 C  
BRANCH  21  22
HETATM   22  C   UNL     1      -8.554   4.899  67.037  1.00  0.00    -0.104 C  
BRANCH  22  23
HETATM   23  C   UNL     1      -7.792   3.582  66.960  1.00  0.00    -0.080 C  
BRANCH  23  24
HETATM   24  O   UNL     1      -7.323   3.220  68.270  1.00  0.00    -0.050 OA 
BRANCH  24  25
HETATM   25  C   UNL     1      -6.590   4.164  68.912  1.00  0.00    -0.045 C  
HETATM   26  O   UNL     1      -5.557   4.672  68.505  1.00  0.00    -0.014 OA 
BRANCH  25  27
HETATM   27  C   UNL     1      -7.232   4.533  70.201  1.00  0.00    -0.049 A  
HETATM   28  C   UNL     1      -7.192   5.870  70.596  1.00  0.00    -0.083 A  
HETATM   29  C   UNL     1      -7.742   6.259  71.818  1.00  0.00    -0.100 A  
HETATM   30  C   UNL     1      -8.330   5.294  72.673  1.00  0.00    -0.114 A  
HETATM   31  C   UNL     1      -7.850   3.582  71.020  1.00  0.00    -0.051 A  
HETATM   32  C   UNL     1      -8.392   3.943  72.263  1.00  0.00    -0.093 A  
BRANCH  29  33
HETATM   33  O   UNL     1      -7.700   7.557  72.273  1.00  0.00    -0.085 OA 
HETATM   34  C   UNL     1      -8.424   8.519  71.511  1.00  0.00    -0.170 C  
ENDBRANCH  29  33
BRANCH  30  35
HETATM   35  O   UNL     1      -8.745   5.783  73.889  1.00  0.00    -0.118 OA 
HETATM   36  C   UNL     1     -10.119   6.102  74.057  1.00  0.00    -0.274 C  
ENDBRANCH  30  35
BRANCH  32  37
HETATM   37  O   UNL     1      -8.954   3.025  73.110  1.00  0.00    -0.082 OA 
HETATM   38  C   UNL     1     -10.299   2.623  72.875  1.00  0.00    -0.154 C  
ENDBRANCH  32  37
ENDBRANCH  25  27
ENDBRANCH  24  25
ENDBRANCH  23  24
ENDBRANCH  22  23
ENDBRANCH  21  22
ENDBRANCH  19  21
ENDBRANCH  18  19
ENDBRANCH  17  18
ENDBRANCH  15  17
ENDBRANCH  14  15
ENDBRANCH  13  14
ENDBRANCH  12  13
ENDBRANCH  11  12
ENDBRANCH   9  11
ENDBRANCH   5   9
BRANCH   8  39
HETATM   39  O   UNL     1      -9.281  18.465  65.814  1.00  0.00    -0.431 OA 
HETATM   40  C   UNL     1     -10.477  19.213  65.962  1.00  0.00    -0.467 C  
ENDBRANCH   8  39
BRANCH   7  41
HETATM   41  O   UNL     1      -7.626  17.811  68.082  1.00  0.00    -0.232 OA 
HETATM   42  C   UNL     1      -8.228  18.826  68.868  1.00  0.00    -0.220 C  
ENDBRANCH   7  41
ENDBRANCH   2   3
TORSDOF 21
ENDMDL
MODEL      280
REMARK 921   NORMALIZED FREE ENERGY PREDICTED BY IDOCK:   -2.43 KCAL/MOL
REMARK 922        TOTAL FREE ENERGY PREDICTED BY IDOCK:   -8.27 KCAL/MOL
REMARK 923 INTER-LIGAND FREE ENERGY PREDICTED BY IDOCK:   -5.99 KCAL/MOL
REMARK 924 INTRA-LIGAND FREE ENERGY PREDICTED BY IDOCK:   -2.28 KCAL/MOL
REMARK 927      BINDING AFFINITY PREDICTED BY RF-SCORE:    0.00 PKD
ROOT
HETATM    1  C   UNL     1     -13.688   6.714  71.804  1.00  0.00     0.080 C  
HETATM    2  O   UNL     1     -12.348   6.519  71.356  1.00  0.00    -0.324 OA 
ENDROOT
BRANCH   2   3
HETATM    3  C   UNL     1     -11.571   7.643  71.222  1.00  0.00    -0.278 A  
HETATM    4  C   UNL     1     -12.104   8.812  70.664  1.00  0.00    -0.011 A  
HETATM    5  C   UNL     1     -11.336   9.968  70.517  1.00  0.00    -0.409 A  
HETATM    6  C   UNL     1     -10.013   9.960  70.943  1.00  0.00     0.100 A  
HETATM    7  C   UNL     1     -10.238   7.637  71.695  1.00  0.00    -0.185 A  
HETATM    8  C   UNL     1      -9.458   8.811  71.537  1.00  0.00    -0.271 A  
BRANCH   5   9
HETATM    9  C   UNL     1     -12.004  11.139  69.898  1.00  0.00    -0.363 C  
HETATM   10  O   UNL     1     -12.148  12.199  70.491  1.00  0.00    -0.364 OA 
BRANCH   9  11
HETATM   11  O   UNL     1     -12.452  10.867  68.648  1.00  0.00    -0.418 OA 
BRANCH  11  12
HETATM   12  C   UNL     1     -11.564  11.293  67.599  1.00  0.00    -0.210 C  
BRANCH  12  13
HETATM   13  C   UNL     1     -10.969  10.071  66.905  1.00  0.00    -0.070 C  
BRANCH  13  14
HETATM   14  C   UNL     1      -9.521   9.829  67.331  1.00  0.00    -0.152 C  
BRANCH  14  15
HETATM   15  N   UNL     1      -8.603   9.605  66.194  1.00  0.00    -0.126 NA 
HETATM   16  C   UNL     1      -8.783  10.625  65.152  1.00  0.00    -0.186 C  
BRANCH  15  17
HETATM   17  C   UNL     1      -7.206   9.583  66.705  1.00  0.00    -0.086 C  
BRANCH  17  18
HETATM   18  C   UNL     1      -6.463  10.933  66.574  1.00  0.00    -0.128 C  
BRANCH  18  19
HETATM   19  N   UNL     1      -6.540  11.838  67.745  1.00  0.00    -0.068 NA 
HETATM   20  C   UNL     1      -5.407  11.626  68.651  1.00  0.00    -0.042 C  
BRANCH  19  21
HETATM   21  C   UNL     1      -6.559  13.252  67.310  1.00  0.00     0.107 C  
BRANCH  21  22
HETATM   22  C   UNL     1      -7.544  14.119  68.100  1.00  0.00    -0.136 C  
BRANCH  22  23
HETATM   23  C   UNL     1      -8.764  13.324  68.547  1.00  0.00    -0.059 C  
BRANCH  23  24
HETATM   24  O   UNL     1      -9.947  14.123  68.376  1.00  0.00    -0.224 OA 
BRANCH  24  25
HETATM   25  C   UNL     1     -10.085  15.160  69.240  1.00  0.00    -0.246 C  
HETATM   26  O   UNL     1     -10.022  15.095  70.457  1.00  0.00     0.061 OA 
BRANCH  25  27
HETATM   27  C   UNL     1     -10.307  16.429  68.497  1.00  0.00    -0.270 A  
HETATM   28  C   UNL     1     -10.585  16.350  67.131  1.00  0.00    -0.276 A  
HETATM   29  C   UNL     1     -10.756  17.513  66.381  1.00  0.00    -0.083 A  
HETATM   30  C   UNL     1     -10.632  18.783  66.997  1.00  0.00    -0.420 A  
HETATM   31  C   UNL     1     -10.225  17.678  69.120  1.00  0.00    -0.238 A  
HETATM   32  C   UNL     1     -10.373  18.864  68.384  1.00  0.00    -0.298 A  
BRANCH  29  33
HETATM   33  O   UNL     1     -10.998  17.495  65.026  1.00  0.00    -0.754 OA 
HETATM   34  C   UNL     1     -10.815  16.245  64.367  1.00  0.00     0.324 C  
ENDBRANCH  29  33
BRANCH  30  35
HETATM   35  O   UNL     1     -10.723  19.849  66.135  1.00  0.00    -0.442 OA 
HETATM   36  C   UNL     1      -9.665  20.065  65.211  1.00  0.00     0.685 C  
ENDBRANCH  30  35
BRANCH  32  37
HETATM   37  O   UNL     1     -10.246  20.101  68.957  1.00  0.00    -0.349 OA 
HETATM   38  C   UNL     1      -9.838  20.178  70.318  1.00  0.00     0.899 C  
ENDBRANCH  32  37
ENDBRANCH  25  27
ENDBRANCH  24  25
ENDBRANCH  23  24
ENDBRANCH  22  23
ENDBRANCH  21  22
ENDBRANCH  19  21
ENDBRANCH  18  19
ENDBRANCH  17  18
ENDBRANCH  15  17
ENDBRANCH  14  15
ENDBRANCH  13  14
ENDBRANCH  12  13
ENDBRANCH  11  12
ENDBRANCH   9  11
ENDBRANCH   5   9
BRANCH   8  39
HETATM   39  O   UNL     1      -8.148   9.027  71.897  1.00  0.00    -0.359 OA 
HETATM   40  C   UNL     1      -7.159   9.201  70.894  1.00  0.00    -0.105 C  
ENDBRANCH   8  39
BRANCH   7  41
HETATM   41  O   UNL     1      -9.611   6.575  72.291  1.00  0.00    -0.149 OA 
HETATM   42  C   UNL     1      -9.244   6.618  73.659  1.00  0.00    -0.143 C  
ENDBRANCH   7  41
ENDBRANCH   2   3
TORSDOF 21
ENDMDL
MODEL      281
REMARK 921   NORMALIZED FREE ENERGY PREDICTED BY IDOCK:   -2.42 KCAL/MOL
REMARK 922        TOTAL FREE ENERGY PREDICTED BY IDOCK:   -8.24 KCAL/MOL
REMARK 923 INTER-LIGAND FREE ENERGY PREDICTED BY IDOCK:   -7.40 KCAL/MOL
REMARK 924 INTRA-LIGAND FREE ENERGY PREDICTED BY IDOCK:   -0.84 KCAL/MOL
REMARK 927      BINDING AFFINITY PREDICTED BY RF-SCORE:    0.00 PKD
ROOT
HETATM    1  C   UNL     1      -5.189   4.343  64.499  1.00  0.00    -0.012 C  
HETATM    2  O   UNL     1      -6.008   5.439  64.899  1.00  0.00    -0.021 OA 
ENDROOT
BRANCH   2   3
HETATM    3  C   UNL     1      -7.049   5.157  65.748  1.00  0.00    -0.068 A  
HETATM    4  C   UNL     1      -7.226   3.860  66.247  1.00  0.00    -0.064 A  
HETATM    5  C   UNL     1      -8.275   3.546  67.111  1.00  0.00    -0.091 A  
HETATM    6  C   UNL     1      -9.162   4.547  67.492  1.00  0.00    -0.156 A  
HETATM    7  C   UNL     1      -7.922   6.191  66.160  1.00  0.00    -0.108 A  
HETATM    8  C   UNL     1      -8.992   5.867  67.032  1.00  0.00    -0.116 A  
BRANCH   5   9
HETATM    9  C   UNL     1      -8.370   2.136  67.563  1.00  0.00    -0.071 C  
HETATM   10  O   UNL     1      -9.383   1.467  67.413  1.00  0.00    -0.109 OA 
BRANCH   9  11
HETATM   11  O   UNL     1      -7.235   1.723  68.179  1.00  0.00    -0.042 OA 
BRANCH  11  12
HETATM   12  C   UNL     1      -7.268   1.842  69.613  1.00  0.00    -0.036 C  
BRANCH  12  13
HETATM   13  C   UNL     1      -8.688   2.166  70.066  1.00  0.00    -0.112 C  
BRANCH  13  14
HETATM   14  C   UNL     1      -8.722   3.385  70.988  1.00  0.00    -0.075 C  
BRANCH  14  15
HETATM   15  N   UNL     1      -9.825   3.347  71.972  1.00  0.00    -0.163 NA 
HETATM   16  C   UNL     1      -9.598   2.315  72.993  1.00  0.00    -0.086 C  
BRANCH  15  17
HETATM   17  C   UNL     1      -9.969   4.697  72.580  1.00  0.00    -0.163 C  
BRANCH  17  18
HETATM   18  C   UNL     1      -8.701   5.202  73.308  1.00  0.00    -0.115 C  
BRANCH  18  19
HETATM   19  N   UNL     1      -8.179   6.520  72.873  1.00  0.00    -0.109 NA 
HETATM   20  C   UNL     1      -6.860   6.385  72.246  1.00  0.00    -0.069 C  
BRANCH  19  21
HETATM   21  C   UNL     1      -9.110   7.159  71.917  1.00  0.00    -0.134 C  
BRANCH  21  22
HETATM   22  C   UNL     1      -9.611   8.531  72.380  1.00  0.00    -0.356 C  
BRANCH  22  23
HETATM   23  C   UNL     1      -9.980   9.425  71.204  1.00  0.00    -0.241 C  
BRANCH  23  24
HETATM   24  O   UNL     1     -11.284   9.066  70.717  1.00  0.00    -0.253 OA 
BRANCH  24  25
HETATM   25  C   UNL     1     -12.268   9.970  70.953  1.00  0.00    -0.346 C  
HETATM   26  O   UNL     1     -13.271   9.782  71.622  1.00  0.00    -0.371 OA 
BRANCH  25  27
HETATM   27  C   UNL     1     -11.952  11.265  70.295  1.00  0.00    -0.466 A  
HETATM   28  C   UNL     1     -11.071  11.253  69.212  1.00  0.00    -0.314 A  
HETATM   29  C   UNL     1     -10.708  12.448  68.589  1.00  0.00    -0.232 A  
HETATM   30  C   UNL     1     -11.218  13.681  69.062  1.00  0.00    -0.273 A  
HETATM   31  C   UNL     1     -12.493  12.475  70.739  1.00  0.00    -0.357 A  
HETATM   32  C   UNL     1     -12.128  13.692  70.144  1.00  0.00    -0.361 A  
BRANCH  29  33
HETATM   33  O   UNL     1      -9.817  12.498  67.541  1.00  0.00    -0.194 OA 
HETATM   34  C   UNL     1      -9.706  11.320  66.747  1.00  0.00    -0.193 C  
ENDBRANCH  29  33
BRANCH  30  35
HETATM   35  O   UNL     1     -10.709  14.792  68.432  1.00  0.00    -0.233 OA 
HETATM   36  C   UNL     1     -11.495  15.420  67.428  1.00  0.00    -0.195 C  
ENDBRANCH  30  35
BRANCH  32  37
HETATM   37  O   UNL     1     -12.601  14.896  70.592  1.00  0.00    -0.323 OA 
HETATM   38  C   UNL     1     -11.922  15.532  71.669  1.00  0.00    -0.408 C  
ENDBRANCH  32  37
ENDBRANCH  25  27
ENDBRANCH  24  25
ENDBRANCH  23  24
ENDBRANCH  22  23
ENDBRANCH  21  22
ENDBRANCH  19  21
ENDBRANCH  18  19
ENDBRANCH  17  18
ENDBRANCH  15  17
ENDBRANCH  14  15
ENDBRANCH  13  14
ENDBRANCH  12  13
ENDBRANCH  11  12
ENDBRANCH   9  11
ENDBRANCH   5   9
BRANCH   8  39
HETATM   39  O   UNL     1      -9.966   6.694  67.542  1.00  0.00    -0.123 OA 
HETATM   40  C   UNL     1     -11.214   6.809  66.876  1.00  0.00    -0.047 C  
ENDBRANCH   8  39
BRANCH   7  41
HETATM   41  O   UNL     1      -7.837   7.502  65.775  1.00  0.00    -0.095 OA 
HETATM   42  C   UNL     1      -8.053   7.883  64.426  1.00  0.00    -0.103 C  
ENDBRANCH   7  41
ENDBRANCH   2   3
TORSDOF 21
ENDMDL
MODEL      282
REMARK 921   NORMALIZED FREE ENERGY PREDICTED BY IDOCK:   -2.40 KCAL/MOL
REMARK 922        TOTAL FREE ENERGY PREDICTED BY IDOCK:   -8.21 KCAL/MOL
REMARK 923 INTER-LIGAND FREE ENERGY PREDICTED BY IDOCK:   -7.08 KCAL/MOL
REMARK 924 INTRA-LIGAND FREE ENERGY PREDICTED BY IDOCK:   -1.14 KCAL/MOL
REMARK 927      BINDING AFFINITY PREDICTED BY RF-SCORE:    0.00 PKD
ROOT
HETATM    1  C   UNL     1      -6.812  17.786  65.623  1.00  0.00    -0.074 C  
HETATM    2  O   UNL     1      -6.770  17.520  67.023  1.00  0.00    -0.156 OA 
ENDROOT
BRANCH   2   3
HETATM    3  C   UNL     1      -7.730  16.674  67.522  1.00  0.00    -0.165 A  
HETATM    4  C   UNL     1      -7.789  15.341  67.097  1.00  0.00    -0.249 A  
HETATM    5  C   UNL     1      -8.754  14.460  67.588  1.00  0.00    -0.191 A  
HETATM    6  C   UNL     1      -9.672  14.916  68.527  1.00  0.00    -0.215 A  
HETATM    7  C   UNL     1      -8.634  17.138  68.505  1.00  0.00    -0.258 A  
HETATM    8  C   UNL     1      -9.618  16.242  68.997  1.00  0.00    -0.257 A  
BRANCH   5   9
HETATM    9  C   UNL     1      -8.728  13.076  67.055  1.00  0.00    -0.193 C  
HETATM   10  O   UNL     1      -7.690  12.442  66.929  1.00  0.00    -0.099 OA 
BRANCH   9  11
HETATM   11  O   UNL     1      -9.964  12.645  66.700  1.00  0.00    -0.232 OA 
BRANCH  11  12
HETATM   12  C   UNL     1     -10.308  11.350  67.225  1.00  0.00    -0.198 C  
BRANCH  12  13
HETATM   13  C   UNL     1      -9.606  11.138  68.563  1.00  0.00    -0.193 C  
BRANCH  13  14
HETATM   14  C   UNL     1     -10.579  10.659  69.642  1.00  0.00    -0.217 C  
BRANCH  14  15
HETATM   15  N   UNL     1     -10.844   9.206  69.591  1.00  0.00    -0.223 NA 
HETATM   16  C   UNL     1      -9.594   8.435  69.527  1.00  0.00    -0.170 C  
BRANCH  15  17
HETATM   17  C   UNL     1     -11.660   8.828  70.775  1.00  0.00    -0.251 C  
BRANCH  17  18
HETATM   18  C   UNL     1     -11.821   7.302  70.973  1.00  0.00    -0.318 C  
BRANCH  18  19
HETATM   19  N   UNL     1     -11.501   6.780  72.323  1.00  0.00    -0.270 NA 
HETATM   20  C   UNL     1     -12.254   5.555  72.608  1.00  0.00     0.158 C  
BRANCH  19  21
HETATM   21  C   UNL     1     -10.052   6.501  72.442  1.00  0.00    -0.171 C  
BRANCH  21  22
HETATM   22  C   UNL     1      -9.666   5.088  71.994  1.00  0.00    -0.214 C  
BRANCH  22  23
HETATM   23  C   UNL     1      -8.185   4.989  71.649  1.00  0.00    -0.115 C  
BRANCH  23  24
HETATM   24  O   UNL     1      -8.013   5.113  70.228  1.00  0.00    -0.079 OA 
BRANCH  24  25
HETATM   25  C   UNL     1      -8.630   4.166  69.476  1.00  0.00    -0.072 C  
HETATM   26  O   UNL     1      -9.153   3.146  69.894  1.00  0.00    -0.097 OA 
BRANCH  25  27
HETATM   27  C   UNL     1      -8.609   4.549  68.040  1.00  0.00    -0.109 A  
HETATM   28  C   UNL     1      -7.923   5.709  67.679  1.00  0.00    -0.101 A  
HETATM   29  C   UNL     1      -7.912   6.134  66.351  1.00  0.00    -0.106 A  
HETATM   30  C   UNL     1      -8.611   5.399  65.362  1.00  0.00    -0.150 A  
HETATM   31  C   UNL     1      -9.266   3.795  67.062  1.00  0.00    -0.202 A  
HETATM   32  C   UNL     1      -9.287   4.212  65.722  1.00  0.00    -0.162 A  
BRANCH  29  33
HETATM   33  O   UNL     1      -7.281   7.289  65.945  1.00  0.00    -0.070 OA 
HETATM   34  C   UNL     1      -7.707   8.496  66.568  1.00  0.00    -0.092 C  
ENDBRANCH  29  33
BRANCH  30  35
HETATM   35  O   UNL     1      -8.609   5.973  64.113  1.00  0.00     0.029 OA 
HETATM   36  C   UNL     1      -7.587   5.600  63.199  1.00  0.00    -0.077 C  
ENDBRANCH  30  35
BRANCH  32  37
HETATM   37  O   UNL     1      -9.966   3.523  64.753  1.00  0.00    -0.170 OA 
HETATM   38  C   UNL     1      -9.483   2.241  64.369  1.00  0.00    -0.133 C  
ENDBRANCH  32  37
ENDBRANCH  25  27
ENDBRANCH  24  25
ENDBRANCH  23  24
ENDBRANCH  22  23
ENDBRANCH  21  22
ENDBRANCH  19  21
ENDBRANCH  18  19
ENDBRANCH  17  18
ENDBRANCH  15  17
ENDBRANCH  14  15
ENDBRANCH  13  14
ENDBRANCH  12  13
ENDBRANCH  11  12
ENDBRANCH   9  11
ENDBRANCH   5   9
BRANCH   8  39
HETATM   39  O   UNL     1     -10.603  16.475  69.928  1.00  0.00    -0.294 OA 
HETATM   40  C   UNL     1     -11.659  15.540  70.087  1.00  0.00    -0.337 C  
ENDBRANCH   8  39
BRANCH   7  41
HETATM   41  O   UNL     1      -8.658  18.403  69.028  1.00  0.00    -0.191 OA 
HETATM   42  C   UNL     1      -9.488  19.408  68.470  1.00  0.00    -0.389 C  
ENDBRANCH   7  41
ENDBRANCH   2   3
TORSDOF 21
ENDMDL
MODEL      283
REMARK 921   NORMALIZED FREE ENERGY PREDICTED BY IDOCK:   -2.32 KCAL/MOL
REMARK 922        TOTAL FREE ENERGY PREDICTED BY IDOCK:   -8.03 KCAL/MOL
REMARK 923 INTER-LIGAND FREE ENERGY PREDICTED BY IDOCK:   -5.75 KCAL/MOL
REMARK 924 INTRA-LIGAND FREE ENERGY PREDICTED BY IDOCK:   -2.28 KCAL/MOL
REMARK 927      BINDING AFFINITY PREDICTED BY RF-SCORE:    0.00 PKD
ROOT
HETATM    1  C   UNL     1     -11.066  16.214  70.172  1.00  0.00    -0.371 C  
HETATM    2  O   UNL     1     -12.313  15.534  70.041  1.00  0.00    -0.369 OA 
ENDROOT
BRANCH   2   3
HETATM    3  C   UNL     1     -12.276  14.162  70.065  1.00  0.00    -0.357 A  
HETATM    4  C   UNL     1     -11.595  13.454  69.067  1.00  0.00    -0.358 A  
HETATM    5  C   UNL     1     -11.541  12.059  69.068  1.00  0.00    -0.370 A  
HETATM    6  C   UNL     1     -12.173  11.358  70.089  1.00  0.00    -0.401 A  
HETATM    7  C   UNL     1     -12.888  13.460  71.129  1.00  0.00    -0.291 A  
HETATM    8  C   UNL     1     -12.838  12.043  71.124  1.00  0.00    -0.235 A  
BRANCH   5   9
HETATM    9  C   UNL     1     -10.804  11.418  67.952  1.00  0.00    -0.225 C  
HETATM   10  O   UNL     1     -11.374  10.856  67.027  1.00  0.00    -0.364 OA 
BRANCH   9  11
HETATM   11  O   UNL     1      -9.461  11.502  68.116  1.00  0.00    -0.171 OA 
BRANCH  11  12
HETATM   12  C   UNL     1      -8.803  10.228  68.241  1.00  0.00    -0.126 C  
BRANCH  12  13
HETATM   13  C   UNL     1      -7.874  10.248  69.452  1.00  0.00    -0.157 C  
BRANCH  13  14
HETATM   14  C   UNL     1      -8.289   9.214  70.498  1.00  0.00    -0.194 C  
BRANCH  14  15
HETATM   15  N   UNL     1      -7.201   8.281  70.865  1.00  0.00    -0.054 NA 
HETATM   16  C   UNL     1      -5.881   8.893  70.665  1.00  0.00    -0.033 C  
BRANCH  15  17
HETATM   17  C   UNL     1      -7.398   7.850  72.275  1.00  0.00    -0.089 C  
BRANCH  17  18
HETATM   18  C   UNL     1      -8.863   7.506  72.634  1.00  0.00    -0.139 C  
BRANCH  18  19
HETATM   19  N   UNL     1      -9.105   6.140  73.155  1.00  0.00    -0.130 NA 
HETATM   20  C   UNL     1      -8.684   6.026  74.555  1.00  0.00    -0.127 C  
BRANCH  19  21
HETATM   21  C   UNL     1     -10.538   5.787  73.046  1.00  0.00    -0.242 C  
BRANCH  21  22
HETATM   22  C   UNL     1     -11.332   6.738  72.145  1.00  0.00    -0.307 C  
BRANCH  22  23
HETATM   23  C   UNL     1     -11.794   6.053  70.866  1.00  0.00     0.156 C  
BRANCH  23  24
HETATM   24  O   UNL     1     -10.652   5.728  70.055  1.00  0.00    -0.255 OA 
BRANCH  24  25
HETATM   25  C   UNL     1     -10.622   6.303  68.826  1.00  0.00    -0.262 C  
HETATM   26  O   UNL     1     -11.425   7.112  68.391  1.00  0.00     0.228 OA 
BRANCH  25  27
HETATM   27  C   UNL     1      -9.439   5.828  68.060  1.00  0.00    -0.116 A  
HETATM   28  C   UNL     1      -8.322   5.398  68.777  1.00  0.00    -0.097 A  
HETATM   29  C   UNL     1      -7.172   4.985  68.104  1.00  0.00    -0.063 A  
HETATM   30  C   UNL     1      -7.126   5.015  66.689  1.00  0.00    -0.069 A  
HETATM   31  C   UNL     1      -9.416   5.819  66.662  1.00  0.00    -0.161 A  
HETATM   32  C   UNL     1      -8.265   5.428  65.961  1.00  0.00    -0.116 A  
BRANCH  29  33
HETATM   33  O   UNL     1      -6.030   4.585  68.760  1.00  0.00    -0.024 OA 
HETATM   34  C   UNL     1      -6.187   4.186  70.119  1.00  0.00    -0.026 C  
ENDBRANCH  29  33
BRANCH  30  35
HETATM   35  O   UNL     1      -5.907   4.681  66.148  1.00  0.00    -0.021 OA 
HETATM   36  C   UNL     1      -5.340   5.543  65.171  1.00  0.00    -0.010 C  
ENDBRANCH  30  35
BRANCH  32  37
HETATM   37  O   UNL     1      -8.194   5.460  64.594  1.00  0.00    -0.122 OA 
HETATM   38  C   UNL     1      -8.856   6.515  63.906  1.00  0.00     0.793 C  
ENDBRANCH  32  37
ENDBRANCH  25  27
ENDBRANCH  24  25
ENDBRANCH  23  24
ENDBRANCH  22  23
ENDBRANCH  21  22
ENDBRANCH  19  21
ENDBRANCH  18  19
ENDBRANCH  17  18
ENDBRANCH  15  17
ENDBRANCH  14  15
ENDBRANCH  13  14
ENDBRANCH  12  13
ENDBRANCH  11  12
ENDBRANCH   9  11
ENDBRANCH   5   9
BRANCH   8  39
HETATM   39  O   UNL     1     -13.374  11.161  72.032  1.00  0.00    -0.454 OA 
HETATM   40  C   UNL     1     -12.655   9.990  72.389  1.00  0.00     0.149 C  
ENDBRANCH   8  39
BRANCH   7  41
HETATM   41  O   UNL     1     -13.551  14.034  72.182  1.00  0.00    -0.399 OA 
HETATM   42  C   UNL     1     -12.916  14.211  73.436  1.00  0.00     0.231 C  
ENDBRANCH   7  41
ENDBRANCH   2   3
TORSDOF 21
ENDMDL
MODEL      284
REMARK 921   NORMALIZED FREE ENERGY PREDICTED BY IDOCK:   -2.28 KCAL/MOL
REMARK 922        TOTAL FREE ENERGY PREDICTED BY IDOCK:   -7.95 KCAL/MOL
REMARK 923 INTER-LIGAND FREE ENERGY PREDICTED BY IDOCK:   -6.79 KCAL/MOL
REMARK 924 INTRA-LIGAND FREE ENERGY PREDICTED BY IDOCK:   -1.16 KCAL/MOL
REMARK 927      BINDING AFFINITY PREDICTED BY RF-SCORE:    0.00 PKD
ROOT
HETATM    1  C   UNL     1     -13.675  14.024  72.232  1.00  0.00    -0.548 C  
HETATM    2  O   UNL     1     -13.259  12.719  71.837  1.00  0.00    -0.442 OA 
ENDROOT
BRANCH   2   3
HETATM    3  C   UNL     1     -12.497  12.630  70.698  1.00  0.00    -0.239 A  
HETATM    4  C   UNL     1     -11.940  13.780  70.127  1.00  0.00    -0.404 A  
HETATM    5  C   UNL     1     -11.161  13.718  68.970  1.00  0.00    -0.313 A  
HETATM    6  C   UNL     1     -10.928  12.482  68.377  1.00  0.00    -0.277 A  
HETATM    7  C   UNL     1     -12.234  11.364  70.125  1.00  0.00    -0.321 A  
HETATM    8  C   UNL     1     -11.449  11.304  68.946  1.00  0.00    -0.297 A  
BRANCH   5   9
HETATM    9  C   UNL     1     -10.636  15.003  68.448  1.00  0.00    -0.239 C  
HETATM   10  O   UNL     1     -11.177  15.607  67.532  1.00  0.00    -0.317 OA 
BRANCH   9  11
HETATM   11  O   UNL     1      -9.494  15.377  69.075  1.00  0.00    -0.206 OA 
BRANCH  11  12
HETATM   12  C   UNL     1      -8.298  14.817  68.502  1.00  0.00    -0.160 C  
BRANCH  12  13
HETATM   13  C   UNL     1      -7.523  14.059  69.576  1.00  0.00     0.226 C  
BRANCH  13  14
HETATM   14  C   UNL     1      -6.356  13.271  68.981  1.00  0.00    -0.098 C  
BRANCH  14  15
HETATM   15  N   UNL     1      -6.745  12.418  67.838  1.00  0.00    -0.087 NA 
HETATM   16  C   UNL     1      -5.566  11.872  67.152  1.00  0.00    -0.132 C  
BRANCH  15  17
HETATM   17  C   UNL     1      -7.641  11.338  68.332  1.00  0.00    -0.120 C  
BRANCH  17  18
HETATM   18  C   UNL     1      -7.191  10.705  69.670  1.00  0.00    -0.139 C  
BRANCH  18  19
HETATM   19  N   UNL     1      -5.865  10.044  69.668  1.00  0.00    -0.040 NA 
HETATM   20  C   UNL     1      -5.129  10.334  70.902  1.00  0.00    -0.067 C  
BRANCH  19  21
HETATM   21  C   UNL     1      -6.014   8.579  69.521  1.00  0.00    -0.033 C  
BRANCH  21  22
HETATM   22  C   UNL     1      -6.502   7.886  70.798  1.00  0.00    -0.037 C  
BRANCH  22  23
HETATM   23  C   UNL     1      -6.263   6.383  70.753  1.00  0.00    -0.039 C  
BRANCH  23  24
HETATM   24  O   UNL     1      -7.413   5.697  71.275  1.00  0.00    -0.089 OA 
BRANCH  24  25
HETATM   25  C   UNL     1      -7.640   4.460  70.765  1.00  0.00    -0.052 C  
HETATM   26  O   UNL     1      -7.712   3.421  71.402  1.00  0.00    -0.053 OA 
BRANCH  25  27
HETATM   27  C   UNL     1      -7.818   4.531  69.291  1.00  0.00    -0.062 A  
HETATM   28  C   UNL     1      -7.118   3.619  68.500  1.00  0.00    -0.051 A  
HETATM   29  C   UNL     1      -7.217   3.674  67.109  1.00  0.00    -0.063 A  
HETATM   30  C   UNL     1      -8.016   4.667  66.491  1.00  0.00    -0.103 A  
HETATM   31  C   UNL     1      -8.643   5.486  68.688  1.00  0.00    -0.103 A  
HETATM   32  C   UNL     1      -8.744   5.576  67.292  1.00  0.00    -0.107 A  
BRANCH  29  33
HETATM   33  O   UNL     1      -6.522   2.823  66.280  1.00  0.00    -0.027 OA 
HETATM   34  C   UNL     1      -5.299   2.300  66.791  1.00  0.00    -0.013 C  
ENDBRANCH  29  33
BRANCH  30  35
HETATM   35  O   UNL     1      -7.953   4.681  65.118  1.00  0.00    -0.092 OA 
HETATM   36  C   UNL     1      -9.066   4.190  64.384  1.00  0.00    -0.147 C  
ENDBRANCH  30  35
BRANCH  32  37
HETATM   37  O   UNL     1      -9.502   6.535  66.673  1.00  0.00    -0.153 OA 
HETATM   38  C   UNL     1     -10.908   6.334  66.586  1.00  0.00    -0.198 C  
ENDBRANCH  32  37
ENDBRANCH  25  27
ENDBRANCH  24  25
ENDBRANCH  23  24
ENDBRANCH  22  23
ENDBRANCH  21  22
ENDBRANCH  19  21
ENDBRANCH  18  19
ENDBRANCH  17  18
ENDBRANCH  15  17
ENDBRANCH  14  15
ENDBRANCH  13  14
ENDBRANCH  12  13
ENDBRANCH  11  12
ENDBRANCH   9  11
ENDBRANCH   5   9
BRANCH   8  39
HETATM   39  O   UNL     1     -11.085  10.200  68.211  1.00  0.00    -0.260 OA 
HETATM   40  C   UNL     1     -10.473   9.093  68.854  1.00  0.00    -0.218 C  
ENDBRANCH   8  39
BRANCH   7  41
HETATM   41  O   UNL     1     -12.688  10.164  70.606  1.00  0.00    -0.307 OA 
HETATM   42  C   UNL     1     -12.447   9.777  71.948  1.00  0.00    -0.366 C  
ENDBRANCH   7  41
ENDBRANCH   2   3
TORSDOF 21
ENDMDL
MODEL      285
REMARK 921   NORMALIZED FREE ENERGY PREDICTED BY IDOCK:   -2.28 KCAL/MOL
REMARK 922        TOTAL FREE ENERGY PREDICTED BY IDOCK:   -7.93 KCAL/MOL
REMARK 923 INTER-LIGAND FREE ENERGY PREDICTED BY IDOCK:   -6.13 KCAL/MOL
REMARK 924 INTRA-LIGAND FREE ENERGY PREDICTED BY IDOCK:   -1.80 KCAL/MOL
REMARK 927      BINDING AFFINITY PREDICTED BY RF-SCORE:    0.00 PKD
ROOT
HETATM    1  C   UNL     1      -7.208  19.365  68.146  1.00  0.00    -0.287 C  
HETATM    2  O   UNL     1      -7.729  18.858  66.920  1.00  0.00    -0.230 OA 
ENDROOT
BRANCH   2   3
HETATM    3  C   UNL     1      -8.161  17.554  66.922  1.00  0.00    -0.227 A  
HETATM    4  C   UNL     1      -7.286  16.519  67.273  1.00  0.00    -0.202 A  
HETATM    5  C   UNL     1      -7.698  15.185  67.285  1.00  0.00    -0.241 A  
HETATM    6  C   UNL     1      -9.012  14.881  66.947  1.00  0.00    -0.277 A  
HETATM    7  C   UNL     1      -9.509  17.259  66.614  1.00  0.00    -0.265 A  
HETATM    8  C   UNL     1      -9.923  15.902  66.620  1.00  0.00    -0.257 A  
BRANCH   5   9
HETATM    9  C   UNL     1      -6.680  14.174  67.659  1.00  0.00    -0.171 C  
HETATM   10  O   UNL     1      -5.519  14.473  67.902  1.00  0.00    -0.174 OA 
BRANCH   9  11
HETATM   11  O   UNL     1      -7.187  12.916  67.653  1.00  0.00    -0.118 OA 
BRANCH  11  12
HETATM   12  C   UNL     1      -6.918  12.168  68.852  1.00  0.00    -0.102 C  
BRANCH  12  13
HETATM   13  C   UNL     1      -5.969  11.015  68.534  1.00  0.00    -0.042 C  
BRANCH  13  14
HETATM   14  C   UNL     1      -6.710   9.680  68.451  1.00  0.00    -0.057 C  
BRANCH  14  15
HETATM   15  N   UNL     1      -6.624   8.883  69.693  1.00  0.00    -0.042 NA 
HETATM   16  C   UNL     1      -7.958   8.580  70.229  1.00  0.00    -0.103 C  
BRANCH  15  17
HETATM   17  C   UNL     1      -5.853   7.642  69.410  1.00  0.00    -0.027 C  
BRANCH  17  18
HETATM   18  C   UNL     1      -6.512   6.711  68.365  1.00  0.00    -0.049 C  
BRANCH  18  19
HETATM   19  N   UNL     1      -5.765   6.515  67.100  1.00  0.00    -0.013 NA 
HETATM   20  C   UNL     1      -5.142   5.188  67.055  1.00  0.00    -0.004 C  
BRANCH  19  21
HETATM   21  C   UNL     1      -6.663   6.672  65.935  1.00  0.00    -0.048 C  
BRANCH  21  22
HETATM   22  C   UNL     1      -7.486   5.417  65.628  1.00  0.00    -0.081 C  
BRANCH  22  23
HETATM   23  C   UNL     1      -8.949   5.590  66.018  1.00  0.00    -0.152 C  
BRANCH  23  24
HETATM   24  O   UNL     1      -9.279   4.665  67.068  1.00  0.00    -0.117 OA 
BRANCH  24  25
HETATM   25  C   UNL     1      -9.850   5.210  68.172  1.00  0.00    -0.151 C  
HETATM   26  O   UNL     1     -10.756   6.029  68.183  1.00  0.00    -0.242 OA 
BRANCH  25  27
HETATM   27  C   UNL     1      -9.234   4.652  69.404  1.00  0.00    -0.179 A  
HETATM   28  C   UNL     1      -9.724   5.084  70.637  1.00  0.00    -0.266 A  
HETATM   29  C   UNL     1      -9.149   4.623  71.822  1.00  0.00    -0.135 A  
HETATM   30  C   UNL     1      -8.053   3.727  71.780  1.00  0.00    -0.067 A  
HETATM   31  C   UNL     1      -8.180   3.734  69.356  1.00  0.00    -0.066 A  
HETATM   32  C   UNL     1      -7.570   3.271  70.532  1.00  0.00    -0.040 A  
BRANCH  29  33
HETATM   33  O   UNL     1      -9.570   5.042  73.064  1.00  0.00    -0.141 OA 
HETATM   34  C   UNL     1      -9.411   6.428  73.353  1.00  0.00    -0.140 C  
ENDBRANCH  29  33
BRANCH  30  35
HETATM   35  O   UNL     1      -7.512   3.426  73.007  1.00  0.00    -0.056 OA 
HETATM   36  C   UNL     1      -6.170   3.815  73.269  1.00  0.00    -0.016 C  
ENDBRANCH  30  35
BRANCH  32  37
HETATM   37  O   UNL     1      -6.503   2.414  70.514  1.00  0.00    -0.026 OA 
HETATM   38  C   UNL     1      -5.464   2.645  69.570  1.00  0.00    -0.017 C  
ENDBRANCH  32  37
ENDBRANCH  25  27
ENDBRANCH  24  25
ENDBRANCH  23  24
ENDBRANCH  22  23
ENDBRANCH  21  22
ENDBRANCH  19  21
ENDBRANCH  18  19
ENDBRANCH  17  18
ENDBRANCH  15  17
ENDBRANCH  14  15
ENDBRANCH  13  14
ENDBRANCH  12  13
ENDBRANCH  11  12
ENDBRANCH   9  11
ENDBRANCH   5   9
BRANCH   8  39
HETATM   39  O   UNL     1     -11.164  15.382  66.335  1.00  0.00    -0.282 OA 
HETATM   40  C   UNL     1     -11.858  14.632  67.320  1.00  0.00    -0.351 C  
ENDBRANCH   8  39
BRANCH   7  41
HETATM   41  O   UNL     1     -10.470  18.179  66.291  1.00  0.00    -0.392 OA 
HETATM   42  C   UNL     1     -11.020  19.038  67.276  1.00  0.00    -0.277 C  
ENDBRANCH   7  41
ENDBRANCH   2   3
TORSDOF 21
ENDMDL
MODEL      286
REMARK 921   NORMALIZED FREE ENERGY PREDICTED BY IDOCK:   -2.27 KCAL/MOL
REMARK 922        TOTAL FREE ENERGY PREDICTED BY IDOCK:   -7.92 KCAL/MOL
REMARK 923 INTER-LIGAND FREE ENERGY PREDICTED BY IDOCK:   -7.91 KCAL/MOL
REMARK 924 INTRA-LIGAND FREE ENERGY PREDICTED BY IDOCK:   -0.01 KCAL/MOL
REMARK 927      BINDING AFFINITY PREDICTED BY RF-SCORE:    0.00 PKD
ROOT
HETATM    1  C   UNL     1      -8.641   8.386  73.648  1.00  0.00    -0.083 C  
HETATM    2  O   UNL     1      -8.619   8.227  72.231  1.00  0.00    -0.160 OA 
ENDROOT
BRANCH   2   3
HETATM    3  C   UNL     1      -9.578   7.412  71.684  1.00  0.00    -0.150 A  
HETATM    4  C   UNL     1      -9.257   6.109  71.283  1.00  0.00    -0.157 A  
HETATM    5  C   UNL     1     -10.213   5.260  70.725  1.00  0.00    -0.317 A  
HETATM    6  C   UNL     1     -11.518   5.716  70.572  1.00  0.00     0.255 A  
HETATM    7  C   UNL     1     -10.911   7.872  71.569  1.00  0.00    -0.229 A  
HETATM    8  C   UNL     1     -11.878   7.009  70.995  1.00  0.00    -0.351 A  
BRANCH   5   9
HETATM    9  C   UNL     1      -9.753   3.908  70.324  1.00  0.00    -0.175 C  
HETATM   10  O   UNL     1      -9.552   3.016  71.136  1.00  0.00    -0.148 OA 
BRANCH   9  11
HETATM   11  O   UNL     1      -9.553   3.816  68.985  1.00  0.00    -0.175 OA 
BRANCH  11  12
HETATM   12  C   UNL     1      -8.245   4.238  68.556  1.00  0.00    -0.084 C  
BRANCH  12  13
HETATM   13  C   UNL     1      -8.382   5.231  67.405  1.00  0.00    -0.106 C  
BRANCH  13  14
HETATM   14  C   UNL     1      -7.054   5.923  67.096  1.00  0.00    -0.070 C  
BRANCH  14  15
HETATM   15  N   UNL     1      -6.796   6.079  65.649  1.00  0.00    -0.055 NA 
HETATM   16  C   UNL     1      -7.986   5.749  64.853  1.00  0.00    -0.123 C  
BRANCH  15  17
HETATM   17  C   UNL     1      -6.335   7.470  65.393  1.00  0.00    -0.038 C  
BRANCH  17  18
HETATM   18  C   UNL     1      -7.442   8.541  65.537  1.00  0.00    -0.085 C  
BRANCH  18  19
HETATM   19  N   UNL     1      -7.238   9.554  66.599  1.00  0.00    -0.086 NA 
HETATM   20  C   UNL     1      -5.818   9.678  66.944  1.00  0.00    -0.051 C  
BRANCH  19  21
HETATM   21  C   UNL     1      -7.752  10.873  66.166  1.00  0.00    -0.133 C  
BRANCH  21  22
HETATM   22  C   UNL     1      -7.295  12.028  67.063  1.00  0.00    -0.097 C  
BRANCH  22  23
HETATM   23  C   UNL     1      -8.329  12.357  68.132  1.00  0.00    -0.178 C  
BRANCH  23  24
HETATM   24  O   UNL     1      -9.615  11.858  67.728  1.00  0.00    -0.181 OA 
BRANCH  24  25
HETATM   25  C   UNL     1     -10.665  12.684  67.961  1.00  0.00    -0.226 C  
HETATM   26  O   UNL     1     -11.776  12.346  68.338  1.00  0.00    -0.303 OA 
BRANCH  25  27
HETATM   27  C   UNL     1     -10.277  14.098  67.717  1.00  0.00    -0.242 A  
HETATM   28  C   UNL     1     -10.772  14.727  66.574  1.00  0.00    -0.319 A  
HETATM   29  C   UNL     1     -10.401  16.039  66.277  1.00  0.00    -0.321 A  
HETATM   30  C   UNL     1      -9.506  16.735  67.125  1.00  0.00    -0.232 A  
HETATM   31  C   UNL     1      -9.426  14.794  68.582  1.00  0.00    -0.213 A  
HETATM   32  C   UNL     1      -9.021  16.107  68.295  1.00  0.00    -0.189 A  
BRANCH  29  33
HETATM   33  O   UNL     1     -10.832  16.695  65.146  1.00  0.00    -0.565 OA 
HETATM   34  C   UNL     1     -11.575  15.921  64.209  1.00  0.00    -0.178 C  
ENDBRANCH  29  33
BRANCH  30  35
HETATM   35  O   UNL     1      -9.139  17.980  66.674  1.00  0.00    -0.266 OA 
HETATM   36  C   UNL     1      -8.701  18.943  67.622  1.00  0.00    -0.288 C  
ENDBRANCH  30  35
BRANCH  32  37
HETATM   37  O   UNL     1      -8.148  16.794  69.095  1.00  0.00    -0.214 OA 
HETATM   38  C   UNL     1      -6.778  16.410  69.089  1.00  0.00    -0.205 C  
ENDBRANCH  32  37
ENDBRANCH  25  27
ENDBRANCH  24  25
ENDBRANCH  23  24
ENDBRANCH  22  23
ENDBRANCH  21  22
ENDBRANCH  19  21
ENDBRANCH  18  19
ENDBRANCH  17  18
ENDBRANCH  15  17
ENDBRANCH  14  15
ENDBRANCH  13  14
ENDBRANCH  12  13
ENDBRANCH  11  12
ENDBRANCH   9  11
ENDBRANCH   5   9
BRANCH   8  39
HETATM   39  O   UNL     1     -13.214   7.246  70.767  1.00  0.00    -0.103 OA 
HETATM   40  C   UNL     1     -13.980   7.956  71.728  1.00  0.00    -0.399 C  
ENDBRANCH   8  39
BRANCH   7  41
HETATM   41  O   UNL     1     -11.361   9.107  71.957  1.00  0.00    -0.366 OA 
HETATM   42  C   UNL     1     -11.397  10.190  71.043  1.00  0.00    -0.307 C  
ENDBRANCH   7  41
ENDBRANCH   2   3
TORSDOF 21
ENDMDL
MODEL      287
REMARK 921   NORMALIZED FREE ENERGY PREDICTED BY IDOCK:   -2.25 KCAL/MOL
REMARK 922        TOTAL FREE ENERGY PREDICTED BY IDOCK:   -7.88 KCAL/MOL
REMARK 923 INTER-LIGAND FREE ENERGY PREDICTED BY IDOCK:   -6.74 KCAL/MOL
REMARK 924 INTRA-LIGAND FREE ENERGY PREDICTED BY IDOCK:   -1.13 KCAL/MOL
REMARK 927      BINDING AFFINITY PREDICTED BY RF-SCORE:    0.00 PKD
ROOT
HETATM    1  C   UNL     1     -14.250   8.913  72.397  1.00  0.00    -0.374 C  
HETATM    2  O   UNL     1     -13.244   8.085  71.819  1.00  0.00    -0.335 OA 
ENDROOT
BRANCH   2   3
HETATM    3  C   UNL     1     -12.151   8.722  71.284  1.00  0.00    -0.296 A  
HETATM    4  C   UNL     1     -12.318   9.769  70.369  1.00  0.00    -0.079 A  
HETATM    5  C   UNL     1     -11.225  10.433  69.811  1.00  0.00    -0.353 A  
HETATM    6  C   UNL     1      -9.940  10.050  70.180  1.00  0.00    -0.239 A  
HETATM    7  C   UNL     1     -10.850   8.351  71.695  1.00  0.00    -0.268 A  
HETATM    8  C   UNL     1      -9.741   9.023  71.121  1.00  0.00    -0.299 A  
BRANCH   5   9
HETATM    9  C   UNL     1     -11.524  11.516  68.842  1.00  0.00    -0.289 C  
HETATM   10  O   UNL     1     -12.121  11.311  67.795  1.00  0.00    -0.631 OA 
BRANCH   9  11
HETATM   11  O   UNL     1     -11.026  12.711  69.246  1.00  0.00    -0.179 OA 
BRANCH  11  12
HETATM   12  C   UNL     1     -11.990  13.780  69.247  1.00  0.00    -0.352 C  
BRANCH  12  13
HETATM   13  C   UNL     1     -11.987  14.470  70.608  1.00  0.00    -0.387 C  
BRANCH  13  14
HETATM   14  C   UNL     1     -10.749  15.347  70.794  1.00  0.00    -0.162 C  
BRANCH  14  15
HETATM   15  N   UNL     1     -10.177  15.835  69.521  1.00  0.00    -0.253 NA 
HETATM   16  C   UNL     1     -10.710  17.157  69.167  1.00  0.00    -0.184 C  
BRANCH  15  17
HETATM   17  C   UNL     1      -8.695  15.855  69.641  1.00  0.00     0.030 C  
BRANCH  17  18
HETATM   18  C   UNL     1      -8.006  14.538  69.211  1.00  0.00     0.007 C  
BRANCH  18  19
HETATM   19  N   UNL     1      -6.527  14.515  69.296  1.00  0.00    -0.115 NA 
HETATM   20  C   UNL     1      -6.081  14.154  70.645  1.00  0.00    -0.170 C  
BRANCH  19  21
HETATM   21  C   UNL     1      -5.964  13.553  68.322  1.00  0.00    -0.100 C  
BRANCH  21  22
HETATM   22  C   UNL     1      -5.851  12.128  68.871  1.00  0.00    -0.061 C  
BRANCH  22  23
HETATM   23  C   UNL     1      -6.145  11.084  67.801  1.00  0.00    -0.047 C  
BRANCH  23  24
HETATM   24  O   UNL     1      -7.567  10.952  67.636  1.00  0.00    -0.094 OA 
BRANCH  24  25
HETATM   25  C   UNL     1      -7.981  10.573  66.401  1.00  0.00    -0.137 C  
HETATM   26  O   UNL     1      -8.768  11.177  65.690  1.00  0.00    -0.185 OA 
BRANCH  25  27
HETATM   27  C   UNL     1      -7.320   9.303  65.999  1.00  0.00    -0.095 A  
HETATM   28  C   UNL     1      -6.733   8.524  66.996  1.00  0.00    -0.062 A  
HETATM   29  C   UNL     1      -6.062   7.347  66.664  1.00  0.00    -0.043 A  
HETATM   30  C   UNL     1      -5.959   6.944  65.310  1.00  0.00    -0.036 A  
HETATM   31  C   UNL     1      -7.260   8.889  64.664  1.00  0.00    -0.096 A  
HETATM   32  C   UNL     1      -6.574   7.720  64.301  1.00  0.00    -0.056 A  
BRANCH  29  33
HETATM   33  O   UNL     1      -5.435   6.559  67.602  1.00  0.00    -0.005 OA 
HETATM   34  C   UNL     1      -6.221   5.524  68.187  1.00  0.00    -0.033 C  
ENDBRANCH  29  33
BRANCH  30  35
HETATM   35  O   UNL     1      -5.190   5.823  65.102  1.00  0.00    -0.009 OA 
HETATM   36  C   UNL     1      -5.839   4.618  64.723  1.00  0.00    -0.014 C  
ENDBRANCH  30  35
BRANCH  32  37
HETATM   37  O   UNL     1      -6.452   7.318  62.998  1.00  0.00    -0.052 OA 
HETATM   38  C   UNL     1      -5.148   7.214  62.440  1.00  0.00    -0.033 C  
ENDBRANCH  32  37
ENDBRANCH  25  27
ENDBRANCH  24  25
ENDBRANCH  23  24
ENDBRANCH  22  23
ENDBRANCH  21  22
ENDBRANCH  19  21
ENDBRANCH  18  19
ENDBRANCH  17  18
ENDBRANCH  15  17
ENDBRANCH  14  15
ENDBRANCH  13  14
ENDBRANCH  12  13
ENDBRANCH  11  12
ENDBRANCH   9  11
ENDBRANCH   5   9
BRANCH   8  39
HETATM   39  O   UNL     1      -8.400   8.819  71.350  1.00  0.00    -0.159 OA 
HETATM   40  C   UNL     1      -7.554   8.420  70.283  1.00  0.00    -0.068 C  
ENDBRANCH   8  39
BRANCH   7  41
HETATM   41  O   UNL     1     -10.553   7.372  72.606  1.00  0.00    -0.229 OA 
HETATM   42  C   UNL     1     -10.532   6.006  72.229  1.00  0.00    -0.205 C  
ENDBRANCH   7  41
ENDBRANCH   2   3
TORSDOF 21
ENDMDL
MODEL      288
REMARK 921   NORMALIZED FREE ENERGY PREDICTED BY IDOCK:   -2.24 KCAL/MOL
REMARK 922        TOTAL FREE ENERGY PREDICTED BY IDOCK:   -7.86 KCAL/MOL
REMARK 923 INTER-LIGAND FREE ENERGY PREDICTED BY IDOCK:   -8.53 KCAL/MOL
REMARK 924 INTRA-LIGAND FREE ENERGY PREDICTED BY IDOCK:    0.67 KCAL/MOL
REMARK 927      BINDING AFFINITY PREDICTED BY RF-SCORE:    0.00 PKD
ROOT
HETATM    1  C   UNL     1     -11.775  13.256  69.376  1.00  0.00    -0.325 C  
HETATM    2  O   UNL     1     -11.881  14.595  68.899  1.00  0.00    -0.305 OA 
ENDROOT
BRANCH   2   3
HETATM    3  C   UNL     1     -11.336  14.858  67.666  1.00  0.00    -0.337 A  
HETATM    4  C   UNL     1     -11.760  14.146  66.537  1.00  0.00    -0.414 A  
HETATM    5  C   UNL     1     -11.223  14.394  65.273  1.00  0.00    -0.345 A  
HETATM    6  C   UNL     1     -10.249  15.377  65.132  1.00  0.00    -0.360 A  
HETATM    7  C   UNL     1     -10.375  15.886  67.527  1.00  0.00    -0.283 A  
HETATM    8  C   UNL     1      -9.825  16.131  66.243  1.00  0.00    -0.307 A  
BRANCH   5   9
HETATM    9  C   UNL     1     -11.739  13.568  64.154  1.00  0.00    -0.411 C  
HETATM   10  O   UNL     1     -12.442  14.032  63.268  1.00  0.00    -0.795 OA 
BRANCH   9  11
HETATM   11  O   UNL     1     -11.372  12.268  64.272  1.00  0.00    -0.313 OA 
BRANCH  11  12
HETATM   12  C   UNL     1      -9.960  12.039  64.112  1.00  0.00    -0.263 C  
BRANCH  12  13
HETATM   13  C   UNL     1      -9.693  10.539  64.021  1.00  0.00    -0.383 C  
BRANCH  13  14
HETATM   14  C   UNL     1      -8.728  10.205  62.883  1.00  0.00    -0.207 C  
BRANCH  14  15
HETATM   15  N   UNL     1      -7.621   9.316  63.293  1.00  0.00    -0.103 NA 
HETATM   16  C   UNL     1      -6.315   9.887  62.939  1.00  0.00    -0.120 C  
BRANCH  15  17
HETATM   17  C   UNL     1      -7.730   9.062  64.755  1.00  0.00    -0.109 C  
BRANCH  17  18
HETATM   18  C   UNL     1      -7.508   7.585  65.159  1.00  0.00    -0.085 C  
BRANCH  18  19
HETATM   19  N   UNL     1      -6.400   7.327  66.109  1.00  0.00    -0.040 NA 
HETATM   20  C   UNL     1      -5.538   6.241  65.632  1.00  0.00    -0.017 C  
BRANCH  19  21
HETATM   21  C   UNL     1      -5.586   8.547  66.303  1.00  0.00    -0.039 C  
BRANCH  21  22
HETATM   22  C   UNL     1      -5.519   9.009  67.763  1.00  0.00    -0.035 C  
BRANCH  22  23
HETATM   23  C   UNL     1      -6.798   8.675  68.521  1.00  0.00    -0.064 C  
BRANCH  23  24
HETATM   24  O   UNL     1      -6.696   9.159  69.871  1.00  0.00    -0.044 OA 
BRANCH  24  25
HETATM   25  C   UNL     1      -6.383   8.227  70.806  1.00  0.00    -0.036 C  
HETATM   26  O   UNL     1      -5.460   8.288  71.602  1.00  0.00    -0.034 OA 
BRANCH  25  27
HETATM   27  C   UNL     1      -7.348   7.097  70.755  1.00  0.00    -0.072 A  
HETATM   28  C   UNL     1      -8.294   6.994  71.776  1.00  0.00    -0.110 A  
HETATM   29  C   UNL     1      -9.192   5.926  71.797  1.00  0.00    -0.148 A  
HETATM   30  C   UNL     1      -9.138   4.931  70.790  1.00  0.00    -0.137 A  
HETATM   31  C   UNL     1      -7.318   6.140  69.735  1.00  0.00    -0.079 A  
HETATM   32  C   UNL     1      -8.196   5.046  69.743  1.00  0.00    -0.077 A  
BRANCH  29  33
HETATM   33  O   UNL     1     -10.122   5.757  72.797  1.00  0.00    -0.174 OA 
HETATM   34  C   UNL     1      -9.775   4.847  73.837  1.00  0.00    -0.138 C  
ENDBRANCH  29  33
BRANCH  30  35
HETATM   35  O   UNL     1     -10.006   3.881  70.976  1.00  0.00    -0.173 OA 
HETATM   36  C   UNL     1      -9.706   2.925  71.983  1.00  0.00    -0.160 C  
ENDBRANCH  30  35
BRANCH  32  37
HETATM   37  O   UNL     1      -8.154   4.067  68.787  1.00  0.00    -0.070 OA 
HETATM   38  C   UNL     1      -8.065   4.457  67.422  1.00  0.00    -0.100 C  
ENDBRANCH  32  37
ENDBRANCH  25  27
ENDBRANCH  24  25
ENDBRANCH  23  24
ENDBRANCH  22  23
ENDBRANCH  21  22
ENDBRANCH  19  21
ENDBRANCH  18  19
ENDBRANCH  17  18
ENDBRANCH  15  17
ENDBRANCH  14  15
ENDBRANCH  13  14
ENDBRANCH  12  13
ENDBRANCH  11  12
ENDBRANCH   9  11
ENDBRANCH   5   9
BRANCH   8  39
HETATM   39  O   UNL     1      -8.874  17.053  65.876  1.00  0.00    -0.518 OA 
HETATM   40  C   UNL     1      -7.534  16.899  66.317  1.00  0.00    -0.247 C  
ENDBRANCH   8  39
BRANCH   7  41
HETATM   41  O   UNL     1      -9.904  16.676  68.542  1.00  0.00    -0.232 OA 
HETATM   42  C   UNL     1     -10.347  18.015  68.691  1.00  0.00    -0.319 C  
ENDBRANCH   7  41
ENDBRANCH   2   3
TORSDOF 21
ENDMDL
MODEL      289
REMARK 921   NORMALIZED FREE ENERGY PREDICTED BY IDOCK:   -2.19 KCAL/MOL
REMARK 922        TOTAL FREE ENERGY PREDICTED BY IDOCK:   -7.73 KCAL/MOL
REMARK 923 INTER-LIGAND FREE ENERGY PREDICTED BY IDOCK:   -5.40 KCAL/MOL
REMARK 924 INTRA-LIGAND FREE ENERGY PREDICTED BY IDOCK:   -2.33 KCAL/MOL
REMARK 927      BINDING AFFINITY PREDICTED BY RF-SCORE:    0.00 PKD
ROOT
HETATM    1  C   UNL     1     -11.751  16.320  71.108  1.00  0.00    -0.307 C  
HETATM    2  O   UNL     1     -12.616  15.688  70.168  1.00  0.00    -0.367 OA 
ENDROOT
BRANCH   2   3
HETATM    3  C   UNL     1     -12.269  14.422  69.761  1.00  0.00    -0.321 A  
HETATM    4  C   UNL     1     -11.833  14.194  68.450  1.00  0.00    -0.388 A  
HETATM    5  C   UNL     1     -11.474  12.918  68.012  1.00  0.00    -0.361 A  
HETATM    6  C   UNL     1     -11.545  11.852  68.901  1.00  0.00    -0.370 A  
HETATM    7  C   UNL     1     -12.307  13.352  70.684  1.00  0.00    -0.348 A  
HETATM    8  C   UNL     1     -11.949  12.056  70.234  1.00  0.00    -0.314 A  
BRANCH   5   9
HETATM    9  C   UNL     1     -11.041  12.795  66.598  1.00  0.00    -0.276 C  
HETATM   10  O   UNL     1     -11.784  12.379  65.720  1.00  0.00    -0.383 OA 
BRANCH   9  11
HETATM   11  O   UNL     1      -9.745  13.155  66.431  1.00  0.00    -0.261 OA 
BRANCH  11  12
HETATM   12  C   UNL     1      -8.851  12.048  66.213  1.00  0.00    -0.075 C  
BRANCH  12  13
HETATM   13  C   UNL     1      -7.833  11.982  67.348  1.00  0.00    -0.162 C  
BRANCH  13  14
HETATM   14  C   UNL     1      -7.547  10.540  67.767  1.00  0.00    -0.088 C  
BRANCH  14  15
HETATM   15  N   UNL     1      -6.573   9.856  66.891  1.00  0.00    -0.066 NA 
HETATM   16  C   UNL     1      -5.415  10.713  66.604  1.00  0.00    -0.060 C  
BRANCH  15  17
HETATM   17  C   UNL     1      -6.163   8.580  67.538  1.00  0.00    -0.053 C  
BRANCH  17  18
HETATM   18  C   UNL     1      -6.936   8.252  68.837  1.00  0.00    -0.066 C  
BRANCH  18  19
HETATM   19  N   UNL     1      -6.630   6.946  69.467  1.00  0.00    -0.047 NA 
HETATM   20  C   UNL     1      -5.185   6.698  69.494  1.00  0.00    -0.014 C  
BRANCH  19  21
HETATM   21  C   UNL     1      -7.159   6.899  70.849  1.00  0.00    -0.068 C  
BRANCH  21  22
HETATM   22  C   UNL     1      -8.566   7.488  70.983  1.00  0.00    -0.132 C  
BRANCH  22  23
HETATM   23  C   UNL     1      -9.518   6.527  71.683  1.00  0.00    -0.156 C  
BRANCH  23  24
HETATM   24  O   UNL     1      -9.367   5.210  71.127  1.00  0.00    -0.141 OA 
BRANCH  24  25
HETATM   25  C   UNL     1     -10.206   4.905  70.105  1.00  0.00    -0.240 C  
HETATM   26  O   UNL     1     -11.423   4.982  70.126  1.00  0.00     1.323 OA 
BRANCH  25  27
HETATM   27  C   UNL     1      -9.432   4.473  68.910  1.00  0.00    -0.225 A  
HETATM   28  C   UNL     1      -9.709   5.091  67.690  1.00  0.00    -0.188 A  
HETATM   29  C   UNL     1      -9.042   4.690  66.532  1.00  0.00    -0.123 A  
HETATM   30  C   UNL     1      -8.091   3.642  66.586  1.00  0.00    -0.096 A  
HETATM   31  C   UNL     1      -8.463   3.467  68.978  1.00  0.00    -0.099 A  
HETATM   32  C   UNL     1      -7.793   3.031  67.825  1.00  0.00    -0.067 A  
BRANCH  29  33
HETATM   33  O   UNL     1      -9.300   5.240  65.297  1.00  0.00    -0.108 OA 
HETATM   34  C   UNL     1      -9.318   6.663  65.229  1.00  0.00     0.670 C  
ENDBRANCH  29  33
BRANCH  30  35
HETATM   35  O   UNL     1      -7.577   3.272  65.366  1.00  0.00    -0.075 OA 
HETATM   36  C   UNL     1      -6.306   3.780  64.984  1.00  0.00    -0.028 C  
ENDBRANCH  30  35
BRANCH  32  37
HETATM   37  O   UNL     1      -6.878   2.013  67.852  1.00  0.00    -0.035 OA 
HETATM   38  C   UNL     1      -5.830   2.069  68.813  1.00  0.00    -0.023 C  
ENDBRANCH  32  37
ENDBRANCH  25  27
ENDBRANCH  24  25
ENDBRANCH  23  24
ENDBRANCH  22  23
ENDBRANCH  21  22
ENDBRANCH  19  21
ENDBRANCH  18  19
ENDBRANCH  17  18
ENDBRANCH  15  17
ENDBRANCH  14  15
ENDBRANCH  13  14
ENDBRANCH  12  13
ENDBRANCH  11  12
ENDBRANCH   9  11
ENDBRANCH   5   9
BRANCH   8  39
HETATM   39  O   UNL     1     -11.932  10.875  70.939  1.00  0.00    -0.328 OA 
HETATM   40  C   UNL     1     -11.681   9.652  70.263  1.00  0.00    -0.155 C  
ENDBRANCH   8  39
BRANCH   7  41
HETATM   41  O   UNL     1     -12.679  13.449  71.999  1.00  0.00    -0.234 OA 
HETATM   42  C   UNL     1     -14.034  13.661  72.361  1.00  0.00    -0.548 C  
ENDBRANCH   7  41
ENDBRANCH   2   3
TORSDOF 21
ENDMDL
MODEL      290
REMARK 921   NORMALIZED FREE ENERGY PREDICTED BY IDOCK:   -2.19 KCAL/MOL
REMARK 922        TOTAL FREE ENERGY PREDICTED BY IDOCK:   -7.73 KCAL/MOL
REMARK 923 INTER-LIGAND FREE ENERGY PREDICTED BY IDOCK:   -6.40 KCAL/MOL
REMARK 924 INTRA-LIGAND FREE ENERGY PREDICTED BY IDOCK:   -1.33 KCAL/MOL
REMARK 927      BINDING AFFINITY PREDICTED BY RF-SCORE:    0.00 PKD
ROOT
HETATM    1  C   UNL     1      -9.022  15.281  66.026  1.00  0.00    -0.116 C  
HETATM    2  O   UNL     1      -7.829  16.043  65.856  1.00  0.00     0.328 OA 
ENDROOT
BRANCH   2   3
HETATM    3  C   UNL     1      -7.945  17.407  65.959  1.00  0.00    -0.165 A  
HETATM    4  C   UNL     1      -9.125  17.983  66.445  1.00  0.00    -0.251 A  
HETATM    5  C   UNL     1      -9.269  19.367  66.560  1.00  0.00    -0.403 A  
HETATM    6  C   UNL     1      -8.212  20.191  66.191  1.00  0.00    -0.233 A  
HETATM    7  C   UNL     1      -6.849  18.234  65.618  1.00  0.00    -0.228 A  
HETATM    8  C   UNL     1      -7.002  19.640  65.730  1.00  0.00    -0.293 A  
BRANCH   5   9
HETATM    9  C   UNL     1     -10.570  19.862  67.073  1.00  0.00    -0.405 C  
HETATM   10  O   UNL     1     -11.600  19.797  66.417  1.00  0.00     0.442 OA 
BRANCH   9  11
HETATM   11  O   UNL     1     -10.453  20.415  68.306  1.00  0.00    -0.256 OA 
BRANCH  11  12
HETATM   12  C   UNL     1      -9.917  19.524  69.301  1.00  0.00    -0.272 C  
BRANCH  12  13
HETATM   13  C   UNL     1      -8.501  19.959  69.668  1.00  0.00     0.599 C  
BRANCH  13  14
HETATM   14  C   UNL     1      -7.455  18.966  69.160  1.00  0.00    -0.207 C  
BRANCH  14  15
HETATM   15  N   UNL     1      -6.064  19.407  69.393  1.00  0.00    -0.267 NA 
HETATM   16  C   UNL     1      -5.918  20.050  70.706  1.00  0.00    -0.314 C  
BRANCH  15  17
HETATM   17  C   UNL     1      -5.161  18.233  69.255  1.00  0.00    -0.192 C  
BRANCH  17  18
HETATM   18  C   UNL     1      -5.743  16.916  69.822  1.00  0.00    -0.210 C  
BRANCH  18  19
HETATM   19  N   UNL     1      -6.352  15.993  68.837  1.00  0.00    -0.123 NA 
HETATM   20  C   UNL     1      -5.341  15.108  68.248  1.00  0.00    -0.113 C  
BRANCH  19  21
HETATM   21  C   UNL     1      -7.407  15.173  69.474  1.00  0.00    -0.210 C  
BRANCH  21  22
HETATM   22  C   UNL     1      -8.728  15.924  69.667  1.00  0.00     0.030 C  
BRANCH  22  23
HETATM   23  C   UNL     1      -9.829  15.008  70.187  1.00  0.00     0.213 C  
BRANCH  23  24
HETATM   24  O   UNL     1     -10.942  15.031  69.278  1.00  0.00    -0.241 OA 
BRANCH  24  25
HETATM   25  C   UNL     1     -11.666  13.886  69.208  1.00  0.00    -0.334 C  
HETATM   26  O   UNL     1     -12.670  13.629  69.853  1.00  0.00    -0.141 OA 
BRANCH  25  27
HETATM   27  C   UNL     1     -11.081  12.962  68.201  1.00  0.00    -0.282 A  
HETATM   28  C   UNL     1     -11.462  13.118  66.867  1.00  0.00    -0.384 A  
HETATM   29  C   UNL     1     -10.975  12.249  65.891  1.00  0.00    -0.302 A  
HETATM   30  C   UNL     1     -10.103  11.192  66.250  1.00  0.00    -0.232 A  
HETATM   31  C   UNL     1     -10.186  11.947  68.556  1.00  0.00    -0.221 A  
HETATM   32  C   UNL     1      -9.698  11.047  67.597  1.00  0.00    -0.168 A  
BRANCH  29  33
HETATM   33  O   UNL     1     -11.344  12.335  64.568  1.00  0.00    -0.307 OA 
HETATM   34  C   UNL     1     -12.244  13.386  64.229  1.00  0.00    -0.392 C  
ENDBRANCH  29  33
BRANCH  30  35
HETATM   35  O   UNL     1      -9.773  10.345  65.219  1.00  0.00    -0.234 OA 
HETATM   36  C   UNL     1      -8.547  10.560  64.533  1.00  0.00    -0.159 C  
ENDBRANCH  30  35
BRANCH  32  37
HETATM   37  O   UNL     1      -8.864  10.011  67.924  1.00  0.00    -0.125 OA 
HETATM   38  C   UNL     1      -7.642  10.310  68.588  1.00  0.00    -0.089 C  
ENDBRANCH  32  37
ENDBRANCH  25  27
ENDBRANCH  24  25
ENDBRANCH  23  24
ENDBRANCH  22  23
ENDBRANCH  21  22
ENDBRANCH  19  21
ENDBRANCH  18  19
ENDBRANCH  17  18
ENDBRANCH  15  17
ENDBRANCH  14  15
ENDBRANCH  13  14
ENDBRANCH  12  13
ENDBRANCH  11  12
ENDBRANCH   9  11
ENDBRANCH   5   9
BRANCH   8  39
HETATM   39  O   UNL     1      -6.091  20.629  65.438  1.00  0.00    -0.216 OA 
HETATM   40  C   UNL     1      -5.341  21.229  66.482  1.00  0.00    -0.250 C  
ENDBRANCH   8  39
BRANCH   7  41
HETATM   41  O   UNL     1      -5.633  17.795  65.167  1.00  0.00     0.007 OA 
HETATM   42  C   UNL     1      -5.141  18.188  63.897  1.00  0.00     0.317 C  
ENDBRANCH   7  41
ENDBRANCH   2   3
TORSDOF 21
ENDMDL
MODEL      291
REMARK 921   NORMALIZED FREE ENERGY PREDICTED BY IDOCK:   -2.16 KCAL/MOL
REMARK 922        TOTAL FREE ENERGY PREDICTED BY IDOCK:   -7.67 KCAL/MOL
REMARK 923 INTER-LIGAND FREE ENERGY PREDICTED BY IDOCK:   -8.02 KCAL/MOL
REMARK 924 INTRA-LIGAND FREE ENERGY PREDICTED BY IDOCK:    0.35 KCAL/MOL
REMARK 927      BINDING AFFINITY PREDICTED BY RF-SCORE:    0.00 PKD
ROOT
HETATM    1  C   UNL     1      -9.554  17.210  68.539  1.00  0.00    -0.288 C  
HETATM    2  O   UNL     1     -10.655  17.078  69.435  1.00  0.00    -0.335 OA 
ENDROOT
BRANCH   2   3
HETATM    3  C   UNL     1     -11.226  15.833  69.535  1.00  0.00    -0.317 A  
HETATM    4  C   UNL     1     -11.453  15.064  68.387  1.00  0.00    -0.340 A  
HETATM    5  C   UNL     1     -12.032  13.796  68.460  1.00  0.00    -0.402 A  
HETATM    6  C   UNL     1     -12.384  13.283  69.703  1.00  0.00    -0.154 A  
HETATM    7  C   UNL     1     -11.545  15.305  70.807  1.00  0.00    -0.333 A  
HETATM    8  C   UNL     1     -12.139  14.020  70.878  1.00  0.00    -0.329 A  
BRANCH   5   9
HETATM    9  C   UNL     1     -12.237  13.080  67.177  1.00  0.00    -0.138 C  
HETATM   10  O   UNL     1     -12.617  13.649  66.163  1.00  0.00    -0.412 OA 
BRANCH   9  11
HETATM   11  O   UNL     1     -11.995  11.751  67.292  1.00  0.00    -0.618 OA 
BRANCH  11  12
HETATM   12  C   UNL     1     -10.597  11.410  67.336  1.00  0.00    -0.218 C  
BRANCH  12  13
HETATM   13  C   UNL     1     -10.050  11.315  65.914  1.00  0.00    -0.291 C  
BRANCH  13  14
HETATM   14  C   UNL     1     -10.048   9.874  65.405  1.00  0.00    -0.200 C  
BRANCH  14  15
HETATM   15  N   UNL     1      -9.162   8.978  66.178  1.00  0.00    -0.199 NA 
HETATM   16  C   UNL     1      -9.794   7.674  66.416  1.00  0.00    -0.104 C  
BRANCH  15  17
HETATM   17  C   UNL     1      -7.872   8.838  65.450  1.00  0.00    -0.100 C  
BRANCH  17  18
HETATM   18  C   UNL     1      -7.001  10.116  65.453  1.00  0.00    -0.139 C  
BRANCH  18  19
HETATM   19  N   UNL     1      -5.754  10.055  66.252  1.00  0.00    -0.056 NA 
HETATM   20  C   UNL     1      -5.179  11.391  66.436  1.00  0.00    -0.116 C  
BRANCH  19  21
HETATM   21  C   UNL     1      -6.015   9.450  67.577  1.00  0.00    -0.049 C  
BRANCH  21  22
HETATM   22  C   UNL     1      -6.484  10.463  68.627  1.00  0.00    -0.051 C  
BRANCH  22  23
HETATM   23  C   UNL     1      -7.850  10.099  69.193  1.00  0.00    -0.120 C  
BRANCH  23  24
HETATM   24  O   UNL     1      -7.913   8.682  69.425  1.00  0.00    -0.098 OA 
BRANCH  24  25
HETATM   25  C   UNL     1      -7.752   8.291  70.715  1.00  0.00    -0.079 C  
HETATM   26  O   UNL     1      -7.324   8.979  71.627  1.00  0.00    -0.276 OA 
BRANCH  25  27
HETATM   27  C   UNL     1      -8.198   6.883  70.889  1.00  0.00    -0.118 A  
HETATM   28  C   UNL     1      -9.146   6.612  71.877  1.00  0.00    -0.143 A  
HETATM   29  C   UNL     1      -9.563   5.301  72.109  1.00  0.00    -0.151 A  
HETATM   30  C   UNL     1      -9.015   4.235  71.354  1.00  0.00    -0.119 A  
HETATM   31  C   UNL     1      -7.685   5.840  70.111  1.00  0.00    -0.087 A  
HETATM   32  C   UNL     1      -8.072   4.511  70.338  1.00  0.00    -0.067 A  
BRANCH  29  33
HETATM   33  O   UNL     1     -10.468   4.972  73.093  1.00  0.00    -0.177 OA 
HETATM   34  C   UNL     1     -11.489   5.930  73.360  1.00  0.00     0.265 C  
ENDBRANCH  29  33
BRANCH  30  35
HETATM   35  O   UNL     1      -9.430   2.984  71.744  1.00  0.00    -0.115 OA 
HETATM   36  C   UNL     1     -10.334   2.880  72.835  1.00  0.00    -0.155 C  
ENDBRANCH  30  35
BRANCH  32  37
HETATM   37  O   UNL     1      -7.547   3.465  69.628  1.00  0.00    -0.045 OA 
HETATM   38  C   UNL     1      -6.212   3.574  69.149  1.00  0.00    -0.028 C  
ENDBRANCH  32  37
ENDBRANCH  25  27
ENDBRANCH  24  25
ENDBRANCH  23  24
ENDBRANCH  22  23
ENDBRANCH  21  22
ENDBRANCH  19  21
ENDBRANCH  18  19
ENDBRANCH  17  18
ENDBRANCH  15  17
ENDBRANCH  14  15
ENDBRANCH  13  14
ENDBRANCH  12  13
ENDBRANCH  11  12
ENDBRANCH   9  11
ENDBRANCH   5   9
BRANCH   8  39
HETATM   39  O   UNL     1     -12.548  13.321  71.990  1.00  0.00    -0.134 OA 
HETATM   40  C   UNL     1     -13.162  12.051  71.840  1.00  0.00    -0.364 C  
ENDBRANCH   8  39
BRANCH   7  41
HETATM   41  O   UNL     1     -11.340  15.939  72.004  1.00  0.00    -0.343 OA 
HETATM   42  C   UNL     1     -12.411  16.156  72.908  1.00  0.00    -0.475 C  
ENDBRANCH   7  41
ENDBRANCH   2   3
TORSDOF 21
ENDMDL
MODEL      292
REMARK 921   NORMALIZED FREE ENERGY PREDICTED BY IDOCK:   -2.12 KCAL/MOL
REMARK 922        TOTAL FREE ENERGY PREDICTED BY IDOCK:   -7.58 KCAL/MOL
REMARK 923 INTER-LIGAND FREE ENERGY PREDICTED BY IDOCK:   -8.01 KCAL/MOL
REMARK 924 INTRA-LIGAND FREE ENERGY PREDICTED BY IDOCK:    0.42 KCAL/MOL
REMARK 927      BINDING AFFINITY PREDICTED BY RF-SCORE:    0.00 PKD
ROOT
HETATM    1  C   UNL     1      -5.246   6.496  66.055  1.00  0.00    -0.017 C  
HETATM    2  O   UNL     1      -6.136   6.918  65.024  1.00  0.00    -0.035 OA 
ENDROOT
BRANCH   2   3
HETATM    3  C   UNL     1      -7.362   7.392  65.420  1.00  0.00    -0.072 A  
HETATM    4  C   UNL     1      -8.275   6.547  66.062  1.00  0.00    -0.127 A  
HETATM    5  C   UNL     1      -9.528   7.003  66.476  1.00  0.00    -0.199 A  
HETATM    6  C   UNL     1      -9.872   8.331  66.252  1.00  0.00    -0.227 A  
HETATM    7  C   UNL     1      -7.687   8.754  65.223  1.00  0.00    -0.098 A  
HETATM    8  C   UNL     1      -8.963   9.213  65.638  1.00  0.00    -0.203 A  
BRANCH   5   9
HETATM    9  C   UNL     1     -10.417   6.013  67.131  1.00  0.00    -0.264 C  
HETATM   10  O   UNL     1     -11.127   6.301  68.084  1.00  0.00    -0.329 OA 
BRANCH   9  11
HETATM   11  O   UNL     1     -10.303   4.781  66.575  1.00  0.00    -0.256 OA 
BRANCH  11  12
HETATM   12  C   UNL     1      -8.945   4.337  66.403  1.00  0.00    -0.120 C  
BRANCH  12  13
HETATM   13  C   UNL     1      -8.558   3.417  67.557  1.00  0.00    -0.117 C  
BRANCH  13  14
HETATM   14  C   UNL     1      -9.576   3.480  68.696  1.00  0.00    -0.070 C  
BRANCH  14  15
HETATM   15  N   UNL     1      -8.984   3.876  69.991  1.00  0.00    -0.090 NA 
HETATM   16  C   UNL     1      -7.825   4.758  69.804  1.00  0.00    -0.066 C  
BRANCH  15  17
HETATM   17  C   UNL     1     -10.037   4.524  70.819  1.00  0.00    -0.163 C  
BRANCH  17  18
HETATM   18  C   UNL     1      -9.491   5.341  72.014  1.00  0.00    -0.145 C  
BRANCH  18  19
HETATM   19  N   UNL     1     -10.433   6.302  72.633  1.00  0.00    -0.203 NA 
HETATM   20  C   UNL     1     -10.454   6.155  74.092  1.00  0.00    -0.231 C  
BRANCH  19  21
HETATM   21  C   UNL     1     -10.060   7.692  72.288  1.00  0.00    -0.208 C  
BRANCH  21  22
HETATM   22  C   UNL     1      -8.833   7.785  71.375  1.00  0.00    -0.149 C  
BRANCH  22  23
HETATM   23  C   UNL     1      -9.127   8.583  70.111  1.00  0.00    -0.152 C  
BRANCH  23  24
HETATM   24  O   UNL     1      -9.974   9.699  70.433  1.00  0.00    -0.252 OA 
BRANCH  24  25
HETATM   25  C   UNL     1     -10.914  10.009  69.505  1.00  0.00    -0.253 C  
HETATM   26  O   UNL     1     -11.496   9.220  68.779  1.00  0.00     0.257 OA 
BRANCH  25  27
HETATM   27  C   UNL     1     -11.172  11.474  69.498  1.00  0.00    -0.305 A  
HETATM   28  C   UNL     1     -10.586  12.239  68.489  1.00  0.00    -0.254 A  
HETATM   29  C   UNL     1     -10.761  13.623  68.465  1.00  0.00    -0.255 A  
HETATM   30  C   UNL     1     -11.522  14.261  69.475  1.00  0.00    -0.287 A  
HETATM   31  C   UNL     1     -11.960  12.093  70.474  1.00  0.00    -0.308 A  
HETATM   32  C   UNL     1     -12.135  13.485  70.484  1.00  0.00    -0.335 A  
BRANCH  29  33
HETATM   33  O   UNL     1     -10.178  14.430  67.514  1.00  0.00    -0.238 OA 
HETATM   34  C   UNL     1      -8.755  14.412  67.454  1.00  0.00    -0.204 C  
ENDBRANCH  29  33
BRANCH  30  35
HETATM   35  O   UNL     1     -11.538  15.634  69.399  1.00  0.00    -0.321 OA 
HETATM   36  C   UNL     1     -11.500  16.380  70.608  1.00  0.00    -0.154 C  
ENDBRANCH  30  35
BRANCH  32  37
HETATM   37  O   UNL     1     -12.856  14.124  71.457  1.00  0.00    -0.320 OA 
HETATM   38  C   UNL     1     -13.880  13.398  72.128  1.00  0.00    -0.511 C  
ENDBRANCH  32  37
ENDBRANCH  25  27
ENDBRANCH  24  25
ENDBRANCH  23  24
ENDBRANCH  22  23
ENDBRANCH  21  22
ENDBRANCH  19  21
ENDBRANCH  18  19
ENDBRANCH  17  18
ENDBRANCH  15  17
ENDBRANCH  14  15
ENDBRANCH  13  14
ENDBRANCH  12  13
ENDBRANCH  11  12
ENDBRANCH   9  11
ENDBRANCH   5   9
BRANCH   8  39
HETATM   39  O   UNL     1      -9.499  10.475  65.530  1.00  0.00    -0.189 OA 
HETATM   40  C   UNL     1     -10.253  10.826  64.380  1.00  0.00    -0.364 C  
ENDBRANCH   8  39
BRANCH   7  41
HETATM   41  O   UNL     1      -6.871   9.689  64.643  1.00  0.00    -0.097 OA 
HETATM   42  C   UNL     1      -5.661  10.089  65.265  1.00  0.00    -0.081 C  
ENDBRANCH   7  41
ENDBRANCH   2   3
TORSDOF 21
ENDMDL
MODEL      293
REMARK 921   NORMALIZED FREE ENERGY PREDICTED BY IDOCK:   -2.09 KCAL/MOL
REMARK 922        TOTAL FREE ENERGY PREDICTED BY IDOCK:   -7.51 KCAL/MOL
REMARK 923 INTER-LIGAND FREE ENERGY PREDICTED BY IDOCK:   -5.63 KCAL/MOL
REMARK 924 INTRA-LIGAND FREE ENERGY PREDICTED BY IDOCK:   -1.88 KCAL/MOL
REMARK 927      BINDING AFFINITY PREDICTED BY RF-SCORE:    0.00 PKD
ROOT
HETATM    1  C   UNL     1     -10.387   5.026  74.168  1.00  0.00    -0.268 C  
HETATM    2  O   UNL     1      -9.798   5.977  73.284  1.00  0.00    -0.158 OA 
ENDROOT
BRANCH   2   3
HETATM    3  C   UNL     1      -9.817   5.672  71.945  1.00  0.00    -0.166 A  
HETATM    4  C   UNL     1      -8.890   4.769  71.412  1.00  0.00    -0.152 A  
HETATM    5  C   UNL     1      -8.887   4.441  70.055  1.00  0.00    -0.126 A  
HETATM    6  C   UNL     1      -9.833   5.020  69.217  1.00  0.00    -0.266 A  
HETATM    7  C   UNL     1     -10.807   6.237  71.109  1.00  0.00    -0.266 A  
HETATM    8  C   UNL     1     -10.797   5.908  69.730  1.00  0.00    -0.377 A  
BRANCH   5   9
HETATM    9  C   UNL     1      -7.849   3.483  69.601  1.00  0.00    -0.050 C  
HETATM   10  O   UNL     1      -7.689   2.392  70.130  1.00  0.00    -0.043 OA 
BRANCH   9  11
HETATM   11  O   UNL     1      -7.105   3.985  68.585  1.00  0.00    -0.053 OA 
BRANCH  11  12
HETATM   12  C   UNL     1      -7.083   3.157  67.408  1.00  0.00    -0.054 C  
BRANCH  12  13
HETATM   13  C   UNL     1      -7.105   4.040  66.163  1.00  0.00    -0.067 C  
BRANCH  13  14
HETATM   14  C   UNL     1      -7.586   5.456  66.482  1.00  0.00    -0.088 C  
BRANCH  14  15
HETATM   15  N   UNL     1      -6.504   6.463  66.457  1.00  0.00    -0.045 NA 
HETATM   16  C   UNL     1      -5.583   6.232  65.337  1.00  0.00    -0.017 C  
BRANCH  15  17
HETATM   17  C   UNL     1      -7.116   7.818  66.394  1.00  0.00    -0.071 C  
BRANCH  17  18
HETATM   18  C   UNL     1      -6.912   8.665  67.672  1.00  0.00    -0.075 C  
BRANCH  18  19
HETATM   19  N   UNL     1      -8.012   8.625  68.665  1.00  0.00    -0.114 NA 
HETATM   20  C   UNL     1      -7.572   7.999  69.916  1.00  0.00    -0.087 C  
BRANCH  19  21
HETATM   21  C   UNL     1      -8.506   9.990  68.950  1.00  0.00    -0.132 C  
BRANCH  21  22
HETATM   22  C   UNL     1      -8.775  10.817  67.689  1.00  0.00    -0.126 C  
BRANCH  22  23
HETATM   23  C   UNL     1      -9.303  12.206  68.024  1.00  0.00    -0.197 C  
BRANCH  23  24
HETATM   24  O   UNL     1      -8.710  13.172  67.140  1.00  0.00    -0.205 OA 
BRANCH  24  25
HETATM   25  C   UNL     1      -7.669  13.875  67.653  1.00  0.00    -0.184 C  
HETATM   26  O   UNL     1      -6.664  13.405  68.160  1.00  0.00    -0.089 OA 
BRANCH  25  27
HETATM   27  C   UNL     1      -7.902  15.335  67.494  1.00  0.00    -0.198 A  
HETATM   28  C   UNL     1      -6.842  16.124  67.045  1.00  0.00    -0.216 A  
HETATM   29  C   UNL     1      -6.997  17.505  66.922  1.00  0.00    -0.184 A  
HETATM   30  C   UNL     1      -8.226  18.117  67.269  1.00  0.00    -0.229 A  
HETATM   31  C   UNL     1      -9.132  15.928  67.798  1.00  0.00    -0.196 A  
HETATM   32  C   UNL     1      -9.307  17.317  67.703  1.00  0.00    -0.237 A  
BRANCH  29  33
HETATM   33  O   UNL     1      -5.975  18.334  66.517  1.00  0.00    -0.146 OA 
HETATM   34  C   UNL     1      -5.291  19.045  67.545  1.00  0.00    -0.164 C  
ENDBRANCH  29  33
BRANCH  30  35
HETATM   35  O   UNL     1      -8.222  19.490  67.201  1.00  0.00    -0.264 OA 
HETATM   36  C   UNL     1      -8.749  20.112  66.038  1.00  0.00    -0.127 C  
ENDBRANCH  30  35
BRANCH  32  37
HETATM   37  O   UNL     1     -10.483  17.930  68.043  1.00  0.00    -0.369 OA 
HETATM   38  C   UNL     1     -10.687  18.294  69.404  1.00  0.00     0.893 C  
ENDBRANCH  32  37
ENDBRANCH  25  27
ENDBRANCH  24  25
ENDBRANCH  23  24
ENDBRANCH  22  23
ENDBRANCH  21  22
ENDBRANCH  19  21
ENDBRANCH  18  19
ENDBRANCH  17  18
ENDBRANCH  15  17
ENDBRANCH  14  15
ENDBRANCH  13  14
ENDBRANCH  12  13
ENDBRANCH  11  12
ENDBRANCH   9  11
ENDBRANCH   5   9
BRANCH   8  39
HETATM   39  O   UNL     1     -11.639   6.348  68.735  1.00  0.00    -0.182 OA 
HETATM   40  C   UNL     1     -11.157   7.243  67.746  1.00  0.00     0.039 C  
ENDBRANCH   8  39
BRANCH   7  41
HETATM   41  O   UNL     1     -11.789   7.103  71.513  1.00  0.00    -0.280 OA 
HETATM   42  C   UNL     1     -11.585   8.506  71.477  1.00  0.00    -0.292 C  
ENDBRANCH   7  41
ENDBRANCH   2   3
TORSDOF 21
ENDMDL
MODEL      294
REMARK 921   NORMALIZED FREE ENERGY PREDICTED BY IDOCK:   -2.05 KCAL/MOL
REMARK 922        TOTAL FREE ENERGY PREDICTED BY IDOCK:   -7.42 KCAL/MOL
REMARK 923 INTER-LIGAND FREE ENERGY PREDICTED BY IDOCK:   -7.97 KCAL/MOL
REMARK 924 INTRA-LIGAND FREE ENERGY PREDICTED BY IDOCK:    0.55 KCAL/MOL
REMARK 927      BINDING AFFINITY PREDICTED BY RF-SCORE:    0.00 PKD
ROOT
HETATM    1  C   UNL     1      -7.635   8.095  69.483  1.00  0.00    -0.100 C  
HETATM    2  O   UNL     1      -6.705   8.364  68.437  1.00  0.00    -0.061 OA 
ENDROOT
BRANCH   2   3
HETATM    3  C   UNL     1      -6.866   7.661  67.268  1.00  0.00    -0.069 A  
HETATM    4  C   UNL     1      -7.575   6.454  67.260  1.00  0.00    -0.096 A  
HETATM    5  C   UNL     1      -7.755   5.720  66.086  1.00  0.00    -0.095 A  
HETATM    6  C   UNL     1      -7.224   6.206  64.896  1.00  0.00    -0.063 A  
HETATM    7  C   UNL     1      -6.356   8.184  66.057  1.00  0.00    -0.046 A  
HETATM    8  C   UNL     1      -6.534   7.433  64.868  1.00  0.00    -0.037 A  
BRANCH   5   9
HETATM    9  C   UNL     1      -8.509   4.448  66.202  1.00  0.00    -0.113 C  
HETATM   10  O   UNL     1      -8.638   3.676  65.263  1.00  0.00    -0.110 OA 
BRANCH   9  11
HETATM   11  O   UNL     1      -9.052   4.290  67.435  1.00  0.00    -0.121 OA 
BRANCH  11  12
HETATM   12  C   UNL     1      -8.316   3.398  68.291  1.00  0.00    -0.082 C  
BRANCH  12  13
HETATM   13  C   UNL     1      -8.748   3.606  69.739  1.00  0.00    -0.126 C  
BRANCH  13  14
HETATM   14  C   UNL     1     -10.056   4.393  69.831  1.00  0.00    -0.053 C  
BRANCH  14  15
HETATM   15  N   UNL     1     -10.150   5.239  71.039  1.00  0.00    -0.210 NA 
HETATM   16  C   UNL     1      -8.831   5.445  71.652  1.00  0.00    -0.135 C  
BRANCH  15  17
HETATM   17  C   UNL     1     -10.790   6.530  70.669  1.00  0.00    -0.266 C  
BRANCH  17  18
HETATM   18  C   UNL     1     -11.895   6.992  71.649  1.00  0.00    -0.313 C  
BRANCH  18  19
HETATM   19  N   UNL     1     -11.555   8.140  72.522  1.00  0.00    -0.399 NA 
HETATM   20  C   UNL     1     -10.242   8.696  72.177  1.00  0.00    -0.323 C  
BRANCH  19  21
HETATM   21  C   UNL     1     -12.579   9.203  72.407  1.00  0.00    -0.311 C  
BRANCH  21  22
HETATM   22  C   UNL     1     -12.726   9.756  70.986  1.00  0.00    -0.392 C  
BRANCH  22  23
HETATM   23  C   UNL     1     -12.403  11.243  70.921  1.00  0.00    -0.388 C  
BRANCH  23  24
HETATM   24  O   UNL     1     -11.116  11.430  70.310  1.00  0.00    -0.048 OA 
BRANCH  24  25
HETATM   25  C   UNL     1     -11.015  11.025  69.019  1.00  0.00    -0.233 C  
HETATM   26  O   UNL     1     -10.943   9.871  68.630  1.00  0.00    -0.225 OA 
BRANCH  25  27
HETATM   27  C   UNL     1     -11.028  12.198  68.105  1.00  0.00    -0.271 A  
HETATM   28  C   UNL     1     -11.439  13.428  68.621  1.00  0.00    -0.345 A  
HETATM   29  C   UNL     1     -11.511  14.549  67.793  1.00  0.00    -0.340 A  
HETATM   30  C   UNL     1     -11.181  14.441  66.420  1.00  0.00    -0.345 A  
HETATM   31  C   UNL     1     -10.660  12.095  66.760  1.00  0.00    -0.256 A  
HETATM   32  C   UNL     1     -10.742  13.202  65.901  1.00  0.00    -0.274 A  
BRANCH  29  33
HETATM   33  O   UNL     1     -11.943  15.777  68.241  1.00  0.00    -0.220 OA 
HETATM   34  C   UNL     1     -10.933  16.685  68.672  1.00  0.00    -0.328 C  
ENDBRANCH  29  33
BRANCH  30  35
HETATM   35  O   UNL     1     -11.387  15.588  65.690  1.00  0.00    -0.212 OA 
HETATM   36  C   UNL     1     -10.812  15.678  64.394  1.00  0.00     0.112 C  
ENDBRANCH  30  35
BRANCH  32  37
HETATM   37  O   UNL     1     -10.439  13.118  64.569  1.00  0.00    -0.377 OA 
HETATM   38  C   UNL     1     -11.222  12.257  63.749  1.00  0.00    -0.440 C  
ENDBRANCH  32  37
ENDBRANCH  25  27
ENDBRANCH  24  25
ENDBRANCH  23  24
ENDBRANCH  22  23
ENDBRANCH  21  22
ENDBRANCH  19  21
ENDBRANCH  18  19
ENDBRANCH  17  18
ENDBRANCH  15  17
ENDBRANCH  14  15
ENDBRANCH  13  14
ENDBRANCH  12  13
ENDBRANCH  11  12
ENDBRANCH   9  11
ENDBRANCH   5   9
BRANCH   8  39
HETATM   39  O   UNL     1      -6.110   7.729  63.593  1.00  0.00    -0.056 OA 
HETATM   40  C   UNL     1      -7.063   7.925  62.560  1.00  0.00    -0.087 C  
ENDBRANCH   8  39
BRANCH   7  41
HETATM   41  O   UNL     1      -5.679   9.367  65.925  1.00  0.00    -0.048 OA 
HETATM   42  C   UNL     1      -5.308   9.857  64.648  1.00  0.00    -0.074 C  
ENDBRANCH   7  41
ENDBRANCH   2   3
TORSDOF 21
ENDMDL
MODEL      295
REMARK 921   NORMALIZED FREE ENERGY PREDICTED BY IDOCK:   -1.97 KCAL/MOL
REMARK 922        TOTAL FREE ENERGY PREDICTED BY IDOCK:   -7.25 KCAL/MOL
REMARK 923 INTER-LIGAND FREE ENERGY PREDICTED BY IDOCK:   -7.50 KCAL/MOL
REMARK 924 INTRA-LIGAND FREE ENERGY PREDICTED BY IDOCK:    0.25 KCAL/MOL
REMARK 927      BINDING AFFINITY PREDICTED BY RF-SCORE:    0.00 PKD
ROOT
HETATM    1  C   UNL     1      -9.895   2.945  69.703  1.00  0.00     0.325 C  
HETATM    2  O   UNL     1      -8.700   2.625  70.412  1.00  0.00    -0.063 OA 
ENDROOT
BRANCH   2   3
HETATM    3  C   UNL     1      -7.815   3.652  70.629  1.00  0.00    -0.053 A  
HETATM    4  C   UNL     1      -7.722   4.253  71.891  1.00  0.00    -0.079 A  
HETATM    5  C   UNL     1      -6.831   5.298  72.139  1.00  0.00    -0.069 A  
HETATM    6  C   UNL     1      -6.011   5.747  71.110  1.00  0.00    -0.029 A  
HETATM    7  C   UNL     1      -6.958   4.075  69.587  1.00  0.00    -0.042 A  
HETATM    8  C   UNL     1      -6.059   5.142  69.840  1.00  0.00    -0.021 A  
BRANCH   5   9
HETATM    9  C   UNL     1      -6.832   5.865  73.510  1.00  0.00    -0.080 C  
HETATM   10  O   UNL     1      -7.244   5.240  74.477  1.00  0.00    -0.081 OA 
BRANCH   9  11
HETATM   11  O   UNL     1      -6.370   7.140  73.532  1.00  0.00    -0.064 OA 
BRANCH  11  12
HETATM   12  C   UNL     1      -7.301   8.093  74.075  1.00  0.00    -0.171 C  
BRANCH  12  13
HETATM   13  C   UNL     1      -8.628   7.994  73.329  1.00  0.00    -0.297 C  
BRANCH  13  14
HETATM   14  C   UNL     1      -8.505   8.497  71.890  1.00  0.00    -0.170 C  
BRANCH  14  15
HETATM   15  N   UNL     1      -9.716   8.253  71.077  1.00  0.00    -0.158 NA 
HETATM   16  C   UNL     1      -9.701   6.909  70.483  1.00  0.00    -0.172 C  
BRANCH  15  17
HETATM   17  C   UNL     1     -10.915   8.460  71.933  1.00  0.00    -0.305 C  
BRANCH  17  18
HETATM   18  C   UNL     1     -12.256   8.132  71.235  1.00  0.00    -0.279 C  
BRANCH  18  19
HETATM   19  N   UNL     1     -13.276   9.206  71.241  1.00  0.00    -0.285 NA 
HETATM   20  C   UNL     1     -14.120   9.126  72.438  1.00  0.00    -0.359 C  
BRANCH  19  21
HETATM   21  C   UNL     1     -12.631  10.537  71.188  1.00  0.00    -0.417 C  
BRANCH  21  22
HETATM   22  C   UNL     1     -11.531  10.639  70.127  1.00  0.00    -0.411 C  
BRANCH  22  23
HETATM   23  C   UNL     1     -11.293  12.080  69.695  1.00  0.00    -0.179 C  
BRANCH  23  24
HETATM   24  O   UNL     1     -12.053  12.965  70.534  1.00  0.00    -0.356 OA 
BRANCH  24  25
HETATM   25  C   UNL     1     -11.568  14.228  70.646  1.00  0.00    -0.148 C  
HETATM   26  O   UNL     1     -11.409  14.848  71.685  1.00  0.00    -0.315 OA 
BRANCH  25  27
HETATM   27  C   UNL     1     -11.222  14.771  69.306  1.00  0.00    -0.303 A  
HETATM   28  C   UNL     1     -10.264  15.784  69.235  1.00  0.00    -0.248 A  
HETATM   29  C   UNL     1      -9.938  16.357  68.005  1.00  0.00    -0.242 A  
HETATM   30  C   UNL     1     -10.589  15.926  66.824  1.00  0.00    -0.309 A  
HETATM   31  C   UNL     1     -11.838  14.311  68.137  1.00  0.00    -0.374 A  
HETATM   32  C   UNL     1     -11.543  14.884  66.891  1.00  0.00    -0.277 A  
BRANCH  29  33
HETATM   33  O   UNL     1      -9.027  17.381  67.881  1.00  0.00    -0.242 OA 
HETATM   34  C   UNL     1      -8.108  17.545  68.958  1.00  0.00    -0.077 C  
ENDBRANCH  29  33
BRANCH  30  35
HETATM   35  O   UNL     1     -10.255  16.634  65.694  1.00  0.00    -0.496 OA 
HETATM   36  C   UNL     1     -10.867  17.899  65.482  1.00  0.00     0.115 C  
ENDBRANCH  30  35
BRANCH  32  37
HETATM   37  O   UNL     1     -12.168  14.491  65.739  1.00  0.00    -0.345 OA 
HETATM   38  C   UNL     1     -11.650  13.367  65.036  1.00  0.00    -0.317 C  
ENDBRANCH  32  37
ENDBRANCH  25  27
ENDBRANCH  24  25
ENDBRANCH  23  24
ENDBRANCH  22  23
ENDBRANCH  21  22
ENDBRANCH  19  21
ENDBRANCH  18  19
ENDBRANCH  17  18
ENDBRANCH  15  17
ENDBRANCH  14  15
ENDBRANCH  13  14
ENDBRANCH  12  13
ENDBRANCH  11  12
ENDBRANCH   9  11
ENDBRANCH   5   9
BRANCH   8  39
HETATM   39  O   UNL     1      -5.157   5.728  68.982  1.00  0.00    -0.003 OA 
HETATM   40  C   UNL     1      -5.422   7.018  68.453  1.00  0.00    -0.020 C  
ENDBRANCH   8  39
BRANCH   7  41
HETATM   41  O   UNL     1      -6.925   3.548  68.323  1.00  0.00    -0.049 OA 
HETATM   42  C   UNL     1      -6.552   2.198  68.105  1.00  0.00    -0.029 C  
ENDBRANCH   7  41
ENDBRANCH   2   3
TORSDOF 21
ENDMDL
MODEL      296
REMARK 921   NORMALIZED FREE ENERGY PREDICTED BY IDOCK:   -1.97 KCAL/MOL
REMARK 922        TOTAL FREE ENERGY PREDICTED BY IDOCK:   -7.25 KCAL/MOL
REMARK 923 INTER-LIGAND FREE ENERGY PREDICTED BY IDOCK:   -6.13 KCAL/MOL
REMARK 924 INTRA-LIGAND FREE ENERGY PREDICTED BY IDOCK:   -1.12 KCAL/MOL
REMARK 927      BINDING AFFINITY PREDICTED BY RF-SCORE:    0.00 PKD
ROOT
HETATM    1  C   UNL     1     -12.935  15.271  64.537  1.00  0.00     0.858 C  
HETATM    2  O   UNL     1     -12.753  14.361  65.618  1.00  0.00    -0.407 OA 
ENDROOT
BRANCH   2   3
HETATM    3  C   UNL     1     -11.468  13.948  65.871  1.00  0.00    -0.325 A  
HETATM    4  C   UNL     1     -11.034  12.683  65.456  1.00  0.00    -0.313 A  
HETATM    5  C   UNL     1      -9.734  12.240  65.700  1.00  0.00    -0.205 A  
HETATM    6  C   UNL     1      -8.846  13.079  66.363  1.00  0.00     0.083 A  
HETATM    7  C   UNL     1     -10.561  14.824  66.512  1.00  0.00    -0.299 A  
HETATM    8  C   UNL     1      -9.242  14.369  66.765  1.00  0.00    -0.268 A  
BRANCH   5   9
HETATM    9  C   UNL     1      -9.393  10.876  65.226  1.00  0.00    -0.213 C  
HETATM   10  O   UNL     1     -10.082  10.273  64.416  1.00  0.00    -0.324 OA 
BRANCH   9  11
HETATM   11  O   UNL     1      -8.277  10.393  65.828  1.00  0.00    -0.145 OA 
BRANCH  11  12
HETATM   12  C   UNL     1      -8.354  10.357  67.265  1.00  0.00    -0.122 C  
BRANCH  12  13
HETATM   13  C   UNL     1      -8.331   8.907  67.741  1.00  0.00    -0.110 C  
BRANCH  13  14
HETATM   14  C   UNL     1      -7.482   8.740  69.002  1.00  0.00    -0.081 C  
BRANCH  14  15
HETATM   15  N   UNL     1      -8.073   7.812  69.989  1.00  0.00    -0.116 NA 
HETATM   16  C   UNL     1      -7.204   7.652  71.162  1.00  0.00    -0.062 C  
BRANCH  15  17
HETATM   17  C   UNL     1      -9.420   8.316  70.370  1.00  0.00    -0.167 C  
BRANCH  17  18
HETATM   18  C   UNL     1      -9.645   8.431  71.897  1.00  0.00    -0.254 C  
BRANCH  18  19
HETATM   19  N   UNL     1     -10.967   7.987  72.398  1.00  0.00    -0.310 NA 
HETATM   20  C   UNL     1     -12.017   8.226  71.402  1.00  0.00    -0.299 C  
BRANCH  19  21
HETATM   21  C   UNL     1     -10.937   6.548  72.740  1.00  0.00    -0.253 C  
BRANCH  21  22
HETATM   22  C   UNL     1     -10.181   6.246  74.038  1.00  0.00    -0.327 C  
BRANCH  22  23
HETATM   23  C   UNL     1     -10.492   4.851  74.564  1.00  0.00    -0.249 C  
BRANCH  23  24
HETATM   24  O   UNL     1     -11.110   4.072  73.525  1.00  0.00    -0.240 OA 
BRANCH  24  25
HETATM   25  C   UNL     1     -10.533   2.870  73.271  1.00  0.00    -0.157 C  
HETATM   26  O   UNL     1     -10.895   1.792  73.712  1.00  0.00    -0.118 OA 
BRANCH  25  27
HETATM   27  C   UNL     1      -9.384   3.032  72.342  1.00  0.00    -0.160 A  
HETATM   28  C   UNL     1      -9.641   3.023  70.970  1.00  0.00    -0.224 A  
HETATM   29  C   UNL     1      -8.591   3.127  70.058  1.00  0.00    -0.060 A  
HETATM   30  C   UNL     1      -7.255   3.226  70.518  1.00  0.00    -0.037 A  
HETATM   31  C   UNL     1      -8.071   3.174  72.803  1.00  0.00    -0.071 A  
HETATM   32  C   UNL     1      -6.995   3.259  71.907  1.00  0.00    -0.030 A  
BRANCH  29  33
HETATM   33  O   UNL     1      -8.784   3.088  68.695  1.00  0.00    -0.083 OA 
HETATM   34  C   UNL     1      -9.628   4.096  68.147  1.00  0.00    -0.134 C  
ENDBRANCH  29  33
BRANCH  30  35
HETATM   35  O   UNL     1      -6.305   3.221  69.524  1.00  0.00    -0.028 OA 
HETATM   36  C   UNL     1      -5.408   4.320  69.440  1.00  0.00    -0.008 C  
ENDBRANCH  30  35
BRANCH  32  37
HETATM   37  O   UNL     1      -5.695   3.344  72.329  1.00  0.00    -0.007 OA 
HETATM   38  C   UNL     1      -5.427   3.228  73.722  1.00  0.00     0.000 C  
ENDBRANCH  32  37
ENDBRANCH  25  27
ENDBRANCH  24  25
ENDBRANCH  23  24
ENDBRANCH  22  23
ENDBRANCH  21  22
ENDBRANCH  19  21
ENDBRANCH  18  19
ENDBRANCH  17  18
ENDBRANCH  15  17
ENDBRANCH  14  15
ENDBRANCH  13  14
ENDBRANCH  12  13
ENDBRANCH  11  12
ENDBRANCH   9  11
ENDBRANCH   5   9
BRANCH   8  39
HETATM   39  O   UNL     1      -8.209  15.030  67.386  1.00  0.00    -0.164 OA 
HETATM   40  C   UNL     1      -7.430  14.361  68.366  1.00  0.00    -0.119 C  
ENDBRANCH   8  39
BRANCH   7  41
HETATM   41  O   UNL     1     -10.849  16.096  66.934  1.00  0.00    -0.282 OA 
HETATM   42  C   UNL     1     -11.253  16.348  68.269  1.00  0.00    -0.300 C  
ENDBRANCH   7  41
ENDBRANCH   2   3
TORSDOF 21
ENDMDL
MODEL      297
REMARK 921   NORMALIZED FREE ENERGY PREDICTED BY IDOCK:   -1.91 KCAL/MOL
REMARK 922        TOTAL FREE ENERGY PREDICTED BY IDOCK:   -7.11 KCAL/MOL
REMARK 923 INTER-LIGAND FREE ENERGY PREDICTED BY IDOCK:   -6.69 KCAL/MOL
REMARK 924 INTRA-LIGAND FREE ENERGY PREDICTED BY IDOCK:   -0.42 KCAL/MOL
REMARK 927      BINDING AFFINITY PREDICTED BY RF-SCORE:    0.00 PKD
ROOT
HETATM    1  C   UNL     1     -13.648  14.012  72.230  1.00  0.00    -0.525 C  
HETATM    2  O   UNL     1     -13.265  12.676  71.910  1.00  0.00    -0.450 OA 
ENDROOT
BRANCH   2   3
HETATM    3  C   UNL     1     -12.605  12.489  70.721  1.00  0.00    -0.212 A  
HETATM    4  C   UNL     1     -12.123  13.587  69.997  1.00  0.00    -0.411 A  
HETATM    5  C   UNL     1     -11.448  13.425  68.786  1.00  0.00    -0.344 A  
HETATM    6  C   UNL     1     -11.244  12.142  68.292  1.00  0.00    -0.319 A  
HETATM    7  C   UNL     1     -12.368  11.178  70.246  1.00  0.00    -0.315 A  
HETATM    8  C   UNL     1     -11.689  11.017  69.012  1.00  0.00    -0.333 A  
BRANCH   5   9
HETATM    9  C   UNL     1     -10.996  14.662  68.103  1.00  0.00    -0.261 C  
HETATM   10  O   UNL     1     -11.649  15.195  67.216  1.00  0.00    -0.323 OA 
BRANCH   9  11
HETATM   11  O   UNL     1      -9.786  15.077  68.551  1.00  0.00    -0.204 OA 
BRANCH  11  12
HETATM   12  C   UNL     1      -8.672  14.569  67.793  1.00  0.00    -0.174 C  
BRANCH  12  13
HETATM   13  C   UNL     1      -7.593  14.065  68.746  1.00  0.00    -0.113 C  
BRANCH  13  14
HETATM   14  C   UNL     1      -6.451  13.381  67.995  1.00  0.00    -0.131 C  
BRANCH  14  15
HETATM   15  N   UNL     1      -6.883  12.201  67.216  1.00  0.00    -0.149 NA 
HETATM   16  C   UNL     1      -5.733  11.413  66.753  1.00  0.00    -0.131 C  
BRANCH  15  17
HETATM   17  C   UNL     1      -7.803  11.386  68.055  1.00  0.00    -0.121 C  
BRANCH  17  18
HETATM   18  C   UNL     1      -7.321  11.186  69.512  1.00  0.00    -0.018 C  
BRANCH  18  19
HETATM   19  N   UNL     1      -6.050  10.445  69.684  1.00  0.00    -0.046 NA 
HETATM   20  C   UNL     1      -5.154  11.140  70.614  1.00  0.00    -0.100 C  
BRANCH  19  21
HETATM   21  C   UNL     1      -6.309   9.077  70.188  1.00  0.00    -0.043 C  
BRANCH  21  22
HETATM   22  C   UNL     1      -5.773   8.839  71.603  1.00  0.00    -0.052 C  
BRANCH  22  23
HETATM   23  C   UNL     1      -5.506   7.362  71.866  1.00  0.00    -0.036 C  
BRANCH  23  24
HETATM   24  O   UNL     1      -5.889   7.037  73.213  1.00  0.00    -0.049 OA 
BRANCH  24  25
HETATM   25  C   UNL     1      -6.318   5.764  73.409  1.00  0.00    -0.067 C  
HETATM   26  O   UNL     1      -5.829   4.951  74.177  1.00  0.00    -0.027 OA 
BRANCH  25  27
HETATM   27  C   UNL     1      -7.509   5.483  72.565  1.00  0.00    -0.097 A  
HETATM   28  C   UNL     1      -7.304   4.903  71.312  1.00  0.00    -0.069 A  
HETATM   29  C   UNL     1      -8.385   4.660  70.465  1.00  0.00    -0.090 A  
HETATM   30  C   UNL     1      -9.696   5.016  70.864  1.00  0.00    -0.190 A  
HETATM   31  C   UNL     1      -8.806   5.797  72.983  1.00  0.00    -0.123 A  
HETATM   32  C   UNL     1      -9.908   5.582  72.141  1.00  0.00    -0.163 A  
BRANCH  29  33
HETATM   33  O   UNL     1      -8.236   4.122  69.206  1.00  0.00    -0.065 OA 
HETATM   34  C   UNL     1      -7.412   2.964  69.105  1.00  0.00    -0.047 C  
ENDBRANCH  29  33
BRANCH  30  35
HETATM   35  O   UNL     1     -10.661   4.819  69.904  1.00  0.00    -0.069 OA 
HETATM   36  C   UNL     1     -11.362   5.950  69.407  1.00  0.00    -0.038 C  
ENDBRANCH  30  35
BRANCH  32  37
HETATM   37  O   UNL     1     -11.183   5.929  72.502  1.00  0.00    -0.264 OA 
HETATM   38  C   UNL     1     -12.102   4.891  72.824  1.00  0.00     0.279 C  
ENDBRANCH  32  37
ENDBRANCH  25  27
ENDBRANCH  24  25
ENDBRANCH  23  24
ENDBRANCH  22  23
ENDBRANCH  21  22
ENDBRANCH  19  21
ENDBRANCH  18  19
ENDBRANCH  17  18
ENDBRANCH  15  17
ENDBRANCH  14  15
ENDBRANCH  13  14
ENDBRANCH  12  13
ENDBRANCH  11  12
ENDBRANCH   9  11
ENDBRANCH   5   9
BRANCH   8  39
HETATM   39  O   UNL     1     -11.370   9.853  68.352  1.00  0.00    -0.139 OA 
HETATM   40  C   UNL     1     -10.126   9.217  68.603  1.00  0.00    -0.194 C  
ENDBRANCH   8  39
BRANCH   7  41
HETATM   41  O   UNL     1     -12.754  10.024  70.874  1.00  0.00    -0.329 OA 
HETATM   42  C   UNL     1     -12.173   9.635  72.107  1.00  0.00    -0.139 C  
ENDBRANCH   7  41
ENDBRANCH   2   3
TORSDOF 21
ENDMDL
MODEL      298
REMARK 921   NORMALIZED FREE ENERGY PREDICTED BY IDOCK:   -1.88 KCAL/MOL
REMARK 922        TOTAL FREE ENERGY PREDICTED BY IDOCK:   -7.06 KCAL/MOL
REMARK 923 INTER-LIGAND FREE ENERGY PREDICTED BY IDOCK:   -6.51 KCAL/MOL
REMARK 924 INTRA-LIGAND FREE ENERGY PREDICTED BY IDOCK:   -0.55 KCAL/MOL
REMARK 927      BINDING AFFINITY PREDICTED BY RF-SCORE:    0.00 PKD
ROOT
HETATM    1  C   UNL     1     -10.662   2.127  72.596  1.00  0.00    -0.063 C  
HETATM    2  O   UNL     1     -10.956   3.168  73.525  1.00  0.00    -0.201 OA 
ENDROOT
BRANCH   2   3
HETATM    3  C   UNL     1     -10.357   4.383  73.303  1.00  0.00    -0.173 A  
HETATM    4  C   UNL     1     -11.032   5.388  72.599  1.00  0.00    -0.321 A  
HETATM    5  C   UNL     1     -10.447   6.632  72.361  1.00  0.00    -0.232 A  
HETATM    6  C   UNL     1      -9.166   6.881  72.841  1.00  0.00    -0.154 A  
HETATM    7  C   UNL     1      -9.070   4.639  73.829  1.00  0.00    -0.108 A  
HETATM    8  C   UNL     1      -8.475   5.902  73.579  1.00  0.00    -0.120 A  
BRANCH   5   9
HETATM    9  C   UNL     1     -11.252   7.613  71.591  1.00  0.00    -0.247 C  
HETATM   10  O   UNL     1     -11.576   8.698  72.052  1.00  0.00    -0.323 OA 
BRANCH   9  11
HETATM   11  O   UNL     1     -11.599   7.138  70.370  1.00  0.00    -0.295 OA 
BRANCH  11  12
HETATM   12  C   UNL     1     -10.484   6.717  69.564  1.00  0.00    -0.218 C  
BRANCH  12  13
HETATM   13  C   UNL     1      -9.682   7.938  69.124  1.00  0.00    -0.162 C  
BRANCH  13  14
HETATM   14  C   UNL     1     -10.528   8.899  68.287  1.00  0.00    -0.195 C  
BRANCH  14  15
HETATM   15  N   UNL     1     -10.534   8.573  66.846  1.00  0.00    -0.303 NA 
HETATM   16  C   UNL     1     -10.616   9.786  66.022  1.00  0.00     0.118 C  
BRANCH  15  17
HETATM   17  C   UNL     1      -9.316   7.778  66.531  1.00  0.00    -0.189 C  
BRANCH  17  18
HETATM   18  C   UNL     1      -8.291   8.517  65.638  1.00  0.00    -0.148 C  
BRANCH  18  19
HETATM   19  N   UNL     1      -6.986   8.832  66.265  1.00  0.00    -0.080 NA 
HETATM   20  C   UNL     1      -6.333   7.617  66.764  1.00  0.00    -0.049 C  
BRANCH  19  21
HETATM   21  C   UNL     1      -6.091   9.503  65.295  1.00  0.00    -0.067 C  
BRANCH  21  22
HETATM   22  C   UNL     1      -5.160  10.535  65.940  1.00  0.00    -0.071 C  
BRANCH  22  23
HETATM   23  C   UNL     1      -5.923  11.763  66.421  1.00  0.00     0.197 C  
BRANCH  23  24
HETATM   24  O   UNL     1      -5.186  12.404  67.475  1.00  0.00    -0.090 OA 
BRANCH  24  25
HETATM   25  C   UNL     1      -5.902  12.720  68.584  1.00  0.00    -0.064 C  
HETATM   26  O   UNL     1      -5.607  12.440  69.734  1.00  0.00    -0.083 OA 
BRANCH  25  27
HETATM   27  C   UNL     1      -7.115  13.495  68.214  1.00  0.00    -0.110 A  
HETATM   28  C   UNL     1      -6.982  14.870  68.015  1.00  0.00    -0.150 A  
HETATM   29  C   UNL     1      -8.099  15.648  67.710  1.00  0.00    -0.146 A  
HETATM   30  C   UNL     1      -9.379  15.049  67.617  1.00  0.00    -0.194 A  
HETATM   31  C   UNL     1      -8.370  12.891  68.081  1.00  0.00    -0.168 A  
HETATM   32  C   UNL     1      -9.513  13.653  67.795  1.00  0.00    -0.221 A  
BRANCH  29  33
HETATM   33  O   UNL     1      -8.031  17.012  67.537  1.00  0.00    -0.171 OA 
HETATM   34  C   UNL     1      -6.899  17.666  68.104  1.00  0.00    -0.207 C  
ENDBRANCH  29  33
BRANCH  30  35
HETATM   35  O   UNL     1     -10.412  15.933  67.411  1.00  0.00    -0.293 OA 
HETATM   36  C   UNL     1     -10.946  16.623  68.532  1.00  0.00    -0.339 C  
ENDBRANCH  30  35
BRANCH  32  37
HETATM   37  O   UNL     1     -10.761  13.097  67.712  1.00  0.00    -0.233 OA 
HETATM   38  C   UNL     1     -11.429  12.747  68.919  1.00  0.00    -0.305 C  
ENDBRANCH  32  37
ENDBRANCH  25  27
ENDBRANCH  24  25
ENDBRANCH  23  24
ENDBRANCH  22  23
ENDBRANCH  21  22
ENDBRANCH  19  21
ENDBRANCH  18  19
ENDBRANCH  17  18
ENDBRANCH  15  17
ENDBRANCH  14  15
ENDBRANCH  13  14
ENDBRANCH  12  13
ENDBRANCH  11  12
ENDBRANCH   9  11
ENDBRANCH   5   9
BRANCH   8  39
HETATM   39  O   UNL     1      -7.238   6.362  73.968  1.00  0.00    -0.086 OA 
HETATM   40  C   UNL     1      -6.951   7.750  73.913  1.00  0.00    -0.101 C  
ENDBRANCH   8  39
BRANCH   7  41
HETATM   41  O   UNL     1      -8.321   3.757  74.563  1.00  0.00    -0.084 OA 
HETATM   42  C   UNL     1      -8.113   2.428  74.115  1.00  0.00    -0.059 C  
ENDBRANCH   7  41
ENDBRANCH   2   3
TORSDOF 21
ENDMDL
MODEL      299
REMARK 921   NORMALIZED FREE ENERGY PREDICTED BY IDOCK:   -1.85 KCAL/MOL
REMARK 922        TOTAL FREE ENERGY PREDICTED BY IDOCK:   -6.98 KCAL/MOL
REMARK 923 INTER-LIGAND FREE ENERGY PREDICTED BY IDOCK:   -8.33 KCAL/MOL
REMARK 924 INTRA-LIGAND FREE ENERGY PREDICTED BY IDOCK:    1.35 KCAL/MOL
REMARK 927      BINDING AFFINITY PREDICTED BY RF-SCORE:    0.00 PKD
ROOT
HETATM    1  C   UNL     1     -10.015   2.945  72.378  1.00  0.00    -0.165 C  
HETATM    2  O   UNL     1     -10.964   3.770  73.050  1.00  0.00    -0.155 OA 
ENDROOT
BRANCH   2   3
HETATM    3  C   UNL     1     -10.719   5.121  73.052  1.00  0.00    -0.255 A  
HETATM    4  C   UNL     1     -11.560   5.995  72.351  1.00  0.00    -0.349 A  
HETATM    5  C   UNL     1     -11.334   7.372  72.337  1.00  0.00    -0.341 A  
HETATM    6  C   UNL     1     -10.252   7.888  73.042  1.00  0.00    -0.394 A  
HETATM    7  C   UNL     1      -9.639   5.639  73.804  1.00  0.00    -0.143 A  
HETATM    8  C   UNL     1      -9.407   7.038  73.781  1.00  0.00    -0.209 A  
BRANCH   5   9
HETATM    9  C   UNL     1     -12.282   8.197  71.549  1.00  0.00    -0.301 C  
HETATM   10  O   UNL     1     -13.100   8.938  72.076  1.00  0.00    -0.346 OA 
BRANCH   9  11
HETATM   11  O   UNL     1     -12.149   7.989  70.215  1.00  0.00     0.138 OA 
BRANCH  11  12
HETATM   12  C   UNL     1     -10.828   7.582  69.813  1.00  0.00    -0.225 C  
BRANCH  12  13
HETATM   13  C   UNL     1      -9.889   8.783  69.853  1.00  0.00    -0.189 C  
BRANCH  13  14
HETATM   14  C   UNL     1     -10.054   9.671  68.619  1.00  0.00    -0.179 C  
BRANCH  14  15
HETATM   15  N   UNL     1      -9.572   9.041  67.372  1.00  0.00    -0.147 NA 
HETATM   16  C   UNL     1      -9.518  10.009  66.269  1.00  0.00    -0.191 C  
BRANCH  15  17
HETATM   17  C   UNL     1      -8.240   8.430  67.631  1.00  0.00    -0.126 C  
BRANCH  17  18
HETATM   18  C   UNL     1      -7.047   9.380  67.376  1.00  0.00    -0.086 C  
BRANCH  18  19
HETATM   19  N   UNL     1      -6.926  10.538  68.292  1.00  0.00    -0.072 NA 
HETATM   20  C   UNL     1      -6.725  10.098  69.677  1.00  0.00    -0.076 C  
BRANCH  19  21
HETATM   21  C   UNL     1      -5.797  11.406  67.889  1.00  0.00    -0.044 C  
BRANCH  21  22
HETATM   22  C   UNL     1      -5.945  12.856  68.363  1.00  0.00    -0.074 C  
BRANCH  22  23
HETATM   23  C   UNL     1      -6.765  13.690  67.387  1.00  0.00    -0.004 C  
BRANCH  23  24
HETATM   24  O   UNL     1      -6.827  15.049  67.850  1.00  0.00    -0.124 OA 
BRANCH  24  25
HETATM   25  C   UNL     1      -7.981  15.408  68.466  1.00  0.00    -0.140 C  
HETATM   26  O   UNL     1      -8.093  16.229  69.363  1.00  0.00    -0.208 OA 
BRANCH  25  27
HETATM   27  C   UNL     1      -9.132  14.672  67.880  1.00  0.00    -0.189 A  
HETATM   28  C   UNL     1      -9.267  14.663  66.491  1.00  0.00    -0.294 A  
HETATM   29  C   UNL     1     -10.355  14.023  65.896  1.00  0.00    -0.318 A  
HETATM   30  C   UNL     1     -11.338  13.394  66.698  1.00  0.00    -0.323 A  
HETATM   31  C   UNL     1     -10.076  14.015  68.677  1.00  0.00    -0.217 A  
HETATM   32  C   UNL     1     -11.190  13.382  68.104  1.00  0.00    -0.273 A  
BRANCH  29  33
HETATM   33  O   UNL     1     -10.556  14.013  64.534  1.00  0.00    -0.416 OA 
HETATM   34  C   UNL     1     -10.306  12.779  63.866  1.00  0.00    -0.324 C  
ENDBRANCH  29  33
BRANCH  30  35
HETATM   35  O   UNL     1     -12.409  12.888  66.001  1.00  0.00    -0.504 OA 
HETATM   36  C   UNL     1     -13.271  13.797  65.330  1.00  0.00     0.028 C  
ENDBRANCH  30  35
BRANCH  32  37
HETATM   37  O   UNL     1     -12.157  12.778  68.861  1.00  0.00    -0.269 OA 
HETATM   38  C   UNL     1     -12.130  12.965  70.271  1.00  0.00    -0.302 C  
ENDBRANCH  32  37
ENDBRANCH  25  27
ENDBRANCH  24  25
ENDBRANCH  23  24
ENDBRANCH  22  23
ENDBRANCH  21  22
ENDBRANCH  19  21
ENDBRANCH  18  19
ENDBRANCH  17  18
ENDBRANCH  15  17
ENDBRANCH  14  15
ENDBRANCH  13  14
ENDBRANCH  12  13
ENDBRANCH  11  12
ENDBRANCH   9  11
ENDBRANCH   5   9
BRANCH   8  39
HETATM   39  O   UNL     1      -8.417   7.756  74.411  1.00  0.00    -0.226 OA 
HETATM   40  C   UNL     1      -7.086   7.700  73.923  1.00  0.00    -0.104 C  
ENDBRANCH   8  39
BRANCH   7  41
HETATM   41  O   UNL     1      -8.768   4.898  74.558  1.00  0.00    -0.111 OA 
HETATM   42  C   UNL     1      -7.724   4.156  73.949  1.00  0.00    -0.081 C  
ENDBRANCH   7  41
ENDBRANCH   2   3
TORSDOF 21
ENDMDL
MODEL      300
REMARK 921   NORMALIZED FREE ENERGY PREDICTED BY IDOCK:   -1.84 KCAL/MOL
REMARK 922        TOTAL FREE ENERGY PREDICTED BY IDOCK:   -6.96 KCAL/MOL
REMARK 923 INTER-LIGAND FREE ENERGY PREDICTED BY IDOCK:   -6.78 KCAL/MOL
REMARK 924 INTRA-LIGAND FREE ENERGY PREDICTED BY IDOCK:   -0.18 KCAL/MOL
REMARK 927      BINDING AFFINITY PREDICTED BY RF-SCORE:    0.00 PKD
ROOT
HETATM    1  C   UNL     1     -11.253   6.204  66.852  1.00  0.00    -0.071 C  
HETATM    2  O   UNL     1      -9.864   5.915  66.991  1.00  0.00    -0.130 OA 
ENDROOT
BRANCH   2   3
HETATM    3  C   UNL     1      -9.199   6.546  68.014  1.00  0.00    -0.111 A  
HETATM    4  C   UNL     1      -9.905   7.311  68.952  1.00  0.00    -0.158 A  
HETATM    5  C   UNL     1      -9.255   7.962  70.001  1.00  0.00    -0.153 A  
HETATM    6  C   UNL     1      -7.875   7.841  70.122  1.00  0.00    -0.095 A  
HETATM    7  C   UNL     1      -7.801   6.385  68.150  1.00  0.00    -0.105 A  
HETATM    8  C   UNL     1      -7.142   7.054  69.213  1.00  0.00    -0.083 A  
BRANCH   5   9
HETATM    9  C   UNL     1     -10.104   8.755  70.924  1.00  0.00    -0.219 C  
HETATM   10  O   UNL     1      -9.706   9.135  72.016  1.00  0.00    -0.283 OA 
BRANCH   9  11
HETATM   11  O   UNL     1     -11.348   8.954  70.424  1.00  0.00    -0.257 OA 
BRANCH  11  12
HETATM   12  C   UNL     1     -11.373   9.671  69.177  1.00  0.00     0.071 C  
BRANCH  12  13
HETATM   13  C   UNL     1     -10.982  11.127  69.416  1.00  0.00    -0.298 C  
BRANCH  13  14
HETATM   14  C   UNL     1     -11.613  12.059  68.382  1.00  0.00    -0.311 C  
BRANCH  14  15
HETATM   15  N   UNL     1     -12.308  13.218  68.982  1.00  0.00    -0.080 NA 
HETATM   16  C   UNL     1     -12.113  13.264  70.438  1.00  0.00    -0.327 C  
BRANCH  15  17
HETATM   17  C   UNL     1     -11.821  14.460  68.324  1.00  0.00    -0.326 C  
BRANCH  17  18
HETATM   18  C   UNL     1     -10.292  14.673  68.425  1.00  0.00    -0.237 C  
BRANCH  18  19
HETATM   19  N   UNL     1      -9.445  13.656  67.759  1.00  0.00    -0.213 NA 
HETATM   20  C   UNL     1      -9.241  13.983  66.344  1.00  0.00    -0.162 C  
BRANCH  19  21
HETATM   21  C   UNL     1      -8.131  13.552  68.431  1.00  0.00    -0.145 C  
BRANCH  21  22
HETATM   22  C   UNL     1      -7.010  13.070  67.504  1.00  0.00    -0.155 C  
BRANCH  22  23
HETATM   23  C   UNL     1      -5.666  13.683  67.875  1.00  0.00    -0.120 C  
BRANCH  23  24
HETATM   24  O   UNL     1      -5.863  15.027  68.346  1.00  0.00    -0.094 OA 
BRANCH  24  25
HETATM   25  C   UNL     1      -5.849  15.991  67.391  1.00  0.00    -0.107 C  
HETATM   26  O   UNL     1      -5.139  16.010  66.399  1.00  0.00     0.279 OA 
BRANCH  25  27
HETATM   27  C   UNL     1      -6.854  17.043  67.701  1.00  0.00    -0.158 A  
HETATM   28  C   UNL     1      -8.013  17.092  66.926  1.00  0.00    -0.250 A  
HETATM   29  C   UNL     1      -8.965  18.088  67.149  1.00  0.00    -0.255 A  
HETATM   30  C   UNL     1      -8.752  19.064  68.152  1.00  0.00    -0.316 A  
HETATM   31  C   UNL     1      -6.658  17.978  68.723  1.00  0.00    -0.233 A  
HETATM   32  C   UNL     1      -7.589  19.001  68.953  1.00  0.00    -0.320 A  
BRANCH  29  33
HETATM   33  O   UNL     1     -10.109  18.205  66.392  1.00  0.00    -0.352 OA 
HETATM   34  C   UNL     1     -10.557  17.023  65.734  1.00  0.00    -0.211 C  
ENDBRANCH  29  33
BRANCH  30  35
HETATM   35  O   UNL     1      -9.711  20.048  68.207  1.00  0.00    -0.361 OA 
HETATM   36  C   UNL     1      -9.543  21.203  67.397  1.00  0.00     0.037 C  
ENDBRANCH  30  35
BRANCH  32  37
HETATM   37  O   UNL     1      -7.399  19.962  69.910  1.00  0.00    -0.104 OA 
HETATM   38  C   UNL     1      -6.087  20.480  70.098  1.00  0.00    -0.185 C  
ENDBRANCH  32  37
ENDBRANCH  25  27
ENDBRANCH  24  25
ENDBRANCH  23  24
ENDBRANCH  22  23
ENDBRANCH  21  22
ENDBRANCH  19  21
ENDBRANCH  18  19
ENDBRANCH  17  18
ENDBRANCH  15  17
ENDBRANCH  14  15
ENDBRANCH  13  14
ENDBRANCH  12  13
ENDBRANCH  11  12
ENDBRANCH   9  11
ENDBRANCH   5   9
BRANCH   8  39
HETATM   39  O   UNL     1      -5.803   7.060  69.526  1.00  0.00    -0.021 OA 
HETATM   40  C   UNL     1      -5.209   8.231  70.064  1.00  0.00    -0.023 C  
ENDBRANCH   8  39
BRANCH   7  41
HETATM   41  O   UNL     1      -7.004   5.638  67.324  1.00  0.00    -0.062 OA 
HETATM   42  C   UNL     1      -7.179   5.667  65.918  1.00  0.00    -0.072 C  
ENDBRANCH   7  41
ENDBRANCH   2   3
TORSDOF 21
ENDMDL
MODEL      301
REMARK 921   NORMALIZED FREE ENERGY PREDICTED BY IDOCK:   -1.76 KCAL/MOL
REMARK 922        TOTAL FREE ENERGY PREDICTED BY IDOCK:   -6.78 KCAL/MOL
REMARK 923 INTER-LIGAND FREE ENERGY PREDICTED BY IDOCK:   -6.87 KCAL/MOL
REMARK 924 INTRA-LIGAND FREE ENERGY PREDICTED BY IDOCK:    0.09 KCAL/MOL
REMARK 927      BINDING AFFINITY PREDICTED BY RF-SCORE:    0.00 PKD
ROOT
HETATM    1  C   UNL     1     -12.386  15.306  70.070  1.00  0.00    -0.328 C  
HETATM    2  O   UNL     1     -11.520  16.281  69.492  1.00  0.00    -0.308 OA 
ENDROOT
BRANCH   2   3
HETATM    3  C   UNL     1     -10.868  15.924  68.337  1.00  0.00    -0.316 A  
HETATM    4  C   UNL     1     -10.925  14.605  67.871  1.00  0.00    -0.283 A  
HETATM    5  C   UNL     1     -10.273  14.216  66.700  1.00  0.00    -0.270 A  
HETATM    6  C   UNL     1      -9.556  15.163  65.977  1.00  0.00    -0.365 A  
HETATM    7  C   UNL     1     -10.175  16.903  67.589  1.00  0.00    -0.306 A  
HETATM    8  C   UNL     1      -9.507  16.503  66.405  1.00  0.00    -0.288 A  
BRANCH   5   9
HETATM    9  C   UNL     1     -10.391  12.789  66.312  1.00  0.00    -0.258 C  
HETATM   10  O   UNL     1     -10.540  11.897  67.135  1.00  0.00    -0.219 OA 
BRANCH   9  11
HETATM   11  O   UNL     1     -10.274  12.615  64.972  1.00  0.00    -0.286 OA 
BRANCH  11  12
HETATM   12  C   UNL     1     -11.223  11.689  64.414  1.00  0.00    -0.291 C  
BRANCH  12  13
HETATM   13  C   UNL     1     -10.610  10.998  63.199  1.00  0.00    -0.077 C  
BRANCH  13  14
HETATM   14  C   UNL     1      -9.189  11.491  62.927  1.00  0.00    -0.191 C  
BRANCH  14  15
HETATM   15  N   UNL     1      -8.311  10.459  62.335  1.00  0.00    -0.165 NA 
HETATM   16  C   UNL     1      -6.928  10.595  62.811  1.00  0.00    -0.006 C  
BRANCH  15  17
HETATM   17  C   UNL     1      -8.871   9.118  62.654  1.00  0.00    -0.163 C  
BRANCH  17  18
HETATM   18  C   UNL     1      -7.931   8.223  63.496  1.00  0.00    -0.154 C  
BRANCH  18  19
HETATM   19  N   UNL     1      -7.680   6.861  62.969  1.00  0.00    -0.106 NA 
HETATM   20  C   UNL     1      -6.317   6.743  62.440  1.00  0.00    -0.039 C  
BRANCH  19  21
HETATM   21  C   UNL     1      -7.881   5.847  64.029  1.00  0.00    -0.119 C  
BRANCH  21  22
HETATM   22  C   UNL     1      -8.231   6.453  65.392  1.00  0.00    -0.142 C  
BRANCH  22  23
HETATM   23  C   UNL     1      -8.966   5.458  66.281  1.00  0.00    -0.137 C  
BRANCH  23  24
HETATM   24  O   UNL     1      -8.972   5.938  67.636  1.00  0.00    -0.111 OA 
BRANCH  24  25
HETATM   25  C   UNL     1      -9.316   7.241  67.796  1.00  0.00    -0.128 C  
HETATM   26  O   UNL     1     -10.171   7.841  67.166  1.00  0.00    -0.234 OA 
BRANCH  25  27
HETATM   27  C   UNL     1      -8.514   7.859  68.885  1.00  0.00    -0.128 A  
HETATM   28  C   UNL     1      -8.387   7.159  70.086  1.00  0.00    -0.137 A  
HETATM   29  C   UNL     1      -7.682   7.716  71.153  1.00  0.00    -0.085 A  
HETATM   30  C   UNL     1      -7.106   9.004  71.030  1.00  0.00    -0.100 A  
HETATM   31  C   UNL     1      -7.911   9.112  68.743  1.00  0.00    -0.096 A  
HETATM   32  C   UNL     1      -7.214   9.704  69.807  1.00  0.00    -0.094 A  
BRANCH  29  33
HETATM   33  O   UNL     1      -7.555   7.085  72.370  1.00  0.00    -0.089 OA 
HETATM   34  C   UNL     1      -6.279   7.173  72.998  1.00  0.00    -0.056 C  
ENDBRANCH  29  33
BRANCH  30  35
HETATM   35  O   UNL     1      -6.526   9.484  72.180  1.00  0.00    -0.292 OA 
HETATM   36  C   UNL     1      -5.551  10.512  72.069  1.00  0.00     0.392 C  
ENDBRANCH  30  35
BRANCH  32  37
HETATM   37  O   UNL     1      -6.659  10.952  69.714  1.00  0.00    -0.110 OA 
HETATM   38  C   UNL     1      -5.695  11.190  68.694  1.00  0.00    -0.042 C  
ENDBRANCH  32  37
ENDBRANCH  25  27
ENDBRANCH  24  25
ENDBRANCH  23  24
ENDBRANCH  22  23
ENDBRANCH  21  22
ENDBRANCH  19  21
ENDBRANCH  18  19
ENDBRANCH  17  18
ENDBRANCH  15  17
ENDBRANCH  14  15
ENDBRANCH  13  14
ENDBRANCH  12  13
ENDBRANCH  11  12
ENDBRANCH   9  11
ENDBRANCH   5   9
BRANCH   8  39
HETATM   39  O   UNL     1      -8.761  17.268  65.538  1.00  0.00    -0.253 OA 
HETATM   40  C   UNL     1      -7.373  17.450  65.772  1.00  0.00     0.090 C  
ENDBRANCH   8  39
BRANCH   7  41
HETATM   41  O   UNL     1     -10.074  18.230  67.917  1.00  0.00    -0.326 OA 
HETATM   42  C   UNL     1      -9.025  18.699  68.746  1.00  0.00    -0.259 C  
ENDBRANCH   7  41
ENDBRANCH   2   3
TORSDOF 21
ENDMDL
MODEL      302
REMARK 921   NORMALIZED FREE ENERGY PREDICTED BY IDOCK:   -1.67 KCAL/MOL
REMARK 922        TOTAL FREE ENERGY PREDICTED BY IDOCK:   -6.59 KCAL/MOL
REMARK 923 INTER-LIGAND FREE ENERGY PREDICTED BY IDOCK:   -6.82 KCAL/MOL
REMARK 924 INTRA-LIGAND FREE ENERGY PREDICTED BY IDOCK:    0.23 KCAL/MOL
REMARK 927      BINDING AFFINITY PREDICTED BY RF-SCORE:    0.00 PKD
ROOT
HETATM    1  C   UNL     1     -12.215  16.604  72.775  1.00  0.00    -0.100 C  
HETATM    2  O   UNL     1     -11.259  16.425  71.732  1.00  0.00    -0.097 OA 
ENDROOT
BRANCH   2   3
HETATM    3  C   UNL     1     -11.449  15.352  70.896  1.00  0.00    -0.361 A  
HETATM    4  C   UNL     1     -10.778  15.283  69.669  1.00  0.00    -0.289 A  
HETATM    5  C   UNL     1     -10.952  14.204  68.801  1.00  0.00    -0.275 A  
HETATM    6  C   UNL     1     -11.806  13.170  69.169  1.00  0.00    -0.364 A  
HETATM    7  C   UNL     1     -12.289  14.288  71.297  1.00  0.00    -0.363 A  
HETATM    8  C   UNL     1     -12.470  13.196  70.410  1.00  0.00    -0.210 A  
BRANCH   5   9
HETATM    9  C   UNL     1     -10.201  14.247  67.522  1.00  0.00    -0.240 C  
HETATM   10  O   UNL     1     -10.739  14.504  66.455  1.00  0.00    -0.302 OA 
BRANCH   9  11
HETATM   11  O   UNL     1      -8.893  13.931  67.691  1.00  0.00    -0.171 OA 
BRANCH  11  12
HETATM   12  C   UNL     1      -8.506  12.686  67.081  1.00  0.00    -0.186 C  
BRANCH  12  13
HETATM   13  C   UNL     1      -8.421  11.599  68.148  1.00  0.00    -0.156 C  
BRANCH  13  14
HETATM   14  C   UNL     1      -9.283  10.388  67.791  1.00  0.00    -0.142 C  
BRANCH  14  15
HETATM   15  N   UNL     1      -9.100   9.926  66.399  1.00  0.00    -0.147 NA 
HETATM   16  C   UNL     1      -7.686   9.964  66.003  1.00  0.00    -0.108 C  
BRANCH  15  17
HETATM   17  C   UNL     1      -9.668   8.557  66.271  1.00  0.00    -0.229 C  
BRANCH  17  18
HETATM   18  C   UNL     1     -10.405   8.057  67.536  1.00  0.00    -0.261 C  
BRANCH  18  19
HETATM   19  N   UNL     1     -10.513   6.588  67.692  1.00  0.00    -0.198 NA 
HETATM   20  C   UNL     1      -9.216   5.937  67.479  1.00  0.00    -0.108 C  
BRANCH  19  21
HETATM   21  C   UNL     1     -11.016   6.242  69.041  1.00  0.00    -0.372 C  
BRANCH  21  22
HETATM   22  C   UNL     1     -11.018   7.428  70.011  1.00  0.00    -0.264 C  
BRANCH  22  23
HETATM   23  C   UNL     1      -9.930   7.296  71.069  1.00  0.00    -0.187 C  
BRANCH  23  24
HETATM   24  O   UNL     1      -8.685   7.784  70.541  1.00  0.00    -0.137 OA 
BRANCH  24  25
HETATM   25  C   UNL     1      -7.574   7.120  70.950  1.00  0.00    -0.085 C  
HETATM   26  O   UNL     1      -6.451   7.588  71.045  1.00  0.00    -0.039 OA 
BRANCH  25  27
HETATM   27  C   UNL     1      -7.909   5.715  71.301  1.00  0.00    -0.111 A  
HETATM   28  C   UNL     1      -7.866   4.756  70.287  1.00  0.00    -0.058 A  
HETATM   29  C   UNL     1      -8.216   3.433  70.557  1.00  0.00    -0.052 A  
HETATM   30  C   UNL     1      -8.632   3.057  71.857  1.00  0.00    -0.073 A  
HETATM   31  C   UNL     1      -8.278   5.341  72.597  1.00  0.00    -0.113 A  
HETATM   32  C   UNL     1      -8.654   4.022  72.890  1.00  0.00    -0.099 A  
BRANCH  29  33
HETATM   33  O   UNL     1      -8.224   2.455  69.588  1.00  0.00    -0.044 OA 
HETATM   34  C   UNL     1      -9.203   2.589  68.561  1.00  0.00    -0.193 C  
ENDBRANCH  29  33
BRANCH  30  35
HETATM   35  O   UNL     1      -9.045   1.751  71.972  1.00  0.00    -0.070 OA 
HETATM   36  C   UNL     1     -10.438   1.476  71.945  1.00  0.00    -0.015 C  
ENDBRANCH  30  35
BRANCH  32  37
HETATM   37  O   UNL     1      -9.070   3.639  74.137  1.00  0.00    -0.090 OA 
HETATM   38  C   UNL     1     -10.376   4.013  74.559  1.00  0.00    -0.224 C  
ENDBRANCH  32  37
ENDBRANCH  25  27
ENDBRANCH  24  25
ENDBRANCH  23  24
ENDBRANCH  22  23
ENDBRANCH  21  22
ENDBRANCH  19  21
ENDBRANCH  18  19
ENDBRANCH  17  18
ENDBRANCH  15  17
ENDBRANCH  14  15
ENDBRANCH  13  14
ENDBRANCH  12  13
ENDBRANCH  11  12
ENDBRANCH   9  11
ENDBRANCH   5   9
BRANCH   8  39
HETATM   39  O   UNL     1     -13.247  12.074  70.575  1.00  0.00     0.317 OA 
HETATM   40  C   UNL     1     -12.794  10.822  70.084  1.00  0.00    -0.086 C  
ENDBRANCH   8  39
BRANCH   7  41
HETATM   41  O   UNL     1     -12.972  14.217  72.483  1.00  0.00    -0.392 OA 
HETATM   42  C   UNL     1     -14.382  14.076  72.506  1.00  0.00    -0.127 C  
ENDBRANCH   7  41
ENDBRANCH   2   3
TORSDOF 21
ENDMDL
MODEL      303
REMARK 921   NORMALIZED FREE ENERGY PREDICTED BY IDOCK:   -1.59 KCAL/MOL
REMARK 922        TOTAL FREE ENERGY PREDICTED BY IDOCK:   -6.39 KCAL/MOL
REMARK 923 INTER-LIGAND FREE ENERGY PREDICTED BY IDOCK:   -5.86 KCAL/MOL
REMARK 924 INTRA-LIGAND FREE ENERGY PREDICTED BY IDOCK:   -0.53 KCAL/MOL
REMARK 927      BINDING AFFINITY PREDICTED BY RF-SCORE:    0.00 PKD
ROOT
HETATM    1  C   UNL     1     -12.119   4.208  72.595  1.00  0.00     1.105 C  
HETATM    2  O   UNL     1     -11.563   5.123  73.537  1.00  0.00    -0.171 OA 
ENDROOT
BRANCH   2   3
HETATM    3  C   UNL     1     -10.963   6.248  73.027  1.00  0.00    -0.242 A  
HETATM    4  C   UNL     1     -11.739   7.289  72.503  1.00  0.00    -0.244 A  
HETATM    5  C   UNL     1     -11.155   8.444  71.979  1.00  0.00    -0.397 A  
HETATM    6  C   UNL     1      -9.770   8.565  71.986  1.00  0.00    -0.377 A  
HETATM    7  C   UNL     1      -9.556   6.378  73.075  1.00  0.00    -0.152 A  
HETATM    8  C   UNL     1      -8.965   7.549  72.535  1.00  0.00    -0.134 A  
BRANCH   5   9
HETATM    9  C   UNL     1     -12.077   9.473  71.439  1.00  0.00    -0.378 C  
HETATM   10  O   UNL     1     -13.117   9.782  72.004  1.00  0.00    -0.414 OA 
BRANCH   9  11
HETATM   11  O   UNL     1     -11.644   9.971  70.255  1.00  0.00    -0.262 OA 
BRANCH  11  12
HETATM   12  C   UNL     1     -12.389  11.111  69.788  1.00  0.00    -0.246 C  
BRANCH  12  13
HETATM   13  C   UNL     1     -11.923  12.363  70.526  1.00  0.00    -0.284 C  
BRANCH  13  14
HETATM   14  C   UNL     1     -12.135  13.624  69.688  1.00  0.00    -0.321 C  
BRANCH  14  15
HETATM   15  N   UNL     1     -11.400  13.608  68.405  1.00  0.00    -0.275 NA 
HETATM   16  C   UNL     1     -10.015  13.154  68.588  1.00  0.00    -0.111 C  
BRANCH  15  17
HETATM   17  C   UNL     1     -12.137  12.745  67.444  1.00  0.00    -0.158 C  
BRANCH  17  18
HETATM   18  C   UNL     1     -12.134  13.271  65.989  1.00  0.00    -0.436 C  
BRANCH  18  19
HETATM   19  N   UNL     1     -11.206  12.595  65.052  1.00  0.00    -0.289 NA 
HETATM   20  C   UNL     1     -10.130  13.498  64.631  1.00  0.00    -0.217 C  
BRANCH  19  21
HETATM   21  C   UNL     1     -10.616  11.392  65.680  1.00  0.00    -0.258 C  
BRANCH  21  22
HETATM   22  C   UNL     1     -10.194  10.322  64.668  1.00  0.00    -0.204 C  
BRANCH  22  23
HETATM   23  C   UNL     1      -8.912   9.617  65.091  1.00  0.00    -0.207 C  
BRANCH  23  24
HETATM   24  O   UNL     1      -7.812  10.541  65.030  1.00  0.00    -0.134 OA 
BRANCH  24  25
HETATM   25  C   UNL     1      -7.338  10.970  66.227  1.00  0.00    -0.097 C  
HETATM   26  O   UNL     1      -7.417  12.106  66.666  1.00  0.00     0.006 OA 
BRANCH  25  27
HETATM   27  C   UNL     1      -6.713   9.845  66.970  1.00  0.00    -0.075 A  
HETATM   28  C   UNL     1      -6.654   8.597  66.347  1.00  0.00    -0.062 A  
HETATM   29  C   UNL     1      -6.117   7.500  67.020  1.00  0.00    -0.047 A  
HETATM   30  C   UNL     1      -5.643   7.641  68.347  1.00  0.00    -0.027 A  
HETATM   31  C   UNL     1      -6.207  10.001  68.265  1.00  0.00    -0.049 A  
HETATM   32  C   UNL     1      -5.681   8.909  68.972  1.00  0.00    -0.040 A  
BRANCH  29  33
HETATM   33  O   UNL     1      -6.066   6.241  66.466  1.00  0.00    -0.027 OA 
HETATM   34  C   UNL     1      -7.072   5.930  65.506  1.00  0.00    -0.069 C  
ENDBRANCH  29  33
BRANCH  30  35
HETATM   35  O   UNL     1      -5.232   6.469  68.937  1.00  0.00    -0.011 OA 
HETATM   36  C   UNL     1      -6.024   5.922  69.981  1.00  0.00    -0.025 C  
ENDBRANCH  30  35
BRANCH  32  37
HETATM   37  O   UNL     1      -5.227   9.020  70.259  1.00  0.00    -0.027 OA 
HETATM   38  C   UNL     1      -5.585  10.178  71.005  1.00  0.00    -0.085 C  
ENDBRANCH  32  37
ENDBRANCH  25  27
ENDBRANCH  24  25
ENDBRANCH  23  24
ENDBRANCH  22  23
ENDBRANCH  21  22
ENDBRANCH  19  21
ENDBRANCH  18  19
ENDBRANCH  17  18
ENDBRANCH  15  17
ENDBRANCH  14  15
ENDBRANCH  13  14
ENDBRANCH  12  13
ENDBRANCH  11  12
ENDBRANCH   9  11
ENDBRANCH   5   9
BRANCH   8  39
HETATM   39  O   UNL     1      -7.633   7.880  72.454  1.00  0.00    -0.086 OA 
HETATM   40  C   UNL     1      -6.893   8.129  73.639  1.00  0.00    -0.122 C  
ENDBRANCH   8  39
BRANCH   7  41
HETATM   41  O   UNL     1      -8.689   5.452  73.592  1.00  0.00    -0.117 OA 
HETATM   42  C   UNL     1      -8.149   4.424  72.779  1.00  0.00    -0.094 C  
ENDBRANCH   7  41
ENDBRANCH   2   3
TORSDOF 21
ENDMDL
MODEL      304
REMARK 921   NORMALIZED FREE ENERGY PREDICTED BY IDOCK:   -1.46 KCAL/MOL
REMARK 922        TOTAL FREE ENERGY PREDICTED BY IDOCK:   -6.11 KCAL/MOL
REMARK 923 INTER-LIGAND FREE ENERGY PREDICTED BY IDOCK:   -5.79 KCAL/MOL
REMARK 924 INTRA-LIGAND FREE ENERGY PREDICTED BY IDOCK:   -0.32 KCAL/MOL
REMARK 927      BINDING AFFINITY PREDICTED BY RF-SCORE:    0.00 PKD
ROOT
HETATM    1  C   UNL     1     -10.227   3.225  68.821  1.00  0.00     1.186 C  
HETATM    2  O   UNL     1      -8.879   3.412  69.247  1.00  0.00    -0.082 OA 
ENDROOT
BRANCH   2   3
HETATM    3  C   UNL     1      -8.635   4.475  70.081  1.00  0.00    -0.077 A  
HETATM    4  C   UNL     1      -7.753   5.492  69.694  1.00  0.00    -0.078 A  
HETATM    5  C   UNL     1      -7.488   6.583  70.522  1.00  0.00    -0.090 A  
HETATM    6  C   UNL     1      -8.121   6.666  71.757  1.00  0.00    -0.103 A  
HETATM    7  C   UNL     1      -9.314   4.569  71.318  1.00  0.00    -0.148 A  
HETATM    8  C   UNL     1      -9.037   5.676  72.160  1.00  0.00    -0.140 A  
BRANCH   5   9
HETATM    9  C   UNL     1      -6.525   7.590  70.012  1.00  0.00    -0.034 C  
HETATM   10  O   UNL     1      -6.244   8.603  70.637  1.00  0.00    -0.034 OA 
BRANCH   9  11
HETATM   11  O   UNL     1      -6.052   7.264  68.783  1.00  0.00    -0.025 OA 
BRANCH  11  12
HETATM   12  C   UNL     1      -6.014   8.365  67.857  1.00  0.00    -0.047 C  
BRANCH  12  13
HETATM   13  C   UNL     1      -7.025   8.126  66.738  1.00  0.00    -0.073 C  
BRANCH  13  14
HETATM   14  C   UNL     1      -6.352   7.592  65.473  1.00  0.00    -0.041 C  
BRANCH  14  15
HETATM   15  N   UNL     1      -7.255   6.791  64.620  1.00  0.00    -0.070 NA 
HETATM   16  C   UNL     1      -8.024   5.824  65.415  1.00  0.00    -0.117 C  
BRANCH  15  17
HETATM   17  C   UNL     1      -8.147   7.716  63.870  1.00  0.00    -0.041 C  
BRANCH  17  18
HETATM   18  C   UNL     1      -8.219   9.144  64.461  1.00  0.00    -0.152 C  
BRANCH  18  19
HETATM   19  N   UNL     1      -8.046  10.258  63.499  1.00  0.00    -0.160 NA 
HETATM   20  C   UNL     1      -7.223   9.847  62.357  1.00  0.00    -0.117 C  
BRANCH  19  21
HETATM   21  C   UNL     1      -9.360  10.731  63.008  1.00  0.00    -0.330 C  
BRANCH  21  22
HETATM   22  C   UNL     1     -10.109  11.604  64.020  1.00  0.00    -0.362 C  
BRANCH  22  23
HETATM   23  C   UNL     1     -10.545  10.806  65.243  1.00  0.00    -0.160 C  
BRANCH  23  24
HETATM   24  O   UNL     1      -9.837  11.277  66.402  1.00  0.00    -0.201 OA 
BRANCH  24  25
HETATM   25  C   UNL     1     -10.487  12.204  67.150  1.00  0.00    -0.219 C  
HETATM   26  O   UNL     1     -10.642  13.380  66.863  1.00  0.00    -0.270 OA 
BRANCH  25  27
HETATM   27  C   UNL     1     -11.023  11.585  68.391  1.00  0.00    -0.267 A  
HETATM   28  C   UNL     1     -11.931  12.322  69.153  1.00  0.00    -0.303 A  
HETATM   29  C   UNL     1     -12.428  11.802  70.349  1.00  0.00    -0.197 A  
HETATM   30  C   UNL     1     -12.003  10.530  70.804  1.00  0.00    -0.370 A  
HETATM   31  C   UNL     1     -10.632  10.310  68.813  1.00  0.00    -0.231 A  
HETATM   32  C   UNL     1     -11.101   9.774  70.021  1.00  0.00    -0.267 A  
BRANCH  29  33
HETATM   33  O   UNL     1     -13.298  12.499  71.157  1.00  0.00    -0.029 OA 
HETATM   34  C   UNL     1     -12.737  13.559  71.926  1.00  0.00    -0.200 C  
ENDBRANCH  29  33
BRANCH  30  35
HETATM   35  O   UNL     1     -12.485  10.174  72.041  1.00  0.00    -0.346 OA 
HETATM   36  C   UNL     1     -13.198   8.951  72.163  1.00  0.00    -0.429 C  
ENDBRANCH  30  35
BRANCH  32  37
HETATM   37  O   UNL     1     -10.695   8.552  70.486  1.00  0.00    -0.211 OA 
HETATM   38  C   UNL     1     -11.019   7.395  69.724  1.00  0.00    -0.200 C  
ENDBRANCH  32  37
ENDBRANCH  25  27
ENDBRANCH  24  25
ENDBRANCH  23  24
ENDBRANCH  22  23
ENDBRANCH  21  22
ENDBRANCH  19  21
ENDBRANCH  18  19
ENDBRANCH  17  18
ENDBRANCH  15  17
ENDBRANCH  14  15
ENDBRANCH  13  14
ENDBRANCH  12  13
ENDBRANCH  11  12
ENDBRANCH   9  11
ENDBRANCH   5   9
BRANCH   8  39
HETATM   39  O   UNL     1      -9.555   5.962  73.402  1.00  0.00    -0.142 OA 
HETATM   40  C   UNL     1     -10.106   7.245  73.659  1.00  0.00    -0.340 C  
ENDBRANCH   8  39
BRANCH   7  41
HETATM   41  O   UNL     1     -10.225   3.664  71.795  1.00  0.00    -0.130 OA 
HETATM   42  C   UNL     1     -10.085   3.101  73.089  1.00  0.00    -0.137 C  
ENDBRANCH   7  41
ENDBRANCH   2   3
TORSDOF 21
ENDMDL
MODEL      305
REMARK 921   NORMALIZED FREE ENERGY PREDICTED BY IDOCK:   -1.27 KCAL/MOL
REMARK 922        TOTAL FREE ENERGY PREDICTED BY IDOCK:   -5.69 KCAL/MOL
REMARK 923 INTER-LIGAND FREE ENERGY PREDICTED BY IDOCK:   -3.82 KCAL/MOL
REMARK 924 INTRA-LIGAND FREE ENERGY PREDICTED BY IDOCK:   -1.87 KCAL/MOL
REMARK 927      BINDING AFFINITY PREDICTED BY RF-SCORE:    0.00 PKD
ROOT
HETATM    1  C   UNL     1     -12.681  11.955  69.250  1.00  0.00     0.794 C  
HETATM    2  O   UNL     1     -11.661  12.951  69.293  1.00  0.00    -0.290 OA 
ENDROOT
BRANCH   2   3
HETATM    3  C   UNL     1     -11.067  13.280  68.099  1.00  0.00    -0.259 A  
HETATM    4  C   UNL     1     -10.844  12.299  67.125  1.00  0.00    -0.282 A  
HETATM    5  C   UNL     1     -10.243  12.606  65.903  1.00  0.00    -0.290 A  
HETATM    6  C   UNL     1      -9.864  13.919  65.646  1.00  0.00    -0.231 A  
HETATM    7  C   UNL     1     -10.721  14.625  67.832  1.00  0.00    -0.250 A  
HETATM    8  C   UNL     1     -10.104  14.933  66.593  1.00  0.00    -0.258 A  
BRANCH   5   9
HETATM    9  C   UNL     1     -10.044  11.483  64.955  1.00  0.00    -0.270 C  
HETATM   10  O   UNL     1     -10.350  11.562  63.774  1.00  0.00    -0.319 OA 
BRANCH   9  11
HETATM   11  O   UNL     1      -9.536  10.385  65.568  1.00  0.00    -0.200 OA 
BRANCH  11  12
HETATM   12  C   UNL     1     -10.534   9.499  66.108  1.00  0.00    -0.007 C  
BRANCH  12  13
HETATM   13  C   UNL     1      -9.879   8.185  66.525  1.00  0.00    -0.309 C  
BRANCH  13  14
HETATM   14  C   UNL     1      -9.026   7.597  65.400  1.00  0.00     0.164 C  
BRANCH  14  15
HETATM   15  N   UNL     1      -8.782   6.147  65.545  1.00  0.00    -0.134 NA 
HETATM   16  C   UNL     1      -9.576   5.371  64.583  1.00  0.00     0.603 C  
BRANCH  15  17
HETATM   17  C   UNL     1      -7.325   5.890  65.386  1.00  0.00    -0.076 C  
BRANCH  17  18
HETATM   18  C   UNL     1      -6.426   6.769  66.287  1.00  0.00    -0.047 C  
BRANCH  18  19
HETATM   19  N   UNL     1      -5.251   7.389  65.631  1.00  0.00    -0.027 NA 
HETATM   20  C   UNL     1      -5.332   7.262  64.172  1.00  0.00    -0.029 C  
BRANCH  19  21
HETATM   21  C   UNL     1      -5.150   8.822  65.990  1.00  0.00    -0.030 C  
BRANCH  21  22
HETATM   22  C   UNL     1      -6.315   9.317  66.853  1.00  0.00    -0.066 C  
BRANCH  22  23
HETATM   23  C   UNL     1      -5.830  10.126  68.049  1.00  0.00    -0.038 C  
BRANCH  23  24
HETATM   24  O   UNL     1      -6.085   9.394  69.259  1.00  0.00    -0.037 OA 
BRANCH  24  25
HETATM   25  C   UNL     1      -7.297   9.610  69.832  1.00  0.00    -0.120 C  
HETATM   26  O   UNL     1      -7.947  10.640  69.770  1.00  0.00    -0.083 OA 
BRANCH  25  27
HETATM   27  C   UNL     1      -7.758   8.390  70.546  1.00  0.00    -0.080 A  
HETATM   28  C   UNL     1      -9.132   8.169  70.648  1.00  0.00    -0.156 A  
HETATM   29  C   UNL     1      -9.615   7.062  71.346  1.00  0.00    -0.162 A  
HETATM   30  C   UNL     1      -8.714   6.165  71.971  1.00  0.00    -0.135 A  
HETATM   31  C   UNL     1      -6.861   7.485  71.123  1.00  0.00    -0.050 A  
HETATM   32  C   UNL     1      -7.322   6.376  71.849  1.00  0.00    -0.092 A  
BRANCH  29  33
HETATM   33  O   UNL     1     -10.960   6.814  71.507  1.00  0.00    -0.231 OA 
HETATM   34  C   UNL     1     -11.767   6.918  70.338  1.00  0.00    -0.325 C  
ENDBRANCH  29  33
BRANCH  30  35
HETATM   35  O   UNL     1      -9.313   5.173  72.711  1.00  0.00    -0.135 OA 
HETATM   36  C   UNL     1      -9.222   3.834  72.247  1.00  0.00    -0.117 C  
ENDBRANCH  30  35
BRANCH  32  37
HETATM   37  O   UNL     1      -6.469   5.502  72.469  1.00  0.00    -0.055 OA 
HETATM   38  C   UNL     1      -5.463   4.868  71.689  1.00  0.00    -0.004 C  
ENDBRANCH  32  37
ENDBRANCH  25  27
ENDBRANCH  24  25
ENDBRANCH  23  24
ENDBRANCH  22  23
ENDBRANCH  21  22
ENDBRANCH  19  21
ENDBRANCH  18  19
ENDBRANCH  17  18
ENDBRANCH  15  17
ENDBRANCH  14  15
ENDBRANCH  13  14
ENDBRANCH  12  13
ENDBRANCH  11  12
ENDBRANCH   9  11
ENDBRANCH   5   9
BRANCH   8  39
HETATM   39  O   UNL     1      -9.667  16.152  66.130  1.00  0.00    -0.280 OA 
HETATM   40  C   UNL     1     -10.235  16.705  64.953  1.00  0.00     0.632 C  
ENDBRANCH   8  39
BRANCH   7  41
HETATM   41  O   UNL     1     -10.919  15.680  68.684  1.00  0.00    -0.262 OA 
HETATM   42  C   UNL     1      -9.826  16.446  69.163  1.00  0.00    -0.272 C  
ENDBRANCH   7  41
ENDBRANCH   2   3
TORSDOF 21
ENDMDL
MODEL      306
REMARK 921   NORMALIZED FREE ENERGY PREDICTED BY IDOCK:   -1.25 KCAL/MOL
REMARK 922        TOTAL FREE ENERGY PREDICTED BY IDOCK:   -5.64 KCAL/MOL
REMARK 923 INTER-LIGAND FREE ENERGY PREDICTED BY IDOCK:   -5.77 KCAL/MOL
REMARK 924 INTRA-LIGAND FREE ENERGY PREDICTED BY IDOCK:    0.13 KCAL/MOL
REMARK 927      BINDING AFFINITY PREDICTED BY RF-SCORE:    0.00 PKD
ROOT
HETATM    1  C   UNL     1     -11.253   6.204  66.852  1.00  0.00    -0.071 C  
HETATM    2  O   UNL     1      -9.864   5.915  66.991  1.00  0.00    -0.130 OA 
ENDROOT
BRANCH   2   3
HETATM    3  C   UNL     1      -9.199   6.546  68.014  1.00  0.00    -0.111 A  
HETATM    4  C   UNL     1      -9.905   7.311  68.952  1.00  0.00    -0.158 A  
HETATM    5  C   UNL     1      -9.255   7.962  70.001  1.00  0.00    -0.153 A  
HETATM    6  C   UNL     1      -7.875   7.841  70.122  1.00  0.00    -0.095 A  
HETATM    7  C   UNL     1      -7.801   6.385  68.150  1.00  0.00    -0.105 A  
HETATM    8  C   UNL     1      -7.142   7.054  69.213  1.00  0.00    -0.083 A  
BRANCH   5   9
HETATM    9  C   UNL     1     -10.104   8.755  70.924  1.00  0.00    -0.219 C  
HETATM   10  O   UNL     1      -9.706   9.135  72.016  1.00  0.00    -0.283 OA 
BRANCH   9  11
HETATM   11  O   UNL     1     -11.348   8.954  70.424  1.00  0.00    -0.257 OA 
BRANCH  11  12
HETATM   12  C   UNL     1     -11.373   9.671  69.177  1.00  0.00     0.071 C  
BRANCH  12  13
HETATM   13  C   UNL     1     -10.982  11.127  69.416  1.00  0.00    -0.298 C  
BRANCH  13  14
HETATM   14  C   UNL     1     -11.613  12.059  68.382  1.00  0.00    -0.311 C  
BRANCH  14  15
HETATM   15  N   UNL     1     -12.308  13.218  68.982  1.00  0.00    -0.080 NA 
HETATM   16  C   UNL     1     -12.113  13.264  70.438  1.00  0.00    -0.327 C  
BRANCH  15  17
HETATM   17  C   UNL     1     -11.821  14.460  68.324  1.00  0.00    -0.326 C  
BRANCH  17  18
HETATM   18  C   UNL     1     -10.292  14.673  68.425  1.00  0.00    -0.237 C  
BRANCH  18  19
HETATM   19  N   UNL     1      -9.445  13.656  67.759  1.00  0.00    -0.213 NA 
HETATM   20  C   UNL     1      -9.241  13.983  66.344  1.00  0.00    -0.162 C  
BRANCH  19  21
HETATM   21  C   UNL     1      -8.131  13.552  68.431  1.00  0.00    -0.145 C  
BRANCH  21  22
HETATM   22  C   UNL     1      -7.010  13.070  67.504  1.00  0.00    -0.155 C  
BRANCH  22  23
HETATM   23  C   UNL     1      -5.666  13.683  67.875  1.00  0.00    -0.120 C  
BRANCH  23  24
HETATM   24  O   UNL     1      -5.863  15.027  68.346  1.00  0.00    -0.094 OA 
BRANCH  24  25
HETATM   25  C   UNL     1      -5.849  15.991  67.391  1.00  0.00    -0.107 C  
HETATM   26  O   UNL     1      -5.139  16.010  66.399  1.00  0.00     0.279 OA 
BRANCH  25  27
HETATM   27  C   UNL     1      -6.854  17.043  67.701  1.00  0.00    -0.158 A  
HETATM   28  C   UNL     1      -6.621  17.869  68.801  1.00  0.00    -0.235 A  
HETATM   29  C   UNL     1      -7.556  18.841  69.159  1.00  0.00    -0.140 A  
HETATM   30  C   UNL     1      -8.754  18.984  68.418  1.00  0.00    -0.346 A  
HETATM   31  C   UNL     1      -8.015  17.207  66.939  1.00  0.00    -0.250 A  
HETATM   32  C   UNL     1      -8.980  18.162  67.290  1.00  0.00    -0.248 A  
BRANCH  29  33
HETATM   33  O   UNL     1      -7.394  19.660  70.254  1.00  0.00     0.180 OA 
HETATM   34  C   UNL     1      -6.082  20.170  70.475  1.00  0.00    -0.344 C  
ENDBRANCH  29  33
BRANCH  30  35
HETATM   35  O   UNL     1      -9.637  19.905  68.929  1.00  0.00    -0.297 OA 
HETATM   36  C   UNL     1      -9.988  21.024  68.126  1.00  0.00     0.458 C  
ENDBRANCH  30  35
BRANCH  32  37
HETATM   37  O   UNL     1     -10.151  18.310  66.595  1.00  0.00    -0.333 OA 
HETATM   38  C   UNL     1     -10.809  17.140  66.122  1.00  0.00     0.026 C  
ENDBRANCH  32  37
ENDBRANCH  25  27
ENDBRANCH  24  25
ENDBRANCH  23  24
ENDBRANCH  22  23
ENDBRANCH  21  22
ENDBRANCH  19  21
ENDBRANCH  18  19
ENDBRANCH  17  18
ENDBRANCH  15  17
ENDBRANCH  14  15
ENDBRANCH  13  14
ENDBRANCH  12  13
ENDBRANCH  11  12
ENDBRANCH   9  11
ENDBRANCH   5   9
BRANCH   8  39
HETATM   39  O   UNL     1      -5.803   7.060  69.526  1.00  0.00    -0.021 OA 
HETATM   40  C   UNL     1      -5.375   7.535  70.793  1.00  0.00    -0.023 C  
ENDBRANCH   8  39
BRANCH   7  41
HETATM   41  O   UNL     1      -7.004   5.638  67.324  1.00  0.00    -0.062 OA 
HETATM   42  C   UNL     1      -7.555   4.633  66.490  1.00  0.00    -0.087 C  
ENDBRANCH   7  41
ENDBRANCH   2   3
TORSDOF 21
ENDMDL
MODEL      307
REMARK 921   NORMALIZED FREE ENERGY PREDICTED BY IDOCK:   -1.17 KCAL/MOL
REMARK 922        TOTAL FREE ENERGY PREDICTED BY IDOCK:   -5.47 KCAL/MOL
REMARK 923 INTER-LIGAND FREE ENERGY PREDICTED BY IDOCK:   -5.76 KCAL/MOL
REMARK 924 INTRA-LIGAND FREE ENERGY PREDICTED BY IDOCK:    0.29 KCAL/MOL
REMARK 927      BINDING AFFINITY PREDICTED BY RF-SCORE:    0.00 PKD
ROOT
HETATM    1  C   UNL     1      -9.907   3.377  68.856  1.00  0.00     0.253 C  
HETATM    2  O   UNL     1      -8.534   3.472  69.230  1.00  0.00    -0.062 OA 
ENDROOT
BRANCH   2   3
HETATM    3  C   UNL     1      -8.204   4.455  70.130  1.00  0.00    -0.062 A  
HETATM    4  C   UNL     1      -7.414   5.541  69.735  1.00  0.00    -0.070 A  
HETATM    5  C   UNL     1      -7.065   6.554  70.629  1.00  0.00    -0.069 A  
HETATM    6  C   UNL     1      -7.519   6.485  71.942  1.00  0.00    -0.092 A  
HETATM    7  C   UNL     1      -8.704   4.395  71.452  1.00  0.00    -0.112 A  
HETATM    8  C   UNL     1      -8.341   5.421  72.360  1.00  0.00    -0.118 A  
BRANCH   5   9
HETATM    9  C   UNL     1      -6.212   7.647  70.101  1.00  0.00    -0.033 C  
HETATM   10  O   UNL     1      -5.757   8.527  70.818  1.00  0.00    -0.031 OA 
BRANCH   9  11
HETATM   11  O   UNL     1      -6.049   7.560  68.758  1.00  0.00    -0.029 OA 
BRANCH  11  12
HETATM   12  C   UNL     1      -6.159   8.820  68.070  1.00  0.00    -0.051 C  
BRANCH  12  13
HETATM   13  C   UNL     1      -7.463   8.857  67.278  1.00  0.00    -0.084 C  
BRANCH  13  14
HETATM   14  C   UNL     1      -7.215   8.717  65.775  1.00  0.00    -0.084 C  
BRANCH  14  15
HETATM   15  N   UNL     1      -8.253   7.926  65.080  1.00  0.00    -0.143 NA 
HETATM   16  C   UNL     1      -8.907   6.980  65.993  1.00  0.00    -0.135 C  
BRANCH  15  17
HETATM   17  C   UNL     1      -9.233   8.861  64.465  1.00  0.00     0.327 C  
BRANCH  17  18
HETATM   18  C   UNL     1      -9.066  10.335  64.907  1.00  0.00    -0.213 C  
BRANCH  18  19
HETATM   19  N   UNL     1      -9.253  11.359  63.853  1.00  0.00    -0.065 NA 
HETATM   20  C   UNL     1      -9.052  10.785  62.518  1.00  0.00    -0.312 C  
BRANCH  19  21
HETATM   21  C   UNL     1     -10.609  11.946  63.932  1.00  0.00    -0.394 C  
BRANCH  21  22
HETATM   22  C   UNL     1     -10.840  12.776  65.198  1.00  0.00    -0.318 C  
BRANCH  22  23
HETATM   23  C   UNL     1      -9.788  13.866  65.361  1.00  0.00    -0.163 C  
BRANCH  23  24
HETATM   24  O   UNL     1     -10.412  15.156  65.254  1.00  0.00    -0.353 OA 
BRANCH  24  25
HETATM   25  C   UNL     1     -10.769  15.735  66.428  1.00  0.00    -0.277 C  
HETATM   26  O   UNL     1     -11.728  15.431  67.118  1.00  0.00    -0.157 OA 
BRANCH  25  27
HETATM   27  C   UNL     1      -9.802  16.804  66.794  1.00  0.00    -0.282 A  
HETATM   28  C   UNL     1     -10.007  17.495  67.989  1.00  0.00    -0.310 A  
HETATM   29  C   UNL     1      -9.153  18.536  68.354  1.00  0.00    -0.322 A  
HETATM   30  C   UNL     1      -8.082  18.909  67.505  1.00  0.00    -0.260 A  
HETATM   31  C   UNL     1      -8.721  17.139  65.972  1.00  0.00    -0.141 A  
HETATM   32  C   UNL     1      -7.860  18.196  66.306  1.00  0.00    -0.245 A  
BRANCH  29  33
HETATM   33  O   UNL     1      -9.329  19.273  69.503  1.00  0.00    -0.066 OA 
HETATM   34  C   UNL     1     -10.451  20.151  69.528  1.00  0.00     0.340 C  
ENDBRANCH  29  33
BRANCH  30  35
HETATM   35  O   UNL     1      -7.376  20.011  67.925  1.00  0.00    -0.284 OA 
HETATM   36  C   UNL     1      -6.561  19.892  69.083  1.00  0.00    -0.333 C  
ENDBRANCH  30  35
BRANCH  32  37
HETATM   37  O   UNL     1      -6.826  18.581  65.495  1.00  0.00    -0.421 OA 
HETATM   38  C   UNL     1      -5.511  18.605  66.040  1.00  0.00    -0.158 C  
ENDBRANCH  32  37
ENDBRANCH  25  27
ENDBRANCH  24  25
ENDBRANCH  23  24
ENDBRANCH  22  23
ENDBRANCH  21  22
ENDBRANCH  19  21
ENDBRANCH  18  19
ENDBRANCH  17  18
ENDBRANCH  15  17
ENDBRANCH  14  15
ENDBRANCH  13  14
ENDBRANCH  12  13
ENDBRANCH  11  12
ENDBRANCH   9  11
ENDBRANCH   5   9
BRANCH   8  39
HETATM   39  O   UNL     1      -8.687   5.559  73.684  1.00  0.00    -0.123 OA 
HETATM   40  C   UNL     1      -7.869   6.329  74.552  1.00  0.00    -0.102 C  
ENDBRANCH   8  39
BRANCH   7  41
HETATM   41  O   UNL     1      -9.513   3.408  71.951  1.00  0.00    -0.118 OA 
HETATM   42  C   UNL     1      -9.264   2.835  73.224  1.00  0.00    -0.088 C  
ENDBRANCH   7  41
ENDBRANCH   2   3
TORSDOF 21
ENDMDL
MODEL      308
REMARK 921   NORMALIZED FREE ENERGY PREDICTED BY IDOCK:   -1.16 KCAL/MOL
REMARK 922        TOTAL FREE ENERGY PREDICTED BY IDOCK:   -5.45 KCAL/MOL
REMARK 923 INTER-LIGAND FREE ENERGY PREDICTED BY IDOCK:   -5.85 KCAL/MOL
REMARK 924 INTRA-LIGAND FREE ENERGY PREDICTED BY IDOCK:    0.40 KCAL/MOL
REMARK 927      BINDING AFFINITY PREDICTED BY RF-SCORE:    0.00 PKD
ROOT
HETATM    1  C   UNL     1      -8.725  15.598  66.165  1.00  0.00    -0.206 C  
HETATM    2  O   UNL     1      -7.980  16.587  65.460  1.00  0.00     0.334 OA 
ENDROOT
BRANCH   2   3
HETATM    3  C   UNL     1      -8.007  17.863  65.969  1.00  0.00    -0.127 A  
HETATM    4  C   UNL     1      -9.146  18.337  66.631  1.00  0.00    -0.294 A  
HETATM    5  C   UNL     1      -9.200  19.628  67.158  1.00  0.00    -0.419 A  
HETATM    6  C   UNL     1      -8.094  20.459  67.028  1.00  0.00    -0.351 A  
HETATM    7  C   UNL     1      -6.863  18.686  65.865  1.00  0.00    -0.277 A  
HETATM    8  C   UNL     1      -6.923  20.000  66.395  1.00  0.00    -0.240 A  
BRANCH   5   9
HETATM    9  C   UNL     1     -10.464  20.024  67.826  1.00  0.00    -0.318 C  
HETATM   10  O   UNL     1     -11.555  19.910  67.285  1.00  0.00     0.316 OA 
BRANCH   9  11
HETATM   11  O   UNL     1     -10.245  20.550  69.057  1.00  0.00    -0.066 OA 
BRANCH  11  12
HETATM   12  C   UNL     1      -9.699  19.616  70.007  1.00  0.00     0.545 C  
BRANCH  12  13
HETATM   13  C   UNL     1      -8.262  20.006  70.338  1.00  0.00     1.367 C  
BRANCH  13  14
HETATM   14  C   UNL     1      -7.253  19.099  69.632  1.00  0.00     0.017 C  
BRANCH  14  15
HETATM   15  N   UNL     1      -5.860  19.312  70.077  1.00  0.00    -0.252 NA 
HETATM   16  C   UNL     1      -5.810  19.864  71.437  1.00  0.00    -0.286 C  
BRANCH  15  17
HETATM   17  C   UNL     1      -5.125  18.022  69.981  1.00  0.00    -0.205 C  
BRANCH  17  18
HETATM   18  C   UNL     1      -5.996  16.775  70.265  1.00  0.00    -0.043 C  
BRANCH  18  19
HETATM   19  N   UNL     1      -6.648  16.152  69.089  1.00  0.00    -0.164 NA 
HETATM   20  C   UNL     1      -5.652  15.614  68.157  1.00  0.00    -0.120 C  
BRANCH  19  21
HETATM   21  C   UNL     1      -7.557  15.063  69.514  1.00  0.00    -0.181 C  
BRANCH  21  22
HETATM   22  C   UNL     1      -8.995  15.243  69.019  1.00  0.00    -0.225 C  
BRANCH  22  23
HETATM   23  C   UNL     1      -9.733  13.913  68.928  1.00  0.00    -0.006 C  
BRANCH  23  24
HETATM   24  O   UNL     1     -10.872  14.054  68.062  1.00  0.00    -0.239 OA 
BRANCH  24  25
HETATM   25  C   UNL     1     -11.366  12.898  67.550  1.00  0.00    -0.308 C  
HETATM   26  O   UNL     1     -11.458  12.619  66.365  1.00  0.00    -0.315 OA 
BRANCH  25  27
HETATM   27  C   UNL     1     -11.771  11.977  68.644  1.00  0.00    -0.380 A  
HETATM   28  C   UNL     1     -12.492  12.507  69.715  1.00  0.00     0.067 A  
HETATM   29  C   UNL     1     -12.857  11.692  70.787  1.00  0.00    -0.109 A  
HETATM   30  C   UNL     1     -12.482  10.326  70.803  1.00  0.00    -0.346 A  
HETATM   31  C   UNL     1     -11.435  10.619  68.633  1.00  0.00    -0.332 A  
HETATM   32  C   UNL     1     -11.772   9.783  69.709  1.00  0.00     0.046 A  
BRANCH  29  33
HETATM   33  O   UNL     1     -13.538  12.169  71.885  1.00  0.00    -0.307 OA 
HETATM   34  C   UNL     1     -13.386  13.556  72.171  1.00  0.00    -0.500 C  
ENDBRANCH  29  33
BRANCH  30  35
HETATM   35  O   UNL     1     -12.812   9.655  71.957  1.00  0.00    -0.390 OA 
HETATM   36  C   UNL     1     -13.904   8.746  71.923  1.00  0.00    -0.442 C  
ENDBRANCH  30  35
BRANCH  32  37
HETATM   37  O   UNL     1     -11.411   8.463  69.750  1.00  0.00    -0.050 OA 
HETATM   38  C   UNL     1     -10.028   8.137  69.678  1.00  0.00    -0.193 C  
ENDBRANCH  32  37
ENDBRANCH  25  27
ENDBRANCH  24  25
ENDBRANCH  23  24
ENDBRANCH  22  23
ENDBRANCH  21  22
ENDBRANCH  19  21
ENDBRANCH  18  19
ENDBRANCH  17  18
ENDBRANCH  15  17
ENDBRANCH  14  15
ENDBRANCH  13  14
ENDBRANCH  12  13
ENDBRANCH  11  12
ENDBRANCH   9  11
ENDBRANCH   5   9
BRANCH   8  39
HETATM   39  O   UNL     1      -5.952  20.975  66.390  1.00  0.00    -0.230 OA 
HETATM   40  C   UNL     1      -5.181  21.208  67.558  1.00  0.00    -0.260 C  
ENDBRANCH   8  39
BRANCH   7  41
HETATM   41  O   UNL     1      -5.679  18.331  65.275  1.00  0.00    -0.188 OA 
HETATM   42  C   UNL     1      -5.343  18.791  63.977  1.00  0.00    -0.169 C  
ENDBRANCH   7  41
ENDBRANCH   2   3
TORSDOF 21
ENDMDL
MODEL      309
REMARK 921   NORMALIZED FREE ENERGY PREDICTED BY IDOCK:   -1.11 KCAL/MOL
REMARK 922        TOTAL FREE ENERGY PREDICTED BY IDOCK:   -5.33 KCAL/MOL
REMARK 923 INTER-LIGAND FREE ENERGY PREDICTED BY IDOCK:   -5.57 KCAL/MOL
REMARK 924 INTRA-LIGAND FREE ENERGY PREDICTED BY IDOCK:    0.23 KCAL/MOL
REMARK 927      BINDING AFFINITY PREDICTED BY RF-SCORE:    0.00 PKD
ROOT
HETATM    1  C   UNL     1     -13.755   6.371  72.332  1.00  0.00     0.536 C  
HETATM    2  O   UNL     1     -12.490   6.095  71.736  1.00  0.00    -0.147 OA 
ENDROOT
BRANCH   2   3
HETATM    3  C   UNL     1     -11.648   7.164  71.546  1.00  0.00    -0.278 A  
HETATM    4  C   UNL     1     -12.150   8.387  71.083  1.00  0.00    -0.275 A  
HETATM    5  C   UNL     1     -11.317   9.488  70.882  1.00  0.00    -0.410 A  
HETATM    6  C   UNL     1      -9.959   9.370  71.156  1.00  0.00    -0.311 A  
HETATM    7  C   UNL     1     -10.276   7.044  71.864  1.00  0.00    -0.187 A  
HETATM    8  C   UNL     1      -9.431   8.163  71.652  1.00  0.00    -0.177 A  
BRANCH   5   9
HETATM    9  C   UNL     1     -11.958  10.727  70.375  1.00  0.00    -0.357 C  
HETATM   10  O   UNL     1     -12.156  11.700  71.088  1.00  0.00    -0.232 OA 
BRANCH   9  11
HETATM   11  O   UNL     1     -12.319  10.615  69.073  1.00  0.00    -0.355 OA 
BRANCH  11  12
HETATM   12  C   UNL     1     -11.867  11.701  68.243  1.00  0.00    -0.265 C  
BRANCH  12  13
HETATM   13  C   UNL     1     -10.997  11.153  67.115  1.00  0.00    -0.350 C  
BRANCH  13  14
HETATM   14  C   UNL     1      -9.518  11.125  67.504  1.00  0.00    -0.168 C  
BRANCH  14  15
HETATM   15  N   UNL     1      -8.638  11.782  66.515  1.00  0.00    -0.175 NA 
HETATM   16  C   UNL     1      -8.939  13.215  66.397  1.00  0.00     0.020 C  
BRANCH  15  17
HETATM   17  C   UNL     1      -7.222  11.550  66.908  1.00  0.00    -0.137 C  
BRANCH  17  18
HETATM   18  C   UNL     1      -6.525  12.786  67.523  1.00  0.00    -0.160 C  
BRANCH  18  19
HETATM   19  N   UNL     1      -7.013  13.216  68.855  1.00  0.00    -0.103 NA 
HETATM   20  C   UNL     1      -6.186  12.653  69.927  1.00  0.00    -0.088 C  
BRANCH  19  21
HETATM   21  C   UNL     1      -7.007  14.693  68.959  1.00  0.00    -0.120 C  
BRANCH  21  22
HETATM   22  C   UNL     1      -8.108  15.242  69.873  1.00  0.00     0.121 C  
BRANCH  22  23
HETATM   23  C   UNL     1      -9.221  14.226  70.093  1.00  0.00     1.662 C  
BRANCH  23  24
HETATM   24  O   UNL     1     -10.470  14.776  69.642  1.00  0.00    -0.201 OA 
BRANCH  24  25
HETATM   25  C   UNL     1     -10.639  16.104  69.862  1.00  0.00    -0.302 C  
HETATM   26  O   UNL     1     -11.095  16.614  70.873  1.00  0.00    -0.151 OA 
BRANCH  25  27
HETATM   27  C   UNL     1     -10.165  16.888  68.690  1.00  0.00    -0.301 A  
HETATM   28  C   UNL     1      -9.231  17.900  68.912  1.00  0.00    -0.147 A  
HETATM   29  C   UNL     1      -8.788  18.693  67.852  1.00  0.00    -0.288 A  
HETATM   30  C   UNL     1      -9.298  18.485  66.547  1.00  0.00    -0.313 A  
HETATM   31  C   UNL     1     -10.640  16.650  67.396  1.00  0.00    -0.295 A  
HETATM   32  C   UNL     1     -10.227  17.445  66.317  1.00  0.00    -0.341 A  
BRANCH  29  33
HETATM   33  O   UNL     1      -7.894  19.726  68.020  1.00  0.00    -0.299 OA 
HETATM   34  C   UNL     1      -7.496  20.008  69.358  1.00  0.00     0.038 C  
ENDBRANCH  29  33
BRANCH  30  35
HETATM   35  O   UNL     1      -8.862  19.392  65.611  1.00  0.00    -0.316 OA 
HETATM   36  C   UNL     1      -8.698  20.747  66.006  1.00  0.00     0.657 C  
ENDBRANCH  30  35
BRANCH  32  37
HETATM   37  O   UNL     1     -10.715  17.269  65.050  1.00  0.00    -0.708 OA 
HETATM   38  C   UNL     1     -11.072  15.955  64.638  1.00  0.00    -0.354 C  
ENDBRANCH  32  37
ENDBRANCH  25  27
ENDBRANCH  24  25
ENDBRANCH  23  24
ENDBRANCH  22  23
ENDBRANCH  21  22
ENDBRANCH  19  21
ENDBRANCH  18  19
ENDBRANCH  17  18
ENDBRANCH  15  17
ENDBRANCH  14  15
ENDBRANCH  13  14
ENDBRANCH  12  13
ENDBRANCH  11  12
ENDBRANCH   9  11
ENDBRANCH   5   9
BRANCH   8  39
HETATM   39  O   UNL     1      -8.077   8.270  71.867  1.00  0.00    -0.119 OA 
HETATM   40  C   UNL     1      -7.592   8.630  73.151  1.00  0.00     0.122 C  
ENDBRANCH   8  39
BRANCH   7  41
HETATM   41  O   UNL     1      -9.670   5.918  72.356  1.00  0.00    -0.159 OA 
HETATM   42  C   UNL     1      -8.618   5.286  71.647  1.00  0.00    -0.134 C  
ENDBRANCH   7  41
ENDBRANCH   2   3
TORSDOF 21
ENDMDL
MODEL      310
REMARK 921   NORMALIZED FREE ENERGY PREDICTED BY IDOCK:   -1.03 KCAL/MOL
REMARK 922        TOTAL FREE ENERGY PREDICTED BY IDOCK:   -5.14 KCAL/MOL
REMARK 923 INTER-LIGAND FREE ENERGY PREDICTED BY IDOCK:   -4.96 KCAL/MOL
REMARK 924 INTRA-LIGAND FREE ENERGY PREDICTED BY IDOCK:   -0.18 KCAL/MOL
REMARK 927      BINDING AFFINITY PREDICTED BY RF-SCORE:    0.00 PKD
ROOT
HETATM    1  C   UNL     1     -13.775  15.462  64.494  1.00  0.00     2.922 C  
HETATM    2  O   UNL     1     -12.481  15.579  63.907  1.00  0.00    -0.656 OA 
ENDROOT
BRANCH   2   3
HETATM    3  C   UNL     1     -11.419  15.138  64.658  1.00  0.00    -0.362 A  
HETATM    4  C   UNL     1     -10.434  16.036  65.089  1.00  0.00    -0.331 A  
HETATM    5  C   UNL     1      -9.345  15.614  65.853  1.00  0.00    -0.357 A  
HETATM    6  C   UNL     1      -9.241  14.271  66.200  1.00  0.00    -0.120 A  
HETATM    7  C   UNL     1     -11.343  13.778  65.037  1.00  0.00    -0.328 A  
HETATM    8  C   UNL     1     -10.231  13.351  65.807  1.00  0.00    -0.295 A  
BRANCH   5   9
HETATM    9  C   UNL     1      -8.358  16.652  66.240  1.00  0.00    -0.325 C  
HETATM   10  O   UNL     1      -8.583  17.847  66.115  1.00  0.00    -0.449 OA 
BRANCH   9  11
HETATM   11  O   UNL     1      -7.202  16.109  66.694  1.00  0.00    -0.192 OA 
BRANCH  11  12
HETATM   12  C   UNL     1      -7.303  15.520  68.004  1.00  0.00    -0.129 C  
BRANCH  12  13
HETATM   13  C   UNL     1      -6.291  14.384  68.133  1.00  0.00    -0.144 C  
BRANCH  13  14
HETATM   14  C   UNL     1      -6.813  13.262  69.031  1.00  0.00    -0.096 C  
BRANCH  14  15
HETATM   15  N   UNL     1      -5.844  12.835  70.061  1.00  0.00    -0.137 NA 
HETATM   16  C   UNL     1      -5.863  13.736  71.221  1.00  0.00    -0.154 C  
BRANCH  15  17
HETATM   17  C   UNL     1      -6.149  11.433  70.452  1.00  0.00    -0.110 C  
BRANCH  17  18
HETATM   18  C   UNL     1      -5.646  10.371  69.446  1.00  0.00    -0.037 C  
BRANCH  18  19
HETATM   19  N   UNL     1      -6.300  10.369  68.116  1.00  0.00    -0.052 NA 
HETATM   20  C   UNL     1      -5.450   9.724  67.110  1.00  0.00    -0.042 C  
BRANCH  19  21
HETATM   21  C   UNL     1      -7.602   9.668  68.177  1.00  0.00    -0.082 C  
BRANCH  21  22
HETATM   22  C   UNL     1      -7.514   8.275  68.807  1.00  0.00    -0.096 C  
BRANCH  22  23
HETATM   23  C   UNL     1      -7.897   7.181  67.817  1.00  0.00    -0.114 C  
BRANCH  23  24
HETATM   24  O   UNL     1      -9.289   7.304  67.480  1.00  0.00    -0.128 OA 
BRANCH  24  25
HETATM   25  C   UNL     1     -10.073   6.254  67.834  1.00  0.00    -0.145 C  
HETATM   26  O   UNL     1     -11.010   6.288  68.615  1.00  0.00    -0.300 OA 
BRANCH  25  27
HETATM   27  C   UNL     1      -9.651   5.025  67.112  1.00  0.00    -0.165 A  
HETATM   28  C   UNL     1      -9.607   5.064  65.718  1.00  0.00    -0.162 A  
HETATM   29  C   UNL     1      -9.260   3.923  64.993  1.00  0.00    -0.150 A  
HETATM   30  C   UNL     1      -8.965   2.714  65.669  1.00  0.00    -0.134 A  
HETATM   31  C   UNL     1      -9.319   3.845  67.787  1.00  0.00    -0.230 A  
HETATM   32  C   UNL     1      -8.986   2.679  67.081  1.00  0.00    -0.154 A  
BRANCH  29  33
HETATM   33  O   UNL     1      -9.235   3.896  63.617  1.00  0.00    -0.118 OA 
HETATM   34  C   UNL     1      -8.795   5.085  62.968  1.00  0.00    -0.050 C  
ENDBRANCH  29  33
BRANCH  30  35
HETATM   35  O   UNL     1      -8.736   1.638  64.843  1.00  0.00    -0.094 OA 
HETATM   36  C   UNL     1      -7.495   1.564  64.156  1.00  0.00    -0.057 C  
ENDBRANCH  30  35
BRANCH  32  37
HETATM   37  O   UNL     1      -8.708   1.496  67.713  1.00  0.00    -0.079 OA 
HETATM   38  C   UNL     1      -7.831   1.516  68.832  1.00  0.00    -0.045 C  
ENDBRANCH  32  37
ENDBRANCH  25  27
ENDBRANCH  24  25
ENDBRANCH  23  24
ENDBRANCH  22  23
ENDBRANCH  21  22
ENDBRANCH  19  21
ENDBRANCH  18  19
ENDBRANCH  17  18
ENDBRANCH  15  17
ENDBRANCH  14  15
ENDBRANCH  13  14
ENDBRANCH  12  13
ENDBRANCH  11  12
ENDBRANCH   9  11
ENDBRANCH   5   9
BRANCH   8  39
HETATM   39  O   UNL     1      -9.939  12.088  66.268  1.00  0.00    -0.216 OA 
HETATM   40  C   UNL     1     -10.227  11.744  67.615  1.00  0.00    -0.199 C  
ENDBRANCH   8  39
BRANCH   7  41
HETATM   41  O   UNL     1     -12.256  12.810  64.712  1.00  0.00    -0.406 OA 
HETATM   42  C   UNL     1     -11.975  11.850  63.707  1.00  0.00    -0.445 C  
ENDBRANCH   7  41
ENDBRANCH   2   3
TORSDOF 21
ENDMDL
MODEL      311
REMARK 921   NORMALIZED FREE ENERGY PREDICTED BY IDOCK:   -0.99 KCAL/MOL
REMARK 922        TOTAL FREE ENERGY PREDICTED BY IDOCK:   -5.07 KCAL/MOL
REMARK 923 INTER-LIGAND FREE ENERGY PREDICTED BY IDOCK:   -7.28 KCAL/MOL
REMARK 924 INTRA-LIGAND FREE ENERGY PREDICTED BY IDOCK:    2.21 KCAL/MOL
REMARK 927      BINDING AFFINITY PREDICTED BY RF-SCORE:    0.00 PKD
ROOT
HETATM    1  C   UNL     1      -8.269  16.158  69.528  1.00  0.00     0.045 C  
HETATM    2  O   UNL     1      -9.521  16.139  68.846  1.00  0.00    -0.220 OA 
ENDROOT
BRANCH   2   3
HETATM    3  C   UNL     1     -10.384  15.119  69.163  1.00  0.00    -0.249 A  
HETATM    4  C   UNL     1     -10.606  14.072  68.260  1.00  0.00    -0.253 A  
HETATM    5  C   UNL     1     -11.477  13.023  68.558  1.00  0.00    -0.340 A  
HETATM    6  C   UNL     1     -12.132  13.014  69.784  1.00  0.00    -0.325 A  
HETATM    7  C   UNL     1     -11.015  15.099  70.429  1.00  0.00    -0.238 A  
HETATM    8  C   UNL     1     -11.905  14.036  70.726  1.00  0.00    -0.215 A  
BRANCH   5   9
HETATM    9  C   UNL     1     -11.644  11.978  67.518  1.00  0.00    -0.330 C  
HETATM   10  O   UNL     1     -11.334  12.162  66.350  1.00  0.00    -0.321 OA 
BRANCH   9  11
HETATM   11  O   UNL     1     -12.208  10.850  68.017  1.00  0.00    -0.422 OA 
BRANCH  11  12
HETATM   12  C   UNL     1     -11.258   9.861  68.453  1.00  0.00    -0.074 C  
BRANCH  12  13
HETATM   13  C   UNL     1     -10.125   9.758  67.436  1.00  0.00    -0.259 C  
BRANCH  13  14
HETATM   14  C   UNL     1     -10.249   8.499  66.578  1.00  0.00    -0.216 C  
BRANCH  14  15
HETATM   15  N   UNL     1      -8.947   7.875  66.258  1.00  0.00    -0.164 NA 
HETATM   16  C   UNL     1      -9.044   6.409  66.246  1.00  0.00    -0.151 C  
BRANCH  15  17
HETATM   17  C   UNL     1      -8.473   8.404  64.951  1.00  0.00    -0.122 C  
BRANCH  17  18
HETATM   18  C   UNL     1      -8.022   9.883  64.993  1.00  0.00    -0.137 C  
BRANCH  18  19
HETATM   19  N   UNL     1      -6.559  10.120  64.996  1.00  0.00    -0.125 NA 
HETATM   20  C   UNL     1      -6.194  11.157  65.966  1.00  0.00    -0.023 C  
BRANCH  19  21
HETATM   21  C   UNL     1      -5.830   8.873  65.319  1.00  0.00    -0.051 C  
BRANCH  21  22
HETATM   22  C   UNL     1      -5.198   8.881  66.714  1.00  0.00    -0.039 C  
BRANCH  22  23
HETATM   23  C   UNL     1      -6.161   9.411  67.769  1.00  0.00    -0.054 C  
BRANCH  23  24
HETATM   24  O   UNL     1      -6.967   8.331  68.270  1.00  0.00    -0.073 OA 
BRANCH  24  25
HETATM   25  C   UNL     1      -6.343   7.481  69.126  1.00  0.00    -0.035 C  
HETATM   26  O   UNL     1      -5.166   7.162  69.091  1.00  0.00    -0.014 OA 
BRANCH  25  27
HETATM   27  C   UNL     1      -7.297   6.992  70.156  1.00  0.00    -0.081 A  
HETATM   28  C   UNL     1      -8.411   7.780  70.448  1.00  0.00    -0.123 A  
HETATM   29  C   UNL     1      -9.310   7.386  71.439  1.00  0.00    -0.142 A  
HETATM   30  C   UNL     1      -9.089   6.191  72.166  1.00  0.00    -0.141 A  
HETATM   31  C   UNL     1      -7.095   5.789  70.841  1.00  0.00    -0.071 A  
HETATM   32  C   UNL     1      -7.973   5.380  71.856  1.00  0.00    -0.113 A  
BRANCH  29  33
HETATM   33  O   UNL     1     -10.406   8.141  71.791  1.00  0.00    -0.204 OA 
HETATM   34  C   UNL     1     -10.431   9.482  71.312  1.00  0.00    -0.250 C  
ENDBRANCH  29  33
BRANCH  30  35
HETATM   35  O   UNL     1      -9.988   5.963  73.181  1.00  0.00    -0.169 OA 
HETATM   36  C   UNL     1      -9.794   6.631  74.420  1.00  0.00    -0.322 C  
ENDBRANCH  30  35
BRANCH  32  37
HETATM   37  O   UNL     1      -7.773   4.235  72.580  1.00  0.00    -0.076 OA 
HETATM   38  C   UNL     1      -7.279   3.085  71.904  1.00  0.00    -0.039 C  
ENDBRANCH  32  37
ENDBRANCH  25  27
ENDBRANCH  24  25
ENDBRANCH  23  24
ENDBRANCH  22  23
ENDBRANCH  21  22
ENDBRANCH  19  21
ENDBRANCH  18  19
ENDBRANCH  17  18
ENDBRANCH  15  17
ENDBRANCH  14  15
ENDBRANCH  13  14
ENDBRANCH  12  13
ENDBRANCH  11  12
ENDBRANCH   9  11
ENDBRANCH   5   9
BRANCH   8  39
HETATM   39  O   UNL     1     -12.638  13.823  71.869  1.00  0.00    -0.281 OA 
HETATM   40  C   UNL     1     -14.006  14.198  71.911  1.00  0.00    -0.470 C  
ENDBRANCH   8  39
BRANCH   7  41
HETATM   41  O   UNL     1     -10.854  16.040  71.411  1.00  0.00     0.047 OA 
HETATM   42  C   UNL     1     -11.927  16.391  72.269  1.00  0.00    -0.439 C  
ENDBRANCH   7  41
ENDBRANCH   2   3
TORSDOF 21
ENDMDL
MODEL      312
REMARK 921   NORMALIZED FREE ENERGY PREDICTED BY IDOCK:   -0.96 KCAL/MOL
REMARK 922        TOTAL FREE ENERGY PREDICTED BY IDOCK:   -4.99 KCAL/MOL
REMARK 923 INTER-LIGAND FREE ENERGY PREDICTED BY IDOCK:   -6.25 KCAL/MOL
REMARK 924 INTRA-LIGAND FREE ENERGY PREDICTED BY IDOCK:    1.26 KCAL/MOL
REMARK 927      BINDING AFFINITY PREDICTED BY RF-SCORE:    0.00 PKD
ROOT
HETATM    1  C   UNL     1     -10.602  10.325  69.722  1.00  0.00    -0.271 C  
HETATM    2  O   UNL     1      -9.889  11.425  69.161  1.00  0.00    -0.096 OA 
ENDROOT
BRANCH   2   3
HETATM    3  C   UNL     1     -10.265  11.831  67.905  1.00  0.00    -0.191 A  
HETATM    4  C   UNL     1      -9.887  11.091  66.778  1.00  0.00    -0.229 A  
HETATM    5  C   UNL     1     -10.256  11.481  65.490  1.00  0.00    -0.303 A  
HETATM    6  C   UNL     1     -11.025  12.628  65.324  1.00  0.00    -0.320 A  
HETATM    7  C   UNL     1     -11.080  12.977  67.750  1.00  0.00    -0.262 A  
HETATM    8  C   UNL     1     -11.447  13.375  66.440  1.00  0.00    -0.329 A  
BRANCH   5   9
HETATM    9  C   UNL     1      -9.785  10.627  64.372  1.00  0.00    -0.311 C  
HETATM   10  O   UNL     1      -9.765  11.017  63.213  1.00  0.00    -0.292 OA 
BRANCH   9  11
HETATM   11  O   UNL     1      -9.433   9.387  64.793  1.00  0.00    -0.201 OA 
BRANCH  11  12
HETATM   12  C   UNL     1     -10.102   8.963  65.995  1.00  0.00    -0.028 C  
BRANCH  12  13
HETATM   13  C   UNL     1      -9.432   7.703  66.536  1.00  0.00    -0.250 C  
BRANCH  13  14
HETATM   14  C   UNL     1      -9.108   6.711  65.418  1.00  0.00     0.276 C  
BRANCH  14  15
HETATM   15  N   UNL     1      -9.299   5.299  65.812  1.00  0.00    -0.158 NA 
HETATM   16  C   UNL     1     -10.583   4.776  65.327  1.00  0.00     0.005 C  
BRANCH  15  17
HETATM   17  C   UNL     1      -8.153   4.502  65.299  1.00  0.00    -0.103 C  
BRANCH  17  18
HETATM   18  C   UNL     1      -6.832   4.719  66.075  1.00  0.00    -0.058 C  
BRANCH  18  19
HETATM   19  N   UNL     1      -5.793   5.519  65.387  1.00  0.00    -0.020 NA 
HETATM   20  C   UNL     1      -6.265   5.985  64.079  1.00  0.00    -0.029 C  
BRANCH  19  21
HETATM   21  C   UNL     1      -5.405   6.687  66.209  1.00  0.00    -0.017 C  
BRANCH  21  22
HETATM   22  C   UNL     1      -6.189   6.795  67.521  1.00  0.00    -0.040 C  
BRANCH  22  23
HETATM   23  C   UNL     1      -5.475   6.089  68.667  1.00  0.00    -0.007 C  
BRANCH  23  24
HETATM   24  O   UNL     1      -6.446   5.492  69.543  1.00  0.00    -0.038 OA 
BRANCH  24  25
HETATM   25  C   UNL     1      -7.310   6.354  70.136  1.00  0.00    -0.086 C  
HETATM   26  O   UNL     1      -7.389   7.553  69.923  1.00  0.00    -0.078 OA 
BRANCH  25  27
HETATM   27  C   UNL     1      -8.192   5.631  71.090  1.00  0.00    -0.121 A  
HETATM   28  C   UNL     1      -9.390   6.240  71.468  1.00  0.00    -0.155 A  
HETATM   29  C   UNL     1     -10.230   5.622  72.394  1.00  0.00    -0.193 A  
HETATM   30  C   UNL     1      -9.864   4.379  72.969  1.00  0.00    -0.141 A  
HETATM   31  C   UNL     1      -7.846   4.384  71.621  1.00  0.00    -0.080 A  
HETATM   32  C   UNL     1      -8.663   3.751  72.569  1.00  0.00    -0.094 A  
BRANCH  29  33
HETATM   33  O   UNL     1     -11.405   6.192  72.829  1.00  0.00    -0.264 OA 
HETATM   34  C   UNL     1     -11.443   7.616  72.861  1.00  0.00    -0.290 C  
ENDBRANCH  29  33
BRANCH  30  35
HETATM   35  O   UNL     1     -10.724   3.923  73.940  1.00  0.00    -0.195 OA 
HETATM   36  C   UNL     1     -11.518   2.779  73.658  1.00  0.00    -0.099 C  
ENDBRANCH  30  35
BRANCH  32  37
HETATM   37  O   UNL     1      -8.324   2.556  73.146  1.00  0.00    -0.068 OA 
HETATM   38  C   UNL     1      -6.944   2.246  73.301  1.00  0.00    -0.027 C  
ENDBRANCH  32  37
ENDBRANCH  25  27
ENDBRANCH  24  25
ENDBRANCH  23  24
ENDBRANCH  22  23
ENDBRANCH  21  22
ENDBRANCH  19  21
ENDBRANCH  18  19
ENDBRANCH  17  18
ENDBRANCH  15  17
ENDBRANCH  14  15
ENDBRANCH  13  14
ENDBRANCH  12  13
ENDBRANCH  11  12
ENDBRANCH   9  11
ENDBRANCH   5   9
BRANCH   8  39
HETATM   39  O   UNL     1     -12.206  14.454  66.050  1.00  0.00    -0.394 OA 
HETATM   40  C   UNL     1     -12.462  14.677  64.672  1.00  0.00    -0.286 C  
ENDBRANCH   8  39
BRANCH   7  41
HETATM   41  O   UNL     1     -11.546  13.764  68.770  1.00  0.00    -0.280 OA 
HETATM   42  C   UNL     1     -12.395  13.231  69.773  1.00  0.00    -0.128 C  
ENDBRANCH   7  41
ENDBRANCH   2   3
TORSDOF 21
ENDMDL
MODEL      313
REMARK 921   NORMALIZED FREE ENERGY PREDICTED BY IDOCK:   -0.80 KCAL/MOL
REMARK 922        TOTAL FREE ENERGY PREDICTED BY IDOCK:   -4.65 KCAL/MOL
REMARK 923 INTER-LIGAND FREE ENERGY PREDICTED BY IDOCK:   -5.75 KCAL/MOL
REMARK 924 INTRA-LIGAND FREE ENERGY PREDICTED BY IDOCK:    1.10 KCAL/MOL
REMARK 927      BINDING AFFINITY PREDICTED BY RF-SCORE:    0.00 PKD
ROOT
HETATM    1  C   UNL     1     -13.573  14.346  65.075  1.00  0.00     1.411 C  
HETATM    2  O   UNL     1     -12.403  14.837  64.424  1.00  0.00    -0.532 OA 
ENDROOT
BRANCH   2   3
HETATM    3  C   UNL     1     -11.209  14.655  65.077  1.00  0.00    -0.386 A  
HETATM    4  C   UNL     1     -10.399  15.752  65.392  1.00  0.00    -0.417 A  
HETATM    5  C   UNL     1      -9.181  15.595  66.055  1.00  0.00    -0.374 A  
HETATM    6  C   UNL     1      -8.767  14.318  66.418  1.00  0.00     0.116 A  
HETATM    7  C   UNL     1     -10.817  13.356  65.476  1.00  0.00    -0.289 A  
HETATM    8  C   UNL     1      -9.575  13.198  66.144  1.00  0.00    -0.200 A  
BRANCH   5   9
HETATM    9  C   UNL     1      -8.401  16.829  66.322  1.00  0.00    -0.318 C  
HETATM   10  O   UNL     1      -8.740  17.923  65.893  1.00  0.00    -0.508 OA 
BRANCH   9  11
HETATM   11  O   UNL     1      -7.282  16.576  67.045  1.00  0.00    -0.168 OA 
BRANCH  11  12
HETATM   12  C   UNL     1      -7.499  15.730  68.189  1.00  0.00    -0.124 C  
BRANCH  12  13
HETATM   13  C   UNL     1      -6.312  14.788  68.361  1.00  0.00    -0.103 C  
BRANCH  13  14
HETATM   14  C   UNL     1      -6.555  13.770  69.476  1.00  0.00    -0.081 C  
BRANCH  14  15
HETATM   15  N   UNL     1      -5.437  13.674  70.438  1.00  0.00    -0.119 NA 
HETATM   16  C   UNL     1      -5.585  14.644  71.531  1.00  0.00    -0.054 C  
BRANCH  15  17
HETATM   17  C   UNL     1      -5.366  12.278  70.949  1.00  0.00    -0.157 C  
BRANCH  17  18
HETATM   18  C   UNL     1      -5.141  11.212  69.851  1.00  0.00    -0.047 C  
BRANCH  18  19
HETATM   19  N   UNL     1      -6.289  10.946  68.953  1.00  0.00    -0.044 NA 
HETATM   20  C   UNL     1      -5.842  10.365  67.683  1.00  0.00    -0.044 C  
BRANCH  19  21
HETATM   21  C   UNL     1      -7.252  10.026  69.598  1.00  0.00    -0.119 C  
BRANCH  21  22
HETATM   22  C   UNL     1      -6.612   8.724  70.092  1.00  0.00    -0.039 C  
BRANCH  22  23
HETATM   23  C   UNL     1      -7.322   7.497  69.535  1.00  0.00    -0.084 C  
BRANCH  23  24
HETATM   24  O   UNL     1      -8.567   7.893  68.934  1.00  0.00    -0.130 OA 
BRANCH  24  25
HETATM   25  C   UNL     1      -9.683   7.594  69.645  1.00  0.00    -0.171 C  
HETATM   26  O   UNL     1     -10.635   8.334  69.833  1.00  0.00    -0.227 OA 
BRANCH  25  27
HETATM   27  C   UNL     1      -9.611   6.202  70.163  1.00  0.00    -0.187 A  
HETATM   28  C   UNL     1      -9.330   5.178  69.257  1.00  0.00    -0.172 A  
HETATM   29  C   UNL     1      -9.296   3.851  69.686  1.00  0.00    -0.176 A  
HETATM   30  C   UNL     1      -9.561   3.533  71.040  1.00  0.00    -0.173 A  
HETATM   31  C   UNL     1      -9.831   5.899  71.510  1.00  0.00    -0.201 A  
HETATM   32  C   UNL     1      -9.823   4.571  71.963  1.00  0.00    -0.178 A  
BRANCH  29  33
HETATM   33  O   UNL     1      -9.058   2.799  68.830  1.00  0.00    -0.119 OA 
HETATM   34  C   UNL     1      -9.089   3.097  67.437  1.00  0.00    -0.176 C  
ENDBRANCH  29  33
BRANCH  30  35
HETATM   35  O   UNL     1      -9.596   2.187  71.317  1.00  0.00    -0.132 OA 
HETATM   36  C   UNL     1      -8.514   1.616  72.039  1.00  0.00    -0.048 C  
ENDBRANCH  30  35
BRANCH  32  37
HETATM   37  O   UNL     1     -10.087   4.241  73.265  1.00  0.00    -0.134 OA 
HETATM   38  C   UNL     1     -10.587   5.252  74.133  1.00  0.00    -0.259 C  
ENDBRANCH  32  37
ENDBRANCH  25  27
ENDBRANCH  24  25
ENDBRANCH  23  24
ENDBRANCH  22  23
ENDBRANCH  21  22
ENDBRANCH  19  21
ENDBRANCH  18  19
ENDBRANCH  17  18
ENDBRANCH  15  17
ENDBRANCH  14  15
ENDBRANCH  13  14
ENDBRANCH  12  13
ENDBRANCH  11  12
ENDBRANCH   9  11
ENDBRANCH   5   9
BRANCH   8  39
HETATM   39  O   UNL     1      -8.986  12.043  66.601  1.00  0.00    -0.199 OA 
HETATM   40  C   UNL     1      -8.033  11.369  65.793  1.00  0.00     0.251 C  
ENDBRANCH   8  39
BRANCH   7  41
HETATM   41  O   UNL     1     -11.533  12.208  65.262  1.00  0.00    -0.337 OA 
HETATM   42  C   UNL     1     -11.407  11.485  64.049  1.00  0.00    -0.296 C  
ENDBRANCH   7  41
ENDBRANCH   2   3
TORSDOF 21
ENDMDL
MODEL      314
REMARK 921   NORMALIZED FREE ENERGY PREDICTED BY IDOCK:   -0.65 KCAL/MOL
REMARK 922        TOTAL FREE ENERGY PREDICTED BY IDOCK:   -4.31 KCAL/MOL
REMARK 923 INTER-LIGAND FREE ENERGY PREDICTED BY IDOCK:   -4.60 KCAL/MOL
REMARK 924 INTRA-LIGAND FREE ENERGY PREDICTED BY IDOCK:    0.30 KCAL/MOL
REMARK 927      BINDING AFFINITY PREDICTED BY RF-SCORE:    0.00 PKD
ROOT
HETATM    1  C   UNL     1      -8.375  15.174  66.858  1.00  0.00    -0.232 C  
HETATM    2  O   UNL     1      -8.040  16.079  65.808  1.00  0.00     0.329 OA 
ENDROOT
BRANCH   2   3
HETATM    3  C   UNL     1      -7.975  17.411  66.136  1.00  0.00    -0.240 A  
HETATM    4  C   UNL     1      -9.056  18.040  66.766  1.00  0.00    -0.280 A  
HETATM    5  C   UNL     1      -9.016  19.391  67.110  1.00  0.00    -0.347 A  
HETATM    6  C   UNL     1      -7.871  20.128  66.828  1.00  0.00    -0.342 A  
HETATM    7  C   UNL     1      -6.791  18.141  65.880  1.00  0.00    -0.298 A  
HETATM    8  C   UNL     1      -6.756  19.516  66.225  1.00  0.00    -0.208 A  
BRANCH   5   9
HETATM    9  C   UNL     1     -10.226  19.952  67.759  1.00  0.00    -0.429 C  
HETATM   10  O   UNL     1     -11.349  19.792  67.300  1.00  0.00    -0.126 OA 
BRANCH   9  11
HETATM   11  O   UNL     1      -9.921  20.673  68.866  1.00  0.00     0.152 OA 
BRANCH  11  12
HETATM   12  C   UNL     1      -9.762  19.882  70.058  1.00  0.00     0.556 C  
BRANCH  12  13
HETATM   13  C   UNL     1      -8.360  20.088  70.624  1.00  0.00     1.682 C  
BRANCH  13  14
HETATM   14  C   UNL     1      -7.284  19.546  69.682  1.00  0.00    -0.101 C  
BRANCH  14  15
HETATM   15  N   UNL     1      -5.913  19.674  70.220  1.00  0.00    -0.273 NA 
HETATM   16  C   UNL     1      -5.923  20.196  71.593  1.00  0.00    -0.271 C  
BRANCH  15  17
HETATM   17  C   UNL     1      -5.244  18.347  70.142  1.00  0.00    -0.229 C  
BRANCH  17  18
HETATM   18  C   UNL     1      -6.155  17.156  70.522  1.00  0.00     0.414 C  
BRANCH  18  19
HETATM   19  N   UNL     1      -6.555  16.258  69.413  1.00  0.00    -0.194 NA 
HETATM   20  C   UNL     1      -5.394  15.550  68.863  1.00  0.00    -0.099 C  
BRANCH  19  21
HETATM   21  C   UNL     1      -7.554  15.270  69.877  1.00  0.00    -0.003 C  
BRANCH  21  22
HETATM   22  C   UNL     1      -9.002  15.741  69.702  1.00  0.00    -0.084 C  
BRANCH  22  23
HETATM   23  C   UNL     1      -9.942  15.055  70.684  1.00  0.00     0.703 C  
BRANCH  23  24
HETATM   24  O   UNL     1     -11.103  15.877  70.892  1.00  0.00    -0.333 OA 
BRANCH  24  25
HETATM   25  C   UNL     1     -12.254  15.417  70.340  1.00  0.00    -0.391 C  
HETATM   26  O   UNL     1     -13.381  15.808  70.598  1.00  0.00    -0.486 OA 
BRANCH  25  27
HETATM   27  C   UNL     1     -11.962  14.363  69.333  1.00  0.00    -0.370 A  
HETATM   28  C   UNL     1     -11.643  13.085  69.794  1.00  0.00    -0.286 A  
HETATM   29  C   UNL     1     -11.317  12.074  68.890  1.00  0.00    -0.278 A  
HETATM   30  C   UNL     1     -11.291  12.342  67.500  1.00  0.00    -0.315 A  
HETATM   31  C   UNL     1     -11.980  14.624  67.959  1.00  0.00    -0.292 A  
HETATM   32  C   UNL     1     -11.636  13.630  67.030  1.00  0.00    -0.359 A  
BRANCH  29  33
HETATM   33  O   UNL     1     -10.961  10.805  69.291  1.00  0.00    -0.208 OA 
HETATM   34  C   UNL     1     -11.553  10.333  70.498  1.00  0.00    -0.338 C  
ENDBRANCH  29  33
BRANCH  30  35
HETATM   35  O   UNL     1     -10.859  11.295  66.721  1.00  0.00    -0.264 OA 
HETATM   36  C   UNL     1      -9.598  11.406  66.077  1.00  0.00    -0.221 C  
ENDBRANCH  30  35
BRANCH  32  37
HETATM   37  O   UNL     1     -11.595  13.871  65.683  1.00  0.00    -0.319 OA 
HETATM   38  C   UNL     1     -12.825  13.993  64.978  1.00  0.00    -0.258 C  
ENDBRANCH  32  37
ENDBRANCH  25  27
ENDBRANCH  24  25
ENDBRANCH  23  24
ENDBRANCH  22  23
ENDBRANCH  21  22
ENDBRANCH  19  21
ENDBRANCH  18  19
ENDBRANCH  17  18
ENDBRANCH  15  17
ENDBRANCH  14  15
ENDBRANCH  13  14
ENDBRANCH  12  13
ENDBRANCH  11  12
ENDBRANCH   9  11
ENDBRANCH   5   9
BRANCH   8  39
HETATM   39  O   UNL     1      -5.733  20.420  66.053  1.00  0.00    -0.173 OA 
HETATM   40  C   UNL     1      -5.401  21.319  67.099  1.00  0.00    -0.278 C  
ENDBRANCH   8  39
BRANCH   7  41
HETATM   41  O   UNL     1      -5.655  17.636  65.305  1.00  0.00    -0.033 OA 
HETATM   42  C   UNL     1      -5.286  17.992  63.984  1.00  0.00     0.521 C  
ENDBRANCH   7  41
ENDBRANCH   2   3
TORSDOF 21
ENDMDL
MODEL      315
REMARK 921   NORMALIZED FREE ENERGY PREDICTED BY IDOCK:   -0.63 KCAL/MOL
REMARK 922        TOTAL FREE ENERGY PREDICTED BY IDOCK:   -4.27 KCAL/MOL
REMARK 923 INTER-LIGAND FREE ENERGY PREDICTED BY IDOCK:   -6.55 KCAL/MOL
REMARK 924 INTRA-LIGAND FREE ENERGY PREDICTED BY IDOCK:    2.28 KCAL/MOL
REMARK 927      BINDING AFFINITY PREDICTED BY RF-SCORE:    0.00 PKD
ROOT
HETATM    1  C   UNL     1     -12.492  13.508  66.954  1.00  0.00    -0.110 C  
HETATM    2  O   UNL     1     -11.073  13.522  67.084  1.00  0.00    -0.282 OA 
ENDROOT
BRANCH   2   3
HETATM    3  C   UNL     1     -10.386  12.494  66.486  1.00  0.00    -0.237 A  
HETATM    4  C   UNL     1      -9.519  11.691  67.237  1.00  0.00    -0.173 A  
HETATM    5  C   UNL     1      -8.809  10.639  66.655  1.00  0.00    -0.149 A  
HETATM    6  C   UNL     1      -8.975  10.379  65.300  1.00  0.00    -0.212 A  
HETATM    7  C   UNL     1     -10.591  12.214  65.116  1.00  0.00    -0.286 A  
HETATM    8  C   UNL     1      -9.864  11.149  64.526  1.00  0.00    -0.280 A  
BRANCH   5   9
HETATM    9  C   UNL     1      -7.909   9.866  67.546  1.00  0.00    -0.098 C  
HETATM   10  O   UNL     1      -8.333   9.097  68.398  1.00  0.00    -0.118 OA 
BRANCH   9  11
HETATM   11  O   UNL     1      -6.603  10.154  67.322  1.00  0.00    -0.067 OA 
BRANCH  11  12
HETATM   12  C   UNL     1      -5.709   9.652  68.332  1.00  0.00    -0.040 C  
BRANCH  12  13
HETATM   13  C   UNL     1      -5.412  10.754  69.345  1.00  0.00    -0.037 C  
BRANCH  13  14
HETATM   14  C   UNL     1      -6.126  10.507  70.674  1.00  0.00    -0.089 C  
BRANCH  14  15
HETATM   15  N   UNL     1      -6.253   9.075  71.015  1.00  0.00    -0.051 NA 
HETATM   16  C   UNL     1      -5.187   8.279  70.394  1.00  0.00    -0.022 C  
BRANCH  15  17
HETATM   17  C   UNL     1      -6.249   8.935  72.496  1.00  0.00    -0.004 C  
BRANCH  17  18
HETATM   18  C   UNL     1      -7.321   7.962  73.044  1.00  0.00    -0.107 C  
BRANCH  18  19
HETATM   19  N   UNL     1      -8.709   8.478  73.090  1.00  0.00    -0.364 NA 
HETATM   20  C   UNL     1      -9.275   8.592  71.741  1.00  0.00    -0.246 C  
BRANCH  19  21
HETATM   21  C   UNL     1      -9.568   7.590  73.905  1.00  0.00    -0.207 C  
BRANCH  21  22
HETATM   22  C   UNL     1     -10.075   6.364  73.140  1.00  0.00    -0.203 C  
BRANCH  22  23
HETATM   23  C   UNL     1     -10.423   6.701  71.696  1.00  0.00    -0.207 C  
BRANCH  23  24
HETATM   24  O   UNL     1     -10.426   5.498  70.909  1.00  0.00    -0.233 OA 
BRANCH  24  25
HETATM   25  C   UNL     1     -10.589   5.672  69.573  1.00  0.00    -0.314 C  
HETATM   26  O   UNL     1     -11.516   6.251  69.031  1.00  0.00    -0.363 OA 
BRANCH  25  27
HETATM   27  C   UNL     1      -9.450   5.071  68.829  1.00  0.00    -0.192 A  
HETATM   28  C   UNL     1      -8.732   4.044  69.444  1.00  0.00    -0.127 A  
HETATM   29  C   UNL     1      -7.628   3.479  68.806  1.00  0.00    -0.053 A  
HETATM   30  C   UNL     1      -7.218   3.956  67.537  1.00  0.00    -0.067 A  
HETATM   31  C   UNL     1      -9.076   5.517  67.557  1.00  0.00    -0.107 A  
HETATM   32  C   UNL     1      -7.957   4.980  66.903  1.00  0.00    -0.104 A  
BRANCH  29  33
HETATM   33  O   UNL     1      -6.864   2.488  69.381  1.00  0.00    -0.033 OA 
HETATM   34  C   UNL     1      -7.185   2.140  70.725  1.00  0.00    -0.033 C  
ENDBRANCH  29  33
BRANCH  30  35
HETATM   35  O   UNL     1      -6.060   3.389  67.059  1.00  0.00    -0.023 OA 
HETATM   36  C   UNL     1      -6.130   2.095  66.478  1.00  0.00    -0.023 C  
ENDBRANCH  30  35
BRANCH  32  37
HETATM   37  O   UNL     1      -7.537   5.433  65.681  1.00  0.00    -0.080 OA 
HETATM   38  C   UNL     1      -8.514   5.674  64.675  1.00  0.00    -0.085 C  
ENDBRANCH  32  37
ENDBRANCH  25  27
ENDBRANCH  24  25
ENDBRANCH  23  24
ENDBRANCH  22  23
ENDBRANCH  21  22
ENDBRANCH  19  21
ENDBRANCH  18  19
ENDBRANCH  17  18
ENDBRANCH  15  17
ENDBRANCH  14  15
ENDBRANCH  13  14
ENDBRANCH  12  13
ENDBRANCH  11  12
ENDBRANCH   9  11
ENDBRANCH   5   9
BRANCH   8  39
HETATM   39  O   UNL     1      -9.885  10.712  63.221  1.00  0.00    -0.319 OA 
HETATM   40  C   UNL     1      -9.072   9.617  62.830  1.00  0.00    -0.235 C  
ENDBRANCH   8  39
BRANCH   7  41
HETATM   41  O   UNL     1     -11.436  12.899  64.282  1.00  0.00    -0.336 OA 
HETATM   42  C   UNL     1     -12.794  12.515  64.144  1.00  0.00    -0.235 C  
ENDBRANCH   7  41
ENDBRANCH   2   3
TORSDOF 21
ENDMDL
MODEL      316
REMARK 921   NORMALIZED FREE ENERGY PREDICTED BY IDOCK:   -0.59 KCAL/MOL
REMARK 922        TOTAL FREE ENERGY PREDICTED BY IDOCK:   -4.17 KCAL/MOL
REMARK 923 INTER-LIGAND FREE ENERGY PREDICTED BY IDOCK:   -3.15 KCAL/MOL
REMARK 924 INTRA-LIGAND FREE ENERGY PREDICTED BY IDOCK:   -1.02 KCAL/MOL
REMARK 927      BINDING AFFINITY PREDICTED BY RF-SCORE:    0.00 PKD
ROOT
HETATM    1  C   UNL     1     -10.702  17.986  73.058  1.00  0.00     3.518 C  
HETATM    2  O   UNL     1     -11.894  17.310  72.663  1.00  0.00     0.287 OA 
ENDROOT
BRANCH   2   3
HETATM    3  C   UNL     1     -11.795  16.454  71.594  1.00  0.00    -0.287 A  
HETATM    4  C   UNL     1     -11.201  16.879  70.399  1.00  0.00     0.413 A  
HETATM    5  C   UNL     1     -11.087  16.029  69.297  1.00  0.00    -0.331 A  
HETATM    6  C   UNL     1     -11.569  14.728  69.393  1.00  0.00    -0.342 A  
HETATM    7  C   UNL     1     -12.253  15.122  71.715  1.00  0.00    -0.355 A  
HETATM    8  C   UNL     1     -12.143  14.263  70.592  1.00  0.00    -0.346 A  
BRANCH   5   9
HETATM    9  C   UNL     1     -10.453  16.593  68.081  1.00  0.00    -0.321 C  
HETATM   10  O   UNL     1     -10.443  17.793  67.844  1.00  0.00    -0.369 OA 
BRANCH   9  11
HETATM   11  O   UNL     1      -9.943  15.626  67.279  1.00  0.00    -0.232 OA 
BRANCH  11  12
HETATM   12  C   UNL     1      -9.034  16.113  66.275  1.00  0.00    -0.344 C  
BRANCH  12  13
HETATM   13  C   UNL     1      -7.622  16.175  66.851  1.00  0.00    -0.275 C  
BRANCH  13  14
HETATM   14  C   UNL     1      -7.170  14.815  67.384  1.00  0.00    -0.173 C  
BRANCH  14  15
HETATM   15  N   UNL     1      -5.702  14.694  67.514  1.00  0.00    -0.345 NA 
HETATM   16  C   UNL     1      -5.139  15.806  68.290  1.00  0.00    -0.102 C  
BRANCH  15  17
HETATM   17  C   UNL     1      -5.385  13.378  68.132  1.00  0.00    -0.105 C  
BRANCH  17  18
HETATM   18  C   UNL     1      -6.497  12.315  67.964  1.00  0.00    -0.076 C  
BRANCH  18  19
HETATM   19  N   UNL     1      -6.656  11.355  69.081  1.00  0.00    -0.085 NA 
HETATM   20  C   UNL     1      -5.983  11.836  70.292  1.00  0.00    -0.155 C  
BRANCH  19  21
HETATM   21  C   UNL     1      -8.089  11.131  69.376  1.00  0.00     0.152 C  
BRANCH  21  22
HETATM   22  C   UNL     1      -8.806  10.296  68.311  1.00  0.00    -0.126 C  
BRANCH  22  23
HETATM   23  C   UNL     1      -9.061   8.871  68.785  1.00  0.00    -0.134 C  
BRANCH  23  24
HETATM   24  O   UNL     1     -10.124   8.290  68.012  1.00  0.00    -0.182 OA 
BRANCH  24  25
HETATM   25  C   UNL     1      -9.770   7.811  66.793  1.00  0.00    -0.227 C  
HETATM   26  O   UNL     1      -9.521   8.479  65.802  1.00  0.00    -0.172 OA 
BRANCH  25  27
HETATM   27  C   UNL     1      -9.697   6.326  66.820  1.00  0.00    -0.193 A  
HETATM   28  C   UNL     1      -9.617   5.695  68.062  1.00  0.00    -0.137 A  
HETATM   29  C   UNL     1      -9.501   4.307  68.139  1.00  0.00    -0.157 A  
HETATM   30  C   UNL     1      -9.449   3.531  66.955  1.00  0.00    -0.176 A  
HETATM   31  C   UNL     1      -9.689   5.562  65.648  1.00  0.00     0.077 A  
HETATM   32  C   UNL     1      -9.553   4.167  65.697  1.00  0.00    -0.188 A  
BRANCH  29  33
HETATM   33  O   UNL     1      -9.384   3.636  69.335  1.00  0.00    -0.149 OA 
HETATM   34  C   UNL     1      -9.565   4.411  70.516  1.00  0.00    -0.199 C  
ENDBRANCH  29  33
BRANCH  30  35
HETATM   35  O   UNL     1      -9.234   2.188  67.159  1.00  0.00    -0.130 OA 
HETATM   36  C   UNL     1      -8.018   1.619  66.694  1.00  0.00    -0.072 C  
ENDBRANCH  30  35
BRANCH  32  37
HETATM   37  O   UNL     1      -9.489   3.398  64.566  1.00  0.00    -0.135 OA 
HETATM   38  C   UNL     1      -9.567   4.046  63.301  1.00  0.00    -0.149 C  
ENDBRANCH  32  37
ENDBRANCH  25  27
ENDBRANCH  24  25
ENDBRANCH  23  24
ENDBRANCH  22  23
ENDBRANCH  21  22
ENDBRANCH  19  21
ENDBRANCH  18  19
ENDBRANCH  17  18
ENDBRANCH  15  17
ENDBRANCH  14  15
ENDBRANCH  13  14
ENDBRANCH  12  13
ENDBRANCH  11  12
ENDBRANCH   9  11
ENDBRANCH   5   9
BRANCH   8  39
HETATM   39  O   UNL     1     -12.535  12.950  70.472  1.00  0.00    -0.298 OA 
HETATM   40  C   UNL     1     -11.586  11.960  70.109  1.00  0.00    -0.167 C  
ENDBRANCH   8  39
BRANCH   7  41
HETATM   41  O   UNL     1     -12.819  14.575  72.836  1.00  0.00    -0.430 OA 
HETATM   42  C   UNL     1     -14.073  13.918  72.775  1.00  0.00     0.065 C  
ENDBRANCH   7  41
ENDBRANCH   2   3
TORSDOF 21
ENDMDL
MODEL      317
REMARK 921   NORMALIZED FREE ENERGY PREDICTED BY IDOCK:   -0.53 KCAL/MOL
REMARK 922        TOTAL FREE ENERGY PREDICTED BY IDOCK:   -4.03 KCAL/MOL
REMARK 923 INTER-LIGAND FREE ENERGY PREDICTED BY IDOCK:   -2.88 KCAL/MOL
REMARK 924 INTRA-LIGAND FREE ENERGY PREDICTED BY IDOCK:   -1.15 KCAL/MOL
REMARK 927      BINDING AFFINITY PREDICTED BY RF-SCORE:    0.00 PKD
ROOT
HETATM    1  C   UNL     1      -8.312   9.194  70.596  1.00  0.00    -0.205 C  
HETATM    2  O   UNL     1      -7.018   8.669  70.310  1.00  0.00    -0.038 OA 
ENDROOT
BRANCH   2   3
HETATM    3  C   UNL     1      -6.821   8.158  69.051  1.00  0.00    -0.060 A  
HETATM    4  C   UNL     1      -7.405   6.941  68.680  1.00  0.00    -0.094 A  
HETATM    5  C   UNL     1      -7.221   6.400  67.407  1.00  0.00    -0.082 A  
HETATM    6  C   UNL     1      -6.445   7.092  66.483  1.00  0.00    -0.051 A  
HETATM    7  C   UNL     1      -6.062   8.888  68.107  1.00  0.00    -0.050 A  
HETATM    8  C   UNL     1      -5.871   8.333  66.816  1.00  0.00    -0.048 A  
BRANCH   5   9
HETATM    9  C   UNL     1      -7.877   5.098  67.133  1.00  0.00    -0.096 C  
HETATM   10  O   UNL     1      -7.430   4.039  67.550  1.00  0.00    -0.067 OA 
BRANCH   9  11
HETATM   11  O   UNL     1      -8.976   5.237  66.350  1.00  0.00    -0.122 OA 
BRANCH  11  12
HETATM   12  C   UNL     1     -10.215   5.286  67.080  1.00  0.00    -0.234 C  
BRANCH  12  13
HETATM   13  C   UNL     1     -10.921   6.610  66.801  1.00  0.00    -0.286 C  
BRANCH  13  14
HETATM   14  C   UNL     1     -10.536   7.681  67.822  1.00  0.00    -0.196 C  
BRANCH  14  15
HETATM   15  N   UNL     1     -10.086   8.947  67.205  1.00  0.00    -0.226 NA 
HETATM   16  C   UNL     1      -9.532   8.721  65.863  1.00  0.00    -0.208 C  
BRANCH  15  17
HETATM   17  C   UNL     1     -11.231   9.896  67.173  1.00  0.00     0.279 C  
BRANCH  17  18
HETATM   18  C   UNL     1     -10.946  11.207  66.402  1.00  0.00    -0.186 C  
BRANCH  18  19
HETATM   19  N   UNL     1     -11.224  11.182  64.946  1.00  0.00    -0.052 NA 
HETATM   20  C   UNL     1     -12.640  10.902  64.684  1.00  0.00     3.531 C  
BRANCH  19  21
HETATM   21  C   UNL     1     -10.860  12.475  64.325  1.00  0.00    -0.364 C  
BRANCH  21  22
HETATM   22  C   UNL     1     -11.938  13.023  63.384  1.00  0.00    -0.592 C  
BRANCH  22  23
HETATM   23  C   UNL     1     -11.927  14.545  63.335  1.00  0.00     0.865 C  
BRANCH  23  24
HETATM   24  O   UNL     1     -12.176  15.070  64.650  1.00  0.00    -0.380 OA 
BRANCH  24  25
HETATM   25  C   UNL     1     -11.370  16.091  65.037  1.00  0.00    -0.156 C  
HETATM   26  O   UNL     1     -10.922  16.966  64.315  1.00  0.00    -0.929 OA 
BRANCH  25  27
HETATM   27  C   UNL     1     -11.112  16.023  66.500  1.00  0.00     0.024 A  
HETATM   28  C   UNL     1     -11.453  14.848  67.173  1.00  0.00    -0.344 A  
HETATM   29  C   UNL     1     -11.272  14.752  68.553  1.00  0.00    -0.276 A  
HETATM   30  C   UNL     1     -10.756  15.851  69.282  1.00  0.00    -0.259 A  
HETATM   31  C   UNL     1     -10.563  17.097  67.208  1.00  0.00    -0.270 A  
HETATM   32  C   UNL     1     -10.390  17.033  68.598  1.00  0.00    -0.351 A  
BRANCH  29  33
HETATM   33  O   UNL     1     -11.622  13.631  69.271  1.00  0.00    -0.272 OA 
HETATM   34  C   UNL     1     -10.571  12.715  69.569  1.00  0.00     0.431 C  
ENDBRANCH  29  33
BRANCH  30  35
HETATM   35  O   UNL     1     -10.719  15.668  70.644  1.00  0.00    -0.319 OA 
HETATM   36  C   UNL     1     -11.747  16.251  71.434  1.00  0.00    -0.368 C  
ENDBRANCH  30  35
BRANCH  32  37
HETATM   37  O   UNL     1      -9.904  18.087  69.325  1.00  0.00    -0.197 OA 
HETATM   38  C   UNL     1     -10.070  19.401  68.805  1.00  0.00    -0.422 C  
ENDBRANCH  32  37
ENDBRANCH  25  27
ENDBRANCH  24  25
ENDBRANCH  23  24
ENDBRANCH  22  23
ENDBRANCH  21  22
ENDBRANCH  19  21
ENDBRANCH  18  19
ENDBRANCH  17  18
ENDBRANCH  15  17
ENDBRANCH  14  15
ENDBRANCH  13  14
ENDBRANCH  12  13
ENDBRANCH  11  12
ENDBRANCH   9  11
ENDBRANCH   5   9
BRANCH   8  39
HETATM   39  O   UNL     1      -5.162   8.846  65.756  1.00  0.00    -0.033 OA 
HETATM   40  C   UNL     1      -5.716   9.895  64.977  1.00  0.00    -0.091 C  
ENDBRANCH   8  39
BRANCH   7  41
HETATM   41  O   UNL     1      -5.470  10.103  68.332  1.00  0.00    -0.039 OA 
HETATM   42  C   UNL     1      -5.816  11.239  67.558  1.00  0.00    -0.055 C  
ENDBRANCH   7  41
ENDBRANCH   2   3
TORSDOF 21
ENDMDL
MODEL      318
REMARK 921   NORMALIZED FREE ENERGY PREDICTED BY IDOCK:   -0.52 KCAL/MOL
REMARK 922        TOTAL FREE ENERGY PREDICTED BY IDOCK:   -4.01 KCAL/MOL
REMARK 923 INTER-LIGAND FREE ENERGY PREDICTED BY IDOCK:   -6.13 KCAL/MOL
REMARK 924 INTRA-LIGAND FREE ENERGY PREDICTED BY IDOCK:    2.12 KCAL/MOL
REMARK 927      BINDING AFFINITY PREDICTED BY RF-SCORE:    0.00 PKD
ROOT
HETATM    1  C   UNL     1     -12.118  12.855  66.838  1.00  0.00    -0.244 C  
HETATM    2  O   UNL     1     -10.700  12.936  66.964  1.00  0.00    -0.253 OA 
ENDROOT
BRANCH   2   3
HETATM    3  C   UNL     1      -9.963  12.006  66.273  1.00  0.00    -0.227 A  
HETATM    4  C   UNL     1      -9.244  11.020  66.960  1.00  0.00    -0.164 A  
HETATM    5  C   UNL     1      -8.487  10.063  66.283  1.00  0.00    -0.134 A  
HETATM    6  C   UNL     1      -8.454  10.085  64.893  1.00  0.00    -0.173 A  
HETATM    7  C   UNL     1      -9.968  12.014  64.859  1.00  0.00    -0.227 A  
HETATM    8  C   UNL     1      -9.192  11.045  64.174  1.00  0.00    -0.151 A  
BRANCH   5   9
HETATM    9  C   UNL     1      -7.755   9.078  67.116  1.00  0.00    -0.099 C  
HETATM   10  O   UNL     1      -8.326   8.325  67.893  1.00  0.00    -0.126 OA 
BRANCH   9  11
HETATM   11  O   UNL     1      -6.414   9.155  66.934  1.00  0.00    -0.065 OA 
BRANCH  11  12
HETATM   12  C   UNL     1      -5.641   8.580  68.003  1.00  0.00    -0.035 C  
BRANCH  12  13
HETATM   13  C   UNL     1      -5.208   9.679  68.970  1.00  0.00    -0.036 C  
BRANCH  13  14
HETATM   14  C   UNL     1      -5.930   9.567  70.313  1.00  0.00    -0.047 C  
BRANCH  14  15
HETATM   15  N   UNL     1      -6.097   8.173  70.776  1.00  0.00    -0.033 NA 
HETATM   16  C   UNL     1      -5.257   7.247  70.003  1.00  0.00    -0.023 C  
BRANCH  15  17
HETATM   17  C   UNL     1      -5.785   8.112  72.229  1.00  0.00    -0.040 C  
BRANCH  17  18
HETATM   18  C   UNL     1      -6.959   7.621  73.109  1.00  0.00    -0.073 C  
BRANCH  18  19
HETATM   19  N   UNL     1      -8.092   8.563  73.272  1.00  0.00    -0.404 NA 
HETATM   20  C   UNL     1      -8.961   8.552  72.091  1.00  0.00    -0.230 C  
BRANCH  19  21
HETATM   21  C   UNL     1      -8.891   8.215  74.468  1.00  0.00     0.508 C  
BRANCH  21  22
HETATM   22  C   UNL     1      -9.979   7.173  74.191  1.00  0.00    -0.238 C  
BRANCH  22  23
HETATM   23  C   UNL     1     -10.524   7.286  72.773  1.00  0.00    -0.260 C  
BRANCH  23  24
HETATM   24  O   UNL     1     -10.892   5.982  72.293  1.00  0.00    -0.222 OA 
BRANCH  24  25
HETATM   25  C   UNL     1     -11.037   5.870  70.949  1.00  0.00    -0.242 C  
HETATM   26  O   UNL     1     -11.937   6.353  70.280  1.00  0.00    -0.361 OA 
BRANCH  25  27
HETATM   27  C   UNL     1      -9.917   5.083  70.370  1.00  0.00    -0.317 A  
HETATM   28  C   UNL     1      -9.772   5.069  68.982  1.00  0.00    -0.238 A  
HETATM   29  C   UNL     1      -8.763   4.309  68.389  1.00  0.00    -0.098 A  
HETATM   30  C   UNL     1      -7.891   3.533  69.191  1.00  0.00    -0.051 A  
HETATM   31  C   UNL     1      -9.032   4.353  71.171  1.00  0.00    -0.167 A  
HETATM   32  C   UNL     1      -8.023   3.564  70.598  1.00  0.00    -0.053 A  
BRANCH  29  33
HETATM   33  O   UNL     1      -8.596   4.231  67.025  1.00  0.00    -0.104 OA 
HETATM   34  C   UNL     1      -9.786   4.198  66.242  1.00  0.00    -0.206 C  
ENDBRANCH  29  33
BRANCH  30  35
HETATM   35  O   UNL     1      -7.007   2.752  68.486  1.00  0.00    -0.046 OA 
HETATM   36  C   UNL     1      -5.626   3.083  68.531  1.00  0.00    -0.018 C  
ENDBRANCH  30  35
BRANCH  32  37
HETATM   37  O   UNL     1      -7.176   2.798  71.354  1.00  0.00    -0.032 OA 
HETATM   38  C   UNL     1      -7.702   1.646  72.002  1.00  0.00    -0.040 C  
ENDBRANCH  32  37
ENDBRANCH  25  27
ENDBRANCH  24  25
ENDBRANCH  23  24
ENDBRANCH  22  23
ENDBRANCH  21  22
ENDBRANCH  19  21
ENDBRANCH  18  19
ENDBRANCH  17  18
ENDBRANCH  15  17
ENDBRANCH  14  15
ENDBRANCH  13  14
ENDBRANCH  12  13
ENDBRANCH  11  12
ENDBRANCH   9  11
ENDBRANCH   5   9
BRANCH   8  39
HETATM   39  O   UNL     1      -9.030  10.875  62.819  1.00  0.00    -0.250 OA 
HETATM   40  C   UNL     1      -8.021  10.004  62.331  1.00  0.00    -0.124 C  
ENDBRANCH   8  39
BRANCH   7  41
HETATM   41  O   UNL     1     -10.656  12.899  64.072  1.00  0.00    -0.405 OA 
HETATM   42  C   UNL     1     -11.715  12.462  63.237  1.00  0.00    -0.382 C  
ENDBRANCH   7  41
ENDBRANCH   2   3
TORSDOF 21
ENDMDL
MODEL      319
REMARK 921   NORMALIZED FREE ENERGY PREDICTED BY IDOCK:   -0.30 KCAL/MOL
REMARK 922        TOTAL FREE ENERGY PREDICTED BY IDOCK:   -3.53 KCAL/MOL
REMARK 923 INTER-LIGAND FREE ENERGY PREDICTED BY IDOCK:   -4.81 KCAL/MOL
REMARK 924 INTRA-LIGAND FREE ENERGY PREDICTED BY IDOCK:    1.28 KCAL/MOL
REMARK 927      BINDING AFFINITY PREDICTED BY RF-SCORE:    0.00 PKD
ROOT
HETATM    1  C   UNL     1      -8.304  15.488  66.414  1.00  0.00    -0.118 C  
HETATM    2  O   UNL     1      -7.615  16.465  65.637  1.00  0.00     0.627 OA 
ENDROOT
BRANCH   2   3
HETATM    3  C   UNL     1      -7.724  17.771  66.047  1.00  0.00    -0.188 A  
HETATM    4  C   UNL     1      -8.904  18.229  66.646  1.00  0.00    -0.294 A  
HETATM    5  C   UNL     1      -9.041  19.551  67.072  1.00  0.00    -0.378 A  
HETATM    6  C   UNL     1      -7.977  20.431  66.904  1.00  0.00    -0.326 A  
HETATM    7  C   UNL     1      -6.623  18.647  65.906  1.00  0.00    -0.255 A  
HETATM    8  C   UNL     1      -6.768  19.991  66.333  1.00  0.00    -0.213 A  
BRANCH   5   9
HETATM    9  C   UNL     1     -10.342  19.926  67.679  1.00  0.00    -0.416 C  
HETATM   10  O   UNL     1     -11.395  19.860  67.062  1.00  0.00    -0.053 OA 
BRANCH   9  11
HETATM   11  O   UNL     1     -10.198  20.375  68.951  1.00  0.00    -0.212 OA 
BRANCH  11  12
HETATM   12  C   UNL     1      -9.777  19.365  69.886  1.00  0.00     0.445 C  
BRANCH  12  13
HETATM   13  C   UNL     1      -8.397  19.721  70.434  1.00  0.00     1.459 C  
BRANCH  13  14
HETATM   14  C   UNL     1      -7.283  19.016  69.659  1.00  0.00     0.073 C  
BRANCH  14  15
HETATM   15  N   UNL     1      -5.936  19.258  70.217  1.00  0.00    -0.234 NA 
HETATM   16  C   UNL     1      -6.006  19.685  71.621  1.00  0.00    -0.089 C  
BRANCH  15  17
HETATM   17  C   UNL     1      -5.125  18.020  70.061  1.00  0.00    -0.205 C  
BRANCH  17  18
HETATM   18  C   UNL     1      -5.916  16.711  70.295  1.00  0.00    -0.052 C  
BRANCH  18  19
HETATM   19  N   UNL     1      -6.520  16.088  69.094  1.00  0.00    -0.146 NA 
HETATM   20  C   UNL     1      -5.496  15.770  68.093  1.00  0.00    -0.117 C  
BRANCH  19  21
HETATM   21  C   UNL     1      -7.246  14.851  69.458  1.00  0.00    -0.184 C  
BRANCH  21  22
HETATM   22  C   UNL     1      -8.682  14.810  68.928  1.00  0.00    -0.161 C  
BRANCH  22  23
HETATM   23  C   UNL     1      -9.303  13.427  69.080  1.00  0.00     0.378 C  
BRANCH  23  24
HETATM   24  O   UNL     1     -10.711  13.498  68.799  1.00  0.00    -0.247 OA 
BRANCH  24  25
HETATM   25  C   UNL     1     -11.292  12.333  68.414  1.00  0.00    -0.292 C  
HETATM   26  O   UNL     1     -12.012  12.176  67.441  1.00  0.00    -0.563 OA 
BRANCH  25  27
HETATM   27  C   UNL     1     -10.912  11.234  69.339  1.00  0.00    -0.282 A  
HETATM   28  C   UNL     1      -9.712  10.561  69.102  1.00  0.00    -0.226 A  
HETATM   29  C   UNL     1      -9.333   9.493  69.916  1.00  0.00    -0.223 A  
HETATM   30  C   UNL     1     -10.172   9.074  70.978  1.00  0.00    -0.277 A  
HETATM   31  C   UNL     1     -11.724  10.853  70.412  1.00  0.00    -0.444 A  
HETATM   32  C   UNL     1     -11.376   9.769  71.233  1.00  0.00    -0.375 A  
BRANCH  29  33
HETATM   33  O   UNL     1      -8.179   8.772  69.707  1.00  0.00    -0.109 OA 
HETATM   34  C   UNL     1      -7.682   8.746  68.372  1.00  0.00    -0.096 C  
ENDBRANCH  29  33
BRANCH  30  35
HETATM   35  O   UNL     1      -9.739   7.951  71.642  1.00  0.00    -0.156 OA 
HETATM   36  C   UNL     1      -9.233   8.097  72.961  1.00  0.00    -0.273 C  
ENDBRANCH  30  35
BRANCH  32  37
HETATM   37  O   UNL     1     -12.177   9.340  72.257  1.00  0.00    -0.329 OA 
HETATM   38  C   UNL     1     -13.509   8.941  71.954  1.00  0.00    -0.414 C  
ENDBRANCH  32  37
ENDBRANCH  25  27
ENDBRANCH  24  25
ENDBRANCH  23  24
ENDBRANCH  22  23
ENDBRANCH  21  22
ENDBRANCH  19  21
ENDBRANCH  18  19
ENDBRANCH  17  18
ENDBRANCH  15  17
ENDBRANCH  14  15
ENDBRANCH  13  14
ENDBRANCH  12  13
ENDBRANCH  11  12
ENDBRANCH   9  11
ENDBRANCH   5   9
BRANCH   8  39
HETATM   39  O   UNL     1      -5.851  21.015  66.277  1.00  0.00    -0.220 OA 
HETATM   40  C   UNL     1      -5.126  21.379  67.442  1.00  0.00    -0.240 C  
ENDBRANCH   8  39
BRANCH   7  41
HETATM   41  O   UNL     1      -5.406  18.314  65.372  1.00  0.00    -0.159 OA 
HETATM   42  C   UNL     1      -5.281  17.963  64.004  1.00  0.00     0.771 C  
ENDBRANCH   7  41
ENDBRANCH   2   3
TORSDOF 21
ENDMDL
MODEL      320
REMARK 921   NORMALIZED FREE ENERGY PREDICTED BY IDOCK:   -0.26 KCAL/MOL
REMARK 922        TOTAL FREE ENERGY PREDICTED BY IDOCK:   -3.43 KCAL/MOL
REMARK 923 INTER-LIGAND FREE ENERGY PREDICTED BY IDOCK:   -5.63 KCAL/MOL
REMARK 924 INTRA-LIGAND FREE ENERGY PREDICTED BY IDOCK:    2.20 KCAL/MOL
REMARK 927      BINDING AFFINITY PREDICTED BY RF-SCORE:    0.00 PKD
ROOT
HETATM    1  C   UNL     1     -10.408   9.328  66.041  1.00  0.00     0.061 C  
HETATM    2  O   UNL     1     -10.317   8.092  66.745  1.00  0.00    -0.311 OA 
ENDROOT
BRANCH   2   3
HETATM    3  C   UNL     1     -10.233   8.164  68.114  1.00  0.00    -0.209 A  
HETATM    4  C   UNL     1     -11.135   8.953  68.839  1.00  0.00     0.159 A  
HETATM    5  C   UNL     1     -11.072   9.044  70.230  1.00  0.00    -0.263 A  
HETATM    6  C   UNL     1     -10.096   8.326  70.912  1.00  0.00    -0.224 A  
HETATM    7  C   UNL     1      -9.262   7.399  68.800  1.00  0.00    -0.144 A  
HETATM    8  C   UNL     1      -9.196   7.499  70.213  1.00  0.00    -0.157 A  
BRANCH   5   9
HETATM    9  C   UNL     1     -12.070   9.923  70.888  1.00  0.00    -0.341 C  
HETATM   10  O   UNL     1     -12.389   9.788  72.061  1.00  0.00    -0.354 OA 
BRANCH   9  11
HETATM   11  O   UNL     1     -12.590  10.833  70.028  1.00  0.00    -0.308 OA 
BRANCH  11  12
HETATM   12  C   UNL     1     -11.985  12.136  70.114  1.00  0.00    -0.314 C  
BRANCH  12  13
HETATM   13  C   UNL     1     -11.447  12.542  68.745  1.00  0.00    -0.353 C  
BRANCH  13  14
HETATM   14  C   UNL     1     -10.664  13.853  68.812  1.00  0.00    -0.262 C  
BRANCH  14  15
HETATM   15  N   UNL     1      -9.439  13.849  67.984  1.00  0.00    -0.202 NA 
HETATM   16  C   UNL     1      -9.459  12.755  67.004  1.00  0.00    -0.233 C  
BRANCH  15  17
HETATM   17  C   UNL     1      -9.306  15.175  67.322  1.00  0.00    -0.203 C  
BRANCH  17  18
HETATM   18  C   UNL     1      -8.058  15.978  67.759  1.00  0.00    -0.142 C  
BRANCH  18  19
HETATM   19  N   UNL     1      -7.871  16.153  69.218  1.00  0.00    -0.234 NA 
HETATM   20  C   UNL     1      -8.564  15.102  69.969  1.00  0.00     0.394 C  
BRANCH  19  21
HETATM   21  C   UNL     1      -6.432  16.133  69.565  1.00  0.00    -0.199 C  
BRANCH  21  22
HETATM   22  C   UNL     1      -5.534  16.726  68.474  1.00  0.00    -0.125 C  
BRANCH  22  23
HETATM   23  C   UNL     1      -5.172  18.176  68.766  1.00  0.00    -0.171 C  
BRANCH  23  24
HETATM   24  O   UNL     1      -5.619  18.527  70.086  1.00  0.00    -0.226 OA 
BRANCH  24  25
HETATM   25  C   UNL     1      -6.420  19.620  70.163  1.00  0.00    -0.202 C  
HETATM   26  O   UNL     1      -6.369  20.490  71.017  1.00  0.00    -0.570 OA 
BRANCH  25  27
HETATM   27  C   UNL     1      -7.382  19.639  69.029  1.00  0.00    -0.363 A  
HETATM   28  C   UNL     1      -6.881  19.864  67.747  1.00  0.00    -0.284 A  
HETATM   29  C   UNL     1      -7.748  19.936  66.656  1.00  0.00    -0.286 A  
HETATM   30  C   UNL     1      -9.144  19.796  66.847  1.00  0.00    -0.347 A  
HETATM   31  C   UNL     1      -8.756  19.457  69.219  1.00  0.00    -0.027 A  
HETATM   32  C   UNL     1      -9.651  19.544  68.142  1.00  0.00    -0.368 A  
BRANCH  29  33
HETATM   33  O   UNL     1      -7.312  20.190  65.375  1.00  0.00    -0.313 OA 
HETATM   34  C   UNL     1      -5.931  20.506  65.228  1.00  0.00    -0.230 C  
ENDBRANCH  29  33
BRANCH  30  35
HETATM   35  O   UNL     1      -9.899  19.985  65.714  1.00  0.00    -0.397 OA 
HETATM   36  C   UNL     1     -11.271  20.323  65.863  1.00  0.00     0.778 C  
ENDBRANCH  30  35
BRANCH  32  37
HETATM   37  O   UNL     1     -11.005  19.423  68.305  1.00  0.00    -0.031 OA 
HETATM   38  C   UNL     1     -11.560  18.118  68.415  1.00  0.00     1.843 C  
ENDBRANCH  32  37
ENDBRANCH  25  27
ENDBRANCH  24  25
ENDBRANCH  23  24
ENDBRANCH  22  23
ENDBRANCH  21  22
ENDBRANCH  19  21
ENDBRANCH  18  19
ENDBRANCH  17  18
ENDBRANCH  15  17
ENDBRANCH  14  15
ENDBRANCH  13  14
ENDBRANCH  12  13
ENDBRANCH  11  12
ENDBRANCH   9  11
ENDBRANCH   5   9
BRANCH   8  39
HETATM   39  O   UNL     1      -8.331   6.873  71.080  1.00  0.00    -0.123 OA 
HETATM   40  C   UNL     1      -8.666   6.758  72.454  1.00  0.00    -0.127 C  
ENDBRANCH   8  39
BRANCH   7  41
HETATM   41  O   UNL     1      -8.349   6.563  68.214  1.00  0.00    -0.116 OA 
HETATM   42  C   UNL     1      -8.760   5.366  67.576  1.00  0.00    -0.107 C  
ENDBRANCH   7  41
ENDBRANCH   2   3
TORSDOF 21
ENDMDL
MODEL      321
REMARK 921   NORMALIZED FREE ENERGY PREDICTED BY IDOCK:   -0.18 KCAL/MOL
REMARK 922        TOTAL FREE ENERGY PREDICTED BY IDOCK:   -3.25 KCAL/MOL
REMARK 923 INTER-LIGAND FREE ENERGY PREDICTED BY IDOCK:   -7.54 KCAL/MOL
REMARK 924 INTRA-LIGAND FREE ENERGY PREDICTED BY IDOCK:    4.29 KCAL/MOL
REMARK 927      BINDING AFFINITY PREDICTED BY RF-SCORE:    0.00 PKD
ROOT
HETATM    1  C   UNL     1     -12.841  15.456  72.794  1.00  0.00    -0.427 C  
HETATM    2  O   UNL     1     -13.352  14.137  72.610  1.00  0.00    -0.480 OA 
ENDROOT
BRANCH   2   3
HETATM    3  C   UNL     1     -12.815  13.403  71.581  1.00  0.00    -0.321 A  
HETATM    4  C   UNL     1     -12.543  12.040  71.750  1.00  0.00    -0.142 A  
HETATM    5  C   UNL     1     -11.999  11.270  70.721  1.00  0.00    -0.383 A  
HETATM    6  C   UNL     1     -11.728  11.872  69.497  1.00  0.00    -0.410 A  
HETATM    7  C   UNL     1     -12.580  14.015  70.328  1.00  0.00    -0.291 A  
HETATM    8  C   UNL     1     -12.019  13.233  69.287  1.00  0.00    -0.303 A  
BRANCH   5   9
HETATM    9  C   UNL     1     -11.740   9.841  71.020  1.00  0.00    -0.370 C  
HETATM   10  O   UNL     1     -12.527   8.955  70.716  1.00  0.00    -0.121 OA 
BRANCH   9  11
HETATM   11  O   UNL     1     -10.574   9.665  71.691  1.00  0.00    -0.199 OA 
BRANCH  11  12
HETATM   12  C   UNL     1      -9.523   9.083  70.899  1.00  0.00    -0.267 C  
BRANCH  12  13
HETATM   13  C   UNL     1     -10.108   8.015  69.979  1.00  0.00    -0.196 C  
BRANCH  13  14
HETATM   14  C   UNL     1      -9.106   6.892  69.709  1.00  0.00    -0.144 C  
BRANCH  14  15
HETATM   15  N   UNL     1      -9.231   5.755  70.645  1.00  0.00    -0.150 NA 
HETATM   16  C   UNL     1      -9.615   6.207  71.989  1.00  0.00    -0.152 C  
BRANCH  15  17
HETATM   17  C   UNL     1     -10.216   4.787  70.091  1.00  0.00    -0.189 C  
BRANCH  17  18
HETATM   18  C   UNL     1     -10.563   5.019  68.601  1.00  0.00     0.159 C  
BRANCH  18  19
HETATM   19  N   UNL     1      -9.415   5.086  67.666  1.00  0.00    -0.126 NA 
HETATM   20  C   UNL     1      -8.779   3.773  67.516  1.00  0.00    -0.109 C  
BRANCH  19  21
HETATM   21  C   UNL     1      -9.854   5.570  66.338  1.00  0.00    -0.167 C  
BRANCH  21  22
HETATM   22  C   UNL     1      -8.815   5.344  65.234  1.00  0.00    -0.132 C  
BRANCH  22  23
HETATM   23  C   UNL     1      -7.602   6.249  65.404  1.00  0.00    -0.088 C  
BRANCH  23  24
HETATM   24  O   UNL     1      -6.748   6.130  64.254  1.00  0.00    -0.036 OA 
BRANCH  24  25
HETATM   25  C   UNL     1      -6.354   7.300  63.692  1.00  0.00    -0.048 C  
HETATM   26  O   UNL     1      -5.797   7.428  62.614  1.00  0.00    -0.048 OA 
BRANCH  25  27
HETATM   27  C   UNL     1      -6.718   8.445  64.568  1.00  0.00    -0.069 A  
HETATM   28  C   UNL     1      -5.745   8.944  65.434  1.00  0.00    -0.047 A  
HETATM   29  C   UNL     1      -6.051   9.988  66.308  1.00  0.00    -0.068 A  
HETATM   30  C   UNL     1      -7.357  10.537  66.331  1.00  0.00    -0.129 A  
HETATM   31  C   UNL     1      -7.997   9.011  64.556  1.00  0.00    -0.131 A  
HETATM   32  C   UNL     1      -8.337  10.047  65.438  1.00  0.00    -0.151 A  
BRANCH  29  33
HETATM   33  O   UNL     1      -5.141  10.496  67.207  1.00  0.00    -0.039 OA 
HETATM   34  C   UNL     1      -5.679  11.093  68.384  1.00  0.00    -0.042 C  
ENDBRANCH  29  33
BRANCH  30  35
HETATM   35  O   UNL     1      -7.561  11.489  67.302  1.00  0.00    -0.126 OA 
HETATM   36  C   UNL     1      -8.897  11.841  67.634  1.00  0.00    -0.162 C  
ENDBRANCH  30  35
BRANCH  32  37
HETATM   37  O   UNL     1      -9.595  10.585  65.486  1.00  0.00    -0.199 OA 
HETATM   38  C   UNL     1     -10.345  10.661  64.279  1.00  0.00    -0.255 C  
ENDBRANCH  32  37
ENDBRANCH  25  27
ENDBRANCH  24  25
ENDBRANCH  23  24
ENDBRANCH  22  23
ENDBRANCH  21  22
ENDBRANCH  19  21
ENDBRANCH  18  19
ENDBRANCH  17  18
ENDBRANCH  15  17
ENDBRANCH  14  15
ENDBRANCH  13  14
ENDBRANCH  12  13
ENDBRANCH  11  12
ENDBRANCH   9  11
ENDBRANCH   5   9
BRANCH   8  39
HETATM   39  O   UNL     1     -11.688  13.615  68.008  1.00  0.00    -0.312 OA 
HETATM   40  C   UNL     1     -11.913  12.726  66.925  1.00  0.00    -0.310 C  
ENDBRANCH   8  39
BRANCH   7  41
HETATM   41  O   UNL     1     -12.835  15.326  70.024  1.00  0.00    -0.225 OA 
HETATM   42  C   UNL     1     -11.795  16.195  69.607  1.00  0.00    -0.130 C  
ENDBRANCH   7  41
ENDBRANCH   2   3
TORSDOF 21
ENDMDL
MODEL      322
REMARK 921   NORMALIZED FREE ENERGY PREDICTED BY IDOCK:   -0.08 KCAL/MOL
REMARK 922        TOTAL FREE ENERGY PREDICTED BY IDOCK:   -3.04 KCAL/MOL
REMARK 923 INTER-LIGAND FREE ENERGY PREDICTED BY IDOCK:   -1.62 KCAL/MOL
REMARK 924 INTRA-LIGAND FREE ENERGY PREDICTED BY IDOCK:   -1.42 KCAL/MOL
REMARK 927      BINDING AFFINITY PREDICTED BY RF-SCORE:    0.00 PKD
ROOT
HETATM    1  C   UNL     1     -10.682  18.017  73.071  1.00  0.00     3.518 C  
HETATM    2  O   UNL     1     -11.888  17.396  72.633  1.00  0.00     0.548 OA 
ENDROOT
BRANCH   2   3
HETATM    3  C   UNL     1     -11.800  16.582  71.531  1.00  0.00    -0.030 A  
HETATM    4  C   UNL     1     -11.191  17.041  70.357  1.00  0.00     0.635 A  
HETATM    5  C   UNL     1     -11.087  16.234  69.223  1.00  0.00    -0.325 A  
HETATM    6  C   UNL     1     -11.595  14.941  69.264  1.00  0.00    -0.330 A  
HETATM    7  C   UNL     1     -12.284  15.255  71.596  1.00  0.00    -0.365 A  
HETATM    8  C   UNL     1     -12.185  14.439  70.440  1.00  0.00    -0.338 A  
BRANCH   5   9
HETATM    9  C   UNL     1     -10.435  16.834  68.033  1.00  0.00    -0.333 C  
HETATM   10  O   UNL     1     -10.396  18.042  67.847  1.00  0.00    -0.356 OA 
BRANCH   9  11
HETATM   11  O   UNL     1      -9.946  15.890  67.192  1.00  0.00    -0.234 OA 
BRANCH  11  12
HETATM   12  C   UNL     1      -9.007  16.394  66.224  1.00  0.00    -0.333 C  
BRANCH  12  13
HETATM   13  C   UNL     1      -7.601  16.372  66.817  1.00  0.00    -0.290 C  
BRANCH  13  14
HETATM   14  C   UNL     1      -7.205  14.970  67.281  1.00  0.00    -0.140 C  
BRANCH  14  15
HETATM   15  N   UNL     1      -5.745  14.789  67.425  1.00  0.00    -0.313 NA 
HETATM   16  C   UNL     1      -5.158  15.829  68.280  1.00  0.00    -0.102 C  
BRANCH  15  17
HETATM   17  C   UNL     1      -5.483  13.426  67.961  1.00  0.00    -0.113 C  
BRANCH  17  18
HETATM   18  C   UNL     1      -6.630  12.417  67.713  1.00  0.00    -0.113 C  
BRANCH  18  19
HETATM   19  N   UNL     1      -6.847  11.403  68.771  1.00  0.00    -0.074 NA 
HETATM   20  C   UNL     1      -6.280  11.843  70.050  1.00  0.00    -0.123 C  
BRANCH  19  21
HETATM   21  C   UNL     1      -8.292  11.134  68.945  1.00  0.00    -0.099 C  
BRANCH  21  22
HETATM   22  C   UNL     1      -8.915  10.370  67.772  1.00  0.00    -0.131 C  
BRANCH  22  23
HETATM   23  C   UNL     1      -9.119   8.896  68.101  1.00  0.00    -0.140 C  
BRANCH  23  24
HETATM   24  O   UNL     1      -9.727   8.234  66.980  1.00  0.00    -0.175 OA 
BRANCH  24  25
HETATM   25  C   UNL     1      -8.888   7.906  65.965  1.00  0.00    -0.158 C  
HETATM   26  O   UNL     1      -8.411   8.677  65.149  1.00  0.00    -0.150 OA 
BRANCH  25  27
HETATM   27  C   UNL     1      -8.593   6.449  65.987  1.00  0.00    -0.149 A  
HETATM   28  C   UNL     1      -9.312   5.620  65.124  1.00  0.00     0.244 A  
HETATM   29  C   UNL     1      -9.104   4.241  65.139  1.00  0.00    -0.145 A  
HETATM   30  C   UNL     1      -8.172   3.671  66.040  1.00  0.00    -0.101 A  
HETATM   31  C   UNL     1      -7.641   5.897  66.850  1.00  0.00    -0.099 A  
HETATM   32  C   UNL     1      -7.427   4.511  66.898  1.00  0.00    -0.082 A  
BRANCH  29  33
HETATM   33  O   UNL     1      -9.810   3.374  64.334  1.00  0.00    -0.161 OA 
HETATM   34  C   UNL     1     -10.175   3.861  63.046  1.00  0.00    -0.174 C  
ENDBRANCH  29  33
BRANCH  30  35
HETATM   35  O   UNL     1      -8.130   2.297  66.029  1.00  0.00    -0.080 OA 
HETATM   36  C   UNL     1      -8.413   1.600  67.234  1.00  0.00    -0.084 C  
ENDBRANCH  30  35
BRANCH  32  37
HETATM   37  O   UNL     1      -6.540   3.938  67.770  1.00  0.00    -0.040 OA 
HETATM   38  C   UNL     1      -6.613   4.296  69.145  1.00  0.00    -0.041 C  
ENDBRANCH  32  37
ENDBRANCH  25  27
ENDBRANCH  24  25
ENDBRANCH  23  24
ENDBRANCH  22  23
ENDBRANCH  21  22
ENDBRANCH  19  21
ENDBRANCH  18  19
ENDBRANCH  17  18
ENDBRANCH  15  17
ENDBRANCH  14  15
ENDBRANCH  13  14
ENDBRANCH  12  13
ENDBRANCH  11  12
ENDBRANCH   9  11
ENDBRANCH   5   9
BRANCH   8  39
HETATM   39  O   UNL     1     -12.602  13.140  70.266  1.00  0.00    -0.191 OA 
HETATM   40  C   UNL     1     -11.668  12.145  69.875  1.00  0.00    -0.287 C  
ENDBRANCH   8  39
BRANCH   7  41
HETATM   41  O   UNL     1     -12.867  14.674  72.692  1.00  0.00    -0.363 OA 
HETATM   42  C   UNL     1     -14.274  14.534  72.782  1.00  0.00     0.203 C  
ENDBRANCH   7  41
ENDBRANCH   2   3
TORSDOF 21
ENDMDL
MODEL      323
REMARK 921   NORMALIZED FREE ENERGY PREDICTED BY IDOCK:    0.37 KCAL/MOL
REMARK 922        TOTAL FREE ENERGY PREDICTED BY IDOCK:   -2.04 KCAL/MOL
REMARK 923 INTER-LIGAND FREE ENERGY PREDICTED BY IDOCK:   -3.98 KCAL/MOL
REMARK 924 INTRA-LIGAND FREE ENERGY PREDICTED BY IDOCK:    1.94 KCAL/MOL
REMARK 927      BINDING AFFINITY PREDICTED BY RF-SCORE:    0.00 PKD
ROOT
HETATM    1  C   UNL     1     -11.546   5.294  65.825  1.00  0.00     1.339 C  
HETATM    2  O   UNL     1     -11.041   5.947  66.987  1.00  0.00    -0.260 OA 
ENDROOT
BRANCH   2   3
HETATM    3  C   UNL     1      -9.956   5.370  67.600  1.00  0.00    -0.162 A  
HETATM    4  C   UNL     1      -9.517   5.833  68.846  1.00  0.00    -0.149 A  
HETATM    5  C   UNL     1      -8.418   5.264  69.491  1.00  0.00    -0.094 A  
HETATM    6  C   UNL     1      -7.749   4.207  68.883  1.00  0.00    -0.054 A  
HETATM    7  C   UNL     1      -9.307   4.271  66.991  1.00  0.00    -0.167 A  
HETATM    8  C   UNL     1      -8.186   3.699  67.645  1.00  0.00    -0.089 A  
BRANCH   5   9
HETATM    9  C   UNL     1      -8.036   5.846  70.801  1.00  0.00    -0.114 C  
HETATM   10  O   UNL     1      -8.511   5.452  71.856  1.00  0.00    -0.124 OA 
BRANCH   9  11
HETATM   11  O   UNL     1      -7.152   6.866  70.665  1.00  0.00    -0.065 OA 
BRANCH  11  12
HETATM   12  C   UNL     1      -6.955   7.637  71.864  1.00  0.00    -0.063 C  
BRANCH  12  13
HETATM   13  C   UNL     1      -7.981   8.767  71.919  1.00  0.00    -0.079 C  
BRANCH  13  14
HETATM   14  C   UNL     1      -8.789   8.860  70.625  1.00  0.00    -0.198 C  
BRANCH  14  15
HETATM   15  N   UNL     1      -8.313   9.919  69.710  1.00  0.00    -0.173 NA 
HETATM   16  C   UNL     1      -6.924   9.685  69.295  1.00  0.00    -0.055 C  
BRANCH  15  17
HETATM   17  C   UNL     1      -9.230   9.987  68.541  1.00  0.00    -0.141 C  
BRANCH  17  18
HETATM   18  C   UNL     1      -8.546   9.705  67.182  1.00  0.00    -0.132 C  
BRANCH  18  19
HETATM   19  N   UNL     1      -8.241  10.889  66.345  1.00  0.00    -0.159 NA 
HETATM   20  C   UNL     1      -6.864  10.840  65.844  1.00  0.00    -0.084 C  
BRANCH  19  21
HETATM   21  C   UNL     1      -9.174  10.972  65.200  1.00  0.00    -0.205 C  
BRANCH  21  22
HETATM   22  C   UNL     1     -10.088  12.200  65.248  1.00  0.00    -0.291 C  
BRANCH  22  23
HETATM   23  C   UNL     1      -9.359  13.429  65.776  1.00  0.00     0.172 C  
BRANCH  23  24
HETATM   24  O   UNL     1      -8.808  13.140  67.072  1.00  0.00    -0.214 OA 
BRANCH  24  25
HETATM   25  C   UNL     1      -7.926  14.054  67.552  1.00  0.00    -0.187 C  
HETATM   26  O   UNL     1      -6.752  13.851  67.814  1.00  0.00    -0.150 OA 
BRANCH  25  27
HETATM   27  C   UNL     1      -8.583  15.379  67.701  1.00  0.00    -0.176 A  
HETATM   28  C   UNL     1      -7.816  16.522  67.467  1.00  0.00    -0.175 A  
HETATM   29  C   UNL     1      -8.375  17.789  67.637  1.00  0.00    -0.228 A  
HETATM   30  C   UNL     1      -9.718  17.924  68.064  1.00  0.00    -0.303 A  
HETATM   31  C   UNL     1      -9.923  15.505  68.081  1.00  0.00    -0.217 A  
HETATM   32  C   UNL     1     -10.502  16.768  68.279  1.00  0.00    -0.341 A  
BRANCH  29  33
HETATM   33  O   UNL     1      -7.655  18.949  67.453  1.00  0.00    -0.229 OA 
HETATM   34  C   UNL     1      -7.514  19.400  66.110  1.00  0.00    -0.284 C  
ENDBRANCH  29  33
BRANCH  30  35
HETATM   35  O   UNL     1     -10.120  19.219  68.291  1.00  0.00    -0.379 OA 
HETATM   36  C   UNL     1     -10.224  19.670  69.634  1.00  0.00     0.198 C  
ENDBRANCH  30  35
BRANCH  32  37
HETATM   37  O   UNL     1     -11.795  16.921  68.702  1.00  0.00     0.276 OA 
HETATM   38  C   UNL     1     -12.439  15.816  69.327  1.00  0.00     0.193 C  
ENDBRANCH  32  37
ENDBRANCH  25  27
ENDBRANCH  24  25
ENDBRANCH  23  24
ENDBRANCH  22  23
ENDBRANCH  21  22
ENDBRANCH  19  21
ENDBRANCH  18  19
ENDBRANCH  17  18
ENDBRANCH  15  17
ENDBRANCH  14  15
ENDBRANCH  13  14
ENDBRANCH  12  13
ENDBRANCH  11  12
ENDBRANCH   9  11
ENDBRANCH   5   9
BRANCH   8  39
HETATM   39  O   UNL     1      -7.395   2.651  67.237  1.00  0.00    -0.056 OA 
HETATM   40  C   UNL     1      -7.258   1.505  68.064  1.00  0.00    -0.039 C  
ENDBRANCH   8  39
BRANCH   7  41
HETATM   41  O   UNL     1      -9.659   3.702  65.796  1.00  0.00    -0.176 OA 
HETATM   42  C   UNL     1      -9.156   4.208  64.571  1.00  0.00    -0.147 C  
ENDBRANCH   7  41
ENDBRANCH   2   3
TORSDOF 21
ENDMDL
MODEL      324
REMARK 921   NORMALIZED FREE ENERGY PREDICTED BY IDOCK:    0.49 KCAL/MOL
REMARK 922        TOTAL FREE ENERGY PREDICTED BY IDOCK:   -1.78 KCAL/MOL
REMARK 923 INTER-LIGAND FREE ENERGY PREDICTED BY IDOCK:   -1.57 KCAL/MOL
REMARK 924 INTRA-LIGAND FREE ENERGY PREDICTED BY IDOCK:   -0.20 KCAL/MOL
REMARK 927      BINDING AFFINITY PREDICTED BY RF-SCORE:    0.00 PKD
ROOT
HETATM    1  C   UNL     1     -10.033  20.563  71.644  1.00  0.00     3.025 C  
HETATM    2  O   UNL     1      -8.904  20.666  70.779  1.00  0.00     1.411 OA 
ENDROOT
BRANCH   2   3
HETATM    3  C   UNL     1      -8.752  19.676  69.839  1.00  0.00     0.859 A  
HETATM    4  C   UNL     1      -9.751  18.712  69.657  1.00  0.00     0.396 A  
HETATM    5  C   UNL     1      -9.622  17.696  68.709  1.00  0.00    -0.280 A  
HETATM    6  C   UNL     1      -8.478  17.648  67.920  1.00  0.00    -0.233 A  
HETATM    7  C   UNL     1      -7.602  19.659  69.016  1.00  0.00    -0.285 A  
HETATM    8  C   UNL     1      -7.471  18.622  68.058  1.00  0.00    -0.251 A  
BRANCH   5   9
HETATM    9  C   UNL     1     -10.738  16.723  68.616  1.00  0.00    -0.352 C  
HETATM   10  O   UNL     1     -11.491  16.499  69.553  1.00  0.00    -0.188 OA 
BRANCH   9  11
HETATM   11  O   UNL     1     -10.777  16.108  67.408  1.00  0.00    -0.312 OA 
BRANCH  11  12
HETATM   12  C   UNL     1      -9.551  15.448  67.044  1.00  0.00    -0.218 C  
BRANCH  12  13
HETATM   13  C   UNL     1      -9.628  13.975  67.436  1.00  0.00    -0.227 C  
BRANCH  13  14
HETATM   14  C   UNL     1      -9.743  13.070  66.210  1.00  0.00    -0.263 C  
BRANCH  14  15
HETATM   15  N   UNL     1      -9.829  11.633  66.546  1.00  0.00    -0.200 NA 
HETATM   16  C   UNL     1     -11.135  11.072  66.174  1.00  0.00    -0.012 C  
BRANCH  15  17
HETATM   17  C   UNL     1      -8.713  10.917  65.870  1.00  0.00    -0.183 C  
BRANCH  17  18
HETATM   18  C   UNL     1      -7.676  10.303  66.839  1.00  0.00    -0.105 C  
BRANCH  18  19
HETATM   19  N   UNL     1      -7.923   8.904  67.261  1.00  0.00    -0.097 NA 
HETATM   20  C   UNL     1      -7.960   8.793  68.723  1.00  0.00    -0.106 C  
BRANCH  19  21
HETATM   21  C   UNL     1      -9.202   8.410  66.702  1.00  0.00    -0.180 C  
BRANCH  21  22
HETATM   22  C   UNL     1      -9.222   6.895  66.476  1.00  0.00    -0.195 C  
BRANCH  22  23
HETATM   23  C   UNL     1     -10.640   6.368  66.297  1.00  0.00     0.249 C  
BRANCH  23  24
HETATM   24  O   UNL     1     -11.140   5.898  67.560  1.00  0.00    -0.245 OA 
BRANCH  24  25
HETATM   25  C   UNL     1     -10.319   5.059  68.241  1.00  0.00    -0.019 C  
HETATM   26  O   UNL     1      -9.823   4.031  67.810  1.00  0.00    -0.137 OA 
BRANCH  25  27
HETATM   27  C   UNL     1     -10.071   5.577  69.613  1.00  0.00    -0.309 A  
HETATM   28  C   UNL     1     -11.103   6.265  70.252  1.00  0.00    -0.430 A  
HETATM   29  C   UNL     1     -10.904   6.809  71.521  1.00  0.00    -0.234 A  
HETATM   30  C   UNL     1      -9.648   6.680  72.162  1.00  0.00    -0.147 A  
HETATM   31  C   UNL     1      -8.841   5.409  70.258  1.00  0.00    -0.143 A  
HETATM   32  C   UNL     1      -8.609   5.964  71.526  1.00  0.00    -0.132 A  
BRANCH  29  33
HETATM   33  O   UNL     1     -11.876   7.526  72.183  1.00  0.00    -0.287 OA 
HETATM   34  C   UNL     1     -12.965   7.994  71.394  1.00  0.00    -0.252 C  
ENDBRANCH  29  33
BRANCH  30  35
HETATM   35  O   UNL     1      -9.546   7.343  73.362  1.00  0.00    -0.199 OA 
HETATM   36  C   UNL     1      -9.665   6.592  74.563  1.00  0.00    -0.309 C  
ENDBRANCH  30  35
BRANCH  32  37
HETATM   37  O   UNL     1      -7.399   5.861  72.159  1.00  0.00    -0.090 OA 
HETATM   38  C   UNL     1      -6.389   6.814  71.848  1.00  0.00    -0.049 C  
ENDBRANCH  32  37
ENDBRANCH  25  27
ENDBRANCH  24  25
ENDBRANCH  23  24
ENDBRANCH  22  23
ENDBRANCH  21  22
ENDBRANCH  19  21
ENDBRANCH  18  19
ENDBRANCH  17  18
ENDBRANCH  15  17
ENDBRANCH  14  15
ENDBRANCH  13  14
ENDBRANCH  12  13
ENDBRANCH  11  12
ENDBRANCH   9  11
ENDBRANCH   5   9
BRANCH   8  39
HETATM   39  O   UNL     1      -6.442  18.393  67.174  1.00  0.00    -0.176 OA 
HETATM   40  C   UNL     1      -6.365  19.143  65.971  1.00  0.00    -0.195 C  
ENDBRANCH   8  39
BRANCH   7  41
HETATM   41  O   UNL     1      -6.574  20.562  69.068  1.00  0.00    -0.243 OA 
HETATM   42  C   UNL     1      -5.310  20.200  69.599  1.00  0.00    -0.235 C  
ENDBRANCH   7  41
ENDBRANCH   2   3
TORSDOF 21
ENDMDL
MODEL      325
REMARK 921   NORMALIZED FREE ENERGY PREDICTED BY IDOCK:    0.60 KCAL/MOL
REMARK 922        TOTAL FREE ENERGY PREDICTED BY IDOCK:   -1.53 KCAL/MOL
REMARK 923 INTER-LIGAND FREE ENERGY PREDICTED BY IDOCK:   -1.81 KCAL/MOL
REMARK 924 INTRA-LIGAND FREE ENERGY PREDICTED BY IDOCK:    0.28 KCAL/MOL
REMARK 927      BINDING AFFINITY PREDICTED BY RF-SCORE:    0.00 PKD
ROOT
HETATM    1  C   UNL     1     -13.392  15.818  64.285  1.00  0.00     2.384 C  
HETATM    2  O   UNL     1     -11.993  15.837  64.013  1.00  0.00    -0.554 OA 
ENDROOT
BRANCH   2   3
HETATM    3  C   UNL     1     -11.191  15.092  64.842  1.00  0.00    -0.417 A  
HETATM    4  C   UNL     1     -10.453  15.712  65.858  1.00  0.00    -0.358 A  
HETATM    5  C   UNL     1      -9.631  14.979  66.715  1.00  0.00    -0.260 A  
HETATM    6  C   UNL     1      -9.549  13.600  66.560  1.00  0.00    -0.294 A  
HETATM    7  C   UNL     1     -11.145  13.686  64.700  1.00  0.00    -0.381 A  
HETATM    8  C   UNL     1     -10.303  12.945  65.567  1.00  0.00    -0.291 A  
BRANCH   5   9
HETATM    9  C   UNL     1      -8.886  15.746  67.744  1.00  0.00    -0.171 C  
HETATM   10  O   UNL     1      -9.356  16.733  68.292  1.00  0.00    -0.218 OA 
BRANCH   9  11
HETATM   11  O   UNL     1      -7.644  15.242  67.953  1.00  0.00    -0.121 OA 
BRANCH  11  12
HETATM   12  C   UNL     1      -7.557  14.336  69.067  1.00  0.00    -0.084 C  
BRANCH  12  13
HETATM   13  C   UNL     1      -6.411  13.354  68.839  1.00  0.00    -0.099 C  
BRANCH  13  14
HETATM   14  C   UNL     1      -6.671  12.013  69.525  1.00  0.00    -0.035 C  
BRANCH  14  15
HETATM   15  N   UNL     1      -5.447  11.379  70.059  1.00  0.00    -0.073 NA 
HETATM   16  C   UNL     1      -5.182  11.803  71.440  1.00  0.00    -0.022 C  
BRANCH  15  17
HETATM   17  C   UNL     1      -5.592   9.902  69.957  1.00  0.00    -0.042 C  
BRANCH  17  18
HETATM   18  C   UNL     1      -5.150   9.314  68.596  1.00  0.00    -0.034 C  
BRANCH  18  19
HETATM   19  N   UNL     1      -6.020   9.623  67.437  1.00  0.00    -0.048 NA 
HETATM   20  C   UNL     1      -5.290   9.476  66.174  1.00  0.00    -0.040 C  
BRANCH  19  21
HETATM   21  C   UNL     1      -7.203   8.733  67.422  1.00  0.00    -0.080 C  
BRANCH  21  22
HETATM   22  C   UNL     1      -6.846   7.248  67.303  1.00  0.00    -0.077 C  
BRANCH  22  23
HETATM   23  C   UNL     1      -7.767   6.520  66.333  1.00  0.00    -0.099 C  
BRANCH  23  24
HETATM   24  O   UNL     1      -9.090   6.445  66.891  1.00  0.00    -0.126 OA 
BRANCH  24  25
HETATM   25  C   UNL     1      -9.214   5.681  68.006  1.00  0.00    -0.107 C  
HETATM   26  O   UNL     1      -9.093   4.468  68.063  1.00  0.00    -0.112 OA 
BRANCH  25  27
HETATM   27  C   UNL     1      -9.500   6.534  69.190  1.00  0.00    -0.136 A  
HETATM   28  C   UNL     1     -10.395   7.593  69.035  1.00  0.00    -0.220 A  
HETATM   29  C   UNL     1     -10.662   8.448  70.104  1.00  0.00    -0.236 A  
HETATM   30  C   UNL     1     -10.014   8.257  71.349  1.00  0.00    -0.194 A  
HETATM   31  C   UNL     1      -8.888   6.314  70.428  1.00  0.00    -0.147 A  
HETATM   32  C   UNL     1      -9.124   7.171  71.513  1.00  0.00    -0.142 A  
BRANCH  29  33
HETATM   33  O   UNL     1     -11.510   9.528  69.998  1.00  0.00    -0.209 OA 
HETATM   34  C   UNL     1     -11.087  10.583  69.139  1.00  0.00    -0.250 C  
ENDBRANCH  29  33
BRANCH  30  35
HETATM   35  O   UNL     1     -10.283   9.222  72.290  1.00  0.00     0.031 OA 
HETATM   36  C   UNL     1     -11.025   8.854  73.444  1.00  0.00     2.741 C  
ENDBRANCH  30  35
BRANCH  32  37
HETATM   37  O   UNL     1      -8.499   7.012  72.721  1.00  0.00    -0.114 OA 
HETATM   38  C   UNL     1      -7.212   7.591  72.899  1.00  0.00    -0.073 C  
ENDBRANCH  32  37
ENDBRANCH  25  27
ENDBRANCH  24  25
ENDBRANCH  23  24
ENDBRANCH  22  23
ENDBRANCH  21  22
ENDBRANCH  19  21
ENDBRANCH  18  19
ENDBRANCH  17  18
ENDBRANCH  15  17
ENDBRANCH  14  15
ENDBRANCH  13  14
ENDBRANCH  12  13
ENDBRANCH  11  12
ENDBRANCH   9  11
ENDBRANCH   5   9
BRANCH   8  39
HETATM   39  O   UNL     1     -10.085  11.587  65.601  1.00  0.00    -0.218 OA 
HETATM   40  C   UNL     1     -10.830  10.774  66.493  1.00  0.00    -0.130 C  
ENDBRANCH   8  39
BRANCH   7  41
HETATM   41  O   UNL     1     -11.843  12.958  63.773  1.00  0.00    -0.429 OA 
HETATM   42  C   UNL     1     -11.532  11.597  63.530  1.00  0.00    -0.329 C  
ENDBRANCH   7  41
ENDBRANCH   2   3
TORSDOF 21
ENDMDL
MODEL      326
REMARK 921   NORMALIZED FREE ENERGY PREDICTED BY IDOCK:    0.65 KCAL/MOL
REMARK 922        TOTAL FREE ENERGY PREDICTED BY IDOCK:   -1.40 KCAL/MOL
REMARK 923 INTER-LIGAND FREE ENERGY PREDICTED BY IDOCK:   -5.14 KCAL/MOL
REMARK 924 INTRA-LIGAND FREE ENERGY PREDICTED BY IDOCK:    3.74 KCAL/MOL
REMARK 927      BINDING AFFINITY PREDICTED BY RF-SCORE:    0.00 PKD
ROOT
HETATM    1  C   UNL     1      -6.557   1.653  66.734  1.00  0.00    -0.030 C  
HETATM    2  O   UNL     1      -7.794   1.996  67.355  1.00  0.00    -0.063 OA 
ENDROOT
BRANCH   2   3
HETATM    3  C   UNL     1      -7.936   3.295  67.777  1.00  0.00    -0.075 A  
HETATM    4  C   UNL     1      -7.269   3.744  68.924  1.00  0.00    -0.050 A  
HETATM    5  C   UNL     1      -7.395   5.059  69.374  1.00  0.00    -0.057 A  
HETATM    6  C   UNL     1      -8.196   5.944  68.663  1.00  0.00    -0.109 A  
HETATM    7  C   UNL     1      -8.722   4.197  67.025  1.00  0.00    -0.110 A  
HETATM    8  C   UNL     1      -8.855   5.531  67.489  1.00  0.00    -0.105 A  
BRANCH   5   9
HETATM    9  C   UNL     1      -6.653   5.416  70.608  1.00  0.00    -0.039 C  
HETATM   10  O   UNL     1      -6.378   6.572  70.895  1.00  0.00    -0.045 OA 
BRANCH   9  11
HETATM   11  O   UNL     1      -6.298   4.319  71.323  1.00  0.00    -0.017 OA 
BRANCH  11  12
HETATM   12  C   UNL     1      -6.952   3.108  70.905  1.00  0.00    -0.033 C  
BRANCH  12  13
HETATM   13  C   UNL     1      -8.463   3.265  71.053  1.00  0.00    -0.099 C  
BRANCH  13  14
HETATM   14  C   UNL     1      -8.961   2.707  72.387  1.00  0.00    -0.081 C  
BRANCH  14  15
HETATM   15  N   UNL     1      -9.736   3.684  73.180  1.00  0.00    -0.114 NA 
HETATM   16  C   UNL     1      -9.942   3.214  74.556  1.00  0.00    -0.138 C  
BRANCH  15  17
HETATM   17  C   UNL     1      -9.029   4.993  73.148  1.00  0.00    -0.117 C  
BRANCH  17  18
HETATM   18  C   UNL     1      -9.783   6.138  73.866  1.00  0.00    -0.187 C  
BRANCH  18  19
HETATM   19  N   UNL     1      -8.969   7.314  74.253  1.00  0.00    -0.217 NA 
HETATM   20  C   UNL     1      -7.622   7.235  73.681  1.00  0.00    -0.101 C  
BRANCH  19  21
HETATM   21  C   UNL     1      -9.618   8.566  73.805  1.00  0.00     1.181 C  
BRANCH  21  22
HETATM   22  C   UNL     1      -9.955   8.576  72.310  1.00  0.00    -0.385 C  
BRANCH  22  23
HETATM   23  C   UNL     1     -11.455   8.683  72.069  1.00  0.00    -0.367 C  
BRANCH  23  24
HETATM   24  O   UNL     1     -11.707   8.812  70.659  1.00  0.00    -0.260 OA 
BRANCH  24  25
HETATM   25  C   UNL     1     -12.499   9.852  70.297  1.00  0.00     0.041 C  
HETATM   26  O   UNL     1     -13.706   9.929  70.464  1.00  0.00    -0.018 OA 
BRANCH  25  27
HETATM   27  C   UNL     1     -11.687  10.930  69.675  1.00  0.00    -0.403 A  
HETATM   28  C   UNL     1     -11.972  12.252  70.022  1.00  0.00    -0.379 A  
HETATM   29  C   UNL     1     -11.268  13.301  69.431  1.00  0.00    -0.158 A  
HETATM   30  C   UNL     1     -10.270  13.032  68.462  1.00  0.00    -0.215 A  
HETATM   31  C   UNL     1     -10.674  10.656  68.750  1.00  0.00    -0.249 A  
HETATM   32  C   UNL     1      -9.965  11.694  68.126  1.00  0.00    -0.195 A  
BRANCH  29  33
HETATM   33  O   UNL     1     -11.531  14.623  69.711  1.00  0.00    -0.258 OA 
HETATM   34  C   UNL     1     -11.777  14.944  71.077  1.00  0.00    -0.327 C  
ENDBRANCH  29  33
BRANCH  30  35
HETATM   35  O   UNL     1      -9.720  14.150  67.882  1.00  0.00    -0.213 OA 
HETATM   36  C   UNL     1     -10.573  15.028  67.160  1.00  0.00    -0.295 C  
ENDBRANCH  30  35
BRANCH  32  37
HETATM   37  O   UNL     1      -9.005  11.458  67.179  1.00  0.00    -0.156 OA 
HETATM   38  C   UNL     1      -7.735  10.977  67.607  1.00  0.00    -0.112 C  
ENDBRANCH  32  37
ENDBRANCH  25  27
ENDBRANCH  24  25
ENDBRANCH  23  24
ENDBRANCH  22  23
ENDBRANCH  21  22
ENDBRANCH  19  21
ENDBRANCH  18  19
ENDBRANCH  17  18
ENDBRANCH  15  17
ENDBRANCH  14  15
ENDBRANCH  13  14
ENDBRANCH  12  13
ENDBRANCH  11  12
ENDBRANCH   9  11
ENDBRANCH   5   9
BRANCH   8  39
HETATM   39  O   UNL     1      -9.576   6.565  66.940  1.00  0.00    -0.146 OA 
HETATM   40  C   UNL     1      -9.553   7.845  67.551  1.00  0.00    -0.152 C  
ENDBRANCH   8  39
BRANCH   7  41
HETATM   41  O   UNL     1      -9.395   3.894  65.870  1.00  0.00    -0.147 OA 
HETATM   42  C   UNL     1      -8.855   4.227  64.602  1.00  0.00    -0.141 C  
ENDBRANCH   7  41
ENDBRANCH   2   3
TORSDOF 21
ENDMDL
MODEL      327
REMARK 921   NORMALIZED FREE ENERGY PREDICTED BY IDOCK:    0.68 KCAL/MOL
REMARK 922        TOTAL FREE ENERGY PREDICTED BY IDOCK:   -1.35 KCAL/MOL
REMARK 923 INTER-LIGAND FREE ENERGY PREDICTED BY IDOCK:   -1.85 KCAL/MOL
REMARK 924 INTRA-LIGAND FREE ENERGY PREDICTED BY IDOCK:    0.50 KCAL/MOL
REMARK 927      BINDING AFFINITY PREDICTED BY RF-SCORE:    0.00 PKD
ROOT
HETATM    1  C   UNL     1     -12.272   4.147  72.416  1.00  0.00     2.019 C  
HETATM    2  O   UNL     1     -11.618   5.085  73.267  1.00  0.00    -0.322 OA 
ENDROOT
BRANCH   2   3
HETATM    3  C   UNL     1     -11.117   6.217  72.672  1.00  0.00    -0.263 A  
HETATM    4  C   UNL     1     -11.963   7.288  72.361  1.00  0.00    -0.202 A  
HETATM    5  C   UNL     1     -11.480   8.450  71.756  1.00  0.00    -0.365 A  
HETATM    6  C   UNL     1     -10.124   8.547  71.464  1.00  0.00    -0.315 A  
HETATM    7  C   UNL     1      -9.730   6.321  72.415  1.00  0.00    -0.153 A  
HETATM    8  C   UNL     1      -9.243   7.500  71.794  1.00  0.00    -0.140 A  
BRANCH   5   9
HETATM    9  C   UNL     1     -12.473   9.512  71.460  1.00  0.00    -0.376 C  
HETATM   10  O   UNL     1     -13.442   9.720  72.177  1.00  0.00    -0.431 OA 
BRANCH   9  11
HETATM   11  O   UNL     1     -12.189  10.165  70.306  1.00  0.00    -0.248 OA 
BRANCH  11  12
HETATM   12  C   UNL     1     -12.774  11.477  70.214  1.00  0.00    -0.010 C  
BRANCH  12  13
HETATM   13  C   UNL     1     -12.081  12.415  71.199  1.00  0.00     0.120 C  
BRANCH  13  14
HETATM   14  C   UNL     1     -12.091  13.861  70.703  1.00  0.00    -0.347 C  
BRANCH  14  15
HETATM   15  N   UNL     1     -11.532  14.020  69.343  1.00  0.00    -0.276 NA 
HETATM   16  C   UNL     1     -10.336  13.188  69.155  1.00  0.00     0.165 C  
BRANCH  15  17
HETATM   17  C   UNL     1     -12.591  13.691  68.351  1.00  0.00     0.644 C  
BRANCH  17  18
HETATM   18  C   UNL     1     -12.643  14.651  67.139  1.00  0.00     0.595 C  
BRANCH  18  19
HETATM   19  N   UNL     1     -11.971  14.183  65.905  1.00  0.00    -0.392 NA 
HETATM   20  C   UNL     1     -10.748  14.950  65.646  1.00  0.00    -0.342 C  
BRANCH  19  21
HETATM   21  C   UNL     1     -11.632  12.746  66.009  1.00  0.00    -0.383 C  
BRANCH  21  22
HETATM   22  C   UNL     1     -11.958  11.950  64.741  1.00  0.00    -0.222 C  
BRANCH  22  23
HETATM   23  C   UNL     1     -10.784  11.087  64.298  1.00  0.00    -0.278 C  
BRANCH  23  24
HETATM   24  O   UNL     1      -9.598  11.895  64.211  1.00  0.00    -0.146 OA 
BRANCH  24  25
HETATM   25  C   UNL     1      -8.884  12.013  65.359  1.00  0.00     0.450 C  
HETATM   26  O   UNL     1      -8.623  13.055  65.939  1.00  0.00     0.586 OA 
BRANCH  25  27
HETATM   27  C   UNL     1      -8.465  10.674  65.849  1.00  0.00    -0.167 A  
HETATM   28  C   UNL     1      -7.247  10.161  65.401  1.00  0.00    -0.144 A  
HETATM   29  C   UNL     1      -6.831   8.890  65.798  1.00  0.00    -0.072 A  
HETATM   30  C   UNL     1      -7.651   8.105  66.645  1.00  0.00    -0.093 A  
HETATM   31  C   UNL     1      -9.259   9.921  66.721  1.00  0.00    -0.176 A  
HETATM   32  C   UNL     1      -8.874   8.632  67.118  1.00  0.00    -0.129 A  
BRANCH  29  33
HETATM   33  O   UNL     1      -5.656   8.322  65.359  1.00  0.00    -0.042 OA 
HETATM   34  C   UNL     1      -5.698   7.683  64.086  1.00  0.00    -0.044 C  
ENDBRANCH  29  33
BRANCH  30  35
HETATM   35  O   UNL     1      -7.179   6.835  66.882  1.00  0.00    -0.076 OA 
HETATM   36  C   UNL     1      -8.003   5.731  66.533  1.00  0.00    -0.102 C  
ENDBRANCH  30  35
BRANCH  32  37
HETATM   37  O   UNL     1      -9.655   7.851  67.927  1.00  0.00    -0.143 OA 
HETATM   38  C   UNL     1     -11.038   8.168  68.043  1.00  0.00     0.383 C  
ENDBRANCH  32  37
ENDBRANCH  25  27
ENDBRANCH  24  25
ENDBRANCH  23  24
ENDBRANCH  22  23
ENDBRANCH  21  22
ENDBRANCH  19  21
ENDBRANCH  18  19
ENDBRANCH  17  18
ENDBRANCH  15  17
ENDBRANCH  14  15
ENDBRANCH  13  14
ENDBRANCH  12  13
ENDBRANCH  11  12
ENDBRANCH   9  11
ENDBRANCH   5   9
BRANCH   8  39
HETATM   39  O   UNL     1      -7.953   7.811  71.433  1.00  0.00    -0.090 OA 
HETATM   40  C   UNL     1      -7.023   8.224  72.422  1.00  0.00    -0.090 C  
ENDBRANCH   8  39
BRANCH   7  41
HETATM   41  O   UNL     1      -8.795   5.363  72.703  1.00  0.00    -0.123 OA 
HETATM   42  C   UNL     1      -8.403   4.409  71.730  1.00  0.00    -0.106 C  
ENDBRANCH   7  41
ENDBRANCH   2   3
TORSDOF 21
ENDMDL
MODEL      328
REMARK 921   NORMALIZED FREE ENERGY PREDICTED BY IDOCK:    0.80 KCAL/MOL
REMARK 922        TOTAL FREE ENERGY PREDICTED BY IDOCK:   -1.07 KCAL/MOL
REMARK 923 INTER-LIGAND FREE ENERGY PREDICTED BY IDOCK:   -0.41 KCAL/MOL
REMARK 924 INTRA-LIGAND FREE ENERGY PREDICTED BY IDOCK:   -0.66 KCAL/MOL
REMARK 927      BINDING AFFINITY PREDICTED BY RF-SCORE:    0.00 PKD
ROOT
HETATM    1  C   UNL     1     -10.475  18.202  73.134  1.00  0.00     4.444 C  
HETATM    2  O   UNL     1     -11.678  17.585  72.682  1.00  0.00     0.683 OA 
ENDROOT
BRANCH   2   3
HETATM    3  C   UNL     1     -11.568  16.716  71.624  1.00  0.00     0.066 A  
HETATM    4  C   UNL     1     -11.181  17.182  70.362  1.00  0.00     0.893 A  
HETATM    5  C   UNL     1     -11.061  16.321  69.270  1.00  0.00    -0.325 A  
HETATM    6  C   UNL     1     -11.325  14.967  69.444  1.00  0.00    -0.312 A  
HETATM    7  C   UNL     1     -11.802  15.335  71.821  1.00  0.00    -0.406 A  
HETATM    8  C   UNL     1     -11.686  14.464  70.708  1.00  0.00    -0.236 A  
BRANCH   5   9
HETATM    9  C   UNL     1     -10.658  16.930  67.979  1.00  0.00    -0.367 C  
HETATM   10  O   UNL     1     -10.833  18.115  67.731  1.00  0.00    -0.385 OA 
BRANCH   9  11
HETATM   11  O   UNL     1     -10.127  16.016  67.130  1.00  0.00    -0.258 OA 
BRANCH  11  12
HETATM   12  C   UNL     1      -9.304  16.584  66.094  1.00  0.00    -0.304 C  
BRANCH  12  13
HETATM   13  C   UNL     1      -7.870  16.719  66.598  1.00  0.00    -0.307 C  
BRANCH  13  14
HETATM   14  C   UNL     1      -7.313  15.381  67.085  1.00  0.00    -0.168 C  
BRANCH  14  15
HETATM   15  N   UNL     1      -5.841  15.371  67.221  1.00  0.00    -0.314 NA 
HETATM   16  C   UNL     1      -5.368  16.519  68.005  1.00  0.00    -0.114 C  
BRANCH  15  17
HETATM   17  C   UNL     1      -5.428  14.080  67.834  1.00  0.00    -0.082 C  
BRANCH  17  18
HETATM   18  C   UNL     1      -6.437  12.927  67.625  1.00  0.00    -0.157 C  
BRANCH  18  19
HETATM   19  N   UNL     1      -6.590  11.979  68.754  1.00  0.00    -0.075 NA 
HETATM   20  C   UNL     1      -6.203  12.603  70.023  1.00  0.00    -0.060 C  
BRANCH  19  21
HETATM   21  C   UNL     1      -7.989  11.505  68.850  1.00  0.00    -0.057 C  
BRANCH  21  22
HETATM   22  C   UNL     1      -8.229  10.170  68.139  1.00  0.00    -0.113 C  
BRANCH  22  23
HETATM   23  C   UNL     1      -8.324   9.012  69.125  1.00  0.00    -0.123 C  
BRANCH  23  24
HETATM   24  O   UNL     1      -8.597   7.794  68.412  1.00  0.00    -0.128 OA 
BRANCH  24  25
HETATM   25  C   UNL     1      -7.637   6.839  68.495  1.00  0.00    -0.104 C  
HETATM   26  O   UNL     1      -6.545   6.867  67.950  1.00  0.00    -0.054 OA 
BRANCH  25  27
HETATM   27  C   UNL     1      -8.085   5.729  69.377  1.00  0.00    -0.101 A  
HETATM   28  C   UNL     1      -8.159   4.446  68.833  1.00  0.00    -0.072 A  
HETATM   29  C   UNL     1      -8.616   3.380  69.608  1.00  0.00    -0.064 A  
HETATM   30  C   UNL     1      -9.023   3.596  70.947  1.00  0.00    -0.094 A  
HETATM   31  C   UNL     1      -8.445   5.942  70.712  1.00  0.00    -0.129 A  
HETATM   32  C   UNL     1      -8.927   4.891  71.506  1.00  0.00    -0.135 A  
BRANCH  29  33
HETATM   33  O   UNL     1      -8.742   2.102  69.113  1.00  0.00    -0.063 OA 
HETATM   34  C   UNL     1      -8.536   1.942  67.712  1.00  0.00    -0.073 C  
ENDBRANCH  29  33
BRANCH  30  35
HETATM   35  O   UNL     1      -9.547   2.490  71.573  1.00  0.00    -0.131 OA 
HETATM   36  C   UNL     1      -8.650   1.517  72.091  1.00  0.00    -0.052 C  
ENDBRANCH  30  35
BRANCH  32  37
HETATM   37  O   UNL     1      -9.336   5.079  72.799  1.00  0.00    -0.135 OA 
HETATM   38  C   UNL     1     -10.169   6.195  73.090  1.00  0.00    -0.199 C  
ENDBRANCH  32  37
ENDBRANCH  25  27
ENDBRANCH  24  25
ENDBRANCH  23  24
ENDBRANCH  22  23
ENDBRANCH  21  22
ENDBRANCH  19  21
ENDBRANCH  18  19
ENDBRANCH  17  18
ENDBRANCH  15  17
ENDBRANCH  14  15
ENDBRANCH  13  14
ENDBRANCH  12  13
ENDBRANCH  11  12
ENDBRANCH   9  11
ENDBRANCH   5   9
BRANCH   8  39
HETATM   39  O   UNL     1     -11.885  13.104  70.658  1.00  0.00    -0.233 OA 
HETATM   40  C   UNL     1     -13.016  12.531  71.296  1.00  0.00    -0.208 C  
ENDBRANCH   8  39
BRANCH   7  41
HETATM   41  O   UNL     1     -12.150  14.750  73.009  1.00  0.00    -0.261 OA 
HETATM   42  C   UNL     1     -13.109  15.349  73.865  1.00  0.00    -0.093 C  
ENDBRANCH   7  41
ENDBRANCH   2   3
TORSDOF 21
ENDMDL
MODEL      329
REMARK 921   NORMALIZED FREE ENERGY PREDICTED BY IDOCK:    0.87 KCAL/MOL
REMARK 922        TOTAL FREE ENERGY PREDICTED BY IDOCK:   -0.92 KCAL/MOL
REMARK 923 INTER-LIGAND FREE ENERGY PREDICTED BY IDOCK:   -4.53 KCAL/MOL
REMARK 924 INTRA-LIGAND FREE ENERGY PREDICTED BY IDOCK:    3.61 KCAL/MOL
REMARK 927      BINDING AFFINITY PREDICTED BY RF-SCORE:    0.00 PKD
ROOT
HETATM    1  C   UNL     1      -6.003   1.821  66.698  1.00  0.00    -0.019 C  
HETATM    2  O   UNL     1      -7.258   2.136  67.296  1.00  0.00    -0.053 OA 
ENDROOT
BRANCH   2   3
HETATM    3  C   UNL     1      -7.430   3.426  67.732  1.00  0.00    -0.058 A  
HETATM    4  C   UNL     1      -6.797   3.871  68.899  1.00  0.00    -0.046 A  
HETATM    5  C   UNL     1      -6.954   5.177  69.364  1.00  0.00    -0.055 A  
HETATM    6  C   UNL     1      -7.752   6.060  68.645  1.00  0.00    -0.095 A  
HETATM    7  C   UNL     1      -8.212   4.327  66.972  1.00  0.00    -0.101 A  
HETATM    8  C   UNL     1      -8.376   5.652  67.450  1.00  0.00    -0.100 A  
BRANCH   5   9
HETATM    9  C   UNL     1      -6.247   5.530  70.619  1.00  0.00    -0.026 C  
HETATM   10  O   UNL     1      -5.977   6.685  70.917  1.00  0.00    -0.027 OA 
BRANCH   9  11
HETATM   11  O   UNL     1      -5.917   4.430  71.342  1.00  0.00    -0.015 OA 
BRANCH  11  12
HETATM   12  C   UNL     1      -6.585   3.227  70.920  1.00  0.00    -0.031 C  
BRANCH  12  13
HETATM   13  C   UNL     1      -8.095   3.406  71.057  1.00  0.00    -0.068 C  
BRANCH  13  14
HETATM   14  C   UNL     1      -8.606   2.886  72.401  1.00  0.00    -0.074 C  
BRANCH  14  15
HETATM   15  N   UNL     1      -9.368   3.894  73.169  1.00  0.00    -0.108 NA 
HETATM   16  C   UNL     1      -9.578   3.462  74.558  1.00  0.00    -0.105 C  
BRANCH  15  17
HETATM   17  C   UNL     1      -8.646   5.192  73.102  1.00  0.00    -0.110 C  
BRANCH  17  18
HETATM   18  C   UNL     1      -9.405   6.374  73.750  1.00  0.00    -0.140 C  
BRANCH  18  19
HETATM   19  N   UNL     1      -8.590   7.560  74.102  1.00  0.00    -0.213 NA 
HETATM   20  C   UNL     1      -7.214   7.419  73.615  1.00  0.00    -0.091 C  
BRANCH  19  21
HETATM   21  C   UNL     1      -9.186   8.789  73.531  1.00  0.00     0.887 C  
BRANCH  21  22
HETATM   22  C   UNL     1      -9.466   8.688  72.028  1.00  0.00    -0.370 C  
BRANCH  22  23
HETATM   23  C   UNL     1     -10.947   8.856  71.716  1.00  0.00    -0.361 C  
BRANCH  23  24
HETATM   24  O   UNL     1     -11.143   8.845  70.291  1.00  0.00    -0.245 OA 
BRANCH  24  25
HETATM   25  C   UNL     1     -11.765   9.935  69.776  1.00  0.00    -0.021 C  
HETATM   26  O   UNL     1     -12.941  10.226  69.920  1.00  0.00     0.008 OA 
BRANCH  25  27
HETATM   27  C   UNL     1     -10.802  10.769  69.010  1.00  0.00    -0.278 A  
HETATM   28  C   UNL     1      -9.449  10.681  69.341  1.00  0.00    -0.101 A  
HETATM   29  C   UNL     1      -8.511  11.476  68.681  1.00  0.00    -0.115 A  
HETATM   30  C   UNL     1      -8.929  12.389  67.682  1.00  0.00    -0.183 A  
HETATM   31  C   UNL     1     -11.216  11.637  67.994  1.00  0.00    -0.327 A  
HETATM   32  C   UNL     1     -10.296  12.462  67.330  1.00  0.00    -0.215 A  
BRANCH  29  33
HETATM   33  O   UNL     1      -7.170  11.455  68.991  1.00  0.00    -0.109 OA 
HETATM   34  C   UNL     1      -6.597  10.174  69.238  1.00  0.00    -0.053 C  
ENDBRANCH  29  33
BRANCH  30  35
HETATM   35  O   UNL     1      -7.927  13.185  67.178  1.00  0.00    -0.157 OA 
HETATM   36  C   UNL     1      -7.244  14.057  68.068  1.00  0.00    -0.144 C  
ENDBRANCH  30  35
BRANCH  32  37
HETATM   37  O   UNL     1     -10.679  13.360  66.370  1.00  0.00    -0.283 OA 
HETATM   38  C   UNL     1     -12.067  13.505  66.094  1.00  0.00    -0.436 C  
ENDBRANCH  32  37
ENDBRANCH  25  27
ENDBRANCH  24  25
ENDBRANCH  23  24
ENDBRANCH  22  23
ENDBRANCH  21  22
ENDBRANCH  19  21
ENDBRANCH  18  19
ENDBRANCH  17  18
ENDBRANCH  15  17
ENDBRANCH  14  15
ENDBRANCH  13  14
ENDBRANCH  12  13
ENDBRANCH  11  12
ENDBRANCH   9  11
ENDBRANCH   5   9
BRANCH   8  39
HETATM   39  O   UNL     1      -9.100   6.682  66.897  1.00  0.00    -0.127 OA 
HETATM   40  C   UNL     1      -9.110   7.955  67.524  1.00  0.00    -0.133 C  
ENDBRANCH   8  39
BRANCH   7  41
HETATM   41  O   UNL     1      -8.852   4.029  65.798  1.00  0.00    -0.117 OA 
HETATM   42  C   UNL     1      -8.287   4.384  64.548  1.00  0.00    -0.111 C  
ENDBRANCH   7  41
ENDBRANCH   2   3
TORSDOF 21
ENDMDL
MODEL      330
REMARK 921   NORMALIZED FREE ENERGY PREDICTED BY IDOCK:    1.14 KCAL/MOL
REMARK 922        TOTAL FREE ENERGY PREDICTED BY IDOCK:   -0.33 KCAL/MOL
REMARK 923 INTER-LIGAND FREE ENERGY PREDICTED BY IDOCK:   -3.84 KCAL/MOL
REMARK 924 INTRA-LIGAND FREE ENERGY PREDICTED BY IDOCK:    3.52 KCAL/MOL
REMARK 927      BINDING AFFINITY PREDICTED BY RF-SCORE:    0.00 PKD
ROOT
HETATM    1  C   UNL     1     -10.079  16.513  69.697  1.00  0.00    -0.100 C  
HETATM    2  O   UNL     1      -9.885  15.924  68.414  1.00  0.00    -0.209 OA 
ENDROOT
BRANCH   2   3
HETATM    3  C   UNL     1      -8.593  15.630  68.055  1.00  0.00    -0.155 A  
HETATM    4  C   UNL     1      -8.112  14.318  68.148  1.00  0.00    -0.144 A  
HETATM    5  C   UNL     1      -6.803  13.993  67.790  1.00  0.00    -0.187 A  
HETATM    6  C   UNL     1      -5.960  14.995  67.323  1.00  0.00     0.349 A  
HETATM    7  C   UNL     1      -7.756  16.649  67.545  1.00  0.00    -0.165 A  
HETATM    8  C   UNL     1      -6.424  16.317  67.189  1.00  0.00    -0.179 A  
BRANCH   5   9
HETATM    9  C   UNL     1      -6.402  12.573  67.944  1.00  0.00    -0.103 C  
HETATM   10  O   UNL     1      -5.274  12.245  68.284  1.00  0.00    -0.051 OA 
BRANCH   9  11
HETATM   11  O   UNL     1      -7.409  11.723  67.627  1.00  0.00    -0.103 OA 
BRANCH  11  12
HETATM   12  C   UNL     1      -8.103  12.061  66.412  1.00  0.00     0.154 C  
BRANCH  12  13
HETATM   13  C   UNL     1      -7.631  11.149  65.283  1.00  0.00     0.449 C  
BRANCH  13  14
HETATM   14  C   UNL     1      -7.602   9.683  65.716  1.00  0.00    -0.103 C  
BRANCH  14  15
HETATM   15  N   UNL     1      -7.592   8.735  64.582  1.00  0.00    -0.104 NA 
HETATM   16  C   UNL     1      -8.711   8.986  63.664  1.00  0.00    -0.077 C  
BRANCH  15  17
HETATM   17  C   UNL     1      -6.280   8.836  63.888  1.00  0.00    -0.072 C  
BRANCH  17  18
HETATM   18  C   UNL     1      -5.153   7.998  64.537  1.00  0.00    -0.036 C  
BRANCH  18  19
HETATM   19  N   UNL     1      -5.573   7.040  65.586  1.00  0.00    -0.030 NA 
HETATM   20  C   UNL     1      -6.454   7.683  66.567  1.00  0.00    -0.049 C  
BRANCH  19  21
HETATM   21  C   UNL     1      -6.275   5.884  64.985  1.00  0.00    -0.036 C  
BRANCH  21  22
HETATM   22  C   UNL     1      -7.640   5.603  65.621  1.00  0.00    -0.086 C  
BRANCH  22  23
HETATM   23  C   UNL     1      -8.443   4.591  64.814  1.00  0.00    -0.132 C  
BRANCH  23  24
HETATM   24  O   UNL     1      -9.334   3.877  65.687  1.00  0.00    -0.144 OA 
BRANCH  24  25
HETATM   25  C   UNL     1     -10.361   4.601  66.198  1.00  0.00    -0.275 C  
HETATM   26  O   UNL     1     -11.465   4.737  65.696  1.00  0.00     0.183 OA 
BRANCH  25  27
HETATM   27  C   UNL     1      -9.971   5.210  67.497  1.00  0.00    -0.211 A  
HETATM   28  C   UNL     1      -8.940   4.608  68.221  1.00  0.00    -0.137 A  
HETATM   29  C   UNL     1      -8.567   5.115  69.466  1.00  0.00    -0.092 A  
HETATM   30  C   UNL     1      -9.244   6.234  70.011  1.00  0.00    -0.152 A  
HETATM   31  C   UNL     1     -10.614   6.341  68.011  1.00  0.00    -0.326 A  
HETATM   32  C   UNL     1     -10.272   6.858  69.269  1.00  0.00    -0.186 A  
BRANCH  29  33
HETATM   33  O   UNL     1      -7.582   4.541  70.237  1.00  0.00    -0.049 OA 
HETATM   34  C   UNL     1      -7.205   3.210  69.896  1.00  0.00    -0.041 C  
ENDBRANCH  29  33
BRANCH  30  35
HETATM   35  O   UNL     1      -8.853   6.575  71.284  1.00  0.00    -0.137 OA 
HETATM   36  C   UNL     1      -7.851   7.571  71.441  1.00  0.00    -0.093 C  
ENDBRANCH  30  35
BRANCH  32  37
HETATM   37  O   UNL     1     -10.920   7.931  69.820  1.00  0.00    -0.233 OA 
HETATM   38  C   UNL     1     -10.971   9.145  69.079  1.00  0.00    -0.008 C  
ENDBRANCH  32  37
ENDBRANCH  25  27
ENDBRANCH  24  25
ENDBRANCH  23  24
ENDBRANCH  22  23
ENDBRANCH  21  22
ENDBRANCH  19  21
ENDBRANCH  18  19
ENDBRANCH  17  18
ENDBRANCH  15  17
ENDBRANCH  14  15
ENDBRANCH  13  14
ENDBRANCH  12  13
ENDBRANCH  11  12
ENDBRANCH   9  11
ENDBRANCH   5   9
BRANCH   8  39
HETATM   39  O   UNL     1      -5.435  17.137  66.697  1.00  0.00    -0.167 OA 
HETATM   40  C   UNL     1      -5.685  18.524  66.533  1.00  0.00    -0.152 C  
ENDBRANCH   8  39
BRANCH   7  41
HETATM   41  O   UNL     1      -8.115  17.960  67.371  1.00  0.00    -0.208 OA 
HETATM   42  C   UNL     1      -9.027  18.338  66.354  1.00  0.00    -0.243 C  
ENDBRANCH   7  41
ENDBRANCH   2   3
TORSDOF 21
ENDMDL
MODEL      331
REMARK 921   NORMALIZED FREE ENERGY PREDICTED BY IDOCK:    1.21 KCAL/MOL
REMARK 922        TOTAL FREE ENERGY PREDICTED BY IDOCK:   -0.16 KCAL/MOL
REMARK 923 INTER-LIGAND FREE ENERGY PREDICTED BY IDOCK:   -0.32 KCAL/MOL
REMARK 924 INTRA-LIGAND FREE ENERGY PREDICTED BY IDOCK:    0.16 KCAL/MOL
REMARK 927      BINDING AFFINITY PREDICTED BY RF-SCORE:    0.00 PKD
ROOT
HETATM    1  C   UNL     1      -8.334  15.443  66.504  1.00  0.00    -0.149 C  
HETATM    2  O   UNL     1      -7.658  16.408  65.703  1.00  0.00     0.627 OA 
ENDROOT
BRANCH   2   3
HETATM    3  C   UNL     1      -7.778  17.723  66.083  1.00  0.00    -0.245 A  
HETATM    4  C   UNL     1      -8.981  18.198  66.619  1.00  0.00    -0.292 A  
HETATM    5  C   UNL     1      -9.130  19.528  67.014  1.00  0.00    -0.378 A  
HETATM    6  C   UNL     1      -8.055  20.399  66.878  1.00  0.00    -0.318 A  
HETATM    7  C   UNL     1      -6.666  18.590  65.977  1.00  0.00    -0.257 A  
HETATM    8  C   UNL     1      -6.823  19.943  66.372  1.00  0.00    -0.219 A  
BRANCH   5   9
HETATM    9  C   UNL     1     -10.455  19.920  67.554  1.00  0.00    -0.395 C  
HETATM   10  O   UNL     1     -11.481  19.841  66.893  1.00  0.00     0.055 OA 
BRANCH   9  11
HETATM   11  O   UNL     1     -10.366  20.401  68.819  1.00  0.00    -0.247 OA 
BRANCH  11  12
HETATM   12  C   UNL     1     -10.049  19.403  69.806  1.00  0.00     0.334 C  
BRANCH  12  13
HETATM   13  C   UNL     1      -8.742  19.770  70.503  1.00  0.00     1.705 C  
BRANCH  13  14
HETATM   14  C   UNL     1      -7.529  19.205  69.762  1.00  0.00     0.282 C  
BRANCH  14  15
HETATM   15  N   UNL     1      -6.255  19.401  70.486  1.00  0.00    -0.112 NA 
HETATM   16  C   UNL     1      -6.486  19.703  71.905  1.00  0.00     0.550 C  
BRANCH  15  17
HETATM   17  C   UNL     1      -5.417  18.184  70.314  1.00  0.00    -0.250 C  
BRANCH  17  18
HETATM   18  C   UNL     1      -6.192  16.854  70.469  1.00  0.00     0.567 C  
BRANCH  18  19
HETATM   19  N   UNL     1      -6.533  16.146  69.213  1.00  0.00    -0.169 NA 
HETATM   20  C   UNL     1      -5.323  15.780  68.468  1.00  0.00    -0.103 C  
BRANCH  19  21
HETATM   21  C   UNL     1      -7.316  14.923  69.500  1.00  0.00    -0.178 C  
BRANCH  21  22
HETATM   22  C   UNL     1      -8.831  15.138  69.419  1.00  0.00    -0.172 C  
BRANCH  22  23
HETATM   23  C   UNL     1      -9.596  13.827  69.544  1.00  0.00     0.872 C  
BRANCH  23  24
HETATM   24  O   UNL     1     -10.740  13.853  68.674  1.00  0.00    -0.248 OA 
BRANCH  24  25
HETATM   25  C   UNL     1     -11.177  12.643  68.243  1.00  0.00    -0.272 C  
HETATM   26  O   UNL     1     -12.175  12.436  67.572  1.00  0.00    -0.442 OA 
BRANCH  25  27
HETATM   27  C   UNL     1     -10.246  11.569  68.681  1.00  0.00    -0.217 A  
HETATM   28  C   UNL     1     -10.464  10.979  69.927  1.00  0.00     0.148 A  
HETATM   29  C   UNL     1      -9.593   9.999  70.402  1.00  0.00     0.081 A  
HETATM   30  C   UNL     1      -8.472   9.608  69.629  1.00  0.00    -0.174 A  
HETATM   31  C   UNL     1      -9.166  11.157  67.894  1.00  0.00    -0.154 A  
HETATM   32  C   UNL     1      -8.263  10.188  68.358  1.00  0.00    -0.112 A  
BRANCH  29  33
HETATM   33  O   UNL     1      -9.740   9.409  71.637  1.00  0.00    -0.241 OA 
HETATM   34  C   UNL     1     -10.801   8.466  71.766  1.00  0.00    -0.284 C  
ENDBRANCH  29  33
BRANCH  30  35
HETATM   35  O   UNL     1      -7.635   8.709  70.248  1.00  0.00    -0.066 OA 
HETATM   36  C   UNL     1      -6.289   9.094  70.491  1.00  0.00    -0.053 C  
ENDBRANCH  30  35
BRANCH  32  37
HETATM   37  O   UNL     1      -7.167   9.803  67.633  1.00  0.00    -0.087 OA 
HETATM   38  C   UNL     1      -6.551  10.759  66.777  1.00  0.00    -0.105 C  
ENDBRANCH  32  37
ENDBRANCH  25  27
ENDBRANCH  24  25
ENDBRANCH  23  24
ENDBRANCH  22  23
ENDBRANCH  21  22
ENDBRANCH  19  21
ENDBRANCH  18  19
ENDBRANCH  17  18
ENDBRANCH  15  17
ENDBRANCH  14  15
ENDBRANCH  13  14
ENDBRANCH  12  13
ENDBRANCH  11  12
ENDBRANCH   9  11
ENDBRANCH   5   9
BRANCH   8  39
HETATM   39  O   UNL     1      -5.898  20.961  66.338  1.00  0.00    -0.198 OA 
HETATM   40  C   UNL     1      -5.128  21.253  67.494  1.00  0.00    -0.235 C  
ENDBRANCH   8  39
BRANCH   7  41
HETATM   41  O   UNL     1      -5.429  18.242  65.505  1.00  0.00    -0.158 OA 
HETATM   42  C   UNL     1      -5.254  17.806  64.167  1.00  0.00     0.986 C  
ENDBRANCH   7  41
ENDBRANCH   2   3
TORSDOF 21
ENDMDL
MODEL      332
REMARK 921   NORMALIZED FREE ENERGY PREDICTED BY IDOCK:    1.40 KCAL/MOL
REMARK 922        TOTAL FREE ENERGY PREDICTED BY IDOCK:    0.27 KCAL/MOL
REMARK 923 INTER-LIGAND FREE ENERGY PREDICTED BY IDOCK:    0.93 KCAL/MOL
REMARK 924 INTRA-LIGAND FREE ENERGY PREDICTED BY IDOCK:   -0.67 KCAL/MOL
REMARK 927      BINDING AFFINITY PREDICTED BY RF-SCORE:    0.00 PKD
ROOT
HETATM    1  C   UNL     1     -10.359  18.279  73.153  1.00  0.00     4.829 C  
HETATM    2  O   UNL     1     -11.550  17.718  72.604  1.00  0.00     1.064 OA 
ENDROOT
BRANCH   2   3
HETATM    3  C   UNL     1     -11.407  16.940  71.482  1.00  0.00     0.610 A  
HETATM    4  C   UNL     1     -11.024  17.516  70.264  1.00  0.00     1.263 A  
HETATM    5  C   UNL     1     -10.872  16.749  69.108  1.00  0.00    -0.287 A  
HETATM    6  C   UNL     1     -11.097  15.379  69.171  1.00  0.00    -0.267 A  
HETATM    7  C   UNL     1     -11.601  15.542  71.565  1.00  0.00    -0.419 A  
HETATM    8  C   UNL     1     -11.452  14.766  70.388  1.00  0.00    -0.252 A  
BRANCH   5   9
HETATM    9  C   UNL     1     -10.477  17.471  67.874  1.00  0.00    -0.384 C  
HETATM   10  O   UNL     1     -10.699  18.663  67.714  1.00  0.00    -0.409 OA 
BRANCH   9  11
HETATM   11  O   UNL     1      -9.897  16.647  66.967  1.00  0.00    -0.246 OA 
BRANCH  11  12
HETATM   12  C   UNL     1      -9.076  17.324  65.998  1.00  0.00    -0.079 C  
BRANCH  12  13
HETATM   13  C   UNL     1      -7.667  17.501  66.558  1.00  0.00    -0.310 C  
BRANCH  13  14
HETATM   14  C   UNL     1      -7.087  16.178  67.058  1.00  0.00    -0.213 C  
BRANCH  14  15
HETATM   15  N   UNL     1      -5.617  16.201  67.211  1.00  0.00    -0.304 NA 
HETATM   16  C   UNL     1      -5.173  17.397  67.939  1.00  0.00    -0.122 C  
BRANCH  15  17
HETATM   17  C   UNL     1      -5.189  14.952  67.897  1.00  0.00    -0.081 C  
BRANCH  17  18
HETATM   18  C   UNL     1      -6.209  13.793  67.796  1.00  0.00    -0.150 C  
BRANCH  18  19
HETATM   19  N   UNL     1      -6.314  12.910  68.981  1.00  0.00    -0.093 NA 
HETATM   20  C   UNL     1      -5.847  13.593  70.192  1.00  0.00    -0.145 C  
BRANCH  19  21
HETATM   21  C   UNL     1      -7.713  12.468  69.179  1.00  0.00     0.306 C  
BRANCH  21  22
HETATM   22  C   UNL     1      -8.025  11.122  68.517  1.00  0.00    -0.143 C  
BRANCH  22  23
HETATM   23  C   UNL     1      -7.864   9.961  69.490  1.00  0.00    -0.140 C  
BRANCH  23  24
HETATM   24  O   UNL     1      -8.200   8.730  68.828  1.00  0.00    -0.113 OA 
BRANCH  24  25
HETATM   25  C   UNL     1      -9.134   8.826  67.848  1.00  0.00    -0.139 C  
HETATM   26  O   UNL     1     -10.185   9.442  67.914  1.00  0.00    -0.186 OA 
BRANCH  25  27
HETATM   27  C   UNL     1      -8.693   8.083  66.638  1.00  0.00    -0.153 A  
HETATM   28  C   UNL     1      -8.259   8.820  65.536  1.00  0.00    -0.133 A  
HETATM   29  C   UNL     1      -7.878   8.170  64.362  1.00  0.00    -0.136 A  
HETATM   30  C   UNL     1      -7.945   6.758  64.275  1.00  0.00    -0.087 A  
HETATM   31  C   UNL     1      -8.721   6.685  66.574  1.00  0.00    -0.137 A  
HETATM   32  C   UNL     1      -8.362   6.009  65.398  1.00  0.00    -0.150 A  
BRANCH  29  33
HETATM   33  O   UNL     1      -7.474   8.849  63.234  1.00  0.00    -0.098 OA 
HETATM   34  C   UNL     1      -7.558  10.271  63.287  1.00  0.00    -0.124 C  
ENDBRANCH  29  33
BRANCH  30  35
HETATM   35  O   UNL     1      -7.640   6.245  63.037  1.00  0.00    -0.066 OA 
HETATM   36  C   UNL     1      -8.038   4.914  62.740  1.00  0.00    -0.086 C  
ENDBRANCH  30  35
BRANCH  32  37
HETATM   37  O   UNL     1      -8.430   4.646  65.289  1.00  0.00    -0.119 OA 
HETATM   38  C   UNL     1      -9.593   3.984  65.774  1.00  0.00    -0.191 C  
ENDBRANCH  32  37
ENDBRANCH  25  27
ENDBRANCH  24  25
ENDBRANCH  23  24
ENDBRANCH  22  23
ENDBRANCH  21  22
ENDBRANCH  19  21
ENDBRANCH  18  19
ENDBRANCH  17  18
ENDBRANCH  15  17
ENDBRANCH  14  15
ENDBRANCH  13  14
ENDBRANCH  12  13
ENDBRANCH  11  12
ENDBRANCH   9  11
ENDBRANCH   5   9
BRANCH   8  39
HETATM   39  O   UNL     1     -11.610  13.409  70.227  1.00  0.00    -0.190 OA 
HETATM   40  C   UNL     1     -11.207  12.789  69.016  1.00  0.00    -0.264 C  
ENDBRANCH   8  39
BRANCH   7  41
HETATM   41  O   UNL     1     -11.941  14.853  72.700  1.00  0.00    -0.317 OA 
HETATM   42  C   UNL     1     -13.296  14.564  73.000  1.00  0.00    -0.407 C  
ENDBRANCH   7  41
ENDBRANCH   2   3
TORSDOF 21
ENDMDL
MODEL      333
REMARK 921   NORMALIZED FREE ENERGY PREDICTED BY IDOCK:    1.57 KCAL/MOL
REMARK 922        TOTAL FREE ENERGY PREDICTED BY IDOCK:    0.65 KCAL/MOL
REMARK 923 INTER-LIGAND FREE ENERGY PREDICTED BY IDOCK:   -3.59 KCAL/MOL
REMARK 924 INTRA-LIGAND FREE ENERGY PREDICTED BY IDOCK:    4.24 KCAL/MOL
REMARK 927      BINDING AFFINITY PREDICTED BY RF-SCORE:    0.00 PKD
ROOT
HETATM    1  C   UNL     1      -6.310  11.925  70.153  1.00  0.00    -0.010 C  
HETATM    2  O   UNL     1      -7.710  11.741  69.960  1.00  0.00     0.869 OA 
ENDROOT
BRANCH   2   3
HETATM    3  C   UNL     1      -8.243  12.225  68.790  1.00  0.00     0.081 A  
HETATM    4  C   UNL     1      -9.181  11.472  68.074  1.00  0.00    -0.175 A  
HETATM    5  C   UNL     1      -9.738  11.940  66.883  1.00  0.00    -0.212 A  
HETATM    6  C   UNL     1      -9.357  13.187  66.402  1.00  0.00    -0.188 A  
HETATM    7  C   UNL     1      -7.877  13.511  68.330  1.00  0.00    -0.145 A  
HETATM    8  C   UNL     1      -8.440  13.981  67.116  1.00  0.00    -0.190 A  
BRANCH   5   9
HETATM    9  C   UNL     1     -10.711  11.048  66.205  1.00  0.00    -0.212 C  
HETATM   10  O   UNL     1     -10.642  10.791  65.012  1.00  0.00    -0.268 OA 
BRANCH   9  11
HETATM   11  O   UNL     1     -11.675  10.610  67.053  1.00  0.00    -0.141 OA 
BRANCH  11  12
HETATM   12  C   UNL     1     -11.227   9.610  67.986  1.00  0.00     0.082 C  
BRANCH  12  13
HETATM   13  C   UNL     1     -10.564   8.464  67.227  1.00  0.00    -0.328 C  
BRANCH  13  14
HETATM   14  C   UNL     1     -10.844   7.113  67.886  1.00  0.00    -0.150 C  
BRANCH  14  15
HETATM   15  N   UNL     1     -10.243   6.979  69.230  1.00  0.00    -0.180 NA 
HETATM   16  C   UNL     1     -10.365   5.605  69.736  1.00  0.00    -0.282 C  
BRANCH  15  17
HETATM   17  C   UNL     1      -8.822   7.413  69.163  1.00  0.00    -0.136 C  
BRANCH  17  18
HETATM   18  C   UNL     1      -7.928   6.522  68.267  1.00  0.00    -0.110 C  
BRANCH  18  19
HETATM   19  N   UNL     1      -8.187   6.592  66.810  1.00  0.00    -0.109 NA 
HETATM   20  C   UNL     1      -6.953   6.863  66.067  1.00  0.00    -0.065 C  
BRANCH  19  21
HETATM   21  C   UNL     1      -8.780   5.325  66.326  1.00  0.00    -0.122 C  
BRANCH  21  22
HETATM   22  C   UNL     1      -8.944   4.270  67.424  1.00  0.00    -0.134 C  
BRANCH  22  23
HETATM   23  C   UNL     1      -9.238   2.892  66.847  1.00  0.00    -0.136 C  
BRANCH  23  24
HETATM   24  O   UNL     1      -8.051   2.083  66.904  1.00  0.00    -0.073 OA 
BRANCH  24  25
HETATM   25  C   UNL     1      -6.934   2.711  67.351  1.00  0.00    -0.045 C  
HETATM   26  O   UNL     1      -6.014   3.121  66.662  1.00  0.00    -0.023 OA 
BRANCH  25  27
HETATM   27  C   UNL     1      -6.982   2.864  68.829  1.00  0.00    -0.048 A  
HETATM   28  C   UNL     1      -6.074   3.738  69.429  1.00  0.00    -0.027 A  
HETATM   29  C   UNL     1      -6.050   3.882  70.817  1.00  0.00    -0.018 A  
HETATM   30  C   UNL     1      -6.935   3.130  71.626  1.00  0.00    -0.031 A  
HETATM   31  C   UNL     1      -7.888   2.150  69.620  1.00  0.00    -0.050 A  
HETATM   32  C   UNL     1      -7.870   2.261  71.019  1.00  0.00    -0.046 A  
BRANCH  29  33
HETATM   33  O   UNL     1      -5.154   4.704  71.463  1.00  0.00    -0.003 OA 
HETATM   34  C   UNL     1      -5.707   5.671  72.350  1.00  0.00    -0.026 C  
ENDBRANCH  29  33
BRANCH  30  35
HETATM   35  O   UNL     1      -6.746   3.284  72.979  1.00  0.00    -0.030 OA 
HETATM   36  C   UNL     1      -6.174   2.209  73.710  1.00  0.00    -0.012 C  
ENDBRANCH  30  35
BRANCH  32  37
HETATM   37  O   UNL     1      -8.709   1.535  71.821  1.00  0.00    -0.053 OA 
HETATM   38  C   UNL     1     -10.040   2.001  72.007  1.00  0.00    -0.156 C  
ENDBRANCH  32  37
ENDBRANCH  25  27
ENDBRANCH  24  25
ENDBRANCH  23  24
ENDBRANCH  22  23
ENDBRANCH  21  22
ENDBRANCH  19  21
ENDBRANCH  18  19
ENDBRANCH  17  18
ENDBRANCH  15  17
ENDBRANCH  14  15
ENDBRANCH  13  14
ENDBRANCH  12  13
ENDBRANCH  11  12
ENDBRANCH   9  11
ENDBRANCH   5   9
BRANCH   8  39
HETATM   39  O   UNL     1      -8.218  15.176  66.471  1.00  0.00    -0.150 OA 
HETATM   40  C   UNL     1      -9.288  16.091  66.293  1.00  0.00    -0.322 C  
ENDBRANCH   8  39
BRANCH   7  41
HETATM   41  O   UNL     1      -7.001  14.359  68.954  1.00  0.00    -0.094 OA 
HETATM   42  C   UNL     1      -6.019  15.066  68.216  1.00  0.00    -0.122 C  
ENDBRANCH   7  41
ENDBRANCH   2   3
TORSDOF 21
ENDMDL
MODEL      334
REMARK 921   NORMALIZED FREE ENERGY PREDICTED BY IDOCK:    1.69 KCAL/MOL
REMARK 922        TOTAL FREE ENERGY PREDICTED BY IDOCK:    0.92 KCAL/MOL
REMARK 923 INTER-LIGAND FREE ENERGY PREDICTED BY IDOCK:   -0.25 KCAL/MOL
REMARK 924 INTRA-LIGAND FREE ENERGY PREDICTED BY IDOCK:    1.16 KCAL/MOL
REMARK 927      BINDING AFFINITY PREDICTED BY RF-SCORE:    0.00 PKD
ROOT
HETATM    1  C   UNL     1     -13.135  16.203  65.183  1.00  0.00     3.286 C  
HETATM    2  O   UNL     1     -12.612  15.514  66.316  1.00  0.00     1.080 OA 
ENDROOT
BRANCH   2   3
HETATM    3  C   UNL     1     -11.274  15.206  66.290  1.00  0.00    -0.273 A  
HETATM    4  C   UNL     1     -10.852  13.905  65.990  1.00  0.00    -0.290 A  
HETATM    5  C   UNL     1      -9.499  13.566  65.956  1.00  0.00    -0.109 A  
HETATM    6  C   UNL     1      -8.548  14.546  66.219  1.00  0.00     0.326 A  
HETATM    7  C   UNL     1     -10.315  16.219  66.520  1.00  0.00    -0.307 A  
HETATM    8  C   UNL     1      -8.941  15.870  66.492  1.00  0.00    -0.296 A  
BRANCH   5   9
HETATM    9  C   UNL     1      -9.172  12.153  65.641  1.00  0.00     0.049 C  
HETATM   10  O   UNL     1      -9.809  11.499  64.828  1.00  0.00    -0.242 OA 
BRANCH   9  11
HETATM   11  O   UNL     1      -8.134  11.695  66.384  1.00  0.00    -0.130 OA 
BRANCH  11  12
HETATM   12  C   UNL     1      -8.464  11.444  67.763  1.00  0.00    -0.128 C  
BRANCH  12  13
HETATM   13  C   UNL     1      -8.290   9.959  68.067  1.00  0.00    -0.113 C  
BRANCH  13  14
HETATM   14  C   UNL     1      -7.700   9.733  69.460  1.00  0.00    -0.120 C  
BRANCH  14  15
HETATM   15  N   UNL     1      -8.279   8.567  70.161  1.00  0.00    -0.116 NA 
HETATM   16  C   UNL     1      -8.695   8.916  71.526  1.00  0.00    -0.162 C  
BRANCH  15  17
HETATM   17  C   UNL     1      -9.417   8.044  69.358  1.00  0.00    -0.159 C  
BRANCH  17  18
HETATM   18  C   UNL     1     -10.601   7.519  70.204  1.00  0.00    -0.235 C  
BRANCH  18  19
HETATM   19  N   UNL     1     -10.925   6.081  70.054  1.00  0.00    -0.357 NA 
HETATM   20  C   UNL     1     -10.255   5.509  68.882  1.00  0.00    -0.214 C  
BRANCH  19  21
HETATM   21  C   UNL     1     -10.523   5.327  71.262  1.00  0.00    -0.204 C  
BRANCH  21  22
HETATM   22  C   UNL     1     -11.420   5.597  72.474  1.00  0.00    -0.335 C  
BRANCH  22  23
HETATM   23  C   UNL     1     -11.990   4.309  73.054  1.00  0.00     0.328 C  
BRANCH  23  24
HETATM   24  O   UNL     1     -11.333   3.180  72.455  1.00  0.00     0.431 OA 
BRANCH  24  25
HETATM   25  C   UNL     1     -10.379   2.585  73.215  1.00  0.00    -0.133 C  
HETATM   26  O   UNL     1     -10.518   1.570  73.879  1.00  0.00    -0.084 OA 
BRANCH  25  27
HETATM   27  C   UNL     1      -9.098   3.333  73.118  1.00  0.00    -0.103 A  
HETATM   28  C   UNL     1      -8.036   2.731  72.441  1.00  0.00    -0.055 A  
HETATM   29  C   UNL     1      -6.800   3.374  72.362  1.00  0.00    -0.030 A  
HETATM   30  C   UNL     1      -6.611   4.633  72.982  1.00  0.00    -0.055 A  
HETATM   31  C   UNL     1      -8.930   4.596  73.696  1.00  0.00    -0.103 A  
HETATM   32  C   UNL     1      -7.692   5.253  73.648  1.00  0.00    -0.102 A  
BRANCH  29  33
HETATM   33  O   UNL     1      -5.709   2.812  71.737  1.00  0.00    -0.008 OA 
HETATM   34  C   UNL     1      -5.177   1.632  72.331  1.00  0.00     0.000 C  
ENDBRANCH  29  33
BRANCH  30  35
HETATM   35  O   UNL     1      -5.325   5.115  72.919  1.00  0.00    -0.012 OA 
HETATM   36  C   UNL     1      -5.129   6.522  72.900  1.00  0.00    -0.032 C  
ENDBRANCH  30  35
BRANCH  32  37
HETATM   37  O   UNL     1      -7.483   6.465  74.250  1.00  0.00    -0.092 OA 
HETATM   38  C   UNL     1      -8.603   7.317  74.464  1.00  0.00    -0.195 C  
ENDBRANCH  32  37
ENDBRANCH  25  27
ENDBRANCH  24  25
ENDBRANCH  23  24
ENDBRANCH  22  23
ENDBRANCH  21  22
ENDBRANCH  19  21
ENDBRANCH  18  19
ENDBRANCH  17  18
ENDBRANCH  15  17
ENDBRANCH  14  15
ENDBRANCH  13  14
ENDBRANCH  12  13
ENDBRANCH  11  12
ENDBRANCH   9  11
ENDBRANCH   5   9
BRANCH   8  39
HETATM   39  O   UNL     1      -7.845  16.674  66.705  1.00  0.00    -0.199 OA 
HETATM   40  C   UNL     1      -7.153  16.610  67.942  1.00  0.00    -0.140 C  
ENDBRANCH   8  39
BRANCH   7  41
HETATM   41  O   UNL     1     -10.595  17.533  66.787  1.00  0.00    -0.294 OA 
HETATM   42  C   UNL     1     -10.619  18.019  68.119  1.00  0.00    -0.319 C  
ENDBRANCH   7  41
ENDBRANCH   2   3
TORSDOF 21
ENDMDL
MODEL      335
REMARK 921   NORMALIZED FREE ENERGY PREDICTED BY IDOCK:    2.16 KCAL/MOL
REMARK 922        TOTAL FREE ENERGY PREDICTED BY IDOCK:    1.95 KCAL/MOL
REMARK 923 INTER-LIGAND FREE ENERGY PREDICTED BY IDOCK:    1.38 KCAL/MOL
REMARK 924 INTRA-LIGAND FREE ENERGY PREDICTED BY IDOCK:    0.57 KCAL/MOL
REMARK 927      BINDING AFFINITY PREDICTED BY RF-SCORE:    0.00 PKD
ROOT
HETATM    1  C   UNL     1      -5.272   4.612  64.925  1.00  0.00    -0.013 C  
HETATM    2  O   UNL     1      -5.901   5.887  64.811  1.00  0.00    -0.023 OA 
ENDROOT
BRANCH   2   3
HETATM    3  C   UNL     1      -7.097   6.048  65.465  1.00  0.00    -0.069 A  
HETATM    4  C   UNL     1      -7.821   4.933  65.903  1.00  0.00    -0.095 A  
HETATM    5  C   UNL     1      -9.039   5.068  66.571  1.00  0.00    -0.125 A  
HETATM    6  C   UNL     1      -9.541   6.342  66.811  1.00  0.00    -0.189 A  
HETATM    7  C   UNL     1      -7.580   7.349  65.739  1.00  0.00    -0.090 A  
HETATM    8  C   UNL     1      -8.821   7.484  66.410  1.00  0.00    -0.156 A  
BRANCH   5   9
HETATM    9  C   UNL     1      -9.723   3.815  66.975  1.00  0.00    -0.109 C  
HETATM   10  O   UNL     1     -10.909   3.616  66.754  1.00  0.00     1.866 OA 
BRANCH   9  11
HETATM   11  O   UNL     1      -8.891   2.974  67.637  1.00  0.00    -0.107 OA 
BRANCH  11  12
HETATM   12  C   UNL     1      -9.157   2.872  69.047  1.00  0.00    -0.144 C  
BRANCH  12  13
HETATM   13  C   UNL     1     -10.397   3.691  69.393  1.00  0.00     1.257 C  
BRANCH  13  14
HETATM   14  C   UNL     1     -10.107   4.721  70.486  1.00  0.00    -0.220 C  
BRANCH  14  15
HETATM   15  N   UNL     1     -11.306   5.112  71.257  1.00  0.00     0.369 NA 
HETATM   16  C   UNL     1     -11.739   4.036  72.159  1.00  0.00     1.818 C  
BRANCH  15  17
HETATM   17  C   UNL     1     -11.006   6.364  72.003  1.00  0.00    -0.250 C  
BRANCH  17  18
HETATM   18  C   UNL     1      -9.798   6.255  72.964  1.00  0.00    -0.168 C  
BRANCH  18  19
HETATM   19  N   UNL     1      -8.548   6.916  72.522  1.00  0.00    -0.121 NA 
HETATM   20  C   UNL     1      -7.408   5.998  72.603  1.00  0.00    -0.090 C  
BRANCH  19  21
HETATM   21  C   UNL     1      -8.682   7.405  71.131  1.00  0.00    -0.137 C  
BRANCH  21  22
HETATM   22  C   UNL     1      -8.808   8.928  71.031  1.00  0.00    -0.285 C  
BRANCH  22  23
HETATM   23  C   UNL     1      -9.202   9.373  69.628  1.00  0.00    -0.185 C  
BRANCH  23  24
HETATM   24  O   UNL     1     -10.506   8.860  69.310  1.00  0.00    -0.221 OA 
BRANCH  24  25
HETATM   25  C   UNL     1     -11.550   9.656  69.653  1.00  0.00     0.078 C  
HETATM   26  O   UNL     1     -12.613   9.285  70.124  1.00  0.00     0.396 OA 
BRANCH  25  27
HETATM   27  C   UNL     1     -11.219  11.083  69.398  1.00  0.00    -0.332 A  
HETATM   28  C   UNL     1     -11.693  12.038  70.299  1.00  0.00    -0.267 A  
HETATM   29  C   UNL     1     -11.447  13.394  70.079  1.00  0.00    -0.056 A  
HETATM   30  C   UNL     1     -10.729  13.810  68.931  1.00  0.00    -0.227 A  
HETATM   31  C   UNL     1     -10.473  11.484  68.285  1.00  0.00    -0.219 A  
HETATM   32  C   UNL     1     -10.229  12.842  68.030  1.00  0.00    -0.229 A  
BRANCH  29  33
HETATM   33  O   UNL     1     -11.919  14.380  70.916  1.00  0.00    -0.316 OA 
HETATM   34  C   UNL     1     -11.027  14.827  71.934  1.00  0.00     0.798 C  
ENDBRANCH  29  33
BRANCH  30  35
HETATM   35  O   UNL     1     -10.639  15.173  68.775  1.00  0.00    -0.223 OA 
HETATM   36  C   UNL     1     -11.758  15.869  68.245  1.00  0.00    -0.186 C  
ENDBRANCH  30  35
BRANCH  32  37
HETATM   37  O   UNL     1      -9.548  13.268  66.921  1.00  0.00    -0.234 OA 
HETATM   38  C   UNL     1      -8.144  13.474  67.027  1.00  0.00     0.004 C  
ENDBRANCH  32  37
ENDBRANCH  25  27
ENDBRANCH  24  25
ENDBRANCH  23  24
ENDBRANCH  22  23
ENDBRANCH  21  22
ENDBRANCH  19  21
ENDBRANCH  18  19
ENDBRANCH  17  18
ENDBRANCH  15  17
ENDBRANCH  14  15
ENDBRANCH  13  14
ENDBRANCH  12  13
ENDBRANCH  11  12
ENDBRANCH   9  11
ENDBRANCH   5   9
BRANCH   8  39
HETATM   39  O   UNL     1      -9.489   8.634  66.760  1.00  0.00    -0.162 OA 
HETATM   40  C   UNL     1     -10.376   9.245  65.836  1.00  0.00     0.197 C  
ENDBRANCH   8  39
BRANCH   7  41
HETATM   41  O   UNL     1      -6.952   8.518  65.396  1.00  0.00    -0.075 OA 
HETATM   42  C   UNL     1      -6.663   8.821  64.042  1.00  0.00    -0.083 C  
ENDBRANCH   7  41
ENDBRANCH   2   3
TORSDOF 21
ENDMDL
MODEL      336
REMARK 921   NORMALIZED FREE ENERGY PREDICTED BY IDOCK:    2.40 KCAL/MOL
REMARK 922        TOTAL FREE ENERGY PREDICTED BY IDOCK:    2.49 KCAL/MOL
REMARK 923 INTER-LIGAND FREE ENERGY PREDICTED BY IDOCK:    0.22 KCAL/MOL
REMARK 924 INTRA-LIGAND FREE ENERGY PREDICTED BY IDOCK:    2.27 KCAL/MOL
REMARK 927      BINDING AFFINITY PREDICTED BY RF-SCORE:    0.00 PKD
ROOT
HETATM    1  C   UNL     1      -7.067  19.532  69.608  1.00  0.00    -0.156 C  
HETATM    2  O   UNL     1      -8.100  19.578  68.627  1.00  0.00    -0.352 OA 
ENDROOT
BRANCH   2   3
HETATM    3  C   UNL     1      -8.831  18.430  68.444  1.00  0.00    -0.320 A  
HETATM    4  C   UNL     1      -8.342  17.401  67.629  1.00  0.00    -0.214 A  
HETATM    5  C   UNL     1      -9.064  16.224  67.426  1.00  0.00    -0.203 A  
HETATM    6  C   UNL     1     -10.294  16.067  68.055  1.00  0.00    -0.266 A  
HETATM    7  C   UNL     1     -10.063  18.264  69.119  1.00  0.00    -0.162 A  
HETATM    8  C   UNL     1     -10.797  17.070  68.905  1.00  0.00    -0.228 A  
BRANCH   5   9
HETATM    9  C   UNL     1      -8.453  15.212  66.531  1.00  0.00    -0.114 C  
HETATM   10  O   UNL     1      -7.430  15.430  65.897  1.00  0.00     1.490 OA 
BRANCH   9  11
HETATM   11  O   UNL     1      -9.182  14.070  66.483  1.00  0.00    -0.270 OA 
BRANCH  11  12
HETATM   12  C   UNL     1      -8.904  13.148  67.553  1.00  0.00    -0.199 C  
BRANCH  12  13
HETATM   13  C   UNL     1      -7.550  12.486  67.317  1.00  0.00    -0.131 C  
BRANCH  13  14
HETATM   14  C   UNL     1      -7.602  10.982  67.587  1.00  0.00    -0.104 C  
BRANCH  14  15
HETATM   15  N   UNL     1      -6.788  10.565  68.748  1.00  0.00    -0.057 NA 
HETATM   16  C   UNL     1      -7.050  11.413  69.919  1.00  0.00     0.238 C  
BRANCH  15  17
HETATM   17  C   UNL     1      -7.066   9.132  69.036  1.00  0.00    -0.067 C  
BRANCH  17  18
HETATM   18  C   UNL     1      -8.489   8.671  68.640  1.00  0.00    -0.130 C  
BRANCH  18  19
HETATM   19  N   UNL     1      -9.554   9.698  68.719  1.00  0.00    -0.149 NA 
HETATM   20  C   UNL     1     -10.634   9.414  67.769  1.00  0.00    -0.258 C  
BRANCH  19  21
HETATM   21  C   UNL     1     -10.114   9.764  70.088  1.00  0.00    -0.265 C  
BRANCH  21  22
HETATM   22  C   UNL     1     -10.557   8.401  70.630  1.00  0.00    -0.234 C  
BRANCH  22  23
HETATM   23  C   UNL     1      -9.549   7.831  71.619  1.00  0.00    -0.155 C  
BRANCH  23  24
HETATM   24  O   UNL     1      -9.832   6.440  71.847  1.00  0.00    -0.160 OA 
BRANCH  24  25
HETATM   25  C   UNL     1      -8.749   5.644  72.040  1.00  0.00    -0.134 C  
HETATM   26  O   UNL     1      -8.164   5.471  73.097  1.00  0.00    -0.117 OA 
BRANCH  25  27
HETATM   27  C   UNL     1      -8.367   4.971  70.771  1.00  0.00    -0.107 A  
HETATM   28  C   UNL     1      -9.369   4.336  70.036  1.00  0.00    -0.234 A  
HETATM   29  C   UNL     1      -9.053   3.653  68.862  1.00  0.00    -0.142 A  
HETATM   30  C   UNL     1      -7.711   3.585  68.416  1.00  0.00    -0.056 A  
HETATM   31  C   UNL     1      -7.045   4.945  70.314  1.00  0.00    -0.049 A  
HETATM   32  C   UNL     1      -6.698   4.248  69.147  1.00  0.00    -0.045 A  
BRANCH  29  33
HETATM   33  O   UNL     1      -9.996   2.980  68.117  1.00  0.00     0.148 OA 
HETATM   34  C   UNL     1      -9.907   1.559  68.117  1.00  0.00     0.189 C  
ENDBRANCH  29  33
BRANCH  30  35
HETATM   35  O   UNL     1      -7.514   2.801  67.304  1.00  0.00    -0.063 OA 
HETATM   36  C   UNL     1      -7.895   3.317  66.036  1.00  0.00    -0.085 C  
ENDBRANCH  30  35
BRANCH  32  37
HETATM   37  O   UNL     1      -5.405   4.160  68.704  1.00  0.00    -0.011 OA 
HETATM   38  C   UNL     1      -5.168   3.623  67.408  1.00  0.00    -0.012 C  
ENDBRANCH  32  37
ENDBRANCH  25  27
ENDBRANCH  24  25
ENDBRANCH  23  24
ENDBRANCH  22  23
ENDBRANCH  21  22
ENDBRANCH  19  21
ENDBRANCH  18  19
ENDBRANCH  17  18
ENDBRANCH  15  17
ENDBRANCH  14  15
ENDBRANCH  13  14
ENDBRANCH  12  13
ENDBRANCH  11  12
ENDBRANCH   9  11
ENDBRANCH   5   9
BRANCH   8  39
HETATM   39  O   UNL     1     -12.014  16.703  69.432  1.00  0.00     0.288 OA 
HETATM   40  C   UNL     1     -12.078  15.684  70.417  1.00  0.00    -0.394 C  
ENDBRANCH   8  39
BRANCH   7  41
HETATM   41  O   UNL     1     -10.632  19.176  69.969  1.00  0.00     0.790 OA 
HETATM   42  C   UNL     1     -10.191  19.297  71.311  1.00  0.00     2.718 C  
ENDBRANCH   7  41
ENDBRANCH   2   3
TORSDOF 21
ENDMDL
MODEL      337
REMARK 921   NORMALIZED FREE ENERGY PREDICTED BY IDOCK:    2.58 KCAL/MOL
REMARK 922        TOTAL FREE ENERGY PREDICTED BY IDOCK:    2.89 KCAL/MOL
REMARK 923 INTER-LIGAND FREE ENERGY PREDICTED BY IDOCK:    4.89 KCAL/MOL
REMARK 924 INTRA-LIGAND FREE ENERGY PREDICTED BY IDOCK:   -2.00 KCAL/MOL
REMARK 927      BINDING AFFINITY PREDICTED BY RF-SCORE:    0.00 PKD
ROOT
HETATM    1  C   UNL     1     -10.208  18.572  73.128  1.00  0.00     4.906 C  
HETATM    2  O   UNL     1     -11.434  18.175  72.519  1.00  0.00     1.735 OA 
ENDROOT
BRANCH   2   3
HETATM    3  C   UNL     1     -11.345  17.552  71.298  1.00  0.00     2.134 A  
HETATM    4  C   UNL     1     -11.007  18.282  70.152  1.00  0.00     2.348 A  
HETATM    5  C   UNL     1     -10.910  17.673  68.900  1.00  0.00     0.172 A  
HETATM    6  C   UNL     1     -11.146  16.307  68.791  1.00  0.00    -0.355 A  
HETATM    7  C   UNL     1     -11.549  16.155  71.205  1.00  0.00    -0.413 A  
HETATM    8  C   UNL     1     -11.457  15.541  69.930  1.00  0.00    -0.327 A  
BRANCH   5   9
HETATM    9  C   UNL     1     -10.559  18.551  67.756  1.00  0.00    -0.385 C  
HETATM   10  O   UNL     1     -10.819  19.745  67.744  1.00  0.00    -0.362 OA 
BRANCH   9  11
HETATM   11  O   UNL     1      -9.972  17.860  66.748  1.00  0.00    -0.306 OA 
BRANCH  11  12
HETATM   12  C   UNL     1      -9.297  18.688  65.783  1.00  0.00     0.411 C  
BRANCH  12  13
HETATM   13  C   UNL     1      -7.881  18.986  66.267  1.00  0.00    -0.303 C  
BRANCH  13  14
HETATM   14  C   UNL     1      -7.180  17.725  66.773  1.00  0.00    -0.207 C  
BRANCH  14  15
HETATM   15  N   UNL     1      -5.705  17.807  66.707  1.00  0.00    -0.145 NA 
HETATM   16  C   UNL     1      -5.215  19.088  67.233  1.00  0.00    -0.159 C  
BRANCH  15  17
HETATM   17  C   UNL     1      -5.130  16.653  67.450  1.00  0.00    -0.134 C  
BRANCH  17  18
HETATM   18  C   UNL     1      -6.128  15.497  67.696  1.00  0.00    -0.133 C  
BRANCH  18  19
HETATM   19  N   UNL     1      -5.997  14.784  68.988  1.00  0.00    -0.091 NA 
HETATM   20  C   UNL     1      -5.291  15.607  69.976  1.00  0.00    -0.130 C  
BRANCH  19  21
HETATM   21  C   UNL     1      -7.329  14.419  69.520  1.00  0.00    -0.011 C  
BRANCH  21  22
HETATM   22  C   UNL     1      -7.883  13.118  68.931  1.00  0.00     0.118 C  
BRANCH  22  23
HETATM   23  C   UNL     1      -6.807  12.047  68.811  1.00  0.00    -0.094 C  
BRANCH  23  24
HETATM   24  O   UNL     1      -7.379  10.850  68.258  1.00  0.00    -0.081 OA 
BRANCH  24  25
HETATM   25  C   UNL     1      -6.768   9.690  68.610  1.00  0.00    -0.052 C  
HETATM   26  O   UNL     1      -5.565   9.483  68.607  1.00  0.00    -0.040 OA 
BRANCH  25  27
HETATM   27  C   UNL     1      -7.773   8.681  69.034  1.00  0.00    -0.095 A  
HETATM   28  C   UNL     1      -9.098   9.095  69.180  1.00  0.00    -0.144 A  
HETATM   29  C   UNL     1     -10.071   8.196  69.619  1.00  0.00    -0.199 A  
HETATM   30  C   UNL     1      -9.716   6.862  69.934  1.00  0.00    -0.162 A  
HETATM   31  C   UNL     1      -7.425   7.353  69.303  1.00  0.00    -0.092 A  
HETATM   32  C   UNL     1      -8.380   6.435  69.765  1.00  0.00    -0.127 A  
BRANCH  29  33
HETATM   33  O   UNL     1     -11.384   8.559  69.813  1.00  0.00    -0.059 OA 
HETATM   34  C   UNL     1     -11.609   9.740  70.580  1.00  0.00    -0.292 C  
ENDBRANCH  29  33
BRANCH  30  35
HETATM   35  O   UNL     1     -10.741   6.104  70.450  1.00  0.00    -0.241 OA 
HETATM   36  C   UNL     1     -10.751   5.840  71.846  1.00  0.00    -0.242 C  
ENDBRANCH  30  35
BRANCH  32  37
HETATM   37  O   UNL     1      -8.057   5.144  70.086  1.00  0.00    -0.080 OA 
HETATM   38  C   UNL     1      -7.130   4.451  69.259  1.00  0.00    -0.051 C  
ENDBRANCH  32  37
ENDBRANCH  25  27
ENDBRANCH  24  25
ENDBRANCH  23  24
ENDBRANCH  22  23
ENDBRANCH  21  22
ENDBRANCH  19  21
ENDBRANCH  18  19
ENDBRANCH  17  18
ENDBRANCH  15  17
ENDBRANCH  14  15
ENDBRANCH  13  14
ENDBRANCH  12  13
ENDBRANCH  11  12
ENDBRANCH   9  11
ENDBRANCH   5   9
BRANCH   8  39
HETATM   39  O   UNL     1     -11.634  14.218  69.599  1.00  0.00    -0.266 OA 
HETATM   40  C   UNL     1     -11.297  13.764  68.297  1.00  0.00    -0.285 C  
ENDBRANCH   8  39
BRANCH   7  41
HETATM   41  O   UNL     1     -11.849  15.324  72.252  1.00  0.00    -0.379 OA 
HETATM   42  C   UNL     1     -13.133  15.339  72.851  1.00  0.00    -0.490 C  
ENDBRANCH   7  41
ENDBRANCH   2   3
TORSDOF 21
ENDMDL
MODEL      338
REMARK 921   NORMALIZED FREE ENERGY PREDICTED BY IDOCK:    3.08 KCAL/MOL
REMARK 922        TOTAL FREE ENERGY PREDICTED BY IDOCK:    3.99 KCAL/MOL
REMARK 923 INTER-LIGAND FREE ENERGY PREDICTED BY IDOCK:    2.70 KCAL/MOL
REMARK 924 INTRA-LIGAND FREE ENERGY PREDICTED BY IDOCK:    1.30 KCAL/MOL
REMARK 927      BINDING AFFINITY PREDICTED BY RF-SCORE:    0.00 PKD
ROOT
HETATM    1  C   UNL     1     -10.122  20.655  71.825  1.00  0.00     3.547 C  
HETATM    2  O   UNL     1      -8.886  20.607  71.117  1.00  0.00     1.267 OA 
ENDROOT
BRANCH   2   3
HETATM    3  C   UNL     1      -8.693  19.538  70.278  1.00  0.00     1.474 A  
HETATM    4  C   UNL     1      -9.753  18.674  69.977  1.00  0.00     1.064 A  
HETATM    5  C   UNL     1      -9.586  17.580  69.126  1.00  0.00    -0.050 A  
HETATM    6  C   UNL     1      -8.338  17.349  68.559  1.00  0.00    -0.271 A  
HETATM    7  C   UNL     1      -7.430  19.335  69.675  1.00  0.00     0.089 A  
HETATM    8  C   UNL     1      -7.261  18.218  68.817  1.00  0.00    -0.279 A  
BRANCH   5   9
HETATM    9  C   UNL     1     -10.776  16.726  68.893  1.00  0.00    -0.333 C  
HETATM   10  O   UNL     1     -11.654  16.583  69.732  1.00  0.00    -0.097 OA 
BRANCH   9  11
HETATM   11  O   UNL     1     -10.735  16.116  67.682  1.00  0.00    -0.313 OA 
BRANCH  11  12
HETATM   12  C   UNL     1      -9.510  15.405  67.424  1.00  0.00    -0.205 C  
BRANCH  12  13
HETATM   13  C   UNL     1      -9.733  13.911  67.634  1.00  0.00    -0.226 C  
BRANCH  13  14
HETATM   14  C   UNL     1      -9.796  13.157  66.305  1.00  0.00    -0.283 C  
BRANCH  14  15
HETATM   15  N   UNL     1      -9.974  11.698  66.466  1.00  0.00    -0.199 NA 
HETATM   16  C   UNL     1     -11.304  11.267  66.014  1.00  0.00     0.069 C  
BRANCH  15  17
HETATM   17  C   UNL     1      -8.890  11.001  65.722  1.00  0.00    -0.191 C  
BRANCH  17  18
HETATM   18  C   UNL     1      -7.950  10.157  66.616  1.00  0.00    -0.116 C  
BRANCH  18  19
HETATM   19  N   UNL     1      -7.191   9.083  65.935  1.00  0.00    -0.091 NA 
HETATM   20  C   UNL     1      -7.355   7.800  66.627  1.00  0.00    -0.088 C  
BRANCH  19  21
HETATM   21  C   UNL     1      -7.637   8.940  64.531  1.00  0.00    -0.109 C  
BRANCH  21  22
HETATM   22  C   UNL     1      -6.552   8.388  63.601  1.00  0.00    -0.076 C  
BRANCH  22  23
HETATM   23  C   UNL     1      -7.147   7.753  62.351  1.00  0.00    -0.082 C  
BRANCH  23  24
HETATM   24  O   UNL     1      -7.427   6.366  62.603  1.00  0.00    -0.055 OA 
BRANCH  24  25
HETATM   25  C   UNL     1      -6.449   5.676  63.242  1.00  0.00    -0.028 C  
HETATM   26  O   UNL     1      -5.329   5.452  62.813  1.00  0.00    -0.013 OA 
BRANCH  25  27
HETATM   27  C   UNL     1      -6.918   5.233  64.582  1.00  0.00    -0.049 A  
HETATM   28  C   UNL     1      -8.256   4.862  64.720  1.00  0.00    -0.126 A  
HETATM   29  C   UNL     1      -8.754   4.482  65.967  1.00  0.00    -0.115 A  
HETATM   30  C   UNL     1      -7.909   4.487  67.103  1.00  0.00    -0.097 A  
HETATM   31  C   UNL     1      -6.067   5.199  65.692  1.00  0.00    -0.033 A  
HETATM   32  C   UNL     1      -6.548   4.841  66.960  1.00  0.00    -0.050 A  
BRANCH  29  33
HETATM   33  O   UNL     1     -10.072   4.139  66.167  1.00  0.00    -0.206 OA 
HETATM   34  C   UNL     1     -10.988   4.520  65.145  1.00  0.00     0.021 C  
ENDBRANCH  29  33
BRANCH  30  35
HETATM   35  O   UNL     1      -8.540   4.190  68.288  1.00  0.00    -0.092 OA 
HETATM   36  C   UNL     1      -8.401   2.880  68.820  1.00  0.00    -0.064 C  
ENDBRANCH  30  35
BRANCH  32  37
HETATM   37  O   UNL     1      -5.751   4.849  68.074  1.00  0.00    -0.016 OA 
HETATM   38  C   UNL     1      -5.583   6.075  68.777  1.00  0.00    -0.011 C  
ENDBRANCH  32  37
ENDBRANCH  25  27
ENDBRANCH  24  25
ENDBRANCH  23  24
ENDBRANCH  22  23
ENDBRANCH  21  22
ENDBRANCH  19  21
ENDBRANCH  18  19
ENDBRANCH  17  18
ENDBRANCH  15  17
ENDBRANCH  14  15
ENDBRANCH  13  14
ENDBRANCH  12  13
ENDBRANCH  11  12
ENDBRANCH   9  11
ENDBRANCH   5   9
BRANCH   8  39
HETATM   39  O   UNL     1      -6.131  17.814  68.145  1.00  0.00    -0.167 OA 
HETATM   40  C   UNL     1      -5.751  18.470  66.945  1.00  0.00    -0.146 C  
ENDBRANCH   8  39
BRANCH   7  41
HETATM   41  O   UNL     1      -6.327  20.125  69.858  1.00  0.00    -0.348 OA 
HETATM   42  C   UNL     1      -5.150  19.609  70.457  1.00  0.00    -0.203 C  
ENDBRANCH   7  41
ENDBRANCH   2   3
TORSDOF 21
ENDMDL
MODEL      339
REMARK 921   NORMALIZED FREE ENERGY PREDICTED BY IDOCK:    3.11 KCAL/MOL
REMARK 922        TOTAL FREE ENERGY PREDICTED BY IDOCK:    4.06 KCAL/MOL
REMARK 923 INTER-LIGAND FREE ENERGY PREDICTED BY IDOCK:    0.13 KCAL/MOL
REMARK 924 INTRA-LIGAND FREE ENERGY PREDICTED BY IDOCK:    3.93 KCAL/MOL
REMARK 927      BINDING AFFINITY PREDICTED BY RF-SCORE:    0.00 PKD
ROOT
HETATM    1  C   UNL     1      -7.047  19.589  69.608  1.00  0.00    -0.156 C  
HETATM    2  O   UNL     1      -8.111  19.574  68.659  1.00  0.00    -0.352 OA 
ENDROOT
BRANCH   2   3
HETATM    3  C   UNL     1      -8.759  18.377  68.474  1.00  0.00    -0.315 A  
HETATM    4  C   UNL     1      -8.183  17.374  67.686  1.00  0.00    -0.210 A  
HETATM    5  C   UNL     1      -8.819  16.149  67.483  1.00  0.00    -0.198 A  
HETATM    6  C   UNL     1     -10.051  15.918  68.084  1.00  0.00    -0.229 A  
HETATM    7  C   UNL     1      -9.993  18.138  69.122  1.00  0.00    -0.189 A  
HETATM    8  C   UNL     1     -10.641  16.895  68.907  1.00  0.00    -0.353 A  
BRANCH   5   9
HETATM    9  C   UNL     1      -8.119  15.168  66.616  1.00  0.00     0.037 C  
HETATM   10  O   UNL     1      -7.115  15.455  65.981  1.00  0.00     1.509 OA 
BRANCH   9  11
HETATM   11  O   UNL     1      -8.751  13.968  66.596  1.00  0.00    -0.159 OA 
BRANCH  11  12
HETATM   12  C   UNL     1      -8.361  13.080  67.660  1.00  0.00    -0.181 C  
BRANCH  12  13
HETATM   13  C   UNL     1      -6.927  12.610  67.434  1.00  0.00    -0.143 C  
BRANCH  13  14
HETATM   14  C   UNL     1      -6.785  11.104  67.656  1.00  0.00    -0.071 C  
BRANCH  14  15
HETATM   15  N   UNL     1      -6.045  10.759  68.889  1.00  0.00    -0.040 NA 
HETATM   16  C   UNL     1      -6.583  11.474  70.054  1.00  0.00     0.004 C  
BRANCH  15  17
HETATM   17  C   UNL     1      -6.097   9.284  69.079  1.00  0.00    -0.043 C  
BRANCH  17  18
HETATM   18  C   UNL     1      -7.312   8.601  68.408  1.00  0.00    -0.086 C  
BRANCH  18  19
HETATM   19  N   UNL     1      -7.662   9.077  67.049  1.00  0.00    -0.097 NA 
HETATM   20  C   UNL     1      -7.968   7.953  66.158  1.00  0.00    -0.104 C  
BRANCH  19  21
HETATM   21  C   UNL     1      -8.826   9.990  67.101  1.00  0.00    -0.135 C  
BRANCH  21  22
HETATM   22  C   UNL     1     -10.087   9.335  67.675  1.00  0.00    -0.266 C  
BRANCH  22  23
HETATM   23  C   UNL     1     -10.453   9.910  69.037  1.00  0.00    -0.210 C  
BRANCH  23  24
HETATM   24  O   UNL     1     -11.440   9.073  69.662  1.00  0.00     0.024 OA 
BRANCH  24  25
HETATM   25  C   UNL     1     -11.432   9.069  71.019  1.00  0.00    -0.295 C  
HETATM   26  O   UNL     1     -12.085   9.802  71.744  1.00  0.00    -0.390 OA 
BRANCH  25  27
HETATM   27  C   UNL     1     -10.518   8.013  71.529  1.00  0.00    -0.265 A  
HETATM   28  C   UNL     1     -10.580   6.749  70.939  1.00  0.00    -0.252 A  
HETATM   29  C   UNL     1      -9.775   5.713  71.412  1.00  0.00    -0.162 A  
HETATM   30  C   UNL     1      -8.901   5.932  72.505  1.00  0.00    -0.132 A  
HETATM   31  C   UNL     1      -9.626   8.247  72.581  1.00  0.00    -0.352 A  
HETATM   32  C   UNL     1      -8.820   7.217  73.089  1.00  0.00    -0.140 A  
BRANCH  29  33
HETATM   33  O   UNL     1      -9.820   4.440  70.891  1.00  0.00    -0.183 OA 
HETATM   34  C   UNL     1     -10.754   4.219  69.838  1.00  0.00     1.554 C  
ENDBRANCH  29  33
BRANCH  30  35
HETATM   35  O   UNL     1      -8.236   4.811  72.941  1.00  0.00    -0.100 OA 
HETATM   36  C   UNL     1      -7.113   4.358  72.199  1.00  0.00    -0.060 C  
ENDBRANCH  30  35
BRANCH  32  37
HETATM   37  O   UNL     1      -7.977   7.404  74.151  1.00  0.00    -0.124 OA 
HETATM   38  C   UNL     1      -7.053   6.371  74.472  1.00  0.00    -0.089 C  
ENDBRANCH  32  37
ENDBRANCH  25  27
ENDBRANCH  24  25
ENDBRANCH  23  24
ENDBRANCH  22  23
ENDBRANCH  21  22
ENDBRANCH  19  21
ENDBRANCH  18  19
ENDBRANCH  17  18
ENDBRANCH  15  17
ENDBRANCH  14  15
ENDBRANCH  13  14
ENDBRANCH  12  13
ENDBRANCH  11  12
ENDBRANCH   9  11
ENDBRANCH   5   9
BRANCH   8  39
HETATM   39  O   UNL     1     -11.843  16.454  69.410  1.00  0.00    -0.124 OA 
HETATM   40  C   UNL     1     -11.864  15.447  70.409  1.00  0.00    -0.335 C  
ENDBRANCH   8  39
BRANCH   7  41
HETATM   41  O   UNL     1     -10.642  19.020  69.945  1.00  0.00     0.725 OA 
HETATM   42  C   UNL     1     -10.242  19.190  71.294  1.00  0.00     2.814 C  
ENDBRANCH   7  41
ENDBRANCH   2   3
TORSDOF 21
ENDMDL
MODEL      340
REMARK 921   NORMALIZED FREE ENERGY PREDICTED BY IDOCK:    3.45 KCAL/MOL
REMARK 922        TOTAL FREE ENERGY PREDICTED BY IDOCK:    4.83 KCAL/MOL
REMARK 923 INTER-LIGAND FREE ENERGY PREDICTED BY IDOCK:   -4.44 KCAL/MOL
REMARK 924 INTRA-LIGAND FREE ENERGY PREDICTED BY IDOCK:    9.27 KCAL/MOL
REMARK 927      BINDING AFFINITY PREDICTED BY RF-SCORE:    0.00 PKD
ROOT
HETATM    1  C   UNL     1     -13.056   3.810  72.987  1.00  0.00     1.977 C  
HETATM    2  O   UNL     1     -12.625   5.061  73.518  1.00  0.00     0.695 OA 
ENDROOT
BRANCH   2   3
HETATM    3  C   UNL     1     -11.875   5.860  72.691  1.00  0.00    -0.141 A  
HETATM    4  C   UNL     1     -12.377   7.089  72.246  1.00  0.00    -0.128 A  
HETATM    5  C   UNL     1     -11.636   7.921  71.406  1.00  0.00    -0.304 A  
HETATM    6  C   UNL     1     -10.365   7.521  71.007  1.00  0.00    -0.204 A  
HETATM    7  C   UNL     1     -10.569   5.462  72.323  1.00  0.00    -0.225 A  
HETATM    8  C   UNL     1      -9.821   6.305  71.463  1.00  0.00    -0.173 A  
BRANCH   5   9
HETATM    9  C   UNL     1     -12.277   9.192  70.988  1.00  0.00    -0.242 C  
HETATM   10  O   UNL     1     -13.094   9.773  71.688  1.00  0.00    -0.361 OA 
BRANCH   9  11
HETATM   11  O   UNL     1     -11.877   9.580  69.752  1.00  0.00     0.054 OA 
BRANCH  11  12
HETATM   12  C   UNL     1     -12.078  10.979  69.482  1.00  0.00    -0.329 C  
BRANCH  12  13
HETATM   13  C   UNL     1     -12.170  11.746  70.798  1.00  0.00    -0.424 C  
BRANCH  13  14
HETATM   14  C   UNL     1     -12.071  13.256  70.580  1.00  0.00    -0.314 C  
BRANCH  14  15
HETATM   15  N   UNL     1     -11.318  13.626  69.363  1.00  0.00    -0.261 NA 
HETATM   16  C   UNL     1     -10.664  12.456  68.761  1.00  0.00    -0.209 C  
BRANCH  15  17
HETATM   17  C   UNL     1     -12.249  14.286  68.408  1.00  0.00    -0.162 C  
BRANCH  17  18
HETATM   18  C   UNL     1     -11.847  14.131  66.922  1.00  0.00    -0.431 C  
BRANCH  18  19
HETATM   19  N   UNL     1     -11.378  12.787  66.508  1.00  0.00    -0.305 NA 
HETATM   20  C   UNL     1     -12.205  12.251  65.423  1.00  0.00    -0.208 C  
BRANCH  19  21
HETATM   21  C   UNL     1      -9.967  12.841  66.065  1.00  0.00    -0.271 C  
BRANCH  21  22
HETATM   22  C   UNL     1      -9.068  11.820  66.770  1.00  0.00    -0.194 C  
BRANCH  22  23
HETATM   23  C   UNL     1      -9.166  10.442  66.128  1.00  0.00    -0.168 C  
BRANCH  23  24
HETATM   24  O   UNL     1      -9.882  10.540  64.886  1.00  0.00    -0.265 OA 
BRANCH  24  25
HETATM   25  C   UNL     1      -9.156  10.281  63.769  1.00  0.00    -0.256 C  
HETATM   26  O   UNL     1      -9.242  10.870  62.703  1.00  0.00    -0.284 OA 
BRANCH  25  27
HETATM   27  C   UNL     1      -8.197   9.173  64.018  1.00  0.00    -0.168 A  
HETATM   28  C   UNL     1      -8.072   8.180  63.045  1.00  0.00    -0.135 A  
HETATM   29  C   UNL     1      -7.219   7.097  63.252  1.00  0.00    -0.071 A  
HETATM   30  C   UNL     1      -6.485   6.989  64.459  1.00  0.00    -0.036 A  
HETATM   31  C   UNL     1      -7.443   9.095  65.194  1.00  0.00    -0.097 A  
HETATM   32  C   UNL     1      -6.593   8.005  65.436  1.00  0.00    -0.048 A  
BRANCH  29  33
HETATM   33  O   UNL     1      -7.083   6.073  62.342  1.00  0.00    -0.039 OA 
HETATM   34  C   UNL     1      -7.393   4.763  62.811  1.00  0.00    -0.043 C  
ENDBRANCH  29  33
BRANCH  30  35
HETATM   35  O   UNL     1      -5.759   5.829  64.587  1.00  0.00    -0.022 OA 
HETATM   36  C   UNL     1      -6.215   4.840  65.500  1.00  0.00    -0.034 C  
ENDBRANCH  30  35
BRANCH  32  37
HETATM   37  O   UNL     1      -5.884   7.875  66.600  1.00  0.00    -0.041 OA 
HETATM   38  C   UNL     1      -6.000   8.898  67.581  1.00  0.00    -0.047 C  
ENDBRANCH  32  37
ENDBRANCH  25  27
ENDBRANCH  24  25
ENDBRANCH  23  24
ENDBRANCH  22  23
ENDBRANCH  21  22
ENDBRANCH  19  21
ENDBRANCH  18  19
ENDBRANCH  17  18
ENDBRANCH  15  17
ENDBRANCH  14  15
ENDBRANCH  13  14
ENDBRANCH  12  13
ENDBRANCH  11  12
ENDBRANCH   9  11
ENDBRANCH   5   9
BRANCH   8  39
HETATM   39  O   UNL     1      -8.554   6.116  70.962  1.00  0.00    -0.129 OA 
HETATM   40  C   UNL     1      -8.050   6.992  69.966  1.00  0.00    -0.128 C  
ENDBRANCH   8  39
BRANCH   7  41
HETATM   41  O   UNL     1      -9.950   4.305  72.717  1.00  0.00    -0.141 OA 
HETATM   42  C   UNL     1      -9.949   3.906  74.078  1.00  0.00    -0.132 C  
ENDBRANCH   7  41
ENDBRANCH   2   3
TORSDOF 21
ENDMDL
MODEL      341
REMARK 921   NORMALIZED FREE ENERGY PREDICTED BY IDOCK:    3.46 KCAL/MOL
REMARK 922        TOTAL FREE ENERGY PREDICTED BY IDOCK:    4.86 KCAL/MOL
REMARK 923 INTER-LIGAND FREE ENERGY PREDICTED BY IDOCK:    0.42 KCAL/MOL
REMARK 924 INTRA-LIGAND FREE ENERGY PREDICTED BY IDOCK:    4.44 KCAL/MOL
REMARK 927      BINDING AFFINITY PREDICTED BY RF-SCORE:    0.00 PKD
ROOT
HETATM    1  C   UNL     1      -9.473   8.716  74.276  1.00  0.00     2.709 C  
HETATM    2  O   UNL     1      -9.150   8.353  72.935  1.00  0.00    -0.254 OA 
ENDROOT
BRANCH   2   3
HETATM    3  C   UNL     1     -10.075   7.595  72.260  1.00  0.00    -0.208 A  
HETATM    4  C   UNL     1      -9.741   6.316  71.798  1.00  0.00    -0.168 A  
HETATM    5  C   UNL     1     -10.662   5.524  71.109  1.00  0.00    -0.280 A  
HETATM    6  C   UNL     1     -11.943   6.016  70.884  1.00  0.00     0.238 A  
HETATM    7  C   UNL     1     -11.386   8.089  72.071  1.00  0.00    -0.302 A  
HETATM    8  C   UNL     1     -12.317   7.285  71.364  1.00  0.00    -0.368 A  
BRANCH   5   9
HETATM    9  C   UNL     1     -10.191   4.193  70.655  1.00  0.00     0.139 C  
HETATM   10  O   UNL     1     -10.272   3.195  71.357  1.00  0.00     0.001 OA 
BRANCH   9  11
HETATM   11  O   UNL     1      -9.639   4.244  69.417  1.00  0.00    -0.172 OA 
BRANCH  11  12
HETATM   12  C   UNL     1      -8.221   4.489  69.416  1.00  0.00    -0.068 C  
BRANCH  12  13
HETATM   13  C   UNL     1      -7.894   5.595  68.416  1.00  0.00    -0.092 C  
BRANCH  13  14
HETATM   14  C   UNL     1      -6.564   6.275  68.740  1.00  0.00    -0.055 C  
BRANCH  14  15
HETATM   15  N   UNL     1      -5.675   6.417  67.567  1.00  0.00    -0.012 NA 
HETATM   16  C   UNL     1      -6.279   5.831  66.364  1.00  0.00    -0.034 C  
BRANCH  15  17
HETATM   17  C   UNL     1      -5.362   7.858  67.377  1.00  0.00    -0.032 C  
BRANCH  17  18
HETATM   18  C   UNL     1      -6.532   8.690  66.799  1.00  0.00    -0.060 C  
BRANCH  18  19
HETATM   19  N   UNL     1      -7.102   9.725  67.692  1.00  0.00    -0.087 NA 
HETATM   20  C   UNL     1      -6.149  10.098  68.743  1.00  0.00    -0.047 C  
BRANCH  19  21
HETATM   21  C   UNL     1      -7.473  10.932  66.920  1.00  0.00    -0.128 C  
BRANCH  21  22
HETATM   22  C   UNL     1      -7.681  12.173  67.794  1.00  0.00    -0.139 C  
BRANCH  22  23
HETATM   23  C   UNL     1      -8.814  11.979  68.793  1.00  0.00     0.086 C  
BRANCH  23  24
HETATM   24  O   UNL     1      -9.385  10.671  68.625  1.00  0.00    -0.161 OA 
BRANCH  24  25
HETATM   25  C   UNL     1     -10.674  10.642  68.204  1.00  0.00    -0.225 C  
HETATM   26  O   UNL     1     -11.488   9.763  68.439  1.00  0.00    -0.001 OA 
BRANCH  25  27
HETATM   27  C   UNL     1     -10.990  11.863  67.417  1.00  0.00    -0.315 A  
HETATM   28  C   UNL     1     -11.805  11.727  66.292  1.00  0.00     0.027 A  
HETATM   29  C   UNL     1     -12.094  12.835  65.496  1.00  0.00    -0.465 A  
HETATM   30  C   UNL     1     -11.548  14.103  65.814  1.00  0.00    -0.343 A  
HETATM   31  C   UNL     1     -10.483  13.120  67.762  1.00  0.00    -0.232 A  
HETATM   32  C   UNL     1     -10.741  14.246  66.966  1.00  0.00    -0.290 A  
BRANCH  29  33
HETATM   33  O   UNL     1     -12.863  12.752  64.357  1.00  0.00    -0.700 OA 
HETATM   34  C   UNL     1     -12.966  11.465  63.755  1.00  0.00     0.673 C  
ENDBRANCH  29  33
BRANCH  30  35
HETATM   35  O   UNL     1     -11.823  15.091  64.900  1.00  0.00    -0.362 OA 
HETATM   36  C   UNL     1     -12.848  16.028  65.203  1.00  0.00     2.251 C  
ENDBRANCH  30  35
BRANCH  32  37
HETATM   37  O   UNL     1     -10.215  15.478  67.249  1.00  0.00    -0.251 OA 
HETATM   38  C   UNL     1      -8.843  15.713  66.953  1.00  0.00    -0.250 C  
ENDBRANCH  32  37
ENDBRANCH  25  27
ENDBRANCH  24  25
ENDBRANCH  23  24
ENDBRANCH  22  23
ENDBRANCH  21  22
ENDBRANCH  19  21
ENDBRANCH  18  19
ENDBRANCH  17  18
ENDBRANCH  15  17
ENDBRANCH  14  15
ENDBRANCH  13  14
ENDBRANCH  12  13
ENDBRANCH  11  12
ENDBRANCH   9  11
ENDBRANCH   5   9
BRANCH   8  39
HETATM   39  O   UNL     1     -13.626   7.565  71.046  1.00  0.00    -0.207 OA 
HETATM   40  C   UNL     1     -13.987   8.870  70.623  1.00  0.00     0.638 C  
ENDBRANCH   8  39
BRANCH   7  41
HETATM   41  O   UNL     1     -11.848   9.304  72.504  1.00  0.00    -0.074 OA 
HETATM   42  C   UNL     1     -13.221   9.501  72.794  1.00  0.00     0.041 C  
ENDBRANCH   7  41
ENDBRANCH   2   3
TORSDOF 21
ENDMDL
MODEL      342
REMARK 921   NORMALIZED FREE ENERGY PREDICTED BY IDOCK:    4.69 KCAL/MOL
REMARK 922        TOTAL FREE ENERGY PREDICTED BY IDOCK:    7.60 KCAL/MOL
REMARK 923 INTER-LIGAND FREE ENERGY PREDICTED BY IDOCK:    2.00 KCAL/MOL
REMARK 924 INTRA-LIGAND FREE ENERGY PREDICTED BY IDOCK:    5.60 KCAL/MOL
REMARK 927      BINDING AFFINITY PREDICTED BY RF-SCORE:    0.00 PKD
ROOT
HETATM    1  C   UNL     1     -11.828   5.435  65.807  1.00  0.00     2.215 C  
HETATM    2  O   UNL     1     -11.337   5.913  67.057  1.00  0.00    -0.034 OA 
ENDROOT
BRANCH   2   3
HETATM    3  C   UNL     1     -10.223   5.291  67.564  1.00  0.00    -0.178 A  
HETATM    4  C   UNL     1      -9.756   5.606  68.846  1.00  0.00    -0.181 A  
HETATM    5  C   UNL     1      -8.627   4.988  69.385  1.00  0.00    -0.097 A  
HETATM    6  C   UNL     1      -7.955   4.032  68.632  1.00  0.00    -0.071 A  
HETATM    7  C   UNL     1      -9.569   4.292  66.806  1.00  0.00    -0.202 A  
HETATM    8  C   UNL     1      -8.418   3.671  67.353  1.00  0.00    -0.096 A  
BRANCH   5   9
HETATM    9  C   UNL     1      -8.218   5.413  70.746  1.00  0.00    -0.115 C  
HETATM   10  O   UNL     1      -8.787   5.017  71.754  1.00  0.00    -0.130 OA 
BRANCH   9  11
HETATM   11  O   UNL     1      -7.193   6.300  70.715  1.00  0.00    -0.071 OA 
BRANCH  11  12
HETATM   12  C   UNL     1      -6.923   6.931  71.980  1.00  0.00    -0.069 C  
BRANCH  12  13
HETATM   13  C   UNL     1      -7.858   8.122  72.168  1.00  0.00    -0.160 C  
BRANCH  13  14
HETATM   14  C   UNL     1      -8.604   8.463  70.878  1.00  0.00    -0.146 C  
BRANCH  14  15
HETATM   15  N   UNL     1      -7.846   9.361  69.981  1.00  0.00    -0.113 NA 
HETATM   16  C   UNL     1      -6.533   8.796  69.641  1.00  0.00    -0.039 C  
BRANCH  15  17
HETATM   17  C   UNL     1      -8.662   9.622  68.766  1.00  0.00    -0.126 C  
BRANCH  17  18
HETATM   18  C   UNL     1      -7.967   9.233  67.440  1.00  0.00    -0.106 C  
BRANCH  18  19
HETATM   19  N   UNL     1      -7.347  10.342  66.677  1.00  0.00    -0.109 NA 
HETATM   20  C   UNL     1      -5.968  10.017  66.299  1.00  0.00    -0.067 C  
BRANCH  19  21
HETATM   21  C   UNL     1      -8.130  10.635  65.456  1.00  0.00    -0.129 C  
BRANCH  21  22
HETATM   22  C   UNL     1      -8.557  12.102  65.344  1.00  0.00     0.854 C  
BRANCH  22  23
HETATM   23  C   UNL     1      -7.904  12.965  66.416  1.00  0.00     0.942 C  
BRANCH  23  24
HETATM   24  O   UNL     1      -7.654  12.170  67.587  1.00  0.00    -0.119 OA 
BRANCH  24  25
HETATM   25  C   UNL     1      -7.926  12.769  68.773  1.00  0.00     0.069 C  
HETATM   26  O   UNL     1      -7.128  12.984  69.671  1.00  0.00     0.160 OA 
BRANCH  25  27
HETATM   27  C   UNL     1      -9.358  13.166  68.837  1.00  0.00     0.261 A  
HETATM   28  C   UNL     1      -9.661  14.528  68.863  1.00  0.00    -0.169 A  
HETATM   29  C   UNL     1     -10.987  14.950  68.967  1.00  0.00    -0.245 A  
HETATM   30  C   UNL     1     -12.032  13.999  69.064  1.00  0.00    -0.357 A  
HETATM   31  C   UNL     1     -10.388  12.222  68.889  1.00  0.00    -0.085 A  
HETATM   32  C   UNL     1     -11.727  12.620  69.015  1.00  0.00    -0.318 A  
BRANCH  29  33
HETATM   33  O   UNL     1     -11.340  16.279  69.031  1.00  0.00    -0.331 OA 
HETATM   34  C   UNL     1     -11.328  16.998  67.801  1.00  0.00     0.212 C  
ENDBRANCH  29  33
BRANCH  30  35
HETATM   35  O   UNL     1     -13.281  14.538  69.263  1.00  0.00     0.890 OA 
HETATM   36  C   UNL     1     -13.474  15.407  70.370  1.00  0.00     0.122 C  
ENDBRANCH  30  35
BRANCH  32  37
HETATM   37  O   UNL     1     -12.752  11.718  69.122  1.00  0.00     0.126 OA 
HETATM   38  C   UNL     1     -12.444  10.388  69.523  1.00  0.00     0.205 C  
ENDBRANCH  32  37
ENDBRANCH  25  27
ENDBRANCH  24  25
ENDBRANCH  23  24
ENDBRANCH  22  23
ENDBRANCH  21  22
ENDBRANCH  19  21
ENDBRANCH  18  19
ENDBRANCH  17  18
ENDBRANCH  15  17
ENDBRANCH  14  15
ENDBRANCH  13  14
ENDBRANCH  12  13
ENDBRANCH  11  12
ENDBRANCH   9  11
ENDBRANCH   5   9
BRANCH   8  39
HETATM   39  O   UNL     1      -7.618   2.701  66.796  1.00  0.00    -0.069 OA 
HETATM   40  C   UNL     1      -7.407   1.478  67.484  1.00  0.00    -0.053 C  
ENDBRANCH   8  39
BRANCH   7  41
HETATM   41  O   UNL     1      -9.945   3.868  65.558  1.00  0.00    -0.178 OA 
HETATM   42  C   UNL     1      -9.772   4.698  64.422  1.00  0.00     0.104 C  
ENDBRANCH   7  41
ENDBRANCH   2   3
TORSDOF 21
ENDMDL
MODEL      343
REMARK 921   NORMALIZED FREE ENERGY PREDICTED BY IDOCK:    5.10 KCAL/MOL
REMARK 922        TOTAL FREE ENERGY PREDICTED BY IDOCK:    8.50 KCAL/MOL
REMARK 923 INTER-LIGAND FREE ENERGY PREDICTED BY IDOCK:   -2.89 KCAL/MOL
REMARK 924 INTRA-LIGAND FREE ENERGY PREDICTED BY IDOCK:   11.39 KCAL/MOL
REMARK 927      BINDING AFFINITY PREDICTED BY RF-SCORE:    0.00 PKD
ROOT
HETATM    1  C   UNL     1      -9.710   9.839  63.767  1.00  0.00     0.356 C  
HETATM    2  O   UNL     1      -8.885   8.764  64.211  1.00  0.00    -0.078 OA 
ENDROOT
BRANCH   2   3
HETATM    3  C   UNL     1      -8.840   8.536  65.564  1.00  0.00    -0.154 A  
HETATM    4  C   UNL     1      -8.594   9.591  66.452  1.00  0.00    -0.143 A  
HETATM    5  C   UNL     1      -8.543   9.387  67.832  1.00  0.00    -0.120 A  
HETATM    6  C   UNL     1      -8.750   8.108  68.336  1.00  0.00    -0.134 A  
HETATM    7  C   UNL     1      -9.090   7.239  66.069  1.00  0.00    -0.075 A  
HETATM    8  C   UNL     1      -9.030   7.034  67.470  1.00  0.00    -0.117 A  
BRANCH   5   9
HETATM    9  C   UNL     1      -8.261  10.577  68.673  1.00  0.00    -0.130 C  
HETATM   10  O   UNL     1      -8.892  10.824  69.691  1.00  0.00     0.031 OA 
BRANCH   9  11
HETATM   11  O   UNL     1      -7.272  11.344  68.151  1.00  0.00    -0.075 OA 
BRANCH  11  12
HETATM   12  C   UNL     1      -6.820  12.394  69.026  1.00  0.00    -0.093 C  
BRANCH  12  13
HETATM   13  C   UNL     1      -5.675  13.154  68.362  1.00  0.00    -0.081 C  
BRANCH  13  14
HETATM   14  C   UNL     1      -6.186  14.325  67.523  1.00  0.00     0.035 C  
BRANCH  14  15
HETATM   15  N   UNL     1      -6.235  15.603  68.266  1.00  0.00    -0.109 NA 
HETATM   16  C   UNL     1      -5.125  16.487  67.886  1.00  0.00    -0.114 C  
BRANCH  15  17
HETATM   17  C   UNL     1      -7.555  16.245  68.023  1.00  0.00    -0.136 C  
BRANCH  17  18
HETATM   18  C   UNL     1      -8.373  16.517  69.308  1.00  0.00    -0.062 C  
BRANCH  18  19
HETATM   19  N   UNL     1      -9.707  15.877  69.382  1.00  0.00    -0.262 NA 
HETATM   20  C   UNL     1      -9.695  14.734  70.300  1.00  0.00     0.718 C  
BRANCH  19  21
HETATM   21  C   UNL     1     -10.728  16.851  69.830  1.00  0.00    -0.081 C  
BRANCH  21  22
HETATM   22  C   UNL     1     -11.239  16.586  71.249  1.00  0.00     0.084 C  
BRANCH  22  23
HETATM   23  C   UNL     1     -10.998  15.145  71.679  1.00  0.00     0.041 C  
BRANCH  23  24
HETATM   24  O   UNL     1     -11.303  14.260  70.587  1.00  0.00    -0.144 OA 
BRANCH  24  25
HETATM   25  C   UNL     1     -12.476  14.500  69.948  1.00  0.00    -0.252 C  
HETATM   26  O   UNL     1     -13.551  14.724  70.479  1.00  0.00    -0.125 OA 
BRANCH  25  27
HETATM   27  C   UNL     1     -12.277  14.479  68.475  1.00  0.00    -0.164 A  
HETATM   28  C   UNL     1     -12.406  13.258  67.812  1.00  0.00     0.037 A  
HETATM   29  C   UNL     1     -12.185  13.178  66.437  1.00  0.00    -0.329 A  
HETATM   30  C   UNL     1     -11.812  14.333  65.708  1.00  0.00    -0.374 A  
HETATM   31  C   UNL     1     -11.951  15.632  67.753  1.00  0.00     0.259 A  
HETATM   32  C   UNL     1     -11.704  15.575  66.373  1.00  0.00     0.327 A  
BRANCH  29  33
HETATM   33  O   UNL     1     -12.264  11.994  65.739  1.00  0.00    -0.520 OA 
HETATM   34  C   UNL     1     -11.037  11.469  65.240  1.00  0.00    -0.191 C  
ENDBRANCH  29  33
BRANCH  30  35
HETATM   35  O   UNL     1     -11.526  14.107  64.382  1.00  0.00    -0.377 OA 
HETATM   36  C   UNL     1     -12.572  13.663  63.530  1.00  0.00     0.092 C  
ENDBRANCH  30  35
BRANCH  32  37
HETATM   37  O   UNL     1     -11.332  16.677  65.651  1.00  0.00     0.209 OA 
HETATM   38  C   UNL     1     -10.246  17.464  66.126  1.00  0.00    -0.328 C  
ENDBRANCH  32  37
ENDBRANCH  25  27
ENDBRANCH  24  25
ENDBRANCH  23  24
ENDBRANCH  22  23
ENDBRANCH  21  22
ENDBRANCH  19  21
ENDBRANCH  18  19
ENDBRANCH  17  18
ENDBRANCH  15  17
ENDBRANCH  14  15
ENDBRANCH  13  14
ENDBRANCH  12  13
ENDBRANCH  11  12
ENDBRANCH   9  11
ENDBRANCH   5   9
BRANCH   8  39
HETATM   39  O   UNL     1      -9.215   5.868  68.177  1.00  0.00    -0.117 OA 
HETATM   40  C   UNL     1     -10.362   5.715  68.999  1.00  0.00    -0.243 C  
ENDBRANCH   8  39
BRANCH   7  41
HETATM   41  O   UNL     1      -9.377   6.134  65.311  1.00  0.00     0.197 OA 
HETATM   42  C   UNL     1      -8.343   5.301  64.815  1.00  0.00    -0.145 C  
ENDBRANCH   7  41
ENDBRANCH   2   3
TORSDOF 21
ENDMDL
MODEL      344
REMARK 921   NORMALIZED FREE ENERGY PREDICTED BY IDOCK:    5.60 KCAL/MOL
REMARK 922        TOTAL FREE ENERGY PREDICTED BY IDOCK:    9.63 KCAL/MOL
REMARK 923 INTER-LIGAND FREE ENERGY PREDICTED BY IDOCK:    7.06 KCAL/MOL
REMARK 924 INTRA-LIGAND FREE ENERGY PREDICTED BY IDOCK:    2.57 KCAL/MOL
REMARK 927      BINDING AFFINITY PREDICTED BY RF-SCORE:    0.00 PKD
ROOT
HETATM    1  C   UNL     1     -13.642   8.611  72.381  1.00  0.00    -0.343 C  
HETATM    2  O   UNL     1     -13.127   8.663  71.053  1.00  0.00    -0.110 OA 
ENDROOT
BRANCH   2   3
HETATM    3  C   UNL     1     -11.869   9.189  70.896  1.00  0.00    -0.270 A  
HETATM    4  C   UNL     1     -11.660  10.294  70.061  1.00  0.00    -0.349 A  
HETATM    5  C   UNL     1     -10.392  10.848  69.886  1.00  0.00     0.134 A  
HETATM    6  C   UNL     1      -9.311  10.293  70.562  1.00  0.00     0.705 A  
HETATM    7  C   UNL     1     -10.783   8.642  71.619  1.00  0.00    -0.303 A  
HETATM    8  C   UNL     1      -9.494   9.203  71.433  1.00  0.00    -0.209 A  
BRANCH   5   9
HETATM    9  C   UNL     1     -10.291  12.007  68.965  1.00  0.00    -0.013 C  
HETATM   10  O   UNL     1     -10.238  11.876  67.751  1.00  0.00    -0.193 OA 
BRANCH   9  11
HETATM   11  O   UNL     1     -10.224  13.184  69.636  1.00  0.00     0.581 OA 
BRANCH  11  12
HETATM   12  C   UNL     1     -11.501  13.684  70.074  1.00  0.00    -0.090 C  
BRANCH  12  13
HETATM   13  C   UNL     1     -11.315  14.530  71.331  1.00  0.00     0.181 C  
BRANCH  13  14
HETATM   14  C   UNL     1     -11.012  15.989  70.989  1.00  0.00    -0.053 C  
BRANCH  14  15
HETATM   15  N   UNL     1     -11.010  16.265  69.537  1.00  0.00    -0.325 NA 
HETATM   16  C   UNL     1     -11.641  17.556  69.235  1.00  0.00     1.974 C  
BRANCH  15  17
HETATM   17  C   UNL     1      -9.607  16.212  69.044  1.00  0.00    -0.251 C  
BRANCH  17  18
HETATM   18  C   UNL     1      -8.735  15.133  69.729  1.00  0.00     0.063 C  
BRANCH  18  19
HETATM   19  N   UNL     1      -7.617  15.631  70.564  1.00  0.00     0.985 NA 
HETATM   20  C   UNL     1      -6.996  14.538  71.321  1.00  0.00     1.379 C  
BRANCH  19  21
HETATM   21  C   UNL     1      -6.591  16.286  69.724  1.00  0.00    -0.126 C  
BRANCH  21  22
HETATM   22  C   UNL     1      -5.273  15.508  69.654  1.00  0.00    -0.097 C  
BRANCH  22  23
HETATM   23  C   UNL     1      -5.195  14.637  68.406  1.00  0.00    -0.105 C  
BRANCH  23  24
HETATM   24  O   UNL     1      -6.287  13.702  68.403  1.00  0.00    -0.081 OA 
BRANCH  24  25
HETATM   25  C   UNL     1      -6.722  13.312  67.178  1.00  0.00     0.293 C  
HETATM   26  O   UNL     1      -6.518  12.229  66.655  1.00  0.00    -0.048 OA 
BRANCH  25  27
HETATM   27  C   UNL     1      -7.523  14.392  66.544  1.00  0.00     1.536 A  
HETATM   28  C   UNL     1      -7.156  15.715  66.795  1.00  0.00     0.186 A  
HETATM   29  C   UNL     1      -7.903  16.764  66.258  1.00  0.00    -0.299 A  
HETATM   30  C   UNL     1      -9.048  16.493  65.470  1.00  0.00     0.475 A  
HETATM   31  C   UNL     1      -8.627  14.117  65.731  1.00  0.00     1.485 A  
HETATM   32  C   UNL     1      -9.407  15.154  65.197  1.00  0.00     0.697 A  
BRANCH  29  33
HETATM   33  O   UNL     1      -7.607  18.087  66.501  1.00  0.00    -0.216 OA 
HETATM   34  C   UNL     1      -6.227  18.412  66.643  1.00  0.00    -0.173 C  
ENDBRANCH  29  33
BRANCH  30  35
HETATM   35  O   UNL     1      -9.755  17.607  65.084  1.00  0.00     0.340 OA 
HETATM   36  C   UNL     1     -11.091  17.755  65.546  1.00  0.00     0.480 C  
ENDBRANCH  30  35
BRANCH  32  37
HETATM   37  O   UNL     1     -10.524  14.915  64.441  1.00  0.00    -0.065 OA 
HETATM   38  C   UNL     1     -11.270  13.729  64.692  1.00  0.00    -0.378 C  
ENDBRANCH  32  37
ENDBRANCH  25  27
ENDBRANCH  24  25
ENDBRANCH  23  24
ENDBRANCH  22  23
ENDBRANCH  21  22
ENDBRANCH  19  21
ENDBRANCH  18  19
ENDBRANCH  17  18
ENDBRANCH  15  17
ENDBRANCH  14  15
ENDBRANCH  13  14
ENDBRANCH  12  13
ENDBRANCH  11  12
ENDBRANCH   9  11
ENDBRANCH   5   9
BRANCH   8  39
HETATM   39  O   UNL     1      -8.302   8.826  72.006  1.00  0.00    -0.324 OA 
HETATM   40  C   UNL     1      -7.090   9.424  71.574  1.00  0.00     0.227 C  
ENDBRANCH   8  39
BRANCH   7  41
HETATM   41  O   UNL     1     -10.860   7.589  72.492  1.00  0.00    -0.251 OA 
HETATM   42  C   UNL     1     -10.357   7.697  73.813  1.00  0.00     0.011 C  
ENDBRANCH   7  41
ENDBRANCH   2   3
TORSDOF 21
ENDMDL
MODEL      345
REMARK 921   NORMALIZED FREE ENERGY PREDICTED BY IDOCK:    6.28 KCAL/MOL
REMARK 922        TOTAL FREE ENERGY PREDICTED BY IDOCK:   11.14 KCAL/MOL
REMARK 923 INTER-LIGAND FREE ENERGY PREDICTED BY IDOCK:    3.71 KCAL/MOL
REMARK 924 INTRA-LIGAND FREE ENERGY PREDICTED BY IDOCK:    7.42 KCAL/MOL
REMARK 927      BINDING AFFINITY PREDICTED BY RF-SCORE:    0.00 PKD
ROOT
HETATM    1  C   UNL     1     -11.310   4.941  66.109  1.00  0.00     1.049 C  
HETATM    2  O   UNL     1     -11.941   6.219  66.118  1.00  0.00     1.794 OA 
ENDROOT
BRANCH   2   3
HETATM    3  C   UNL     1     -11.158   7.295  66.459  1.00  0.00     0.870 A  
HETATM    4  C   UNL     1     -10.440   7.988  65.477  1.00  0.00     2.771 A  
HETATM    5  C   UNL     1      -9.637   9.084  65.795  1.00  0.00    -0.287 A  
HETATM    6  C   UNL     1      -9.556   9.502  67.119  1.00  0.00    -0.206 A  
HETATM    7  C   UNL     1     -11.113   7.735  67.802  1.00  0.00     0.257 A  
HETATM    8  C   UNL     1     -10.291   8.845  68.124  1.00  0.00    -0.212 A  
BRANCH   5   9
HETATM    9  C   UNL     1      -8.912   9.730  64.674  1.00  0.00    -0.230 C  
HETATM   10  O   UNL     1      -9.486  10.150  63.679  1.00  0.00    -0.282 OA 
BRANCH   9  11
HETATM   11  O   UNL     1      -7.572   9.749  64.880  1.00  0.00    -0.116 OA 
BRANCH  11  12
HETATM   12  C   UNL     1      -6.936  10.983  64.500  1.00  0.00     0.782 C  
BRANCH  12  13
HETATM   13  C   UNL     1      -5.438  10.891  64.774  1.00  0.00     0.046 C  
BRANCH  13  14
HETATM   14  C   UNL     1      -5.127   9.897  65.893  1.00  0.00    -0.036 C  
BRANCH  14  15
HETATM   15  N   UNL     1      -6.280   9.632  66.780  1.00  0.00    -0.064 NA 
HETATM   16  C   UNL     1      -6.614   8.202  66.813  1.00  0.00    -0.057 C  
BRANCH  15  17
HETATM   17  C   UNL     1      -5.967  10.153  68.137  1.00  0.00    -0.041 C  
BRANCH  17  18
HETATM   18  C   UNL     1      -6.902  11.291  68.611  1.00  0.00    -0.076 C  
BRANCH  18  19
HETATM   19  N   UNL     1      -6.730  11.738  70.013  1.00  0.00     0.003 NA 
HETATM   20  C   UNL     1      -5.683  10.965  70.689  1.00  0.00    -0.123 C  
BRANCH  19  21
HETATM   21  C   UNL     1      -6.384  13.176  70.062  1.00  0.00    -0.006 C  
BRANCH  21  22
HETATM   22  C   UNL     1      -5.390  13.600  68.977  1.00  0.00    -0.070 C  
BRANCH  22  23
HETATM   23  C   UNL     1      -6.094  14.206  67.770  1.00  0.00    -0.122 C  
BRANCH  23  24
HETATM   24  O   UNL     1      -6.672  15.471  68.136  1.00  0.00    -0.111 OA 
BRANCH  24  25
HETATM   25  C   UNL     1      -7.160  15.549  69.399  1.00  0.00    -0.194 C  
HETATM   26  O   UNL     1      -6.511  15.770  70.409  1.00  0.00     0.013 OA 
BRANCH  25  27
HETATM   27  C   UNL     1      -8.633  15.349  69.399  1.00  0.00    -0.249 A  
HETATM   28  C   UNL     1      -9.291  15.307  70.630  1.00  0.00     1.278 A  
HETATM   29  C   UNL     1     -10.666  15.077  70.684  1.00  0.00    -0.030 A  
HETATM   30  C   UNL     1     -11.400  14.868  69.492  1.00  0.00    -0.281 A  
HETATM   31  C   UNL     1      -9.360  15.186  68.215  1.00  0.00    -0.193 A  
HETATM   32  C   UNL     1     -10.740  14.933  68.244  1.00  0.00    -0.249 A  
BRANCH  29  33
HETATM   33  O   UNL     1     -11.358  14.992  71.871  1.00  0.00    -0.375 OA 
HETATM   34  C   UNL     1     -11.540  16.211  72.587  1.00  0.00    -0.209 C  
ENDBRANCH  29  33
BRANCH  30  35
HETATM   35  O   UNL     1     -12.725  14.553  69.682  1.00  0.00    -0.165 OA 
HETATM   36  C   UNL     1     -13.383  15.062  70.833  1.00  0.00    -0.380 C  
ENDBRANCH  30  35
BRANCH  32  37
HETATM   37  O   UNL     1     -11.467  14.716  67.104  1.00  0.00    -0.344 OA 
HETATM   38  C   UNL     1     -11.854  13.383  66.790  1.00  0.00    -0.403 C  
ENDBRANCH  32  37
ENDBRANCH  25  27
ENDBRANCH  24  25
ENDBRANCH  23  24
ENDBRANCH  22  23
ENDBRANCH  21  22
ENDBRANCH  19  21
ENDBRANCH  18  19
ENDBRANCH  17  18
ENDBRANCH  15  17
ENDBRANCH  14  15
ENDBRANCH  13  14
ENDBRANCH  12  13
ENDBRANCH  11  12
ENDBRANCH   9  11
ENDBRANCH   5   9
BRANCH   8  39
HETATM   39  O   UNL     1     -10.077   9.429  69.351  1.00  0.00    -0.182 OA 
HETATM   40  C   UNL     1     -11.104  10.200  69.955  1.00  0.00    -0.293 C  
ENDBRANCH   8  39
BRANCH   7  41
HETATM   41  O   UNL     1     -11.795   7.169  68.847  1.00  0.00     0.563 OA 
HETATM   42  C   UNL     1     -11.435   7.448  70.190  1.00  0.00    -0.129 C  
ENDBRANCH   7  41
ENDBRANCH   2   3
TORSDOF 21
ENDMDL
MODEL      346
REMARK 921   NORMALIZED FREE ENERGY PREDICTED BY IDOCK:    7.19 KCAL/MOL
REMARK 922        TOTAL FREE ENERGY PREDICTED BY IDOCK:   13.15 KCAL/MOL
REMARK 923 INTER-LIGAND FREE ENERGY PREDICTED BY IDOCK:    2.97 KCAL/MOL
REMARK 924 INTRA-LIGAND FREE ENERGY PREDICTED BY IDOCK:   10.18 KCAL/MOL
REMARK 927      BINDING AFFINITY PREDICTED BY RF-SCORE:    0.00 PKD
ROOT
HETATM    1  C   UNL     1      -8.762   8.630  74.005  1.00  0.00     0.565 C  
HETATM    2  O   UNL     1      -8.370   8.604  72.635  1.00  0.00    -0.378 OA 
ENDROOT
BRANCH   2   3
HETATM    3  C   UNL     1      -9.118   7.818  71.792  1.00  0.00    -0.137 A  
HETATM    4  C   UNL     1      -8.491   6.929  70.911  1.00  0.00    -0.135 A  
HETATM    5  C   UNL     1      -9.226   6.118  70.045  1.00  0.00    -0.158 A  
HETATM    6  C   UNL     1     -10.615   6.191  70.065  1.00  0.00    -0.323 A  
HETATM    7  C   UNL     1     -10.530   7.871  71.848  1.00  0.00    -0.228 A  
HETATM    8  C   UNL     1     -11.274   7.052  70.962  1.00  0.00    -0.274 A  
BRANCH   5   9
HETATM    9  C   UNL     1      -8.453   5.227  69.146  1.00  0.00    -0.098 C  
HETATM   10  O   UNL     1      -8.176   4.074  69.447  1.00  0.00    -0.058 OA 
BRANCH   9  11
HETATM   11  O   UNL     1      -8.075   5.858  68.007  1.00  0.00    -0.104 OA 
BRANCH  11  12
HETATM   12  C   UNL     1      -6.829   6.572  68.116  1.00  0.00    -0.074 C  
BRANCH  12  13
HETATM   13  C   UNL     1      -6.994   7.977  67.544  1.00  0.00    -0.075 C  
BRANCH  13  14
HETATM   14  C   UNL     1      -6.003   8.960  68.169  1.00  0.00    -0.046 C  
BRANCH  14  15
HETATM   15  N   UNL     1      -5.244   9.743  67.170  1.00  0.00    -0.038 NA 
HETATM   16  C   UNL     1      -5.629   9.379  65.800  1.00  0.00    -0.045 C  
BRANCH  15  17
HETATM   17  C   UNL     1      -5.461  11.191  67.434  1.00  0.00    -0.047 C  
BRANCH  17  18
HETATM   18  C   UNL     1      -6.817  11.732  66.923  1.00  0.00    -0.104 C  
BRANCH  18  19
HETATM   19  N   UNL     1      -7.754  12.229  67.957  1.00  0.00    -0.121 NA 
HETATM   20  C   UNL     1      -7.054  12.507  69.215  1.00  0.00     0.091 C  
BRANCH  19  21
HETATM   21  C   UNL     1      -8.434  13.460  67.496  1.00  0.00    -0.192 C  
BRANCH  21  22
HETATM   22  C   UNL     1      -9.040  14.285  68.636  1.00  0.00    -0.160 C  
BRANCH  22  23
HETATM   23  C   UNL     1     -10.001  13.460  69.483  1.00  0.00     0.887 C  
BRANCH  23  24
HETATM   24  O   UNL     1      -9.892  12.074  69.120  1.00  0.00     0.092 OA 
BRANCH  24  25
HETATM   25  C   UNL     1     -10.748  11.651  68.155  1.00  0.00    -0.213 C  
HETATM   26  O   UNL     1     -11.324  10.575  68.126  1.00  0.00    -0.297 OA 
BRANCH  25  27
HETATM   27  C   UNL     1     -10.921  12.702  67.118  1.00  0.00    -0.296 A  
HETATM   28  C   UNL     1     -11.162  12.296  65.805  1.00  0.00    -0.378 A  
HETATM   29  C   UNL     1     -11.286  13.243  64.788  1.00  0.00    -0.327 A  
HETATM   30  C   UNL     1     -11.152  14.623  65.080  1.00  0.00    -0.377 A  
HETATM   31  C   UNL     1     -10.830  14.065  67.420  1.00  0.00    -0.288 A  
HETATM   32  C   UNL     1     -10.931  15.036  66.414  1.00  0.00    -0.336 A  
BRANCH  29  33
HETATM   33  O   UNL     1     -11.490  12.897  63.471  1.00  0.00    -0.463 OA 
HETATM   34  C   UNL     1     -11.116  11.574  63.099  1.00  0.00    -0.061 C  
ENDBRANCH  29  33
BRANCH  30  35
HETATM   35  O   UNL     1     -11.195  15.448  63.981  1.00  0.00     0.021 OA 
HETATM   36  C   UNL     1     -12.400  16.150  63.708  1.00  0.00     1.517 C  
ENDBRANCH  30  35
BRANCH  32  37
HETATM   37  O   UNL     1     -10.793  16.374  66.671  1.00  0.00    -0.229 OA 
HETATM   38  C   UNL     1      -9.488  16.885  66.918  1.00  0.00    -0.251 C  
ENDBRANCH  32  37
ENDBRANCH  25  27
ENDBRANCH  24  25
ENDBRANCH  23  24
ENDBRANCH  22  23
ENDBRANCH  21  22
ENDBRANCH  19  21
ENDBRANCH  18  19
ENDBRANCH  17  18
ENDBRANCH  15  17
ENDBRANCH  14  15
ENDBRANCH  13  14
ENDBRANCH  12  13
ENDBRANCH  11  12
ENDBRANCH   9  11
ENDBRANCH   5   9
BRANCH   8  39
HETATM   39  O   UNL     1     -12.639   6.953  70.825  1.00  0.00    -0.324 OA 
HETATM   40  C   UNL     1     -13.189   6.284  69.701  1.00  0.00     5.877 C  
ENDBRANCH   8  39
BRANCH   7  41
HETATM   41  O   UNL     1     -11.262   8.669  72.688  1.00  0.00    -0.271 OA 
HETATM   42  C   UNL     1     -12.528   8.252  73.171  1.00  0.00     0.824 C  
ENDBRANCH   7  41
ENDBRANCH   2   3
TORSDOF 21
ENDMDL
MODEL      347
REMARK 921   NORMALIZED FREE ENERGY PREDICTED BY IDOCK:    7.30 KCAL/MOL
REMARK 922        TOTAL FREE ENERGY PREDICTED BY IDOCK:   13.41 KCAL/MOL
REMARK 923 INTER-LIGAND FREE ENERGY PREDICTED BY IDOCK:    6.58 KCAL/MOL
REMARK 924 INTRA-LIGAND FREE ENERGY PREDICTED BY IDOCK:    6.83 KCAL/MOL
REMARK 927      BINDING AFFINITY PREDICTED BY RF-SCORE:    0.00 PKD
ROOT
HETATM    1  C   UNL     1     -11.039   6.067  66.210  1.00  0.00     0.431 C  
HETATM    2  O   UNL     1      -9.698   6.289  66.640  1.00  0.00    -0.154 OA 
ENDROOT
BRANCH   2   3
HETATM    3  C   UNL     1      -9.498   7.296  67.552  1.00  0.00    -0.129 A  
HETATM    4  C   UNL     1     -10.546   8.160  67.894  1.00  0.00    -0.212 A  
HETATM    5  C   UNL     1     -10.371   9.191  68.818  1.00  0.00    -0.235 A  
HETATM    6  C   UNL     1      -9.128   9.357  69.420  1.00  0.00    -0.162 A  
HETATM    7  C   UNL     1      -8.242   7.432  68.187  1.00  0.00    -0.124 A  
HETATM    8  C   UNL     1      -8.065   8.484  69.120  1.00  0.00    -0.117 A  
BRANCH   5   9
HETATM    9  C   UNL     1     -11.548  10.052  69.090  1.00  0.00     0.045 C  
HETATM   10  O   UNL     1     -11.593  10.817  70.043  1.00  0.00    -0.277 OA 
BRANCH   9  11
HETATM   11  O   UNL     1     -12.544   9.848  68.193  1.00  0.00     2.566 OA 
BRANCH  11  12
HETATM   12  C   UNL     1     -12.149  10.039  66.822  1.00  0.00     4.504 C  
BRANCH  12  13
HETATM   13  C   UNL     1     -11.365  11.342  66.694  1.00  0.00    -0.154 C  
BRANCH  13  14
HETATM   14  C   UNL     1     -11.587  12.003  65.333  1.00  0.00    -0.286 C  
BRANCH  14  15
HETATM   15  N   UNL     1     -12.534  13.138  65.379  1.00  0.00    -0.478 NA 
HETATM   16  C   UNL     1     -12.960  13.425  66.755  1.00  0.00     1.229 C  
BRANCH  15  17
HETATM   17  C   UNL     1     -11.891  14.321  64.746  1.00  0.00    -0.429 C  
BRANCH  17  18
HETATM   18  C   UNL     1     -10.610  14.806  65.465  1.00  0.00    -0.359 C  
BRANCH  18  19
HETATM   19  N   UNL     1      -9.770  13.754  66.085  1.00  0.00    -0.286 NA 
HETATM   20  C   UNL     1      -8.522  13.567  65.338  1.00  0.00     2.817 C  
BRANCH  19  21
HETATM   21  C   UNL     1      -9.452  14.101  67.488  1.00  0.00    -0.210 C  
BRANCH  21  22
HETATM   22  C   UNL     1      -9.309  12.879  68.400  1.00  0.00    -0.147 C  
BRANCH  22  23
HETATM   23  C   UNL     1      -8.340  13.137  69.546  1.00  0.00     1.331 C  
BRANCH  23  24
HETATM   24  O   UNL     1      -7.743  14.435  69.387  1.00  0.00    -0.064 OA 
BRANCH  24  25
HETATM   25  C   UNL     1      -6.798  14.532  68.419  1.00  0.00    -0.104 C  
HETATM   26  O   UNL     1      -6.386  13.618  67.723  1.00  0.00    -0.148 OA 
BRANCH  25  27
HETATM   27  C   UNL     1      -6.328  15.936  68.290  1.00  0.00    -0.121 A  
HETATM   28  C   UNL     1      -5.926  16.603  69.448  1.00  0.00    -0.184 A  
HETATM   29  C   UNL     1      -5.520  17.936  69.386  1.00  0.00    -0.201 A  
HETATM   30  C   UNL     1      -5.529  18.626  68.149  1.00  0.00    -0.178 A  
HETATM   31  C   UNL     1      -6.298  16.599  67.059  1.00  0.00    -0.222 A  
HETATM   32  C   UNL     1      -5.914  17.946  66.972  1.00  0.00    -0.141 A  
BRANCH  29  33
HETATM   33  O   UNL     1      -5.146  18.652  70.501  1.00  0.00    -0.205 OA 
HETATM   34  C   UNL     1      -6.149  19.472  71.093  1.00  0.00     0.044 C  
ENDBRANCH  29  33
BRANCH  30  35
HETATM   35  O   UNL     1      -5.204  19.960  68.235  1.00  0.00    -0.184 OA 
HETATM   36  C   UNL     1      -5.990  20.796  69.073  1.00  0.00    -0.307 C  
ENDBRANCH  30  35
BRANCH  32  37
HETATM   37  O   UNL     1      -5.925  18.635  65.789  1.00  0.00    -0.168 OA 
HETATM   38  C   UNL     1      -6.056  20.051  65.832  1.00  0.00    -0.185 C  
ENDBRANCH  32  37
ENDBRANCH  25  27
ENDBRANCH  24  25
ENDBRANCH  23  24
ENDBRANCH  22  23
ENDBRANCH  21  22
ENDBRANCH  19  21
ENDBRANCH  18  19
ENDBRANCH  17  18
ENDBRANCH  15  17
ENDBRANCH  14  15
ENDBRANCH  13  14
ENDBRANCH  12  13
ENDBRANCH  11  12
ENDBRANCH   9  11
ENDBRANCH   5   9
BRANCH   8  39
HETATM   39  O   UNL     1      -6.938   8.819  69.835  1.00  0.00    -0.044 OA 
HETATM   40  C   UNL     1      -6.222   7.813  70.535  1.00  0.00    -0.037 C  
ENDBRANCH   8  39
BRANCH   7  41
HETATM   41  O   UNL     1      -7.151   6.632  67.969  1.00  0.00    -0.083 OA 
HETATM   42  C   UNL     1      -6.856   5.548  68.833  1.00  0.00    -0.055 C  
ENDBRANCH   7  41
ENDBRANCH   2   3
TORSDOF 21
ENDMDL
MODEL      348
REMARK 921   NORMALIZED FREE ENERGY PREDICTED BY IDOCK:    9.20 KCAL/MOL
REMARK 922        TOTAL FREE ENERGY PREDICTED BY IDOCK:   17.63 KCAL/MOL
REMARK 923 INTER-LIGAND FREE ENERGY PREDICTED BY IDOCK:   -2.07 KCAL/MOL
REMARK 924 INTRA-LIGAND FREE ENERGY PREDICTED BY IDOCK:   19.71 KCAL/MOL
REMARK 927      BINDING AFFINITY PREDICTED BY RF-SCORE:    0.00 PKD
ROOT
HETATM    1  C   UNL     1      -5.430   4.882  65.121  1.00  0.00    -0.013 C  
HETATM    2  O   UNL     1      -5.933   6.197  64.897  1.00  0.00    -0.024 OA 
ENDROOT
BRANCH   2   3
HETATM    3  C   UNL     1      -6.694   6.748  65.899  1.00  0.00    -0.052 A  
HETATM    4  C   UNL     1      -7.143   5.958  66.964  1.00  0.00    -0.070 A  
HETATM    5  C   UNL     1      -7.917   6.493  67.995  1.00  0.00    -0.109 A  
HETATM    6  C   UNL     1      -8.241   7.845  67.966  1.00  0.00    -0.127 A  
HETATM    7  C   UNL     1      -6.985   8.132  65.880  1.00  0.00    -0.060 A  
HETATM    8  C   UNL     1      -7.778   8.671  66.925  1.00  0.00    -0.091 A  
BRANCH   5   9
HETATM    9  C   UNL     1      -8.348   5.557  69.062  1.00  0.00    -0.102 C  
HETATM   10  O   UNL     1      -9.521   5.420  69.378  1.00  0.00    -0.121 OA 
BRANCH   9  11
HETATM   11  O   UNL     1      -7.295   4.931  69.644  1.00  0.00    -0.054 OA 
BRANCH  11  12
HETATM   12  C   UNL     1      -7.264   5.043  71.078  1.00  0.00    -0.060 C  
BRANCH  12  13
HETATM   13  C   UNL     1      -8.671   5.322  71.600  1.00  0.00    -0.140 C  
BRANCH  13  14
HETATM   14  C   UNL     1      -8.906   6.817  71.819  1.00  0.00    -0.128 C  
BRANCH  14  15
HETATM   15  N   UNL     1      -9.729   7.113  73.011  1.00  0.00    -0.165 NA 
HETATM   16  C   UNL     1      -9.216   6.422  74.201  1.00  0.00    -0.166 C  
BRANCH  15  17
HETATM   17  C   UNL     1      -9.769   8.587  73.208  1.00  0.00     0.309 C  
BRANCH  17  18
HETATM   18  C   UNL     1      -8.583   9.345  72.565  1.00  0.00     1.869 C  
BRANCH  18  19
HETATM   19  N   UNL     1      -8.121   8.840  71.250  1.00  0.00    -0.149 NA 
HETATM   20  C   UNL     1      -7.143   7.759  71.414  1.00  0.00    -0.058 C  
BRANCH  19  21
HETATM   21  C   UNL     1      -9.264   8.346  70.451  1.00  0.00    -0.153 C  
BRANCH  21  22
HETATM   22  C   UNL     1      -9.990   9.452  69.678  1.00  0.00    -0.209 C  
BRANCH  22  23
HETATM   23  C   UNL     1     -11.318   8.968  69.111  1.00  0.00     0.366 C  
BRANCH  23  24
HETATM   24  O   UNL     1     -12.034   8.237  70.120  1.00  0.00     0.170 OA 
BRANCH  24  25
HETATM   25  C   UNL     1     -12.410   8.954  71.209  1.00  0.00    -0.291 C  
HETATM   26  O   UNL     1     -12.877   8.502  72.242  1.00  0.00    -0.355 OA 
BRANCH  25  27
HETATM   27  C   UNL     1     -12.151  10.402  70.991  1.00  0.00    -0.488 A  
HETATM   28  C   UNL     1     -12.694  11.311  71.901  1.00  0.00    -0.278 A  
HETATM   29  C   UNL     1     -12.517  12.682  71.714  1.00  0.00     0.164 A  
HETATM   30  C   UNL     1     -11.799  13.161  70.591  1.00  0.00    -0.012 A  
HETATM   31  C   UNL     1     -11.404  10.867  69.904  1.00  0.00    -0.381 A  
HETATM   32  C   UNL     1     -11.228  12.241  69.682  1.00  0.00    -0.050 A  
BRANCH  29  33
HETATM   33  O   UNL     1     -13.060  13.623  72.560  1.00  0.00    -0.426 OA 
HETATM   34  C   UNL     1     -12.137  14.409  73.308  1.00  0.00     0.126 C  
ENDBRANCH  29  33
BRANCH  30  35
HETATM   35  O   UNL     1     -11.779  14.530  70.465  1.00  0.00    -0.277 OA 
HETATM   36  C   UNL     1     -12.943  15.181  69.974  1.00  0.00     0.006 C  
ENDBRANCH  30  35
BRANCH  32  37
HETATM   37  O   UNL     1     -10.547  12.726  68.598  1.00  0.00    -0.247 OA 
HETATM   38  C   UNL     1      -9.146  12.942  68.720  1.00  0.00     0.179 C  
ENDBRANCH  32  37
ENDBRANCH  25  27
ENDBRANCH  24  25
ENDBRANCH  23  24
ENDBRANCH  22  23
ENDBRANCH  21  22
ENDBRANCH  19  21
ENDBRANCH  18  19
ENDBRANCH  17  18
ENDBRANCH  15  17
ENDBRANCH  14  15
ENDBRANCH  13  14
ENDBRANCH  12  13
ENDBRANCH  11  12
ENDBRANCH   9  11
ENDBRANCH   5   9
BRANCH   8  39
HETATM   39  O   UNL     1      -8.200   9.968  67.102  1.00  0.00    -0.117 OA 
HETATM   40  C   UNL     1      -9.428  10.395  66.532  1.00  0.00    -0.167 C  
ENDBRANCH   8  39
BRANCH   7  41
HETATM   41  O   UNL     1      -6.576   9.017  64.918  1.00  0.00    -0.068 OA 
HETATM   42  C   UNL     1      -5.280   8.931  64.351  1.00  0.00    -0.051 C  
ENDBRANCH   7  41
ENDBRANCH   2   3
TORSDOF 21
ENDMDL
MODEL      349
REMARK 921   NORMALIZED FREE ENERGY PREDICTED BY IDOCK:   12.80 KCAL/MOL
REMARK 922        TOTAL FREE ENERGY PREDICTED BY IDOCK:   25.66 KCAL/MOL
REMARK 923 INTER-LIGAND FREE ENERGY PREDICTED BY IDOCK:   19.30 KCAL/MOL
REMARK 924 INTRA-LIGAND FREE ENERGY PREDICTED BY IDOCK:    6.36 KCAL/MOL
REMARK 927      BINDING AFFINITY PREDICTED BY RF-SCORE:    0.00 PKD
ROOT
HETATM    1  C   UNL     1     -10.006  16.528  69.539  1.00  0.00    -0.119 C  
HETATM    2  O   UNL     1     -10.380  15.973  68.280  1.00  0.00    -0.247 OA 
ENDROOT
BRANCH   2   3
HETATM    3  C   UNL     1      -9.361  15.655  67.416  1.00  0.00    -0.210 A  
HETATM    4  C   UNL     1      -8.818  14.364  67.407  1.00  0.00    -0.211 A  
HETATM    5  C   UNL     1      -7.782  14.014  66.539  1.00  0.00     1.236 A  
HETATM    6  C   UNL     1      -7.284  14.968  65.659  1.00  0.00     6.388 A  
HETATM    7  C   UNL     1      -8.888  16.621  66.499  1.00  0.00    -0.279 A  
HETATM    8  C   UNL     1      -7.831  16.265  65.624  1.00  0.00     1.590 A  
BRANCH   5   9
HETATM    9  C   UNL     1      -7.277  12.621  66.629  1.00  0.00     0.655 C  
HETATM   10  O   UNL     1      -6.113  12.331  66.394  1.00  0.00     0.073 OA 
BRANCH   9  11
HETATM   11  O   UNL     1      -8.260  11.745  66.954  1.00  0.00    -0.163 OA 
BRANCH  11  12
HETATM   12  C   UNL     1      -9.332  11.683  65.996  1.00  0.00    -0.227 C  
BRANCH  12  13
HETATM   13  C   UNL     1      -9.316  10.326  65.298  1.00  0.00    -0.267 C  
BRANCH  13  14
HETATM   14  C   UNL     1      -9.092   9.184  66.288  1.00  0.00    -0.178 C  
BRANCH  14  15
HETATM   15  N   UNL     1      -9.571   7.875  65.794  1.00  0.00     0.157 NA 
HETATM   16  C   UNL     1     -10.971   7.948  65.356  1.00  0.00     5.787 C  
BRANCH  15  17
HETATM   17  C   UNL     1      -8.675   7.423  64.696  1.00  0.00     0.399 C  
BRANCH  17  18
HETATM   18  C   UNL     1      -7.768   6.226  65.070  1.00  0.00    -0.101 C  
BRANCH  18  19
HETATM   19  N   UNL     1      -7.809   5.794  66.487  1.00  0.00    -0.100 NA 
HETATM   20  C   UNL     1      -7.544   6.918  67.390  1.00  0.00    -0.109 C  
BRANCH  19  21
HETATM   21  C   UNL     1      -9.127   5.206  66.814  1.00  0.00    -0.118 C  
BRANCH  21  22
HETATM   22  C   UNL     1      -9.812   5.876  68.009  1.00  0.00    -0.144 C  
BRANCH  22  23
HETATM   23  C   UNL     1     -11.299   5.547  68.067  1.00  0.00     1.198 C  
BRANCH  23  24
HETATM   24  O   UNL     1     -11.758   5.636  69.426  1.00  0.00     0.665 OA 
BRANCH  24  25
HETATM   25  C   UNL     1     -11.842   6.890  69.936  1.00  0.00    -0.082 C  
HETATM   26  O   UNL     1     -12.843   7.588  69.966  1.00  0.00     0.875 OA 
BRANCH  25  27
HETATM   27  C   UNL     1     -10.530   7.313  70.492  1.00  0.00    -0.229 A  
HETATM   28  C   UNL     1     -10.287   7.089  71.848  1.00  0.00    -0.213 A  
HETATM   29  C   UNL     1      -9.089   7.508  72.426  1.00  0.00    -0.136 A  
HETATM   30  C   UNL     1      -8.117   8.178  71.643  1.00  0.00    -0.124 A  
HETATM   31  C   UNL     1      -9.556   7.936  69.704  1.00  0.00    -0.164 A  
HETATM   32  C   UNL     1      -8.351   8.385  70.265  1.00  0.00    -0.124 A  
BRANCH  29  33
HETATM   33  O   UNL     1      -8.812   7.344  73.764  1.00  0.00    -0.173 OA 
HETATM   34  C   UNL     1      -8.779   8.529  74.554  1.00  0.00     0.919 C  
ENDBRANCH  29  33
BRANCH  30  35
HETATM   35  O   UNL     1      -7.026   8.629  72.347  1.00  0.00    -0.199 OA 
HETATM   36  C   UNL     1      -6.266   7.688  73.094  1.00  0.00    -0.061 C  
ENDBRANCH  30  35
BRANCH  32  37
HETATM   37  O   UNL     1      -7.403   9.045  69.530  1.00  0.00    -0.067 OA 
HETATM   38  C   UNL     1      -6.133   8.428  69.353  1.00  0.00    -0.037 C  
ENDBRANCH  32  37
ENDBRANCH  25  27
ENDBRANCH  24  25
ENDBRANCH  23  24
ENDBRANCH  22  23
ENDBRANCH  21  22
ENDBRANCH  19  21
ENDBRANCH  18  19
ENDBRANCH  17  18
ENDBRANCH  15  17
ENDBRANCH  14  15
ENDBRANCH  13  14
ENDBRANCH  12  13
ENDBRANCH  11  12
ENDBRANCH   9  11
ENDBRANCH   5   9
BRANCH   8  39
HETATM   39  O   UNL     1      -7.203  17.037  64.674  1.00  0.00     3.698 OA 
HETATM   40  C   UNL     1      -6.618  18.275  65.045  1.00  0.00     0.334 C  
ENDBRANCH   8  39
BRANCH   7  41
HETATM   41  O   UNL     1      -9.357  17.903  66.383  1.00  0.00    -0.300 OA 
HETATM   42  C   UNL     1      -8.687  18.985  67.008  1.00  0.00    -0.294 C  
ENDBRANCH   7  41
ENDBRANCH   2   3
TORSDOF 21
ENDMDL
MODEL      350
REMARK 921   NORMALIZED FREE ENERGY PREDICTED BY IDOCK:   13.76 KCAL/MOL
REMARK 922        TOTAL FREE ENERGY PREDICTED BY IDOCK:   27.79 KCAL/MOL
REMARK 923 INTER-LIGAND FREE ENERGY PREDICTED BY IDOCK:    1.94 KCAL/MOL
REMARK 924 INTRA-LIGAND FREE ENERGY PREDICTED BY IDOCK:   25.85 KCAL/MOL
REMARK 927      BINDING AFFINITY PREDICTED BY RF-SCORE:    0.00 PKD
ROOT
HETATM    1  C   UNL     1      -6.654   1.810  66.955  1.00  0.00    -0.034 C  
HETATM    2  O   UNL     1      -7.898   2.029  67.614  1.00  0.00    -0.059 OA 
ENDROOT
BRANCH   2   3
HETATM    3  C   UNL     1      -8.080   3.257  68.202  1.00  0.00    -0.073 A  
HETATM    4  C   UNL     1      -7.596   3.503  69.493  1.00  0.00    -0.051 A  
HETATM    5  C   UNL     1      -7.766   4.742  70.113  1.00  0.00    -0.058 A  
HETATM    6  C   UNL     1      -8.424   5.757  69.428  1.00  0.00    -0.112 A  
HETATM    7  C   UNL     1      -8.716   4.295  67.481  1.00  0.00    -0.106 A  
HETATM    8  C   UNL     1      -8.893   5.550  68.117  1.00  0.00    -0.105 A  
BRANCH   5   9
HETATM    9  C   UNL     1      -7.225   4.881  71.487  1.00  0.00    -0.068 C  
HETATM   10  O   UNL     1      -7.167   5.959  72.062  1.00  0.00    -0.087 OA 
BRANCH   9  11
HETATM   11  O   UNL     1      -6.783   3.698  71.981  1.00  0.00    -0.018 OA 
BRANCH  11  12
HETATM   12  C   UNL     1      -6.734   2.637  71.010  1.00  0.00    -0.031 C  
BRANCH  12  13
HETATM   13  C   UNL     1      -7.870   2.811  70.006  1.00  0.00    -0.049 C  
BRANCH  13  14
HETATM   14  C   UNL     1      -9.098   1.986  70.393  1.00  0.00    -0.094 C  
BRANCH  14  15
HETATM   15  N   UNL     1     -10.288   2.809  70.692  1.00  0.00     0.862 NA 
HETATM   16  C   UNL     1     -11.366   2.000  71.277  1.00  0.00     3.203 C  
BRANCH  15  17
HETATM   17  C   UNL     1      -9.885   3.920  71.596  1.00  0.00    -0.177 C  
BRANCH  17  18
HETATM   18  C   UNL     1     -11.064   4.786  72.100  1.00  0.00     0.142 C  
BRANCH  18  19
HETATM   19  N   UNL     1     -10.791   5.639  73.280  1.00  0.00    -0.269 NA 
HETATM   20  C   UNL     1      -9.352   5.713  73.557  1.00  0.00    -0.138 C  
BRANCH  19  21
HETATM   21  C   UNL     1     -11.317   7.006  73.068  1.00  0.00    -0.135 C  
BRANCH  21  22
HETATM   22  C   UNL     1     -10.990   7.576  71.683  1.00  0.00    -0.263 C  
BRANCH  22  23
HETATM   23  C   UNL     1     -12.240   8.067  70.964  1.00  0.00    -0.185 C  
BRANCH  23  24
HETATM   24  O   UNL     1     -11.943   8.274  69.573  1.00  0.00     0.830 OA 
BRANCH  24  25
HETATM   25  C   UNL     1     -11.871   9.570  69.175  1.00  0.00     0.730 C  
HETATM   26  O   UNL     1     -12.809  10.343  69.070  1.00  0.00     0.291 OA 
BRANCH  25  27
HETATM   27  C   UNL     1     -10.460   9.948  68.896  1.00  0.00    -0.229 A  
HETATM   28  C   UNL     1      -9.497   9.651  69.862  1.00  0.00    -0.260 A  
HETATM   29  C   UNL     1      -8.168  10.026  69.667  1.00  0.00    -0.175 A  
HETATM   30  C   UNL     1      -7.790  10.726  68.495  1.00  0.00    -0.122 A  
HETATM   31  C   UNL     1     -10.086  10.601  67.717  1.00  0.00    -0.203 A  
HETATM   32  C   UNL     1      -8.760  11.007  67.506  1.00  0.00    -0.128 A  
BRANCH  29  33
HETATM   33  O   UNL     1      -7.184   9.789  70.600  1.00  0.00    -0.211 OA 
HETATM   34  C   UNL     1      -7.485   8.827  71.607  1.00  0.00    -0.065 C  
ENDBRANCH  29  33
BRANCH  30  35
HETATM   35  O   UNL     1      -6.476  11.127  68.465  1.00  0.00    -0.055 OA 
HETATM   36  C   UNL     1      -5.988  11.926  69.534  1.00  0.00    -0.098 C  
ENDBRANCH  30  35
BRANCH  32  37
HETATM   37  O   UNL     1      -8.375  11.694  66.385  1.00  0.00    -0.162 OA 
HETATM   38  C   UNL     1      -7.109  11.395  65.810  1.00  0.00     0.464 C  
ENDBRANCH  32  37
ENDBRANCH  25  27
ENDBRANCH  24  25
ENDBRANCH  23  24
ENDBRANCH  22  23
ENDBRANCH  21  22
ENDBRANCH  19  21
ENDBRANCH  18  19
ENDBRANCH  17  18
ENDBRANCH  15  17
ENDBRANCH  14  15
ENDBRANCH  13  14
ENDBRANCH  12  13
ENDBRANCH  11  12
ENDBRANCH   9  11
ENDBRANCH   5   9
BRANCH   8  39
HETATM   39  O   UNL     1      -9.495   6.685  67.625  1.00  0.00    -0.125 OA 
HETATM   40  C   UNL     1     -10.824   6.622  67.131  1.00  0.00    -0.401 C  
ENDBRANCH   8  39
BRANCH   7  41
HETATM   41  O   UNL     1      -9.199   4.194  66.204  1.00  0.00    -0.133 OA 
HETATM   42  C   UNL     1      -8.384   3.706  65.151  1.00  0.00    -0.097 C  
ENDBRANCH   7  41
ENDBRANCH   2   3
TORSDOF 21
ENDMDL
MODEL      351
REMARK 921   NORMALIZED FREE ENERGY PREDICTED BY IDOCK:   13.79 KCAL/MOL
REMARK 922        TOTAL FREE ENERGY PREDICTED BY IDOCK:   27.85 KCAL/MOL
REMARK 923 INTER-LIGAND FREE ENERGY PREDICTED BY IDOCK:   25.21 KCAL/MOL
REMARK 924 INTRA-LIGAND FREE ENERGY PREDICTED BY IDOCK:    2.64 KCAL/MOL
REMARK 927      BINDING AFFINITY PREDICTED BY RF-SCORE:    0.00 PKD
ROOT
HETATM    1  C   UNL     1     -13.165  16.300  65.134  1.00  0.00     4.168 C  
HETATM    2  O   UNL     1     -12.462  15.641  66.185  1.00  0.00     1.078 OA 
ENDROOT
BRANCH   2   3
HETATM    3  C   UNL     1     -11.110  15.472  66.013  1.00  0.00    -0.185 A  
HETATM    4  C   UNL     1     -10.596  14.233  65.609  1.00  0.00    -0.328 A  
HETATM    5  C   UNL     1      -9.227  14.034  65.427  1.00  0.00     0.711 A  
HETATM    6  C   UNL     1      -8.354  15.094  65.644  1.00  0.00     2.070 A  
HETATM    7  C   UNL     1     -10.234  16.567  66.199  1.00  0.00    -0.346 A  
HETATM    8  C   UNL     1      -8.843  16.360  66.020  1.00  0.00    -0.261 A  
BRANCH   5   9
HETATM    9  C   UNL     1      -8.799  12.676  65.012  1.00  0.00     1.435 C  
HETATM   10  O   UNL     1      -9.339  12.070  64.097  1.00  0.00     0.059 OA 
BRANCH   9  11
HETATM   11  O   UNL     1      -7.793  12.201  65.788  1.00  0.00     0.815 OA 
BRANCH  11  12
HETATM   12  C   UNL     1      -8.192  11.870  67.130  1.00  0.00    -0.171 C  
BRANCH  12  13
HETATM   13  C   UNL     1      -8.123  10.358  67.326  1.00  0.00    -0.114 C  
BRANCH  13  14
HETATM   14  C   UNL     1      -7.778   9.990  68.769  1.00  0.00    -0.085 C  
BRANCH  14  15
HETATM   15  N   UNL     1      -8.574   8.860  69.294  1.00  0.00    -0.131 NA 
HETATM   16  C   UNL     1      -9.188   9.191  70.586  1.00  0.00    -0.258 C  
BRANCH  15  17
HETATM   17  C   UNL     1      -9.597   8.486  68.280  1.00  0.00    -0.144 C  
BRANCH  17  18
HETATM   18  C   UNL     1     -10.970   8.101  68.879  1.00  0.00     0.154 C  
BRANCH  18  19
HETATM   19  N   UNL     1     -11.424   6.712  68.633  1.00  0.00    -0.056 NA 
HETATM   20  C   UNL     1     -10.560   6.039  67.658  1.00  0.00    -0.264 C  
BRANCH  19  21
HETATM   21  C   UNL     1     -11.434   5.936  69.893  1.00  0.00     0.045 C  
BRANCH  21  22
HETATM   22  C   UNL     1     -12.603   6.292  70.818  1.00  0.00     0.639 C  
BRANCH  22  23
HETATM   23  C   UNL     1     -13.401   5.059  71.222  1.00  0.00     6.642 C  
BRANCH  23  24
HETATM   24  O   UNL     1     -12.499   4.014  71.626  1.00  0.00     4.862 OA 
BRANCH  24  25
HETATM   25  C   UNL     1     -12.166   4.002  72.942  1.00  0.00     0.872 C  
HETATM   26  O   UNL     1     -12.648   3.278  73.798  1.00  0.00     0.813 OA 
BRANCH  25  27
HETATM   27  C   UNL     1     -11.093   4.993  73.214  1.00  0.00    -0.406 A  
HETATM   28  C   UNL     1      -9.857   4.519  73.658  1.00  0.00    -0.163 A  
HETATM   29  C   UNL     1      -8.832   5.412  73.970  1.00  0.00    -0.120 A  
HETATM   30  C   UNL     1      -9.045   6.808  73.854  1.00  0.00    -0.170 A  
HETATM   31  C   UNL     1     -11.295   6.369  73.057  1.00  0.00    -0.100 A  
HETATM   32  C   UNL     1     -10.287   7.289  73.383  1.00  0.00    -0.363 A  
BRANCH  29  33
HETATM   33  O   UNL     1      -7.607   5.001  74.444  1.00  0.00    -0.088 OA 
HETATM   34  C   UNL     1      -7.267   3.636  74.219  1.00  0.00    -0.053 C  
ENDBRANCH  29  33
BRANCH  30  35
HETATM   35  O   UNL     1      -7.996   7.585  74.285  1.00  0.00    -0.143 OA 
HETATM   36  C   UNL     1      -6.705   6.996  74.365  1.00  0.00    -0.086 C  
ENDBRANCH  30  35
BRANCH  32  37
HETATM   37  O   UNL     1     -10.475   8.642  73.290  1.00  0.00     0.493 OA 
HETATM   38  C   UNL     1     -11.792   9.156  73.445  1.00  0.00     3.173 C  
ENDBRANCH  32  37
ENDBRANCH  25  27
ENDBRANCH  24  25
ENDBRANCH  23  24
ENDBRANCH  22  23
ENDBRANCH  21  22
ENDBRANCH  19  21
ENDBRANCH  18  19
ENDBRANCH  17  18
ENDBRANCH  15  17
ENDBRANCH  14  15
ENDBRANCH  13  14
ENDBRANCH  12  13
ENDBRANCH  11  12
ENDBRANCH   9  11
ENDBRANCH   5   9
BRANCH   8  39
HETATM   39  O   UNL     1      -7.814  17.261  66.165  1.00  0.00    -0.360 OA 
HETATM   40  C   UNL     1      -6.725  17.243  65.255  1.00  0.00     1.590 C  
ENDBRANCH   8  39
BRANCH   7  41
HETATM   41  O   UNL     1     -10.612  17.834  66.557  1.00  0.00    -0.313 OA 
HETATM   42  C   UNL     1     -11.219  18.087  67.813  1.00  0.00     0.304 C  
ENDBRANCH   7  41
ENDBRANCH   2   3
TORSDOF 21
ENDMDL
MODEL      352
REMARK 921   NORMALIZED FREE ENERGY PREDICTED BY IDOCK:   15.47 KCAL/MOL
REMARK 922        TOTAL FREE ENERGY PREDICTED BY IDOCK:   31.61 KCAL/MOL
REMARK 923 INTER-LIGAND FREE ENERGY PREDICTED BY IDOCK:    0.06 KCAL/MOL
REMARK 924 INTRA-LIGAND FREE ENERGY PREDICTED BY IDOCK:   31.55 KCAL/MOL
REMARK 927      BINDING AFFINITY PREDICTED BY RF-SCORE:    0.00 PKD
ROOT
HETATM    1  C   UNL     1     -12.140   9.118  70.946  1.00  0.00    -0.214 C  
HETATM    2  O   UNL     1     -11.695   7.763  70.953  1.00  0.00    -0.289 OA 
ENDROOT
BRANCH   2   3
HETATM    3  C   UNL     1     -10.370   7.548  71.242  1.00  0.00    -0.192 A  
HETATM    4  C   UNL     1      -9.533   8.621  71.569  1.00  0.00    -0.320 A  
HETATM    5  C   UNL     1      -8.183   8.430  71.868  1.00  0.00    -0.210 A  
HETATM    6  C   UNL     1      -7.661   7.142  71.847  1.00  0.00    -0.087 A  
HETATM    7  C   UNL     1      -9.859   6.229  71.256  1.00  0.00    -0.175 A  
HETATM    8  C   UNL     1      -8.485   6.039  71.552  1.00  0.00    -0.128 A  
BRANCH   5   9
HETATM    9  C   UNL     1      -7.391   9.644  72.186  1.00  0.00     1.428 C  
HETATM   10  O   UNL     1      -7.142   9.980  73.335  1.00  0.00     1.700 OA 
BRANCH   9  11
HETATM   11  O   UNL     1      -7.033  10.324  71.069  1.00  0.00    -0.278 OA 
BRANCH  11  12
HETATM   12  C   UNL     1      -7.918  10.126  69.951  1.00  0.00    -0.135 C  
BRANCH  12  13
HETATM   13  C   UNL     1      -9.319   9.799  70.461  1.00  0.00    -0.117 C  
BRANCH  13  14
HETATM   14  C   UNL     1     -10.386  10.082  69.402  1.00  0.00    -0.227 C  
BRANCH  14  15
HETATM   15  N   UNL     1      -9.843  10.690  68.169  1.00  0.00    -0.152 NA 
HETATM   16  C   UNL     1      -8.387  10.513  68.080  1.00  0.00    -0.119 C  
BRANCH  15  17
HETATM   17  C   UNL     1     -10.539  10.096  66.997  1.00  0.00    -0.225 C  
BRANCH  17  18
HETATM   18  C   UNL     1     -10.948  11.123  65.915  1.00  0.00    -0.103 C  
BRANCH  18  19
HETATM   19  N   UNL     1     -10.370  10.916  64.566  1.00  0.00    -0.345 NA 
HETATM   20  C   UNL     1      -9.500  12.034  64.187  1.00  0.00     0.119 C  
BRANCH  19  21
HETATM   21  C   UNL     1      -9.593   9.657  64.520  1.00  0.00    -0.024 C  
BRANCH  21  22
HETATM   22  C   UNL     1      -8.082   9.878  64.407  1.00  0.00    -0.157 C  
BRANCH  22  23
HETATM   23  C   UNL     1      -7.650  11.185  65.060  1.00  0.00     0.608 C  
BRANCH  23  24
HETATM   24  O   UNL     1      -7.630  11.025  66.489  1.00  0.00    -0.139 OA 
BRANCH  24  25
HETATM   25  C   UNL     1      -6.490  10.502  67.005  1.00  0.00    -0.076 C  
HETATM   26  O   UNL     1      -5.455  11.111  67.226  1.00  0.00    -0.043 OA 
BRANCH  25  27
HETATM   27  C   UNL     1      -6.669   9.056  67.299  1.00  0.00    -0.069 A  
HETATM   28  C   UNL     1      -7.780   8.408  66.757  1.00  0.00    -0.091 A  
HETATM   29  C   UNL     1      -8.016   7.063  67.040  1.00  0.00    -0.116 A  
HETATM   30  C   UNL     1      -7.138   6.350  67.894  1.00  0.00    -0.085 A  
HETATM   31  C   UNL     1      -5.775   8.347  68.108  1.00  0.00    -0.035 A  
HETATM   32  C   UNL     1      -6.000   6.999  68.425  1.00  0.00    -0.025 A  
BRANCH  29  33
HETATM   33  O   UNL     1      -9.113   6.384  66.561  1.00  0.00    -0.142 OA 
HETATM   34  C   UNL     1     -10.016   7.131  65.750  1.00  0.00     0.896 C  
ENDBRANCH  29  33
BRANCH  30  35
HETATM   35  O   UNL     1      -7.532   5.064  68.176  1.00  0.00    -0.073 OA 
HETATM   36  C   UNL     1      -8.877   4.693  67.907  1.00  0.00    -0.106 C  
ENDBRANCH  30  35
BRANCH  32  37
HETATM   37  O   UNL     1      -5.171   6.294  69.256  1.00  0.00    -0.011 OA 
HETATM   38  C   UNL     1      -5.730   5.693  70.419  1.00  0.00    -0.023 C  
ENDBRANCH  32  37
ENDBRANCH  25  27
ENDBRANCH  24  25
ENDBRANCH  23  24
ENDBRANCH  22  23
ENDBRANCH  21  22
ENDBRANCH  19  21
ENDBRANCH  18  19
ENDBRANCH  17  18
ENDBRANCH  15  17
ENDBRANCH  14  15
ENDBRANCH  13  14
ENDBRANCH  12  13
ENDBRANCH  11  12
ENDBRANCH   9  11
ENDBRANCH   5   9
BRANCH   8  39
HETATM   39  O   UNL     1      -7.771   4.865  71.603  1.00  0.00    -0.092 OA 
HETATM   40  C   UNL     1      -6.730   4.711  72.555  1.00  0.00    -0.051 C  
ENDBRANCH   8  39
BRANCH   7  41
HETATM   41  O   UNL     1     -10.579   5.095  70.990  1.00  0.00    -0.212 OA 
HETATM   42  C   UNL     1     -10.595   4.010  71.902  1.00  0.00     0.193 C  
ENDBRANCH   7  41
ENDBRANCH   2   3
TORSDOF 21
ENDMDL
MODEL      353
REMARK 921   NORMALIZED FREE ENERGY PREDICTED BY IDOCK:   18.92 KCAL/MOL
REMARK 922        TOTAL FREE ENERGY PREDICTED BY IDOCK:   39.30 KCAL/MOL
REMARK 923 INTER-LIGAND FREE ENERGY PREDICTED BY IDOCK:   19.47 KCAL/MOL
REMARK 924 INTRA-LIGAND FREE ENERGY PREDICTED BY IDOCK:   19.83 KCAL/MOL
REMARK 927      BINDING AFFINITY PREDICTED BY RF-SCORE:    0.00 PKD
ROOT
HETATM    1  C   UNL     1     -14.253   5.609  70.678  1.00  0.00     6.880 C  
HETATM    2  O   UNL     1     -13.296   5.355  69.653  1.00  0.00     9.433 OA 
ENDROOT
BRANCH   2   3
HETATM    3  C   UNL     1     -12.236   6.224  69.566  1.00  0.00     1.511 A  
HETATM    4  C   UNL     1     -12.432   7.539  69.129  1.00  0.00     2.940 A  
HETATM    5  C   UNL     1     -11.373   8.443  69.033  1.00  0.00     0.549 A  
HETATM    6  C   UNL     1     -10.094   8.027  69.387  1.00  0.00    -0.197 A  
HETATM    7  C   UNL     1     -10.947   5.802  69.966  1.00  0.00    -0.311 A  
HETATM    8  C   UNL     1      -9.871   6.720  69.860  1.00  0.00    -0.164 A  
BRANCH   5   9
HETATM    9  C   UNL     1     -11.699   9.805  68.544  1.00  0.00     0.635 C  
HETATM   10  O   UNL     1     -11.999  10.718  69.300  1.00  0.00    -0.308 OA 
BRANCH   9  11
HETATM   11  O   UNL     1     -11.661   9.881  67.190  1.00  0.00     0.597 OA 
BRANCH  11  12
HETATM   12  C   UNL     1     -11.097  11.105  66.686  1.00  0.00    -0.189 C  
BRANCH  12  13
HETATM   13  C   UNL     1      -9.582  10.961  66.574  1.00  0.00    -0.224 C  
BRANCH  13  14
HETATM   14  C   UNL     1      -8.898  11.110  67.934  1.00  0.00    -0.136 C  
BRANCH  14  15
HETATM   15  N   UNL     1      -9.422  10.182  68.959  1.00  0.00    -0.180 NA 
HETATM   16  C   UNL     1      -9.322   8.785  68.518  1.00  0.00    -0.141 C  
BRANCH  15  17
HETATM   17  C   UNL     1      -8.683  10.410  70.230  1.00  0.00     0.712 C  
BRANCH  17  18
HETATM   18  C   UNL     1      -7.220   9.908  70.211  1.00  0.00    -0.154 C  
BRANCH  18  19
HETATM   19  N   UNL     1      -6.458  10.162  68.966  1.00  0.00    -0.044 NA 
HETATM   20  C   UNL     1      -5.146  10.748  69.260  1.00  0.00    -0.038 C  
BRANCH  19  21
HETATM   21  C   UNL     1      -6.272   8.907  68.205  1.00  0.00    -0.051 C  
BRANCH  21  22
HETATM   22  C   UNL     1      -5.960   9.135  66.722  1.00  0.00    -0.056 C  
BRANCH  22  23
HETATM   23  C   UNL     1      -6.974  10.063  66.067  1.00  0.00    -0.110 C  
BRANCH  23  24
HETATM   24  O   UNL     1      -7.001   9.822  64.650  1.00  0.00    -0.111 OA 
BRANCH  24  25
HETATM   25  C   UNL     1      -6.300   8.741  64.225  1.00  0.00    -0.071 C  
HETATM   26  O   UNL     1      -5.166   8.751  63.774  1.00  0.00    -0.059 OA 
BRANCH  25  27
HETATM   27  C   UNL     1      -7.100   7.501  64.404  1.00  0.00    -0.069 A  
HETATM   28  C   UNL     1      -6.706   6.358  63.708  1.00  0.00    -0.040 A  
HETATM   29  C   UNL     1      -7.451   5.182  63.808  1.00  0.00    -0.061 A  
HETATM   30  C   UNL     1      -8.621   5.147  64.605  1.00  0.00    -0.142 A  
HETATM   31  C   UNL     1      -8.231   7.460  65.227  1.00  0.00    -0.128 A  
HETATM   32  C   UNL     1      -9.009   6.297  65.329  1.00  0.00     0.162 A  
BRANCH  29  33
HETATM   33  O   UNL     1      -7.128   4.037  63.117  1.00  0.00    -0.043 OA 
HETATM   34  C   UNL     1      -5.833   3.493  63.361  1.00  0.00    -0.014 C  
ENDBRANCH  29  33
BRANCH  30  35
HETATM   35  O   UNL     1      -9.321   3.965  64.543  1.00  0.00    -0.136 OA 
HETATM   36  C   UNL     1     -10.047   3.669  63.358  1.00  0.00    -0.189 C  
ENDBRANCH  30  35
BRANCH  32  37
HETATM   37  O   UNL     1     -10.149   6.243  66.085  1.00  0.00    -0.007 OA 
HETATM   38  C   UNL     1     -10.492   5.011  66.708  1.00  0.00    -0.219 C  
ENDBRANCH  32  37
ENDBRANCH  25  27
ENDBRANCH  24  25
ENDBRANCH  23  24
ENDBRANCH  22  23
ENDBRANCH  21  22
ENDBRANCH  19  21
ENDBRANCH  18  19
ENDBRANCH  17  18
ENDBRANCH  15  17
ENDBRANCH  14  15
ENDBRANCH  13  14
ENDBRANCH  12  13
ENDBRANCH  11  12
ENDBRANCH   9  11
ENDBRANCH   5   9
BRANCH   8  39
HETATM   39  O   UNL     1      -8.544   6.528  70.166  1.00  0.00    -0.136 OA 
HETATM   40  C   UNL     1      -7.996   7.117  71.335  1.00  0.00    -0.102 C  
ENDBRANCH   8  39
BRANCH   7  41
HETATM   41  O   UNL     1     -10.630   4.558  70.443  1.00  0.00     0.066 OA 
HETATM   42  C   UNL     1      -9.411   3.927  70.086  1.00  0.00    -0.191 C  
ENDBRANCH   7  41
ENDBRANCH   2   3
TORSDOF 21
ENDMDL
MODEL      354
REMARK 921   NORMALIZED FREE ENERGY PREDICTED BY IDOCK:   19.47 KCAL/MOL
REMARK 922        TOTAL FREE ENERGY PREDICTED BY IDOCK:   40.51 KCAL/MOL
REMARK 923 INTER-LIGAND FREE ENERGY PREDICTED BY IDOCK:   33.71 KCAL/MOL
REMARK 924 INTRA-LIGAND FREE ENERGY PREDICTED BY IDOCK:    6.80 KCAL/MOL
REMARK 927      BINDING AFFINITY PREDICTED BY RF-SCORE:    0.00 PKD
ROOT
HETATM    1  C   UNL     1     -11.417   4.965  66.056  1.00  0.00     1.289 C  
HETATM    2  O   UNL     1     -12.274   6.098  65.935  1.00  0.00     2.873 OA 
ENDROOT
BRANCH   2   3
HETATM    3  C   UNL     1     -11.708   7.329  66.158  1.00  0.00     4.546 A  
HETATM    4  C   UNL     1     -11.153   8.056  65.098  1.00  0.00     7.889 A  
HETATM    5  C   UNL     1     -10.572   9.310  65.296  1.00  0.00     1.873 A  
HETATM    6  C   UNL     1     -10.552   9.851  66.577  1.00  0.00    -0.156 A  
HETATM    7  C   UNL     1     -11.727   7.888  67.457  1.00  0.00     2.356 A  
HETATM    8  C   UNL     1     -11.130   9.158  67.657  1.00  0.00     0.232 A  
BRANCH   5   9
HETATM    9  C   UNL     1     -10.003   9.980  64.101  1.00  0.00     0.132 C  
HETATM   10  O   UNL     1     -10.671  10.218  63.105  1.00  0.00     0.785 OA 
BRANCH   9  11
HETATM   11  O   UNL     1      -8.681  10.241  64.247  1.00  0.00    -0.181 OA 
BRANCH  11  12
HETATM   12  C   UNL     1      -8.276  11.525  63.738  1.00  0.00     1.082 C  
BRANCH  12  13
HETATM   13  C   UNL     1      -6.767  11.686  63.897  1.00  0.00     3.027 C  
BRANCH  13  14
HETATM   14  C   UNL     1      -6.230  10.853  65.062  1.00  0.00     0.214 C  
BRANCH  14  15
HETATM   15  N   UNL     1      -7.232  10.610  66.122  1.00  0.00    -0.135 NA 
HETATM   16  C   UNL     1      -7.527   9.178  66.262  1.00  0.00    -0.092 C  
BRANCH  15  17
HETATM   17  C   UNL     1      -6.731  11.194  67.395  1.00  0.00    -0.084 C  
BRANCH  17  18
HETATM   18  C   UNL     1      -7.559  12.395  67.910  1.00  0.00    -0.130 C  
BRANCH  18  19
HETATM   19  N   UNL     1      -7.198  12.911  69.251  1.00  0.00     0.087 NA 
HETATM   20  C   UNL     1      -6.162  12.081  69.874  1.00  0.00    -0.130 C  
BRANCH  19  21
HETATM   21  C   UNL     1      -6.715  14.307  69.160  1.00  0.00    -0.118 C  
BRANCH  21  22
HETATM   22  C   UNL     1      -5.834  14.567  67.934  1.00  0.00    -0.137 C  
BRANCH  22  23
HETATM   23  C   UNL     1      -6.612  15.237  66.809  1.00  0.00     1.039 C  
BRANCH  23  24
HETATM   24  O   UNL     1      -6.934  16.587  67.184  1.00  0.00    -0.156 OA 
BRANCH  24  25
HETATM   25  C   UNL     1      -7.220  16.779  68.497  1.00  0.00    -0.194 C  
HETATM   26  O   UNL     1      -6.408  16.898  69.400  1.00  0.00    -0.209 OA 
BRANCH  25  27
HETATM   27  C   UNL     1      -8.691  16.852  68.702  1.00  0.00    -0.267 A  
HETATM   28  C   UNL     1      -9.394  15.655  68.846  1.00  0.00    -0.223 A  
HETATM   29  C   UNL     1     -10.781  15.669  68.996  1.00  0.00    -0.236 A  
HETATM   30  C   UNL     1     -11.486  16.898  68.987  1.00  0.00     0.319 A  
HETATM   31  C   UNL     1      -9.376  18.071  68.734  1.00  0.00    -0.251 A  
HETATM   32  C   UNL     1     -10.772  18.111  68.863  1.00  0.00     0.318 A  
BRANCH  29  33
HETATM   33  O   UNL     1     -11.528  14.518  69.108  1.00  0.00    -0.261 OA 
HETATM   34  C   UNL     1     -11.614  13.703  67.943  1.00  0.00    -0.341 C  
ENDBRANCH  29  33
BRANCH  30  35
HETATM   35  O   UNL     1     -12.854  16.774  69.041  1.00  0.00     1.622 OA 
HETATM   36  C   UNL     1     -13.406  15.649  69.712  1.00  0.00     1.103 C  
ENDBRANCH  30  35
BRANCH  32  37
HETATM   37  O   UNL     1     -11.475  19.286  68.845  1.00  0.00     1.996 OA 
HETATM   38  C   UNL     1     -10.927  20.413  69.519  1.00  0.00     1.397 C  
ENDBRANCH  32  37
ENDBRANCH  25  27
ENDBRANCH  24  25
ENDBRANCH  23  24
ENDBRANCH  22  23
ENDBRANCH  21  22
ENDBRANCH  19  21
ENDBRANCH  18  19
ENDBRANCH  17  18
ENDBRANCH  15  17
ENDBRANCH  14  15
ENDBRANCH  13  14
ENDBRANCH  12  13
ENDBRANCH  11  12
ENDBRANCH   9  11
ENDBRANCH   5   9
BRANCH   8  39
HETATM   39  O   UNL     1     -11.013   9.879  68.823  1.00  0.00    -0.223 OA 
HETATM   40  C   UNL     1     -10.568   9.238  70.008  1.00  0.00    -0.228 C  
ENDBRANCH   8  39
BRANCH   7  41
HETATM   41  O   UNL     1     -12.269   7.297  68.568  1.00  0.00     1.982 OA 
HETATM   42  C   UNL     1     -11.882   5.992  68.963  1.00  0.00     1.295 C  
ENDBRANCH   7  41
ENDBRANCH   2   3
TORSDOF 21
ENDMDL
MODEL      355
REMARK 921   NORMALIZED FREE ENERGY PREDICTED BY IDOCK:   22.80 KCAL/MOL
REMARK 922        TOTAL FREE ENERGY PREDICTED BY IDOCK:   47.92 KCAL/MOL
REMARK 923 INTER-LIGAND FREE ENERGY PREDICTED BY IDOCK:   18.55 KCAL/MOL
REMARK 924 INTRA-LIGAND FREE ENERGY PREDICTED BY IDOCK:   29.37 KCAL/MOL
REMARK 927      BINDING AFFINITY PREDICTED BY RF-SCORE:    0.00 PKD
ROOT
HETATM    1  C   UNL     1     -11.925   3.941  73.225  1.00  0.00     0.336 C  
HETATM    2  O   UNL     1     -11.145   5.126  73.086  1.00  0.00    -0.279 OA 
ENDROOT
BRANCH   2   3
HETATM    3  C   UNL     1     -10.953   5.596  71.810  1.00  0.00    -0.226 A  
HETATM    4  C   UNL     1     -10.788   6.966  71.577  1.00  0.00    -0.257 A  
HETATM    5  C   UNL     1     -10.591   7.470  70.290  1.00  0.00    -0.235 A  
HETATM    6  C   UNL     1     -10.549   6.587  69.217  1.00  0.00    -0.292 A  
HETATM    7  C   UNL     1     -10.873   4.686  70.731  1.00  0.00     0.660 A  
HETATM    8  C   UNL     1     -10.680   5.201  69.424  1.00  0.00     0.125 A  
BRANCH   5   9
HETATM    9  C   UNL     1     -10.444   8.941  70.164  1.00  0.00    -0.214 C  
HETATM   10  O   UNL     1     -10.015   9.636  71.073  1.00  0.00    -0.247 OA 
BRANCH   9  11
HETATM   11  O   UNL     1     -10.876   9.393  68.960  1.00  0.00    -0.211 OA 
BRANCH  11  12
HETATM   12  C   UNL     1     -10.932  10.827  68.857  1.00  0.00    -0.241 C  
BRANCH  12  13
HETATM   13  C   UNL     1     -10.469  11.453  70.169  1.00  0.00     0.960 C  
BRANCH  13  14
HETATM   14  C   UNL     1     -10.469  12.980  70.098  1.00  0.00     1.897 C  
BRANCH  14  15
HETATM   15  N   UNL     1     -10.202  13.505  68.742  1.00  0.00    -0.182 NA 
HETATM   16  C   UNL     1      -9.199  12.693  68.041  1.00  0.00    -0.208 C  
BRANCH  15  17
HETATM   17  C   UNL     1     -11.485  13.561  67.991  1.00  0.00    -0.307 C  
BRANCH  17  18
HETATM   18  C   UNL     1     -11.501  12.708  66.701  1.00  0.00    -0.351 C  
BRANCH  18  19
HETATM   19  N   UNL     1     -10.813  11.398  66.775  1.00  0.00    -0.275 NA 
HETATM   20  C   UNL     1     -11.185  10.541  65.645  1.00  0.00     0.649 C  
BRANCH  19  21
HETATM   21  C   UNL     1      -9.344  11.582  66.785  1.00  0.00    -0.181 C  
BRANCH  21  22
HETATM   22  C   UNL     1      -8.648  10.861  67.944  1.00  0.00    -0.130 C  
BRANCH  22  23
HETATM   23  C   UNL     1      -8.909   9.361  67.916  1.00  0.00    -0.124 C  
BRANCH  23  24
HETATM   24  O   UNL     1      -9.780   9.044  66.817  1.00  0.00    -0.179 OA 
BRANCH  24  25
HETATM   25  C   UNL     1      -9.191   8.432  65.759  1.00  0.00    -0.111 C  
HETATM   26  O   UNL     1      -9.388   8.685  64.581  1.00  0.00     0.296 OA 
BRANCH  25  27
HETATM   27  C   UNL     1      -8.229   7.399  66.227  1.00  0.00    -0.126 A  
HETATM   28  C   UNL     1      -8.104   6.230  65.476  1.00  0.00    -0.129 A  
HETATM   29  C   UNL     1      -7.248   5.212  65.898  1.00  0.00    -0.073 A  
HETATM   30  C   UNL     1      -6.513   5.353  67.100  1.00  0.00    -0.048 A  
HETATM   31  C   UNL     1      -7.474   7.563  67.393  1.00  0.00    -0.104 A  
HETATM   32  C   UNL     1      -6.621   6.546  67.850  1.00  0.00    -0.065 A  
BRANCH  29  33
HETATM   33  O   UNL     1      -7.112   4.024  65.215  1.00  0.00    -0.060 OA 
HETATM   34  C   UNL     1      -7.486   2.843  65.918  1.00  0.00    -0.072 C  
ENDBRANCH  29  33
BRANCH  30  35
HETATM   35  O   UNL     1      -5.784   4.244  67.460  1.00  0.00    -0.020 OA 
HETATM   36  C   UNL     1      -6.079   3.612  68.697  1.00  0.00    -0.028 C  
ENDBRANCH  30  35
BRANCH  32  37
HETATM   37  O   UNL     1      -5.910   6.657  69.015  1.00  0.00    -0.020 OA 
HETATM   38  C   UNL     1      -6.097   7.818  69.815  1.00  0.00    -0.027 C  
ENDBRANCH  32  37
ENDBRANCH  25  27
ENDBRANCH  24  25
ENDBRANCH  23  24
ENDBRANCH  22  23
ENDBRANCH  21  22
ENDBRANCH  19  21
ENDBRANCH  18  19
ENDBRANCH  17  18
ENDBRANCH  15  17
ENDBRANCH  14  15
ENDBRANCH  13  14
ENDBRANCH  12  13
ENDBRANCH  11  12
ENDBRANCH   9  11
ENDBRANCH   5   9
BRANCH   8  39
HETATM   39  O   UNL     1     -10.593   4.516  68.234  1.00  0.00     0.284 OA 
HETATM   40  C   UNL     1     -11.655   4.593  67.296  1.00  0.00     4.917 C  
ENDBRANCH   8  39
BRANCH   7  41
HETATM   41  O   UNL     1     -10.981   3.324  70.830  1.00  0.00     2.200 OA 
HETATM   42  C   UNL     1     -12.250   2.692  70.845  1.00  0.00    11.249 C  
ENDBRANCH   7  41
ENDBRANCH   2   3
TORSDOF 21
ENDMDL
MODEL      356
REMARK 921   NORMALIZED FREE ENERGY PREDICTED BY IDOCK:   24.47 KCAL/MOL
REMARK 922        TOTAL FREE ENERGY PREDICTED BY IDOCK:   51.65 KCAL/MOL
REMARK 923 INTER-LIGAND FREE ENERGY PREDICTED BY IDOCK:   39.69 KCAL/MOL
REMARK 924 INTRA-LIGAND FREE ENERGY PREDICTED BY IDOCK:   11.96 KCAL/MOL
REMARK 927      BINDING AFFINITY PREDICTED BY RF-SCORE:    0.00 PKD
ROOT
HETATM    1  C   UNL     1      -5.823  14.689  69.136  1.00  0.00    -0.099 C  
HETATM    2  O   UNL     1      -6.444  14.647  67.853  1.00  0.00    -0.136 OA 
ENDROOT
BRANCH   2   3
HETATM    3  C   UNL     1      -6.908  15.838  67.350  1.00  0.00    -0.201 A  
HETATM    4  C   UNL     1      -7.972  16.503  67.972  1.00  0.00    -0.161 A  
HETATM    5  C   UNL     1      -8.462  17.715  67.482  1.00  0.00    -0.220 A  
HETATM    6  C   UNL     1      -7.874  18.277  66.355  1.00  0.00    -0.290 A  
HETATM    7  C   UNL     1      -6.277  16.421  66.227  1.00  0.00     0.987 A  
HETATM    8  C   UNL     1      -6.782  17.648  65.727  1.00  0.00    -0.129 A  
BRANCH   5   9
HETATM    9  C   UNL     1      -9.602  18.319  68.215  1.00  0.00    -0.318 C  
HETATM   10  O   UNL     1     -10.713  17.809  68.233  1.00  0.00    -0.343 OA 
BRANCH   9  11
HETATM   11  O   UNL     1      -9.263  19.494  68.802  1.00  0.00    -0.366 OA 
BRANCH  11  12
HETATM   12  C   UNL     1      -9.493  19.529  70.222  1.00  0.00     1.072 C  
BRANCH  12  13
HETATM   13  C   UNL     1      -8.177  19.801  70.946  1.00  0.00     2.087 C  
BRANCH  13  14
HETATM   14  C   UNL     1      -7.156  18.690  70.698  1.00  0.00     1.926 C  
BRANCH  14  15
HETATM   15  N   UNL     1      -6.082  18.642  71.713  1.00  0.00     0.887 NA 
HETATM   16  C   UNL     1      -6.294  19.646  72.765  1.00  0.00     2.124 C  
BRANCH  15  17
HETATM   17  C   UNL     1      -6.017  17.266  72.274  1.00  0.00     2.456 C  
BRANCH  17  18
HETATM   18  C   UNL     1      -7.252  16.391  71.951  1.00  0.00     6.977 C  
BRANCH  18  19
HETATM   19  N   UNL     1      -7.218  15.664  70.660  1.00  0.00     0.943 NA 
HETATM   20  C   UNL     1      -5.906  15.047  70.436  1.00  0.00    -0.143 C  
BRANCH  19  21
HETATM   21  C   UNL     1      -8.262  14.615  70.626  1.00  0.00     2.015 C  
BRANCH  21  22
HETATM   22  C   UNL     1      -9.385  14.907  69.626  1.00  0.00     0.084 C  
BRANCH  22  23
HETATM   23  C   UNL     1     -10.738  14.432  70.139  1.00  0.00     0.240 C  
BRANCH  23  24
HETATM   24  O   UNL     1     -11.779  14.931  69.283  1.00  0.00    -0.285 OA 
BRANCH  24  25
HETATM   25  C   UNL     1     -12.071  14.162  68.204  1.00  0.00    -0.262 C  
HETATM   26  O   UNL     1     -12.568  14.549  67.158  1.00  0.00    -0.020 OA 
BRANCH  25  27
HETATM   27  C   UNL     1     -11.678  12.750  68.451  1.00  0.00    -0.380 A  
HETATM   28  C   UNL     1     -10.505  12.281  67.858  1.00  0.00    -0.227 A  
HETATM   29  C   UNL     1     -10.117  10.951  68.024  1.00  0.00    -0.177 A  
HETATM   30  C   UNL     1     -10.920  10.065  68.782  1.00  0.00    -0.202 A  
HETATM   31  C   UNL     1     -12.453  11.891  69.238  1.00  0.00     0.192 A  
HETATM   32  C   UNL     1     -12.095  10.544  69.403  1.00  0.00    -0.104 A  
BRANCH  29  33
HETATM   33  O   UNL     1      -8.989  10.427  67.433  1.00  0.00    -0.135 OA 
HETATM   34  C   UNL     1      -7.775  10.547  68.169  1.00  0.00    -0.096 C  
ENDBRANCH  29  33
BRANCH  30  35
HETATM   35  O   UNL     1     -10.484   8.761  68.788  1.00  0.00    -0.214 OA 
HETATM   36  C   UNL     1      -9.663   8.316  67.718  1.00  0.00    -0.158 C  
ENDBRANCH  30  35
BRANCH  32  37
HETATM   37  O   UNL     1     -12.862   9.667  70.123  1.00  0.00     0.250 OA 
HETATM   38  C   UNL     1     -13.377  10.091  71.379  1.00  0.00    -0.347 C  
ENDBRANCH  32  37
ENDBRANCH  25  27
ENDBRANCH  24  25
ENDBRANCH  23  24
ENDBRANCH  22  23
ENDBRANCH  21  22
ENDBRANCH  19  21
ENDBRANCH  18  19
ENDBRANCH  17  18
ENDBRANCH  15  17
ENDBRANCH  14  15
ENDBRANCH  13  14
ENDBRANCH  12  13
ENDBRANCH  11  12
ENDBRANCH   9  11
ENDBRANCH   5   9
BRANCH   8  39
HETATM   39  O   UNL     1      -6.347  18.381  64.647  1.00  0.00    -0.308 OA 
HETATM   40  C   UNL     1      -5.889  17.715  63.481  1.00  0.00     4.208 C  
ENDBRANCH   8  39
BRANCH   7  41
HETATM   41  O   UNL     1      -5.208  15.892  65.552  1.00  0.00     3.467 OA 
HETATM   42  C   UNL     1      -5.278  14.600  64.972  1.00  0.00    15.090 C  
ENDBRANCH   7  41
ENDBRANCH   2   3
TORSDOF 21
ENDMDL
MODEL      357
REMARK 921   NORMALIZED FREE ENERGY PREDICTED BY IDOCK:   29.21 KCAL/MOL
REMARK 922        TOTAL FREE ENERGY PREDICTED BY IDOCK:   62.22 KCAL/MOL
REMARK 923 INTER-LIGAND FREE ENERGY PREDICTED BY IDOCK:   57.32 KCAL/MOL
REMARK 924 INTRA-LIGAND FREE ENERGY PREDICTED BY IDOCK:    4.90 KCAL/MOL
REMARK 927      BINDING AFFINITY PREDICTED BY RF-SCORE:    0.00 PKD
ROOT
HETATM    1  C   UNL     1     -10.545   6.382  65.840  1.00  0.00     1.056 C  
HETATM    2  O   UNL     1      -9.506   6.979  66.612  1.00  0.00    -0.158 OA 
ENDROOT
BRANCH   2   3
HETATM    3  C   UNL     1      -9.875   7.968  67.489  1.00  0.00    -0.172 A  
HETATM    4  C   UNL     1     -11.200   8.421  67.529  1.00  0.00     0.652 A  
HETATM    5  C   UNL     1     -11.603   9.424  68.411  1.00  0.00     0.754 A  
HETATM    6  C   UNL     1     -10.667   9.982  69.275  1.00  0.00    -0.249 A  
HETATM    7  C   UNL     1      -8.925   8.501  68.390  1.00  0.00    -0.139 A  
HETATM    8  C   UNL     1      -9.335   9.526  69.280  1.00  0.00    -0.169 A  
BRANCH   5   9
HETATM    9  C   UNL     1     -13.028   9.832  68.354  1.00  0.00     6.342 C  
HETATM   10  O   UNL     1     -13.544  10.531  69.214  1.00  0.00     1.249 OA 
BRANCH   9  11
HETATM   11  O   UNL     1     -13.664   9.306  67.277  1.00  0.00    15.803 OA 
BRANCH  11  12
HETATM   12  C   UNL     1     -12.960   9.484  66.034  1.00  0.00    16.316 C  
BRANCH  12  13
HETATM   13  C   UNL     1     -12.313  10.866  66.007  1.00  0.00     3.618 C  
BRANCH  13  14
HETATM   14  C   UNL     1     -11.459  11.065  64.755  1.00  0.00     0.448 C  
BRANCH  14  15
HETATM   15  N   UNL     1     -12.112  11.899  63.724  1.00  0.00    -0.454 NA 
HETATM   16  C   UNL     1     -13.466  12.294  64.134  1.00  0.00     0.768 C  
BRANCH  15  17
HETATM   17  C   UNL     1     -11.254  13.083  63.453  1.00  0.00    -0.072 C  
BRANCH  17  18
HETATM   18  C   UNL     1     -10.999  13.977  64.691  1.00  0.00    -0.392 C  
BRANCH  18  19
HETATM   19  N   UNL     1     -10.832  13.271  65.983  1.00  0.00    -0.272 NA 
HETATM   20  C   UNL     1      -9.413  13.062  66.290  1.00  0.00    -0.192 C  
BRANCH  19  21
HETATM   21  C   UNL     1     -11.460  14.039  67.081  1.00  0.00    -0.352 C  
BRANCH  21  22
HETATM   22  C   UNL     1     -12.031  13.154  68.193  1.00  0.00    -0.333 C  
BRANCH  22  23
HETATM   23  C   UNL     1     -12.037  13.869  69.539  1.00  0.00    -0.342 C  
BRANCH  23  24
HETATM   24  O   UNL     1     -11.448  15.173  69.393  1.00  0.00    -0.269 OA 
BRANCH  24  25
HETATM   25  C   UNL     1     -10.098  15.195  69.260  1.00  0.00    -0.246 C  
HETATM   26  O   UNL     1      -9.355  14.228  69.305  1.00  0.00     0.045 OA 
BRANCH  25  27
HETATM   27  C   UNL     1      -9.623  16.584  69.022  1.00  0.00    -0.255 A  
HETATM   28  C   UNL     1      -9.372  17.392  70.131  1.00  0.00     2.036 A  
HETATM   29  C   UNL     1      -8.968  18.716  69.959  1.00  0.00     1.614 A  
HETATM   30  C   UNL     1      -8.826  19.253  68.657  1.00  0.00    -0.374 A  
HETATM   31  C   UNL     1      -9.444  17.096  67.732  1.00  0.00    -0.253 A  
HETATM   32  C   UNL     1      -9.059  18.430  67.532  1.00  0.00    -0.271 A  
BRANCH  29  33
HETATM   33  O   UNL     1      -8.740  19.567  71.017  1.00  0.00     2.203 OA 
HETATM   34  C   UNL     1      -9.446  20.804  70.999  1.00  0.00     2.332 C  
ENDBRANCH  29  33
BRANCH  30  35
HETATM   35  O   UNL     1      -8.522  20.594  68.620  1.00  0.00     0.508 OA 
HETATM   36  C   UNL     1      -7.312  20.996  67.992  1.00  0.00     0.130 C  
ENDBRANCH  30  35
BRANCH  32  37
HETATM   37  O   UNL     1      -8.927  18.973  66.282  1.00  0.00    -0.340 OA 
HETATM   38  C   UNL     1      -9.311  18.189  65.159  1.00  0.00     2.357 C  
ENDBRANCH  32  37
ENDBRANCH  25  27
ENDBRANCH  24  25
ENDBRANCH  23  24
ENDBRANCH  22  23
ENDBRANCH  21  22
ENDBRANCH  19  21
ENDBRANCH  18  19
ENDBRANCH  17  18
ENDBRANCH  15  17
ENDBRANCH  14  15
ENDBRANCH  13  14
ENDBRANCH  12  13
ENDBRANCH  11  12
ENDBRANCH   9  11
ENDBRANCH   5   9
BRANCH   8  39
HETATM   39  O   UNL     1      -8.588  10.200  70.218  1.00  0.00    -0.031 OA 
HETATM   40  C   UNL     1      -9.099  10.381  71.530  1.00  0.00     4.589 C  
ENDBRANCH   8  39
BRANCH   7  41
HETATM   41  O   UNL     1      -7.611   8.121  68.476  1.00  0.00    -0.099 OA 
HETATM   42  C   UNL     1      -6.753   8.201  67.351  1.00  0.00    -0.066 C  
ENDBRANCH   7  41
ENDBRANCH   2   3
TORSDOF 21
ENDMDL
