MODEL        1
REMARK 921   NORMALIZED FREE ENERGY PREDICTED BY IDOCK:   -6.24 KCAL/MOL
REMARK 922        TOTAL FREE ENERGY PREDICTED BY IDOCK:   -7.00 KCAL/MOL
REMARK 923 INTER-LIGAND FREE ENERGY PREDICTED BY IDOCK:   -6.60 KCAL/MOL
REMARK 924 INTRA-LIGAND FREE ENERGY PREDICTED BY IDOCK:   -0.39 KCAL/MOL
REMARK 927      BINDING AFFINITY PREDICTED BY RF-SCORE:    0.00 PKD
ROOT
HETATM    1  C   UNL     1     -10.389  11.346  65.417  1.00  0.00    -0.279 C  
HETATM    2  N   UNL     1     -11.194  12.641  65.384  1.00  0.00    -0.290 N  
HETATM    3  C   UNL     1     -12.415  12.437  64.490  1.00  0.00    -0.435 C  
HETATM    4  C   UNL     1     -11.658  12.965  66.836  1.00  0.00    -0.368 C  
HETATM    5  C   UNL     1     -12.063  14.444  67.012  1.00  0.00    -0.342 C  
HETATM    6  N   UNL     1     -11.030  15.400  66.580  1.00  0.00    -0.304 NA 
HETATM    7  C   UNL     1     -10.771  15.180  65.144  1.00  0.00    -0.422 C  
HETATM    8  C   UNL     1     -10.289  13.754  64.792  1.00  0.00    -0.398 C  
ENDROOT
BRANCH   6   9
HETATM    9  C   UNL     1      -9.760  15.324  67.363  1.00  0.00    -0.208 C  
HETATM   10  C   UNL     1      -9.410  16.402  68.451  1.00  0.00    -0.217 C  
HETATM   11  C   UNL     1      -9.560  17.843  67.942  1.00  0.00    -0.286 A  
HETATM   12  C   UNL     1      -8.006  16.146  69.150  1.00  0.00    -0.233 C  
HETATM   13  O   UNL     1     -10.430  16.237  69.478  1.00  0.00    -0.265 OA 
HETATM   14  C   UNL     1      -9.905  18.884  68.824  1.00  0.00    -0.461 A  
HETATM   15  C   UNL     1      -7.790  14.739  69.772  1.00  0.00     0.109 C  
HETATM   16  H   UNL     1     -10.219  16.889  70.136  1.00  0.00     0.000 HD 
HETATM   17  C   UNL     1      -7.290  13.651  68.818  1.00  0.00    -0.093 C  
HETATM   18  C   UNL     1     -10.163  20.180  68.360  1.00  0.00    -0.438 A  
HETATM   19  C   UNL     1      -6.120  14.089  67.950  1.00  0.00    -0.155 C  
HETATM   20  C   UNL     1     -10.073  20.464  67.002  1.00  0.00    -0.507 A  
HETATM   21  C   UNL     1      -6.293  15.470  67.331  1.00  0.00    -0.106 C  
HETATM   22  C   UNL     1      -9.672  19.470  66.118  1.00  0.00    -0.461 A  
HETATM   23  C   UNL     1      -9.405  18.178  66.583  1.00  0.00    -0.300 A  
HETATM   24  C   UNL     1      -6.745  16.517  68.342  1.00  0.00    -0.143 C  
ENDBRANCH   6   9
TORSDOF 1
ENDMDL
MODEL        2
REMARK 921   NORMALIZED FREE ENERGY PREDICTED BY IDOCK:   -6.19 KCAL/MOL
REMARK 922        TOTAL FREE ENERGY PREDICTED BY IDOCK:   -6.95 KCAL/MOL
REMARK 923 INTER-LIGAND FREE ENERGY PREDICTED BY IDOCK:   -6.56 KCAL/MOL
REMARK 924 INTRA-LIGAND FREE ENERGY PREDICTED BY IDOCK:   -0.39 KCAL/MOL
REMARK 927      BINDING AFFINITY PREDICTED BY RF-SCORE:    0.00 PKD
ROOT
HETATM    1  C   UNL     1      -8.082  17.847  66.452  1.00  0.00    -0.261 C  
HETATM    2  N   UNL     1      -8.019  17.016  67.731  1.00  0.00    -0.183 N  
HETATM    3  C   UNL     1      -7.044  17.679  68.699  1.00  0.00    -0.245 C  
HETATM    4  C   UNL     1      -9.444  16.984  68.362  1.00  0.00    -0.269 C  
HETATM    5  C   UNL     1      -9.620  15.827  69.368  1.00  0.00    -0.284 C  
HETATM    6  N   UNL     1      -9.274  14.505  68.821  1.00  0.00    -0.186 NA 
HETATM    7  C   UNL     1      -7.854  14.530  68.419  1.00  0.00    -0.135 C  
HETATM    8  C   UNL     1      -7.508  15.598  67.358  1.00  0.00    -0.205 C  
ENDROOT
BRANCH   6   9
HETATM    9  C   UNL     1     -10.137  14.068  67.682  1.00  0.00    -0.241 C  
HETATM   10  C   UNL     1     -11.380  13.137  67.915  1.00  0.00    -0.286 C  
HETATM   11  C   UNL     1     -11.053  11.895  68.756  1.00  0.00    -0.296 A  
HETATM   12  C   UNL     1     -12.147  12.776  66.570  1.00  0.00    -0.338 C  
HETATM   13  O   UNL     1     -12.294  13.933  68.722  1.00  0.00    -0.477 OA 
HETATM   14  C   UNL     1     -12.035  11.303  69.573  1.00  0.00    -0.421 A  
HETATM   15  C   UNL     1     -12.594  13.975  65.688  1.00  0.00    -0.542 C  
HETATM   16  H   UNL     1     -13.046  13.370  68.863  1.00  0.00     0.000 HD 
HETATM   17  C   UNL     1     -11.548  14.520  64.712  1.00  0.00    -0.414 C  
HETATM   18  C   UNL     1     -11.726  10.245  70.438  1.00  0.00    -0.404 A  
HETATM   19  C   UNL     1     -10.839  13.440  63.909  1.00  0.00    -0.075 C  
HETATM   20  C   UNL     1     -10.428   9.750  70.497  1.00  0.00    -0.366 A  
HETATM   21  C   UNL     1     -10.394  12.244  64.741  1.00  0.00    -0.320 C  
HETATM   22  C   UNL     1      -9.455  10.274  69.653  1.00  0.00    -0.180 A  
HETATM   23  C   UNL     1      -9.767  11.324  68.783  1.00  0.00    -0.184 A  
HETATM   24  C   UNL     1     -11.495  11.719  65.655  1.00  0.00    -0.249 C  
ENDBRANCH   6   9
TORSDOF 1
ENDMDL
MODEL        3
REMARK 921   NORMALIZED FREE ENERGY PREDICTED BY IDOCK:   -6.09 KCAL/MOL
REMARK 922        TOTAL FREE ENERGY PREDICTED BY IDOCK:   -6.84 KCAL/MOL
REMARK 923 INTER-LIGAND FREE ENERGY PREDICTED BY IDOCK:   -6.45 KCAL/MOL
REMARK 924 INTRA-LIGAND FREE ENERGY PREDICTED BY IDOCK:   -0.39 KCAL/MOL
REMARK 927      BINDING AFFINITY PREDICTED BY RF-SCORE:    0.00 PKD
ROOT
HETATM    1  C   UNL     1      -8.834   8.390  65.712  1.00  0.00    -0.165 C  
HETATM    2  N   UNL     1      -8.843   8.879  67.158  1.00  0.00    -0.123 N  
HETATM    3  C   UNL     1      -8.302   7.768  68.054  1.00  0.00    -0.124 C  
HETATM    4  C   UNL     1      -7.916  10.128  67.256  1.00  0.00    -0.110 C  
HETATM    5  C   UNL     1      -8.196  10.976  68.514  1.00  0.00    -0.146 C  
HETATM    6  N   UNL     1      -9.606  11.373  68.663  1.00  0.00    -0.193 NA 
HETATM    7  C   UNL     1     -10.421  10.147  68.765  1.00  0.00    -0.204 C  
HETATM    8  C   UNL     1     -10.310   9.202  67.547  1.00  0.00    -0.261 C  
ENDROOT
BRANCH   6   9
HETATM    9  C   UNL     1     -10.113  12.254  67.568  1.00  0.00    -0.201 C  
HETATM   10  C   UNL     1     -10.296  13.799  67.788  1.00  0.00    -0.241 C  
HETATM   11  C   UNL     1     -11.082  14.137  69.062  1.00  0.00    -0.292 A  
HETATM   12  C   UNL     1     -10.865  14.545  66.505  1.00  0.00    -0.314 C  
HETATM   13  O   UNL     1      -8.948  14.304  68.008  1.00  0.00    -0.169 OA 
HETATM   14  C   UNL     1     -10.841  15.337  69.757  1.00  0.00    -0.300 A  
HETATM   15  C   UNL     1     -10.085  14.330  65.179  1.00  0.00    -0.353 C  
HETATM   16  H   UNL     1      -9.058  15.238  68.141  1.00  0.00     0.000 HD 
HETATM   17  C   UNL     1     -10.457  13.083  64.373  1.00  0.00    -0.426 C  
HETATM   18  C   UNL     1     -11.460  15.609  70.984  1.00  0.00    -0.439 A  
HETATM   19  C   UNL     1     -11.956  12.889  64.204  1.00  0.00    -0.491 C  
HETATM   20  C   UNL     1     -12.342  14.688  71.538  1.00  0.00    -0.415 A  
HETATM   21  C   UNL     1     -12.754  13.101  65.484  1.00  0.00    -0.367 C  
HETATM   22  C   UNL     1     -12.647  13.525  70.841  1.00  0.00    -0.414 A  
HETATM   23  C   UNL     1     -12.036  13.259  69.611  1.00  0.00    -0.376 A  
HETATM   24  C   UNL     1     -12.371  14.383  66.212  1.00  0.00    -0.325 C  
ENDBRANCH   6   9
TORSDOF 1
ENDMDL
MODEL        4
REMARK 921   NORMALIZED FREE ENERGY PREDICTED BY IDOCK:   -6.07 KCAL/MOL
REMARK 922        TOTAL FREE ENERGY PREDICTED BY IDOCK:   -6.82 KCAL/MOL
REMARK 923 INTER-LIGAND FREE ENERGY PREDICTED BY IDOCK:   -6.63 KCAL/MOL
REMARK 924 INTRA-LIGAND FREE ENERGY PREDICTED BY IDOCK:   -0.19 KCAL/MOL
REMARK 927      BINDING AFFINITY PREDICTED BY RF-SCORE:    0.00 PKD
ROOT
HETATM    1  C   UNL     1     -10.001  18.636  66.608  1.00  0.00    -0.365 C  
HETATM    2  N   UNL     1      -9.318  17.671  67.573  1.00  0.00    -0.246 N  
HETATM    3  C   UNL     1      -8.367  18.463  68.466  1.00  0.00    -0.323 C  
HETATM    4  C   UNL     1     -10.418  16.997  68.448  1.00  0.00    -0.370 C  
HETATM    5  C   UNL     1      -9.927  15.696  69.117  1.00  0.00    -0.244 C  
HETATM    6  N   UNL     1      -9.354  14.721  68.173  1.00  0.00    -0.192 NA 
HETATM    7  C   UNL     1      -8.191  15.346  67.514  1.00  0.00    -0.169 C  
HETATM    8  C   UNL     1      -8.517  16.640  66.735  1.00  0.00    -0.235 C  
ENDROOT
BRANCH   6   9
HETATM    9  C   UNL     1     -10.324  14.209  67.159  1.00  0.00    -0.265 C  
HETATM   10  C   UNL     1     -11.472  13.215  67.561  1.00  0.00    -0.328 C  
HETATM   11  C   UNL     1     -10.973  12.015  68.377  1.00  0.00    -0.276 A  
HETATM   12  C   UNL     1     -12.377  12.780  66.328  1.00  0.00    -0.120 C  
HETATM   13  O   UNL     1     -12.325  13.980  68.461  1.00  0.00    -0.533 OA 
HETATM   14  C   UNL     1     -11.810  11.390  69.320  1.00  0.00    -0.417 A  
HETATM   15  C   UNL     1     -12.998  13.929  65.488  1.00  0.00    -0.375 C  
HETATM   16  H   UNL     1     -13.020  13.379  68.705  1.00  0.00     0.000 HD 
HETATM   17  C   UNL     1     -12.114  14.507  64.380  1.00  0.00    -0.492 C  
HETATM   18  C   UNL     1     -11.335  10.373  70.158  1.00  0.00    -0.397 A  
HETATM   19  C   UNL     1     -11.447  13.448  63.514  1.00  0.00    -0.088 C  
HETATM   20  C   UNL     1     -10.013   9.953  70.064  1.00  0.00    -0.302 A  
HETATM   21  C   UNL     1     -10.834  12.300  64.306  1.00  0.00    -0.392 C  
HETATM   22  C   UNL     1      -9.184  10.508  69.097  1.00  0.00    -0.183 A  
HETATM   23  C   UNL     1      -9.662  11.518  68.254  1.00  0.00    -0.198 A  
HETATM   24  C   UNL     1     -11.782  11.738  65.358  1.00  0.00    -0.117 C  
ENDBRANCH   6   9
TORSDOF 1
ENDMDL
MODEL        5
REMARK 921   NORMALIZED FREE ENERGY PREDICTED BY IDOCK:   -6.02 KCAL/MOL
REMARK 922        TOTAL FREE ENERGY PREDICTED BY IDOCK:   -6.76 KCAL/MOL
REMARK 923 INTER-LIGAND FREE ENERGY PREDICTED BY IDOCK:   -6.52 KCAL/MOL
REMARK 924 INTRA-LIGAND FREE ENERGY PREDICTED BY IDOCK:   -0.24 KCAL/MOL
REMARK 927      BINDING AFFINITY PREDICTED BY RF-SCORE:    0.00 PKD
ROOT
HETATM    1  C   UNL     1      -8.772   7.800  66.200  1.00  0.00    -0.156 C  
HETATM    2  N   UNL     1      -8.994   8.599  67.481  1.00  0.00    -0.134 N  
HETATM    3  C   UNL     1      -8.532   7.759  68.669  1.00  0.00    -0.129 C  
HETATM    4  C   UNL     1      -8.140   9.900  67.398  1.00  0.00    -0.113 C  
HETATM    5  C   UNL     1      -8.620  10.987  68.382  1.00  0.00    -0.149 C  
HETATM    6  N   UNL     1     -10.052  11.307  68.264  1.00  0.00    -0.182 NA 
HETATM    7  C   UNL     1     -10.823  10.081  68.548  1.00  0.00    -0.231 C  
HETATM    8  C   UNL     1     -10.512   8.897  67.605  1.00  0.00    -0.255 C  
ENDROOT
BRANCH   6   9
HETATM    9  C   UNL     1     -10.444  11.882  66.942  1.00  0.00    -0.222 C  
HETATM   10  C   UNL     1     -10.141  13.382  66.586  1.00  0.00    -0.275 C  
HETATM   11  C   UNL     1     -10.596  14.363  67.675  1.00  0.00    -0.260 A  
HETATM   12  C   UNL     1     -10.659  13.794  65.141  1.00  0.00    -0.385 C  
HETATM   13  O   UNL     1      -8.688  13.470  66.555  1.00  0.00    -0.441 OA 
HETATM   14  C   UNL     1      -9.919  15.581  67.872  1.00  0.00    -0.218 A  
HETATM   15  C   UNL     1     -10.182  12.906  63.958  1.00  0.00    -0.256 C  
HETATM   16  H   UNL     1      -8.504  14.376  66.340  1.00  0.00     0.000 HD 
HETATM   17  C   UNL     1     -11.013  11.651  63.680  1.00  0.00    -0.507 C  
HETATM   18  C   UNL     1     -10.241  16.434  68.936  1.00  0.00    -0.258 A  
HETATM   19  C   UNL     1     -12.513  11.905  63.650  1.00  0.00    -0.583 C  
HETATM   20  C   UNL     1     -11.257  16.089  69.821  1.00  0.00    -0.344 A  
HETATM   21  C   UNL     1     -13.015  12.780  64.791  1.00  0.00    -0.228 C  
HETATM   22  C   UNL     1     -11.984  14.924  69.612  1.00  0.00    -0.360 A  
HETATM   23  C   UNL     1     -11.667  14.078  68.543  1.00  0.00    -0.387 A  
HETATM   24  C   UNL     1     -12.174  14.037  64.983  1.00  0.00    -0.448 C  
ENDBRANCH   6   9
TORSDOF 1
ENDMDL
MODEL        6
REMARK 921   NORMALIZED FREE ENERGY PREDICTED BY IDOCK:   -5.87 KCAL/MOL
REMARK 922        TOTAL FREE ENERGY PREDICTED BY IDOCK:   -6.60 KCAL/MOL
REMARK 923 INTER-LIGAND FREE ENERGY PREDICTED BY IDOCK:   -6.26 KCAL/MOL
REMARK 924 INTRA-LIGAND FREE ENERGY PREDICTED BY IDOCK:   -0.34 KCAL/MOL
REMARK 927      BINDING AFFINITY PREDICTED BY RF-SCORE:    0.00 PKD
ROOT
HETATM    1  C   UNL     1      -6.619  10.365  65.168  1.00  0.00    -0.090 C  
HETATM    2  N   UNL     1      -6.895  10.272  66.666  1.00  0.00    -0.087 N  
HETATM    3  C   UNL     1      -5.937   9.254  67.279  1.00  0.00    -0.049 C  
HETATM    4  C   UNL     1      -6.641  11.675  67.297  1.00  0.00    -0.122 C  
HETATM    5  C   UNL     1      -7.316  11.834  68.675  1.00  0.00    -0.115 C  
HETATM    6  N   UNL     1      -8.756  11.528  68.672  1.00  0.00    -0.139 NA 
HETATM    7  C   UNL     1      -8.927  10.123  68.256  1.00  0.00    -0.120 C  
HETATM    8  C   UNL     1      -8.360   9.796  66.856  1.00  0.00    -0.120 C  
ENDROOT
BRANCH   6   9
HETATM    9  C   UNL     1      -9.574  12.436  67.812  1.00  0.00    -0.202 C  
HETATM   10  C   UNL     1     -10.597  13.448  68.442  1.00  0.00    -0.248 C  
HETATM   11  C   UNL     1     -11.541  12.795  69.461  1.00  0.00    -0.342 A  
HETATM   12  C   UNL     1     -11.375  14.304  67.352  1.00  0.00    -0.349 C  
HETATM   13  O   UNL     1      -9.776  14.380  69.203  1.00  0.00    -0.382 OA 
HETATM   14  C   UNL     1     -12.060  13.539  70.537  1.00  0.00    -0.409 A  
HETATM   15  C   UNL     1     -10.500  15.071  66.322  1.00  0.00    -0.309 C  
HETATM   16  H   UNL     1     -10.394  14.993  69.584  1.00  0.00     0.000 HD 
HETATM   17  C   UNL     1     -10.054  14.277  65.093  1.00  0.00    -0.353 C  
HETATM   18  C   UNL     1     -12.825  12.934  71.543  1.00  0.00    -0.380 A  
HETATM   19  C   UNL     1     -11.177  13.492  64.431  1.00  0.00    -0.399 C  
HETATM   20  C   UNL     1     -13.094  11.571  71.488  1.00  0.00    -0.429 A  
HETATM   21  C   UNL     1     -12.061  12.733  65.411  1.00  0.00    -0.512 C  
HETATM   22  C   UNL     1     -12.648  10.826  70.403  1.00  0.00    -0.395 A  
HETATM   23  C   UNL     1     -11.892  11.434  69.394  1.00  0.00    -0.419 A  
HETATM   24  C   UNL     1     -12.511  13.594  66.586  1.00  0.00    -0.291 C  
ENDBRANCH   6   9
TORSDOF 1
ENDMDL
MODEL        7
REMARK 921   NORMALIZED FREE ENERGY PREDICTED BY IDOCK:   -5.86 KCAL/MOL
REMARK 922        TOTAL FREE ENERGY PREDICTED BY IDOCK:   -6.60 KCAL/MOL
REMARK 923 INTER-LIGAND FREE ENERGY PREDICTED BY IDOCK:   -6.39 KCAL/MOL
REMARK 924 INTRA-LIGAND FREE ENERGY PREDICTED BY IDOCK:   -0.21 KCAL/MOL
REMARK 927      BINDING AFFINITY PREDICTED BY RF-SCORE:    0.00 PKD
ROOT
HETATM    1  C   UNL     1     -10.105  17.863  66.204  1.00  0.00    -0.320 C  
HETATM    2  N   UNL     1      -9.378  17.101  67.309  1.00  0.00    -0.239 N  
HETATM    3  C   UNL     1      -8.647  18.105  68.196  1.00  0.00    -0.274 C  
HETATM    4  C   UNL     1     -10.440  16.333  68.153  1.00  0.00    -0.289 C  
HETATM    5  C   UNL     1      -9.823  15.187  68.980  1.00  0.00    -0.238 C  
HETATM    6  N   UNL     1      -9.022  14.242  68.183  1.00  0.00    -0.182 NA 
HETATM    7  C   UNL     1      -7.911  14.989  67.563  1.00  0.00    -0.182 C  
HETATM    8  C   UNL     1      -8.354  16.146  66.640  1.00  0.00    -0.286 C  
ENDROOT
BRANCH   6   9
HETATM    9  C   UNL     1      -9.802  13.500  67.147  1.00  0.00    -0.245 C  
HETATM   10  C   UNL     1     -10.785  12.342  67.545  1.00  0.00    -0.225 C  
HETATM   11  C   UNL     1     -10.148  11.305  68.481  1.00  0.00    -0.210 A  
HETATM   12  C   UNL     1     -11.498  11.673  66.291  1.00  0.00    -0.217 C  
HETATM   13  O   UNL     1     -11.828  12.992  68.326  1.00  0.00    -0.334 OA 
HETATM   14  C   UNL     1     -10.934  10.598  69.410  1.00  0.00    -0.304 A  
HETATM   15  C   UNL     1     -12.244  12.636  65.326  1.00  0.00    -0.532 C  
HETATM   16  H   UNL     1     -12.423  12.292  68.567  1.00  0.00     0.000 HD 
HETATM   17  C   UNL     1     -11.390  13.296  64.240  1.00  0.00    -0.428 C  
HETATM   18  C   UNL     1     -10.355   9.738  70.352  1.00  0.00    -0.354 A  
HETATM   19  C   UNL     1     -10.480  12.324  63.503  1.00  0.00    -0.459 C  
HETATM   20  C   UNL     1      -8.977   9.560  70.379  1.00  0.00    -0.291 A  
HETATM   21  C   UNL     1      -9.739  11.358  64.418  1.00  0.00    -0.266 C  
HETATM   22  C   UNL     1      -8.184  10.196  69.431  1.00  0.00    -0.171 A  
HETATM   23  C   UNL     1      -8.764  11.047  68.484  1.00  0.00    -0.159 A  
HETATM   24  C   UNL     1     -10.653  10.699  65.444  1.00  0.00    -0.185 C  
ENDBRANCH   6   9
TORSDOF 1
ENDMDL
MODEL        8
REMARK 921   NORMALIZED FREE ENERGY PREDICTED BY IDOCK:   -5.69 KCAL/MOL
REMARK 922        TOTAL FREE ENERGY PREDICTED BY IDOCK:   -6.42 KCAL/MOL
REMARK 923 INTER-LIGAND FREE ENERGY PREDICTED BY IDOCK:   -6.02 KCAL/MOL
REMARK 924 INTRA-LIGAND FREE ENERGY PREDICTED BY IDOCK:   -0.40 KCAL/MOL
REMARK 927      BINDING AFFINITY PREDICTED BY RF-SCORE:    0.00 PKD
ROOT
HETATM    1  C   UNL     1      -7.128  17.845  65.854  1.00  0.00    -0.262 C  
HETATM    2  N   UNL     1      -7.962  18.376  67.017  1.00  0.00    -0.224 N  
HETATM    3  C   UNL     1      -7.524  19.805  67.321  1.00  0.00    -0.250 C  
HETATM    4  C   UNL     1      -9.460  18.369  66.586  1.00  0.00    -0.313 C  
HETATM    5  C   UNL     1     -10.423  18.431  67.790  1.00  0.00    -0.409 C  
HETATM    6  N   UNL     1     -10.177  17.391  68.803  1.00  0.00    -0.346 NA 
HETATM    7  C   UNL     1      -8.807  17.568  69.322  1.00  0.00     0.246 C  
HETATM    8  C   UNL     1      -7.699  17.470  68.249  1.00  0.00    -0.247 C  
ENDROOT
BRANCH   6   9
HETATM    9  C   UNL     1     -10.379  15.996  68.309  1.00  0.00    -0.261 C  
HETATM   10  C   UNL     1     -11.689  15.197  68.643  1.00  0.00    -0.341 C  
HETATM   11  C   UNL     1     -12.045  15.220  70.136  1.00  0.00    -0.394 A  
HETATM   12  C   UNL     1     -11.691  13.726  68.039  1.00  0.00    -0.390 C  
HETATM   13  O   UNL     1     -12.753  15.931  67.971  1.00  0.00     0.614 OA 
HETATM   14  C   UNL     1     -13.386  15.140  70.556  1.00  0.00    -0.200 A  
HETATM   15  C   UNL     1     -11.422  13.606  66.514  1.00  0.00    -0.357 C  
HETATM   16  H   UNL     1     -13.545  15.448  68.173  1.00  0.00     0.000 HD 
HETATM   17  C   UNL     1      -9.952  13.565  66.090  1.00  0.00    -0.310 C  
HETATM   18  C   UNL     1     -13.740  15.279  71.904  1.00  0.00    -0.601 A  
HETATM   19  C   UNL     1      -9.107  12.599  66.907  1.00  0.00    -0.218 C  
HETATM   20  C   UNL     1     -12.756  15.493  72.864  1.00  0.00    -0.545 A  
HETATM   21  C   UNL     1      -9.351  12.683  68.409  1.00  0.00    -0.148 C  
HETATM   22  C   UNL     1     -11.420  15.512  72.484  1.00  0.00    -0.435 A  
HETATM   23  C   UNL     1     -11.067  15.363  71.139  1.00  0.00    -0.362 A  
HETATM   24  C   UNL     1     -10.832  12.671  68.766  1.00  0.00    -0.267 C  
ENDBRANCH   6   9
TORSDOF 1
ENDMDL
MODEL        9
REMARK 921   NORMALIZED FREE ENERGY PREDICTED BY IDOCK:   -5.60 KCAL/MOL
REMARK 922        TOTAL FREE ENERGY PREDICTED BY IDOCK:   -6.32 KCAL/MOL
REMARK 923 INTER-LIGAND FREE ENERGY PREDICTED BY IDOCK:   -5.93 KCAL/MOL
REMARK 924 INTRA-LIGAND FREE ENERGY PREDICTED BY IDOCK:   -0.39 KCAL/MOL
REMARK 927      BINDING AFFINITY PREDICTED BY RF-SCORE:    0.00 PKD
ROOT
HETATM    1  C   UNL     1     -10.363  18.798  66.425  1.00  0.00    -0.439 C  
HETATM    2  N   UNL     1      -9.263  18.079  67.199  1.00  0.00    -0.252 N  
HETATM    3  C   UNL     1      -8.316  19.121  67.787  1.00  0.00    -0.292 C  
HETATM    4  C   UNL     1      -9.929  17.267  68.352  1.00  0.00    -0.322 C  
HETATM    5  C   UNL     1      -9.010  16.156  68.901  1.00  0.00    -0.247 C  
HETATM    6  N   UNL     1      -8.494  15.245  67.865  1.00  0.00    -0.145 NA 
HETATM    7  C   UNL     1      -7.703  16.039  66.905  1.00  0.00    -0.244 C  
HETATM    8  C   UNL     1      -8.493  17.168  66.206  1.00  0.00    -0.244 C  
ENDROOT
BRANCH   6   9
HETATM    9  C   UNL     1      -9.551  14.460  67.158  1.00  0.00    -0.250 C  
HETATM   10  C   UNL     1      -9.901  12.992  67.593  1.00  0.00    -0.212 C  
HETATM   11  C   UNL     1      -8.665  12.093  67.729  1.00  0.00    -0.171 A  
HETATM   12  C   UNL     1     -11.038  12.334  66.697  1.00  0.00    -0.344 C  
HETATM   13  O   UNL     1     -10.446  13.124  68.937  1.00  0.00    -0.373 OA 
HETATM   14  C   UNL     1      -8.652  11.025  68.646  1.00  0.00    -0.157 A  
HETATM   15  C   UNL     1     -12.363  13.134  66.566  1.00  0.00    -0.252 C  
HETATM   16  H   UNL     1     -10.658  12.236  69.200  1.00  0.00     0.000 HD 
HETATM   17  C   UNL     1     -12.398  14.205  65.473  1.00  0.00    -0.472 C  
HETATM   18  C   UNL     1      -7.495  10.268  68.871  1.00  0.00    -0.094 A  
HETATM   19  C   UNL     1     -11.874  13.724  64.128  1.00  0.00    -0.439 C  
HETATM   20  C   UNL     1      -6.326  10.559  68.176  1.00  0.00    -0.058 A  
HETATM   21  C   UNL     1     -10.579  12.928  64.220  1.00  0.00    -0.430 C  
HETATM   22  C   UNL     1      -6.330  11.567  67.218  1.00  0.00    -0.107 A  
HETATM   23  C   UNL     1      -7.490  12.315  66.987  1.00  0.00    -0.063 A  
HETATM   24  C   UNL     1     -10.626  11.846  65.292  1.00  0.00    -0.320 C  
ENDBRANCH   6   9
TORSDOF 1
ENDMDL
MODEL       10
REMARK 921   NORMALIZED FREE ENERGY PREDICTED BY IDOCK:   -5.46 KCAL/MOL
REMARK 922        TOTAL FREE ENERGY PREDICTED BY IDOCK:   -6.18 KCAL/MOL
REMARK 923 INTER-LIGAND FREE ENERGY PREDICTED BY IDOCK:   -6.01 KCAL/MOL
REMARK 924 INTRA-LIGAND FREE ENERGY PREDICTED BY IDOCK:   -0.16 KCAL/MOL
REMARK 927      BINDING AFFINITY PREDICTED BY RF-SCORE:    0.00 PKD
ROOT
HETATM    1  C   UNL     1      -6.569  15.160  70.014  1.00  0.00    -0.146 C  
HETATM    2  N   UNL     1      -7.627  15.607  69.010  1.00  0.00    -0.170 N  
HETATM    3  C   UNL     1      -7.533  17.121  68.841  1.00  0.00    -0.241 C  
HETATM    4  C   UNL     1      -7.332  14.910  67.647  1.00  0.00    -0.187 C  
HETATM    5  C   UNL     1      -8.556  14.904  66.708  1.00  0.00    -0.222 C  
HETATM    6  N   UNL     1      -9.772  14.340  67.318  1.00  0.00    -0.230 NA 
HETATM    7  C   UNL     1     -10.120  15.161  68.494  1.00  0.00    -0.228 C  
HETATM    8  C   UNL     1      -9.020  15.226  69.577  1.00  0.00    -0.183 C  
ENDROOT
BRANCH   6   9
HETATM    9  C   UNL     1      -9.656  12.899  67.696  1.00  0.00    -0.196 C  
HETATM   10  C   UNL     1      -9.576  11.776  66.601  1.00  0.00    -0.205 C  
HETATM   11  C   UNL     1     -10.676  11.892  65.537  1.00  0.00    -0.329 A  
HETATM   12  C   UNL     1      -9.477  10.314  67.217  1.00  0.00    -0.174 C  
HETATM   13  O   UNL     1      -8.322  12.026  65.904  1.00  0.00    -0.359 OA 
HETATM   14  C   UNL     1     -10.453  11.444  64.222  1.00  0.00    -0.401 A  
HETATM   15  C   UNL     1      -8.338  10.074  68.246  1.00  0.00    -0.110 C  
HETATM   16  H   UNL     1      -8.274  11.347  65.242  1.00  0.00     0.000 HD 
HETATM   17  C   UNL     1      -8.651  10.450  69.697  1.00  0.00    -0.060 C  
HETATM   18  C   UNL     1     -11.398  11.650  63.208  1.00  0.00    -0.288 A  
HETATM   19  C   UNL     1      -9.995   9.932  70.186  1.00  0.00    -0.291 C  
HETATM   20  C   UNL     1     -12.593  12.302  63.493  1.00  0.00    -0.589 A  
HETATM   21  C   UNL     1     -11.135  10.143  69.198  1.00  0.00    -0.257 C  
HETATM   22  C   UNL     1     -12.866  12.697  64.797  1.00  0.00    -0.349 A  
HETATM   23  C   UNL     1     -11.925  12.482  65.810  1.00  0.00    -0.482 A  
HETATM   24  C   UNL     1     -10.777   9.704  67.783  1.00  0.00    -0.316 C  
ENDBRANCH   6   9
TORSDOF 1
ENDMDL
MODEL       11
REMARK 921   NORMALIZED FREE ENERGY PREDICTED BY IDOCK:   -5.30 KCAL/MOL
REMARK 922        TOTAL FREE ENERGY PREDICTED BY IDOCK:   -6.01 KCAL/MOL
REMARK 923 INTER-LIGAND FREE ENERGY PREDICTED BY IDOCK:   -5.61 KCAL/MOL
REMARK 924 INTRA-LIGAND FREE ENERGY PREDICTED BY IDOCK:   -0.39 KCAL/MOL
REMARK 927      BINDING AFFINITY PREDICTED BY RF-SCORE:    0.00 PKD
ROOT
HETATM    1  C   UNL     1      -6.522   8.781  66.975  1.00  0.00    -0.061 C  
HETATM    2  N   UNL     1      -7.897   9.425  67.128  1.00  0.00    -0.098 N  
HETATM    3  C   UNL     1      -8.018  10.567  66.123  1.00  0.00    -0.147 C  
HETATM    4  C   UNL     1      -8.978   8.344  66.824  1.00  0.00    -0.145 C  
HETATM    5  C   UNL     1     -10.365   8.720  67.385  1.00  0.00    -0.280 C  
HETATM    6  N   UNL     1     -10.359   9.047  68.820  1.00  0.00    -0.212 NA 
HETATM    7  C   UNL     1      -9.469  10.207  69.024  1.00  0.00    -0.190 C  
HETATM    8  C   UNL     1      -8.009   9.981  68.573  1.00  0.00    -0.102 C  
ENDROOT
BRANCH   6   9
HETATM    9  C   UNL     1      -9.958   7.913  69.705  1.00  0.00    -0.186 C  
HETATM   10  C   UNL     1     -11.033   7.033  70.437  1.00  0.00    -0.268 C  
HETATM   11  C   UNL     1     -12.080   7.865  71.191  1.00  0.00    -0.294 A  
HETATM   12  C   UNL     1     -10.393   5.895  71.343  1.00  0.00    -0.271 C  
HETATM   13  O   UNL     1     -11.757   6.363  69.365  1.00  0.00    -0.619 OA 
HETATM   14  C   UNL     1     -13.391   7.383  71.364  1.00  0.00    -0.398 A  
HETATM   15  C   UNL     1      -9.380   4.946  70.646  1.00  0.00    -0.222 C  
HETATM   16  H   UNL     1     -12.407   5.831  69.808  1.00  0.00     0.000 HD 
HETATM   17  C   UNL     1      -7.931   5.436  70.584  1.00  0.00    -0.105 C  
HETATM   18  C   UNL     1     -14.392   8.175  71.942  1.00  0.00    -0.566 A  
HETATM   19  C   UNL     1      -7.409   5.971  71.909  1.00  0.00    -0.094 C  
HETATM   20  C   UNL     1     -14.098   9.466  72.368  1.00  0.00    -0.271 A  
HETATM   21  C   UNL     1      -8.381   6.899  72.625  1.00  0.00    -0.117 C  
HETATM   22  C   UNL     1     -12.797   9.943  72.267  1.00  0.00    -0.345 A  
HETATM   23  C   UNL     1     -11.796   9.147  71.699  1.00  0.00    -0.443 A  
HETATM   24  C   UNL     1      -9.794   6.332  72.696  1.00  0.00    -0.175 C  
ENDBRANCH   6   9
TORSDOF 1
ENDMDL
MODEL       12
REMARK 921   NORMALIZED FREE ENERGY PREDICTED BY IDOCK:   -5.28 KCAL/MOL
REMARK 922        TOTAL FREE ENERGY PREDICTED BY IDOCK:   -5.99 KCAL/MOL
REMARK 923 INTER-LIGAND FREE ENERGY PREDICTED BY IDOCK:   -6.30 KCAL/MOL
REMARK 924 INTRA-LIGAND FREE ENERGY PREDICTED BY IDOCK:    0.31 KCAL/MOL
REMARK 927      BINDING AFFINITY PREDICTED BY RF-SCORE:    0.00 PKD
ROOT
HETATM    1  C   UNL     1     -10.954  15.200  71.023  1.00  0.00    -0.169 C  
HETATM    2  N   UNL     1     -10.512  15.577  69.612  1.00  0.00    -0.266 N  
HETATM    3  C   UNL     1     -10.646  17.087  69.444  1.00  0.00    -0.236 C  
HETATM    4  C   UNL     1      -9.019  15.161  69.441  1.00  0.00    -0.176 C  
HETATM    5  C   UNL     1      -8.601  15.056  67.960  1.00  0.00    -0.158 C  
HETATM    6  N   UNL     1      -9.470  14.181  67.156  1.00  0.00    -0.228 NA 
HETATM    7  C   UNL     1     -10.838  14.734  67.191  1.00  0.00    -0.311 C  
HETATM    8  C   UNL     1     -11.445  14.850  68.607  1.00  0.00    -0.306 C  
ENDROOT
BRANCH   6   9
HETATM    9  C   UNL     1      -9.468  12.751  67.587  1.00  0.00    -0.190 C  
HETATM   10  C   UNL     1      -9.464  11.584  66.536  1.00  0.00    -0.204 C  
HETATM   11  C   UNL     1     -10.543  11.744  65.455  1.00  0.00    -0.323 A  
HETATM   12  C   UNL     1      -9.482  10.143  67.206  1.00  0.00    -0.178 C  
HETATM   13  O   UNL     1      -8.189  11.713  65.844  1.00  0.00    -0.372 OA 
HETATM   14  C   UNL     1     -10.343  11.231  64.160  1.00  0.00    -0.410 A  
HETATM   15  C   UNL     1      -8.374   9.856  68.256  1.00  0.00    -0.110 C  
HETATM   16  H   UNL     1      -8.186  11.007  65.208  1.00  0.00     0.000 HD 
HETATM   17  C   UNL     1      -8.670  10.309  69.688  1.00  0.00    -0.125 C  
HETATM   18  C   UNL     1     -11.260  11.470  63.128  1.00  0.00    -0.110 A  
HETATM   19  C   UNL     1     -10.054   9.913  70.181  1.00  0.00    -0.309 C  
HETATM   20  C   UNL     1     -12.404  12.221  63.375  1.00  0.00    -0.624 A  
HETATM   21  C   UNL     1     -11.166  10.173  69.172  1.00  0.00    -0.234 C  
HETATM   22  C   UNL     1     -12.658  12.684  64.660  1.00  0.00    -0.517 A  
HETATM   23  C   UNL     1     -11.745  12.437  65.692  1.00  0.00    -0.468 A  
HETATM   24  C   UNL     1     -10.829   9.655  67.779  1.00  0.00    -0.278 C  
ENDBRANCH   6   9
TORSDOF 1
ENDMDL
MODEL       13
REMARK 921   NORMALIZED FREE ENERGY PREDICTED BY IDOCK:   -5.26 KCAL/MOL
REMARK 922        TOTAL FREE ENERGY PREDICTED BY IDOCK:   -5.96 KCAL/MOL
REMARK 923 INTER-LIGAND FREE ENERGY PREDICTED BY IDOCK:   -5.58 KCAL/MOL
REMARK 924 INTRA-LIGAND FREE ENERGY PREDICTED BY IDOCK:   -0.38 KCAL/MOL
REMARK 927      BINDING AFFINITY PREDICTED BY RF-SCORE:    0.00 PKD
ROOT
HETATM    1  C   UNL     1      -7.327  11.124  66.768  1.00  0.00    -0.146 C  
HETATM    2  N   UNL     1      -8.848  11.107  66.888  1.00  0.00    -0.152 N  
HETATM    3  C   UNL     1      -9.428  12.140  65.924  1.00  0.00    -0.179 C  
HETATM    4  C   UNL     1      -9.353   9.685  66.495  1.00  0.00    -0.165 C  
HETATM    5  C   UNL     1     -10.779   9.400  67.011  1.00  0.00    -0.137 C  
HETATM    6  N   UNL     1     -10.944   9.620  68.457  1.00  0.00    -0.158 NA 
HETATM    7  C   UNL     1     -10.644  11.036  68.745  1.00  0.00    -0.202 C  
HETATM    8  C   UNL     1      -9.220  11.482  68.347  1.00  0.00    -0.190 C  
ENDROOT
BRANCH   6   9
HETATM    9  C   UNL     1     -10.112   8.721  69.313  1.00  0.00    -0.204 C  
HETATM   10  C   UNL     1     -10.755   7.520  70.095  1.00  0.00    -0.239 C  
HETATM   11  C   UNL     1     -11.993   7.925  70.909  1.00  0.00    -0.211 A  
HETATM   12  C   UNL     1      -9.699   6.705  70.959  1.00  0.00    -0.185 C  
HETATM   13  O   UNL     1     -11.240   6.619  69.059  1.00  0.00    -0.463 OA 
HETATM   14  C   UNL     1     -13.028   7.002  71.148  1.00  0.00    -0.293 A  
HETATM   15  C   UNL     1      -8.448   6.179  70.203  1.00  0.00    -0.133 C  
HETATM   16  H   UNL     1     -11.629   5.893  69.532  1.00  0.00     0.000 HD 
HETATM   17  C   UNL     1      -7.281   7.161  70.067  1.00  0.00    -0.078 C  
HETATM   18  C   UNL     1     -14.216   7.384  71.784  1.00  0.00    -0.544 A  
HETATM   19  C   UNL     1      -6.922   7.867  71.366  1.00  0.00    -0.055 C  
HETATM   20  C   UNL     1     -14.391   8.699  72.201  1.00  0.00    -0.518 A  
HETATM   21  C   UNL     1      -8.127   8.389  72.139  1.00  0.00    -0.192 C  
HETATM   22  C   UNL     1     -13.359   9.615  72.034  1.00  0.00    -0.547 A  
HETATM   23  C   UNL     1     -12.168   9.229  71.409  1.00  0.00    -0.426 A  
HETATM   24  C   UNL     1      -9.231   7.348  72.281  1.00  0.00    -0.162 C  
ENDBRANCH   6   9
TORSDOF 1
ENDMDL
MODEL       14
REMARK 921   NORMALIZED FREE ENERGY PREDICTED BY IDOCK:   -5.25 KCAL/MOL
REMARK 922        TOTAL FREE ENERGY PREDICTED BY IDOCK:   -5.95 KCAL/MOL
REMARK 923 INTER-LIGAND FREE ENERGY PREDICTED BY IDOCK:   -5.56 KCAL/MOL
REMARK 924 INTRA-LIGAND FREE ENERGY PREDICTED BY IDOCK:   -0.40 KCAL/MOL
REMARK 927      BINDING AFFINITY PREDICTED BY RF-SCORE:    0.00 PKD
ROOT
HETATM    1  C   UNL     1      -7.307   4.839  67.275  1.00  0.00    -0.077 C  
HETATM    2  N   UNL     1      -8.565   5.682  67.087  1.00  0.00    -0.110 N  
HETATM    3  C   UNL     1      -8.909   5.725  65.601  1.00  0.00    -0.136 C  
HETATM    4  C   UNL     1      -9.728   5.004  67.873  1.00  0.00    -0.153 C  
HETATM    5  C   UNL     1     -10.899   5.971  68.149  1.00  0.00    -0.281 C  
HETATM    6  N   UNL     1     -10.494   7.222  68.811  1.00  0.00    -0.201 NA 
HETATM    7  C   UNL     1      -9.540   7.922  67.930  1.00  0.00    -0.147 C  
HETATM    8  C   UNL     1      -8.264   7.116  67.599  1.00  0.00    -0.114 C  
ENDROOT
BRANCH   6   9
HETATM    9  C   UNL     1      -9.913   7.033  70.175  1.00  0.00    -0.182 C  
HETATM   10  C   UNL     1     -10.775   7.269  71.466  1.00  0.00    -0.219 C  
HETATM   11  C   UNL     1     -11.518   8.612  71.457  1.00  0.00    -0.363 A  
HETATM   12  C   UNL     1      -9.960   7.033  72.809  1.00  0.00    -0.204 C  
HETATM   13  O   UNL     1     -11.809   6.244  71.414  1.00  0.00    -0.304 OA 
HETATM   14  C   UNL     1     -12.746   8.758  72.130  1.00  0.00    -0.461 A  
HETATM   15  C   UNL     1      -9.239   5.663  72.948  1.00  0.00    -0.135 C  
HETATM   16  H   UNL     1     -12.331   6.386  72.194  1.00  0.00     0.000 HD 
HETATM   17  C   UNL     1      -7.847   5.568  72.319  1.00  0.00    -0.103 C  
HETATM   18  C   UNL     1     -13.497   9.937  72.034  1.00  0.00    -0.478 A  
HETATM   19  C   UNL     1      -6.939   6.740  72.663  1.00  0.00    -0.071 C  
HETATM   20  C   UNL     1     -13.029  11.000  71.270  1.00  0.00    -0.472 A  
HETATM   21  C   UNL     1      -7.616   8.100  72.546  1.00  0.00    -0.157 C  
HETATM   22  C   UNL     1     -11.789  10.906  70.649  1.00  0.00    -0.453 A  
HETATM   23  C   UNL     1     -11.036   9.732  70.753  1.00  0.00    -0.406 A  
HETATM   24  C   UNL     1      -8.975   8.142  73.234  1.00  0.00    -0.332 C  
ENDBRANCH   6   9
TORSDOF 1
ENDMDL
MODEL       15
REMARK 921   NORMALIZED FREE ENERGY PREDICTED BY IDOCK:   -5.22 KCAL/MOL
REMARK 922        TOTAL FREE ENERGY PREDICTED BY IDOCK:   -5.92 KCAL/MOL
REMARK 923 INTER-LIGAND FREE ENERGY PREDICTED BY IDOCK:   -5.52 KCAL/MOL
REMARK 924 INTRA-LIGAND FREE ENERGY PREDICTED BY IDOCK:   -0.39 KCAL/MOL
REMARK 927      BINDING AFFINITY PREDICTED BY RF-SCORE:    0.00 PKD
ROOT
HETATM    1  C   UNL     1      -9.179  11.840  64.715  1.00  0.00     0.191 C  
HETATM    2  N   UNL     1      -9.878  11.516  66.032  1.00  0.00    -0.217 N  
HETATM    3  C   UNL     1     -10.232  10.031  66.046  1.00  0.00    -0.207 C  
HETATM    4  C   UNL     1      -8.892  11.829  67.198  1.00  0.00    -0.173 C  
HETATM    5  C   UNL     1      -9.610  11.991  68.554  1.00  0.00    -0.143 C  
HETATM    6  N   UNL     1     -10.706  12.973  68.533  1.00  0.00    -0.250 NA 
HETATM    7  C   UNL     1     -11.711  12.522  67.551  1.00  0.00    -0.374 C  
HETATM    8  C   UNL     1     -11.173  12.367  66.111  1.00  0.00    -0.322 C  
ENDROOT
BRANCH   6   9
HETATM    9  C   UNL     1     -10.270  14.371  68.238  1.00  0.00    -0.241 C  
HETATM   10  C   UNL     1     -10.056  15.416  69.391  1.00  0.00    -0.269 C  
HETATM   11  C   UNL     1     -11.242  15.492  70.363  1.00  0.00    -0.356 A  
HETATM   12  C   UNL     1      -9.613  16.847  68.858  1.00  0.00    -0.251 C  
HETATM   13  O   UNL     1      -8.941  14.890  70.166  1.00  0.00    -0.275 OA 
HETATM   14  C   UNL     1     -11.043  15.840  71.713  1.00  0.00    -0.090 A  
HETATM   15  C   UNL     1      -8.368  16.882  67.930  1.00  0.00    -0.198 C  
HETATM   16  H   UNL     1      -8.812  15.522  70.864  1.00  0.00     0.000 HD 
HETATM   17  C   UNL     1      -8.628  16.628  66.443  1.00  0.00    -0.345 C  
HETATM   18  C   UNL     1     -12.091  15.798  72.641  1.00  0.00    -0.591 A  
HETATM   19  C   UNL     1      -9.795  17.428  65.882  1.00  0.00    -0.124 C  
HETATM   20  C   UNL     1     -13.365  15.416  72.236  1.00  0.00    -0.548 A  
HETATM   21  C   UNL     1     -11.032  17.422  66.770  1.00  0.00     0.175 C  
HETATM   22  C   UNL     1     -13.603  15.130  70.897  1.00  0.00    -0.397 A  
HETATM   23  C   UNL     1     -12.557  15.181  69.969  1.00  0.00    -0.263 A  
HETATM   24  C   UNL     1     -10.711  17.729  68.229  1.00  0.00    -0.255 C  
ENDBRANCH   6   9
TORSDOF 1
ENDMDL
MODEL       16
REMARK 921   NORMALIZED FREE ENERGY PREDICTED BY IDOCK:   -5.17 KCAL/MOL
REMARK 922        TOTAL FREE ENERGY PREDICTED BY IDOCK:   -5.87 KCAL/MOL
REMARK 923 INTER-LIGAND FREE ENERGY PREDICTED BY IDOCK:   -5.48 KCAL/MOL
REMARK 924 INTRA-LIGAND FREE ENERGY PREDICTED BY IDOCK:   -0.39 KCAL/MOL
REMARK 927      BINDING AFFINITY PREDICTED BY RF-SCORE:    0.00 PKD
ROOT
HETATM    1  C   UNL     1      -5.441   8.878  69.184  1.00  0.00    -0.036 C  
HETATM    2  N   UNL     1      -6.864   9.211  68.744  1.00  0.00    -0.060 N  
HETATM    3  C   UNL     1      -6.799  10.137  67.533  1.00  0.00    -0.077 C  
HETATM    4  C   UNL     1      -7.576   7.881  68.349  1.00  0.00    -0.108 C  
HETATM    5  C   UNL     1      -9.113   8.013  68.338  1.00  0.00    -0.136 C  
HETATM    6  N   UNL     1      -9.674   8.539  69.594  1.00  0.00    -0.177 NA 
HETATM    7  C   UNL     1      -9.115   9.887  69.819  1.00  0.00    -0.225 C  
HETATM    8  C   UNL     1      -7.574   9.932  69.921  1.00  0.00    -0.163 C  
ENDROOT
BRANCH   6   9
HETATM    9  C   UNL     1      -9.439   7.666  70.783  1.00  0.00    -0.162 C  
HETATM   10  C   UNL     1     -10.596   6.795  71.393  1.00  0.00    -0.221 C  
HETATM   11  C   UNL     1     -11.881   7.595  71.647  1.00  0.00    -0.323 A  
HETATM   12  C   UNL     1     -10.139   5.957  72.664  1.00  0.00    -0.201 C  
HETATM   13  O   UNL     1     -10.926   5.834  70.349  1.00  0.00    -0.298 OA 
HETATM   14  C   UNL     1     -13.140   6.969  71.582  1.00  0.00    -0.384 A  
HETATM   15  C   UNL     1      -8.891   5.050  72.480  1.00  0.00    -0.126 C  
HETATM   16  H   UNL     1     -11.626   5.308  70.718  1.00  0.00     0.000 HD 
HETATM   17  C   UNL     1      -7.532   5.725  72.683  1.00  0.00    -0.096 C  
HETATM   18  C   UNL     1     -14.329   7.703  71.692  1.00  0.00    -0.613 A  
HETATM   19  C   UNL     1      -7.453   6.574  73.942  1.00  0.00    -0.084 C  
HETATM   20  C   UNL     1     -14.282   9.080  71.878  1.00  0.00    -0.357 A  
HETATM   21  C   UNL     1      -8.665   7.471  74.160  1.00  0.00    -0.282 C  
HETATM   22  C   UNL     1     -13.052   9.713  72.010  1.00  0.00    -0.537 A  
HETATM   23  C   UNL     1     -11.866   8.978  71.910  1.00  0.00    -0.447 A  
HETATM   24  C   UNL     1      -9.985   6.728  73.991  1.00  0.00    -0.367 C  
ENDBRANCH   6   9
TORSDOF 1
ENDMDL
MODEL       17
REMARK 921   NORMALIZED FREE ENERGY PREDICTED BY IDOCK:   -5.08 KCAL/MOL
REMARK 922        TOTAL FREE ENERGY PREDICTED BY IDOCK:   -5.77 KCAL/MOL
REMARK 923 INTER-LIGAND FREE ENERGY PREDICTED BY IDOCK:   -5.56 KCAL/MOL
REMARK 924 INTRA-LIGAND FREE ENERGY PREDICTED BY IDOCK:   -0.22 KCAL/MOL
REMARK 927      BINDING AFFINITY PREDICTED BY RF-SCORE:    0.00 PKD
ROOT
HETATM    1  C   UNL     1      -9.154  14.545  66.701  1.00  0.00    -0.251 C  
HETATM    2  N   UNL     1     -10.486  13.855  66.980  1.00  0.00    -0.276 N  
HETATM    3  C   UNL     1     -11.618  14.832  66.675  1.00  0.00    -0.313 C  
HETATM    4  C   UNL     1     -10.599  12.615  66.042  1.00  0.00    -0.270 C  
HETATM    5  C   UNL     1     -11.645  11.593  66.535  1.00  0.00    -0.087 C  
HETATM    6  N   UNL     1     -11.446  11.163  67.929  1.00  0.00    -0.456 NA 
HETATM    7  C   UNL     1     -11.546  12.353  68.797  1.00  0.00    -0.326 C  
HETATM    8  C   UNL     1     -10.519  13.463  68.481  1.00  0.00    -0.252 C  
ENDROOT
BRANCH   6   9
HETATM    9  C   UNL     1     -10.160  10.441  68.170  1.00  0.00    -0.155 C  
HETATM   10  C   UNL     1     -10.145   8.967  68.711  1.00  0.00    -0.199 C  
HETATM   11  C   UNL     1     -11.030   8.771  69.951  1.00  0.00    -0.184 A  
HETATM   12  C   UNL     1      -8.676   8.395  68.915  1.00  0.00    -0.136 C  
HETATM   13  O   UNL     1     -10.763   8.178  67.655  1.00  0.00    -0.432 OA 
HETATM   14  C   UNL     1     -11.640   7.529  70.208  1.00  0.00    -0.114 A  
HETATM   15  C   UNL     1      -7.729   8.473  67.687  1.00  0.00    -0.102 C  
HETATM   16  H   UNL     1     -10.754   7.286  67.982  1.00  0.00     0.000 HD 
HETATM   17  C   UNL     1      -6.975   9.792  67.500  1.00  0.00    -0.083 C  
HETATM   18  C   UNL     1     -12.545   7.364  71.265  1.00  0.00    -0.376 A  
HETATM   19  C   UNL     1      -6.321  10.308  68.773  1.00  0.00    -0.047 C  
HETATM   20  C   UNL     1     -12.851   8.438  72.093  1.00  0.00    -0.385 A  
HETATM   21  C   UNL     1      -7.220  10.239  70.001  1.00  0.00    -0.164 C  
HETATM   22  C   UNL     1     -12.214   9.658  71.900  1.00  0.00    -0.413 A  
HETATM   23  C   UNL     1     -11.303   9.819  70.851  1.00  0.00    -0.439 A  
HETATM   24  C   UNL     1      -7.901   8.885  70.156  1.00  0.00    -0.097 C  
ENDBRANCH   6   9
TORSDOF 1
ENDMDL
MODEL       18
REMARK 921   NORMALIZED FREE ENERGY PREDICTED BY IDOCK:   -5.04 KCAL/MOL
REMARK 922        TOTAL FREE ENERGY PREDICTED BY IDOCK:   -5.73 KCAL/MOL
REMARK 923 INTER-LIGAND FREE ENERGY PREDICTED BY IDOCK:   -5.66 KCAL/MOL
REMARK 924 INTRA-LIGAND FREE ENERGY PREDICTED BY IDOCK:   -0.07 KCAL/MOL
REMARK 927      BINDING AFFINITY PREDICTED BY RF-SCORE:    0.00 PKD
ROOT
HETATM    1  C   UNL     1      -5.811  14.266  67.617  1.00  0.00     0.005 C  
HETATM    2  N   UNL     1      -6.771  15.402  67.958  1.00  0.00    -0.130 N  
HETATM    3  C   UNL     1      -5.978  16.702  68.053  1.00  0.00    -0.124 C  
HETATM    4  C   UNL     1      -7.822  15.513  66.812  1.00  0.00    -0.127 C  
HETATM    5  C   UNL     1      -9.089  16.281  67.243  1.00  0.00    -0.203 C  
HETATM    6  N   UNL     1      -9.718  15.753  68.465  1.00  0.00    -0.202 NA 
HETATM    7  C   UNL     1      -8.742  15.855  69.567  1.00  0.00    -0.105 C  
HETATM    8  C   UNL     1      -7.425  15.083  69.329  1.00  0.00    -0.188 C  
ENDROOT
BRANCH   6   9
HETATM    9  C   UNL     1     -10.225  14.353  68.337  1.00  0.00    -0.243 C  
HETATM   10  C   UNL     1     -11.707  13.988  68.710  1.00  0.00    -0.353 C  
HETATM   11  C   UNL     1     -12.127  14.513  70.090  1.00  0.00    -0.394 A  
HETATM   12  C   UNL     1     -12.032  12.444  68.520  1.00  0.00    -0.273 C  
HETATM   13  O   UNL     1     -12.521  14.713  67.745  1.00  0.00    -0.575 OA 
HETATM   14  C   UNL     1     -13.469  14.850  70.351  1.00  0.00     0.103 A  
HETATM   15  C   UNL     1     -11.717  11.838  67.125  1.00  0.00    -0.267 C  
HETATM   16  H   UNL     1     -13.417  14.493  67.970  1.00  0.00     0.000 HD 
HETATM   17  C   UNL     1     -10.280  11.359  66.908  1.00  0.00    -0.254 C  
HETATM   18  C   UNL     1     -13.852  15.442  71.562  1.00  0.00    -0.599 A  
HETATM   19  C   UNL     1      -9.741  10.506  68.047  1.00  0.00    -0.162 C  
HETATM   20  C   UNL     1     -12.900  15.701  72.542  1.00  0.00    -0.526 A  
HETATM   21  C   UNL     1     -10.039  11.066  69.431  1.00  0.00    -0.060 C  
HETATM   22  C   UNL     1     -11.580  15.319  72.335  1.00  0.00    -0.515 A  
HETATM   23  C   UNL     1     -11.200  14.719  71.129  1.00  0.00    -0.099 A  
HETATM   24  C   UNL     1     -11.497  11.479  69.599  1.00  0.00    -0.373 C  
ENDBRANCH   6   9
TORSDOF 1
ENDMDL
MODEL       19
REMARK 921   NORMALIZED FREE ENERGY PREDICTED BY IDOCK:   -5.03 KCAL/MOL
REMARK 922        TOTAL FREE ENERGY PREDICTED BY IDOCK:   -5.72 KCAL/MOL
REMARK 923 INTER-LIGAND FREE ENERGY PREDICTED BY IDOCK:   -5.41 KCAL/MOL
REMARK 924 INTRA-LIGAND FREE ENERGY PREDICTED BY IDOCK:   -0.31 KCAL/MOL
REMARK 927      BINDING AFFINITY PREDICTED BY RF-SCORE:    0.00 PKD
ROOT
HETATM    1  C   UNL     1     -10.820  11.665  65.741  1.00  0.00    -0.281 C  
HETATM    2  N   UNL     1     -10.427  11.918  67.194  1.00  0.00    -0.217 N  
HETATM    3  C   UNL     1     -10.347  13.425  67.424  1.00  0.00    -0.240 C  
HETATM    4  C   UNL     1     -11.529  11.306  68.111  1.00  0.00    -0.306 C  
HETATM    5  C   UNL     1     -11.039  11.082  69.556  1.00  0.00    -0.263 C  
HETATM    6  N   UNL     1      -9.800  10.292  69.649  1.00  0.00    -0.224 NA 
HETATM    7  C   UNL     1      -8.736  11.017  68.928  1.00  0.00    -0.117 C  
HETATM    8  C   UNL     1      -9.035  11.274  67.435  1.00  0.00    -0.144 C  
ENDROOT
BRANCH   6   9
HETATM    9  C   UNL     1      -9.926   8.894  69.137  1.00  0.00    -0.190 C  
HETATM   10  C   UNL     1     -10.477   7.741  70.050  1.00  0.00    -0.230 C  
HETATM   11  C   UNL     1      -9.789   7.676  71.421  1.00  0.00    -0.195 A  
HETATM   12  C   UNL     1     -10.509   6.330  69.318  1.00  0.00    -0.298 C  
HETATM   13  O   UNL     1     -11.861   8.109  70.318  1.00  0.00    -0.474 OA 
HETATM   14  C   UNL     1     -10.481   7.200  72.550  1.00  0.00    -0.254 A  
HETATM   15  C   UNL     1     -11.258   6.276  67.957  1.00  0.00    -0.223 C  
HETATM   16  H   UNL     1     -12.194   7.412  70.870  1.00  0.00     0.000 HD 
HETATM   17  C   UNL     1     -10.444   6.675  66.724  1.00  0.00    -0.298 C  
HETATM   18  C   UNL     1      -9.913   7.245  73.829  1.00  0.00    -0.368 A  
HETATM   19  C   UNL     1      -9.072   6.022  66.659  1.00  0.00    -0.142 C  
HETATM   20  C   UNL     1      -8.633   7.760  74.005  1.00  0.00    -0.319 A  
HETATM   21  C   UNL     1      -8.312   6.049  67.979  1.00  0.00    -0.116 C  
HETATM   22  C   UNL     1      -7.903   8.177  72.898  1.00  0.00    -0.202 A  
HETATM   23  C   UNL     1      -8.469   8.122  71.619  1.00  0.00    -0.173 A  
HETATM   24  C   UNL     1      -9.163   5.594  69.158  1.00  0.00    -0.136 C  
ENDBRANCH   6   9
TORSDOF 1
ENDMDL
MODEL       20
REMARK 921   NORMALIZED FREE ENERGY PREDICTED BY IDOCK:   -5.00 KCAL/MOL
REMARK 922        TOTAL FREE ENERGY PREDICTED BY IDOCK:   -5.68 KCAL/MOL
REMARK 923 INTER-LIGAND FREE ENERGY PREDICTED BY IDOCK:   -6.08 KCAL/MOL
REMARK 924 INTRA-LIGAND FREE ENERGY PREDICTED BY IDOCK:    0.40 KCAL/MOL
REMARK 927      BINDING AFFINITY PREDICTED BY RF-SCORE:    0.00 PKD
ROOT
HETATM    1  C   UNL     1      -9.948  15.310  64.869  1.00  0.00     0.032 C  
HETATM    2  N   UNL     1     -11.198  14.481  65.148  1.00  0.00    -0.348 N  
HETATM    3  C   UNL     1     -12.409  15.214  64.578  1.00  0.00    -0.199 C  
HETATM    4  C   UNL     1     -11.038  13.103  64.436  1.00  0.00    -0.381 C  
HETATM    5  C   UNL     1     -11.986  12.029  65.008  1.00  0.00    -0.196 C  
HETATM    6  N   UNL     1     -11.889  11.865  66.468  1.00  0.00    -0.570 NA 
HETATM    7  C   UNL     1     -12.244  13.150  67.100  1.00  0.00    -0.191 C  
HETATM    8  C   UNL     1     -11.346  14.337  66.686  1.00  0.00    -0.349 C  
ENDROOT
BRANCH   6   9
HETATM    9  C   UNL     1     -10.554  11.393  66.944  1.00  0.00    -0.252 C  
HETATM   10  C   UNL     1     -10.428  10.361  68.120  1.00  0.00    -0.188 C  
HETATM   11  C   UNL     1     -11.252  10.752  69.355  1.00  0.00    -0.337 A  
HETATM   12  C   UNL     1      -8.920  10.010  68.481  1.00  0.00    -0.124 C  
HETATM   13  O   UNL     1     -11.035   9.140  67.609  1.00  0.00    -0.484 OA 
HETATM   14  C   UNL     1     -11.775   9.764  70.211  1.00  0.00    -0.253 A  
HETATM   15  C   UNL     1      -8.025   9.524  67.308  1.00  0.00    -0.106 C  
HETATM   16  H   UNL     1     -10.959   8.515  68.321  1.00  0.00     0.000 HD 
HETATM   17  C   UNL     1      -7.362  10.618  66.468  1.00  0.00    -0.134 C  
HETATM   18  C   UNL     1     -12.628  10.093  71.273  1.00  0.00    -0.508 A  
HETATM   19  C   UNL     1      -6.694  11.705  67.297  1.00  0.00    -0.124 C  
HETATM   20  C   UNL     1     -12.969  11.421  71.506  1.00  0.00    -0.505 A  
HETATM   21  C   UNL     1      -7.540  12.200  68.463  1.00  0.00    -0.124 C  
HETATM   22  C   UNL     1     -12.416  12.421  70.715  1.00  0.00    -0.356 A  
HETATM   23  C   UNL     1     -11.556  12.092  69.662  1.00  0.00    -0.371 A  
HETATM   24  C   UNL     1      -8.131  11.063  69.287  1.00  0.00    -0.012 C  
ENDBRANCH   6   9
TORSDOF 1
ENDMDL
MODEL       21
REMARK 921   NORMALIZED FREE ENERGY PREDICTED BY IDOCK:   -4.92 KCAL/MOL
REMARK 922        TOTAL FREE ENERGY PREDICTED BY IDOCK:   -5.60 KCAL/MOL
REMARK 923 INTER-LIGAND FREE ENERGY PREDICTED BY IDOCK:   -5.24 KCAL/MOL
REMARK 924 INTRA-LIGAND FREE ENERGY PREDICTED BY IDOCK:   -0.36 KCAL/MOL
REMARK 927      BINDING AFFINITY PREDICTED BY RF-SCORE:    0.00 PKD
ROOT
HETATM    1  C   UNL     1      -9.923   4.651  72.588  1.00  0.00    -0.163 C  
HETATM    2  N   UNL     1      -9.977   6.143  72.905  1.00  0.00    -0.171 N  
HETATM    3  C   UNL     1     -10.202   6.317  74.405  1.00  0.00    -0.321 C  
HETATM    4  C   UNL     1      -8.610   6.776  72.505  1.00  0.00    -0.122 C  
HETATM    5  C   UNL     1      -8.693   8.308  72.337  1.00  0.00    -0.213 C  
HETATM    6  N   UNL     1      -9.752   8.748  71.413  1.00  0.00    -0.253 NA 
HETATM    7  C   UNL     1     -11.049   8.290  71.946  1.00  0.00    -0.292 C  
HETATM    8  C   UNL     1     -11.165   6.759  72.119  1.00  0.00    -0.259 C  
ENDROOT
BRANCH   6   9
HETATM    9  C   UNL     1      -9.567   8.286  70.004  1.00  0.00    -0.168 C  
HETATM   10  C   UNL     1      -9.171   9.291  68.864  1.00  0.00    -0.143 C  
HETATM   11  C   UNL     1     -10.057  10.544  68.831  1.00  0.00    -0.215 A  
HETATM   12  C   UNL     1      -9.046   8.596  67.440  1.00  0.00    -0.148 C  
HETATM   13  O   UNL     1      -7.839   9.757  69.226  1.00  0.00    -0.088 OA 
HETATM   14  C   UNL     1      -9.546  11.772  68.371  1.00  0.00    -0.191 A  
HETATM   15  C   UNL     1      -8.103   7.365  67.353  1.00  0.00    -0.113 C  
HETATM   16  H   UNL     1      -7.600  10.364  68.536  1.00  0.00     0.000 HD 
HETATM   17  C   UNL     1      -8.718   6.017  67.736  1.00  0.00    -0.104 C  
HETATM   18  C   UNL     1     -10.299  12.951  68.445  1.00  0.00    -0.249 A  
HETATM   19  C   UNL     1     -10.073   5.759  67.093  1.00  0.00    -0.216 C  
HETATM   20  C   UNL     1     -11.585  12.924  68.974  1.00  0.00    -0.372 A  
HETATM   21  C   UNL     1     -11.021   6.949  67.152  1.00  0.00    -0.427 C  
HETATM   22  C   UNL     1     -12.137  11.714  69.376  1.00  0.00    -0.328 A  
HETATM   23  C   UNL     1     -11.387  10.535  69.292  1.00  0.00    -0.325 A  
HETATM   24  C   UNL     1     -10.361   8.251  66.712  1.00  0.00    -0.361 C  
ENDBRANCH   6   9
TORSDOF 1
ENDMDL
MODEL       22
REMARK 921   NORMALIZED FREE ENERGY PREDICTED BY IDOCK:   -4.90 KCAL/MOL
REMARK 922        TOTAL FREE ENERGY PREDICTED BY IDOCK:   -5.58 KCAL/MOL
REMARK 923 INTER-LIGAND FREE ENERGY PREDICTED BY IDOCK:   -5.42 KCAL/MOL
REMARK 924 INTRA-LIGAND FREE ENERGY PREDICTED BY IDOCK:   -0.17 KCAL/MOL
REMARK 927      BINDING AFFINITY PREDICTED BY RF-SCORE:    0.00 PKD
ROOT
HETATM    1  C   UNL     1     -10.508  13.543  64.663  1.00  0.00    -0.421 C  
HETATM    2  N   UNL     1     -10.811  13.457  66.156  1.00  0.00    -0.280 N  
HETATM    3  C   UNL     1     -11.615  14.688  66.564  1.00  0.00    -0.344 C  
HETATM    4  C   UNL     1     -11.657  12.172  66.409  1.00  0.00    -0.364 C  
HETATM    5  C   UNL     1     -11.631  11.727  67.886  1.00  0.00    -0.307 C  
HETATM    6  N   UNL     1     -10.274  11.562  68.434  1.00  0.00    -0.199 NA 
HETATM    7  C   UNL     1      -9.583  12.863  68.351  1.00  0.00    -0.176 C  
HETATM    8  C   UNL     1      -9.461  13.433  66.920  1.00  0.00    -0.253 C  
ENDROOT
BRANCH   6   9
HETATM    9  C   UNL     1      -9.470  10.494  67.767  1.00  0.00    -0.149 C  
HETATM   10  C   UNL     1      -9.824   8.975  67.953  1.00  0.00    -0.171 C  
HETATM   11  C   UNL     1     -10.005   8.574  69.424  1.00  0.00    -0.194 A  
HETATM   12  C   UNL     1      -8.832   8.006  67.176  1.00  0.00    -0.138 C  
HETATM   13  O   UNL     1     -11.135   8.821  67.337  1.00  0.00    -0.418 OA 
HETATM   14  C   UNL     1     -10.879   7.530  69.781  1.00  0.00    -0.234 A  
HETATM   15  C   UNL     1      -8.647   8.281  65.658  1.00  0.00    -0.189 C  
HETATM   16  H   UNL     1     -11.349   7.903  67.449  1.00  0.00     0.000 HD 
HETATM   17  C   UNL     1      -7.597   9.331  65.287  1.00  0.00    -0.099 C  
HETATM   18  C   UNL     1     -11.149   7.229  71.122  1.00  0.00    -0.275 A  
HETATM   19  C   UNL     1      -6.271   9.152  66.011  1.00  0.00    -0.063 C  
HETATM   20  C   UNL     1     -10.542   7.962  72.136  1.00  0.00    -0.312 A  
HETATM   21  C   UNL     1      -6.414   8.872  67.502  1.00  0.00    -0.061 C  
HETATM   22  C   UNL     1      -9.626   8.955  71.812  1.00  0.00    -0.353 A  
HETATM   23  C   UNL     1      -9.349   9.248  70.472  1.00  0.00    -0.316 A  
HETATM   24  C   UNL     1      -7.439   7.784  67.800  1.00  0.00    -0.104 C  
ENDBRANCH   6   9
TORSDOF 1
ENDMDL
MODEL       23
REMARK 921   NORMALIZED FREE ENERGY PREDICTED BY IDOCK:   -4.89 KCAL/MOL
REMARK 922        TOTAL FREE ENERGY PREDICTED BY IDOCK:   -5.57 KCAL/MOL
REMARK 923 INTER-LIGAND FREE ENERGY PREDICTED BY IDOCK:   -5.18 KCAL/MOL
REMARK 924 INTRA-LIGAND FREE ENERGY PREDICTED BY IDOCK:   -0.38 KCAL/MOL
REMARK 927      BINDING AFFINITY PREDICTED BY RF-SCORE:    0.00 PKD
ROOT
HETATM    1  C   UNL     1      -9.190  14.895  66.545  1.00  0.00    -0.285 C  
HETATM    2  N   UNL     1     -10.357  13.985  66.917  1.00  0.00    -0.267 N  
HETATM    3  C   UNL     1     -11.614  14.837  67.069  1.00  0.00    -0.339 C  
HETATM    4  C   UNL     1     -10.560  12.956  65.763  1.00  0.00    -0.275 C  
HETATM    5  C   UNL     1     -11.371  11.721  66.208  1.00  0.00    -0.287 C  
HETATM    6  N   UNL     1     -10.829  11.051  67.402  1.00  0.00    -0.256 NA 
HETATM    7  C   UNL     1     -10.845  12.016  68.518  1.00  0.00    -0.233 C  
HETATM    8  C   UNL     1     -10.020  13.298  68.267  1.00  0.00    -0.236 C  
ENDROOT
BRANCH   6   9
HETATM    9  C   UNL     1      -9.460  10.481  67.216  1.00  0.00    -0.158 C  
HETATM   10  C   UNL     1      -9.237   8.932  67.080  1.00  0.00    -0.139 C  
HETATM   11  C   UNL     1      -9.934   8.123  68.183  1.00  0.00    -0.219 A  
HETATM   12  C   UNL     1      -7.707   8.538  66.911  1.00  0.00    -0.091 C  
HETATM   13  O   UNL     1      -9.907   8.568  65.839  1.00  0.00    -0.465 OA 
HETATM   14  C   UNL     1     -10.386   6.813  67.936  1.00  0.00    -0.236 A  
HETATM   15  C   UNL     1      -6.934   9.245  65.763  1.00  0.00    -0.085 C  
HETATM   16  H   UNL     1      -9.772   7.632  65.756  1.00  0.00     0.000 HD 
HETATM   17  C   UNL     1      -6.340  10.615  66.096  1.00  0.00    -0.128 C  
HETATM   18  C   UNL     1     -11.129   6.104  68.889  1.00  0.00    -0.417 A  
HETATM   19  C   UNL     1      -5.581  10.649  67.414  1.00  0.00    -0.044 C  
HETATM   20  C   UNL     1     -11.429   6.689  70.114  1.00  0.00    -0.444 A  
HETATM   21  C   UNL     1      -6.305   9.957  68.561  1.00  0.00    -0.050 C  
HETATM   22  C   UNL     1     -10.940   7.956  70.408  1.00  0.00    -0.251 A  
HETATM   23  C   UNL     1     -10.189   8.660  69.460  1.00  0.00    -0.209 A  
HETATM   24  C   UNL     1      -6.830   8.578  68.180  1.00  0.00    -0.069 C  
ENDBRANCH   6   9
TORSDOF 1
ENDMDL
MODEL       24
REMARK 921   NORMALIZED FREE ENERGY PREDICTED BY IDOCK:   -4.89 KCAL/MOL
REMARK 922        TOTAL FREE ENERGY PREDICTED BY IDOCK:   -5.56 KCAL/MOL
REMARK 923 INTER-LIGAND FREE ENERGY PREDICTED BY IDOCK:   -5.17 KCAL/MOL
REMARK 924 INTRA-LIGAND FREE ENERGY PREDICTED BY IDOCK:   -0.39 KCAL/MOL
REMARK 927      BINDING AFFINITY PREDICTED BY RF-SCORE:    0.00 PKD
ROOT
HETATM    1  C   UNL     1      -9.483   7.589  71.760  1.00  0.00    -0.145 C  
HETATM    2  N   UNL     1     -10.515   8.064  70.741  1.00  0.00    -0.204 N  
HETATM    3  C   UNL     1     -11.820   7.309  70.976  1.00  0.00    -0.318 C  
HETATM    4  C   UNL     1     -10.748   9.590  70.959  1.00  0.00    -0.340 C  
HETATM    5  C   UNL     1     -11.389  10.272  69.732  1.00  0.00    -0.273 C  
HETATM    6  N   UNL     1     -10.661  10.040  68.474  1.00  0.00    -0.221 NA 
HETATM    7  C   UNL     1     -10.642   8.588  68.213  1.00  0.00    -0.119 C  
HETATM    8  C   UNL     1      -9.971   7.748  69.322  1.00  0.00    -0.182 C  
ENDROOT
BRANCH   6   9
HETATM    9  C   UNL     1      -9.275  10.598  68.456  1.00  0.00    -0.170 C  
HETATM   10  C   UNL     1      -8.973  12.004  67.826  1.00  0.00    -0.176 C  
HETATM   11  C   UNL     1      -9.562  12.173  66.418  1.00  0.00    -0.243 A  
HETATM   12  C   UNL     1      -7.435  12.398  67.893  1.00  0.00    -0.120 C  
HETATM   13  O   UNL     1      -9.689  12.951  68.670  1.00  0.00    -0.372 OA 
HETATM   14  C   UNL     1      -9.952  13.442  65.950  1.00  0.00    -0.287 A  
HETATM   15  C   UNL     1      -6.768  12.338  69.295  1.00  0.00    -0.075 C  
HETATM   16  H   UNL     1      -9.506  13.802  68.289  1.00  0.00     0.000 HD 
HETATM   17  C   UNL     1      -6.234  10.971  69.730  1.00  0.00    -0.113 C  
HETATM   18  C   UNL     1     -10.601  13.599  64.719  1.00  0.00    -0.436 A  
HETATM   19  C   UNL     1      -5.406  10.271  68.662  1.00  0.00    -0.038 C  
HETATM   20  C   UNL     1     -10.865  12.490  63.924  1.00  0.00    -0.472 A  
HETATM   21  C   UNL     1      -6.026  10.316  67.272  1.00  0.00    -0.053 C  
HETATM   22  C   UNL     1     -10.432  11.234  64.332  1.00  0.00    -0.407 A  
HETATM   23  C   UNL     1      -9.776  11.079  65.558  1.00  0.00    -0.274 A  
HETATM   24  C   UNL     1      -6.493  11.714  66.880  1.00  0.00    -0.134 C  
ENDBRANCH   6   9
TORSDOF 1
ENDMDL
MODEL       25
REMARK 921   NORMALIZED FREE ENERGY PREDICTED BY IDOCK:   -4.87 KCAL/MOL
REMARK 922        TOTAL FREE ENERGY PREDICTED BY IDOCK:   -5.55 KCAL/MOL
REMARK 923 INTER-LIGAND FREE ENERGY PREDICTED BY IDOCK:   -5.15 KCAL/MOL
REMARK 924 INTRA-LIGAND FREE ENERGY PREDICTED BY IDOCK:   -0.39 KCAL/MOL
REMARK 927      BINDING AFFINITY PREDICTED BY RF-SCORE:    0.00 PKD
ROOT
HETATM    1  C   UNL     1      -6.634   3.395  71.452  1.00  0.00    -0.026 C  
HETATM    2  N   UNL     1      -7.747   3.862  72.386  1.00  0.00    -0.070 N  
HETATM    3  C   UNL     1      -7.796   2.930  73.594  1.00  0.00    -0.060 C  
HETATM    4  C   UNL     1      -7.412   5.310  72.857  1.00  0.00    -0.096 C  
HETATM    5  C   UNL     1      -8.647   6.053  73.409  1.00  0.00    -0.120 C  
HETATM    6  N   UNL     1      -9.794   6.068  72.486  1.00  0.00    -0.164 NA 
HETATM    7  C   UNL     1     -10.196   4.671  72.229  1.00  0.00    -0.193 C  
HETATM    8  C   UNL     1      -9.088   3.790  71.610  1.00  0.00    -0.113 C  
ENDROOT
BRANCH   6   9
HETATM    9  C   UNL     1      -9.538   6.788  71.202  1.00  0.00    -0.173 C  
HETATM   10  C   UNL     1     -10.111   8.229  70.951  1.00  0.00    -0.190 C  
HETATM   11  C   UNL     1     -11.610   8.344  71.261  1.00  0.00    -0.326 A  
HETATM   12  C   UNL     1      -9.740   8.804  69.516  1.00  0.00    -0.172 C  
HETATM   13  O   UNL     1      -9.438   9.071  71.931  1.00  0.00    -0.313 OA 
HETATM   14  C   UNL     1     -12.161   9.563  71.699  1.00  0.00    -0.477 A  
HETATM   15  C   UNL     1      -8.232   8.806  69.143  1.00  0.00    -0.119 C  
HETATM   16  H   UNL     1      -9.784   9.943  71.779  1.00  0.00     0.000 HD 
HETATM   17  C   UNL     1      -7.683   7.508  68.546  1.00  0.00    -0.120 C  
HETATM   18  C   UNL     1     -13.500   9.658  72.101  1.00  0.00    -0.516 A  
HETATM   19  C   UNL     1      -8.555   6.926  67.443  1.00  0.00    -0.121 C  
HETATM   20  C   UNL     1     -14.319   8.535  72.064  1.00  0.00    -0.537 A  
HETATM   21  C   UNL     1     -10.042   6.915  67.771  1.00  0.00    -0.199 C  
HETATM   22  C   UNL     1     -13.818   7.335  71.574  1.00  0.00    -0.463 A  
HETATM   23  C   UNL     1     -12.483   7.244  71.164  1.00  0.00    -0.373 A  
HETATM   24  C   UNL     1     -10.535   8.252  68.315  1.00  0.00    -0.211 C  
ENDBRANCH   6   9
TORSDOF 1
ENDMDL
MODEL       26
REMARK 921   NORMALIZED FREE ENERGY PREDICTED BY IDOCK:   -4.85 KCAL/MOL
REMARK 922        TOTAL FREE ENERGY PREDICTED BY IDOCK:   -5.52 KCAL/MOL
REMARK 923 INTER-LIGAND FREE ENERGY PREDICTED BY IDOCK:   -5.18 KCAL/MOL
REMARK 924 INTRA-LIGAND FREE ENERGY PREDICTED BY IDOCK:   -0.35 KCAL/MOL
REMARK 927      BINDING AFFINITY PREDICTED BY RF-SCORE:    0.00 PKD
ROOT
HETATM    1  C   UNL     1     -11.042  12.717  68.971  1.00  0.00    -0.238 C  
HETATM    2  N   UNL     1     -10.321  11.839  67.952  1.00  0.00    -0.189 N  
HETATM    3  C   UNL     1     -10.039  12.670  66.703  1.00  0.00    -0.241 C  
HETATM    4  C   UNL     1      -8.975  11.366  68.580  1.00  0.00    -0.158 C  
HETATM    5  C   UNL     1      -8.389  10.132  67.863  1.00  0.00    -0.117 C  
HETATM    6  N   UNL     1      -9.328   9.003  67.758  1.00  0.00    -0.139 NA 
HETATM    7  C   UNL     1     -10.501   9.451  66.981  1.00  0.00    -0.231 C  
HETATM    8  C   UNL     1     -11.254  10.652  67.595  1.00  0.00    -0.290 C  
ENDROOT
BRANCH   6   9
HETATM    9  C   UNL     1      -9.753   8.434  69.072  1.00  0.00    -0.171 C  
HETATM   10  C   UNL     1      -9.287   7.004  69.527  1.00  0.00    -0.148 C  
HETATM   11  C   UNL     1      -9.515   5.928  68.457  1.00  0.00    -0.134 A  
HETATM   12  C   UNL     1      -9.867   6.585  70.946  1.00  0.00    -0.201 C  
HETATM   13  O   UNL     1      -7.843   7.115  69.677  1.00  0.00    -0.113 OA 
HETATM   14  C   UNL     1      -8.670   4.805  68.376  1.00  0.00    -0.112 A  
HETATM   15  C   UNL     1      -9.613   7.575  72.116  1.00  0.00    -0.190 C  
HETATM   16  H   UNL     1      -7.561   6.250  69.952  1.00  0.00     0.000 HD 
HETATM   17  C   UNL     1     -10.622   8.717  72.262  1.00  0.00    -0.375 C  
HETATM   18  C   UNL     1      -8.786   3.875  67.336  1.00  0.00    -0.137 A  
HETATM   19  C   UNL     1     -12.073   8.264  72.188  1.00  0.00    -0.425 C  
HETATM   20  C   UNL     1      -9.759   4.043  66.357  1.00  0.00    -0.206 A  
HETATM   21  C   UNL     1     -12.357   7.285  71.056  1.00  0.00    -0.335 C  
HETATM   22  C   UNL     1     -10.648   5.108  66.448  1.00  0.00    -0.336 A  
HETATM   23  C   UNL     1     -10.537   6.031  67.494  1.00  0.00    -0.345 A  
HETATM   24  C   UNL     1     -11.345   6.146  70.996  1.00  0.00    -0.348 C  
ENDBRANCH   6   9
TORSDOF 1
ENDMDL
MODEL       27
REMARK 921   NORMALIZED FREE ENERGY PREDICTED BY IDOCK:   -4.82 KCAL/MOL
REMARK 922        TOTAL FREE ENERGY PREDICTED BY IDOCK:   -5.50 KCAL/MOL
REMARK 923 INTER-LIGAND FREE ENERGY PREDICTED BY IDOCK:   -5.31 KCAL/MOL
REMARK 924 INTRA-LIGAND FREE ENERGY PREDICTED BY IDOCK:   -0.19 KCAL/MOL
REMARK 927      BINDING AFFINITY PREDICTED BY RF-SCORE:    0.00 PKD
ROOT
HETATM    1  C   UNL     1      -9.945  15.039  65.400  1.00  0.00    -0.330 C  
HETATM    2  N   UNL     1     -11.052  14.044  65.735  1.00  0.00    -0.301 N  
HETATM    3  C   UNL     1     -12.390  14.636  65.300  1.00  0.00    -0.215 C  
HETATM    4  C   UNL     1     -10.781  12.728  64.945  1.00  0.00    -0.305 C  
HETATM    5  C   UNL     1     -11.534  11.517  65.536  1.00  0.00    -0.004 C  
HETATM    6  N   UNL     1     -11.292  11.310  66.974  1.00  0.00    -0.429 NA 
HETATM    7  C   UNL     1     -11.752  12.513  67.696  1.00  0.00    -0.361 C  
HETATM    8  C   UNL     1     -11.049  13.821  67.271  1.00  0.00    -0.304 C  
ENDROOT
BRANCH   6   9
HETATM    9  C   UNL     1      -9.873  10.998  67.318  1.00  0.00    -0.178 C  
HETATM   10  C   UNL     1      -9.489   9.666  68.056  1.00  0.00    -0.132 C  
HETATM   11  C   UNL     1     -10.341   9.403  69.306  1.00  0.00    -0.217 A  
HETATM   12  C   UNL     1      -7.931   9.542  68.345  1.00  0.00    -0.093 C  
HETATM   13  O   UNL     1      -9.831   8.609  67.115  1.00  0.00    -0.172 OA 
HETATM   14  C   UNL     1     -10.610   8.087  69.728  1.00  0.00    -0.238 A  
HETATM   15  C   UNL     1      -6.987   9.711  67.122  1.00  0.00    -0.085 C  
HETATM   16  H   UNL     1      -9.599   7.803  67.561  1.00  0.00     0.000 HD 
HETATM   17  C   UNL     1      -6.605  11.148  66.760  1.00  0.00    -0.133 C  
HETATM   18  C   UNL     1     -11.481   7.824  70.793  1.00  0.00    -0.285 A  
HETATM   19  C   UNL     1      -6.165  11.982  67.954  1.00  0.00    -0.073 C  
HETATM   20  C   UNL     1     -12.097   8.875  71.464  1.00  0.00    -0.395 A  
HETATM   21  C   UNL     1      -7.063  11.835  69.175  1.00  0.00    -0.071 C  
HETATM   22  C   UNL     1     -11.799  10.185  71.110  1.00  0.00    -0.472 A  
HETATM   23  C   UNL     1     -10.921  10.447  70.052  1.00  0.00    -0.370 A  
HETATM   24  C   UNL     1      -7.367  10.379  69.511  1.00  0.00    -0.144 C  
ENDBRANCH   6   9
TORSDOF 1
ENDMDL
MODEL       28
REMARK 921   NORMALIZED FREE ENERGY PREDICTED BY IDOCK:   -4.79 KCAL/MOL
REMARK 922        TOTAL FREE ENERGY PREDICTED BY IDOCK:   -5.47 KCAL/MOL
REMARK 923 INTER-LIGAND FREE ENERGY PREDICTED BY IDOCK:   -5.13 KCAL/MOL
REMARK 924 INTRA-LIGAND FREE ENERGY PREDICTED BY IDOCK:   -0.34 KCAL/MOL
REMARK 927      BINDING AFFINITY PREDICTED BY RF-SCORE:    0.00 PKD
ROOT
HETATM    1  C   UNL     1     -10.178  15.294  65.439  1.00  0.00    -0.383 C  
HETATM    2  N   UNL     1     -11.036  14.036  65.346  1.00  0.00    -0.309 N  
HETATM    3  C   UNL     1     -12.400  14.414  64.774  1.00  0.00    -0.414 C  
HETATM    4  C   UNL     1     -10.327  13.031  64.388  1.00  0.00    -0.374 C  
HETATM    5  C   UNL     1     -10.831  11.584  64.570  1.00  0.00    -0.327 C  
HETATM    6  N   UNL     1     -10.762  11.100  65.959  1.00  0.00    -0.243 NA 
HETATM    7  C   UNL     1     -11.612  11.973  66.793  1.00  0.00    -0.321 C  
HETATM    8  C   UNL     1     -11.207  13.464  66.779  1.00  0.00    -0.310 C  
ENDROOT
BRANCH   6   9
HETATM    9  C   UNL     1      -9.378  11.026  66.515  1.00  0.00    -0.180 C  
HETATM   10  C   UNL     1      -8.495   9.740  66.329  1.00  0.00    -0.123 C  
HETATM   11  C   UNL     1      -9.225   8.447  66.719  1.00  0.00    -0.214 A  
HETATM   12  C   UNL     1      -7.066   9.863  67.014  1.00  0.00    -0.089 C  
HETATM   13  O   UNL     1      -8.270   9.650  64.893  1.00  0.00    -0.128 OA 
HETATM   14  C   UNL     1      -8.912   7.228  66.089  1.00  0.00    -0.179 A  
HETATM   15  C   UNL     1      -6.215  11.100  66.616  1.00  0.00    -0.136 C  
HETATM   16  H   UNL     1      -7.736   8.872  64.780  1.00  0.00     0.000 HD 
HETATM   17  C   UNL     1      -6.484  12.384  67.405  1.00  0.00    -0.154 C  
HETATM   18  C   UNL     1      -9.647   6.063  66.344  1.00  0.00    -0.168 A  
HETATM   19  C   UNL     1      -6.539  12.176  68.911  1.00  0.00    -0.090 C  
HETATM   20  C   UNL     1     -10.707   6.091  67.244  1.00  0.00    -0.400 A  
HETATM   21  C   UNL     1      -7.360  10.965  69.337  1.00  0.00    -0.116 C  
HETATM   22  C   UNL     1     -10.996   7.266  67.927  1.00  0.00    -0.110 A  
HETATM   23  C   UNL     1     -10.255   8.427  67.679  1.00  0.00    -0.298 A  
HETATM   24  C   UNL     1      -7.010   9.709  68.548  1.00  0.00    -0.065 C  
ENDBRANCH   6   9
TORSDOF 1
ENDMDL
MODEL       29
REMARK 921   NORMALIZED FREE ENERGY PREDICTED BY IDOCK:   -4.79 KCAL/MOL
REMARK 922        TOTAL FREE ENERGY PREDICTED BY IDOCK:   -5.46 KCAL/MOL
REMARK 923 INTER-LIGAND FREE ENERGY PREDICTED BY IDOCK:   -5.09 KCAL/MOL
REMARK 924 INTRA-LIGAND FREE ENERGY PREDICTED BY IDOCK:   -0.38 KCAL/MOL
REMARK 927      BINDING AFFINITY PREDICTED BY RF-SCORE:    0.00 PKD
ROOT
HETATM    1  C   UNL     1     -11.638  14.475  70.240  1.00  0.00    -0.268 C  
HETATM    2  N   UNL     1     -11.105  14.756  68.838  1.00  0.00    -0.240 N  
HETATM    3  C   UNL     1     -11.438  16.198  68.467  1.00  0.00    -0.324 C  
HETATM    4  C   UNL     1      -9.558  14.565  68.858  1.00  0.00    -0.158 C  
HETATM    5  C   UNL     1      -8.968  14.362  67.447  1.00  0.00    -0.199 C  
HETATM    6  N   UNL     1      -9.608  13.276  66.685  1.00  0.00    -0.257 NA 
HETATM    7  C   UNL     1     -11.037  13.606  66.525  1.00  0.00    -0.305 C  
HETATM    8  C   UNL     1     -11.806  13.783  67.853  1.00  0.00    -0.378 C  
ENDROOT
BRANCH   6   9
HETATM    9  C   UNL     1      -9.444  11.922  67.295  1.00  0.00    -0.175 C  
HETATM   10  C   UNL     1      -8.468  10.862  66.669  1.00  0.00    -0.151 C  
HETATM   11  C   UNL     1      -8.671  10.673  65.159  1.00  0.00    -0.196 A  
HETATM   12  C   UNL     1      -8.459   9.483  67.459  1.00  0.00    -0.126 C  
HETATM   13  O   UNL     1      -7.142  11.444  66.821  1.00  0.00    -0.138 OA 
HETATM   14  C   UNL     1      -7.595  10.302  64.331  1.00  0.00    -0.094 A  
HETATM   15  C   UNL     1      -8.178   9.564  68.985  1.00  0.00    -0.113 C  
HETATM   16  H   UNL     1      -6.551  10.803  66.442  1.00  0.00     0.000 HD 
HETATM   17  C   UNL     1      -9.390   9.841  69.879  1.00  0.00    -0.262 C  
HETATM   18  C   UNL     1      -7.731  10.241  62.938  1.00  0.00    -0.150 A  
HETATM   19  C   UNL     1     -10.599   8.977  69.555  1.00  0.00    -0.231 C  
HETATM   20  C   UNL     1      -8.952  10.543  62.344  1.00  0.00    -0.308 A  
HETATM   21  C   UNL     1     -10.900   8.868  68.066  1.00  0.00    -0.079 C  
HETATM   22  C   UNL     1     -10.047  10.850  63.143  1.00  0.00    -0.317 A  
HETATM   23  C   UNL     1      -9.912  10.900  64.535  1.00  0.00    -0.376 A  
HETATM   24  C   UNL     1      -9.662   8.542  67.238  1.00  0.00    -0.239 C  
ENDBRANCH   6   9
TORSDOF 1
ENDMDL
MODEL       30
REMARK 921   NORMALIZED FREE ENERGY PREDICTED BY IDOCK:   -4.71 KCAL/MOL
REMARK 922        TOTAL FREE ENERGY PREDICTED BY IDOCK:   -5.37 KCAL/MOL
REMARK 923 INTER-LIGAND FREE ENERGY PREDICTED BY IDOCK:   -5.14 KCAL/MOL
REMARK 924 INTRA-LIGAND FREE ENERGY PREDICTED BY IDOCK:   -0.24 KCAL/MOL
REMARK 927      BINDING AFFINITY PREDICTED BY RF-SCORE:    0.00 PKD
ROOT
HETATM    1  C   UNL     1     -10.183  12.763  63.350  1.00  0.00     0.370 C  
HETATM    2  N   UNL     1     -11.319  12.617  64.358  1.00  0.00    -0.324 N  
HETATM    3  C   UNL     1     -12.325  11.602  63.820  1.00  0.00    -0.193 C  
HETATM    4  C   UNL     1     -10.718  12.096  65.699  1.00  0.00    -0.275 C  
HETATM    5  C   UNL     1     -11.650  12.346  66.903  1.00  0.00    -0.370 C  
HETATM    6  N   UNL     1     -12.076  13.749  67.044  1.00  0.00    -0.410 NA 
HETATM    7  C   UNL     1     -12.815  14.131  65.825  1.00  0.00    -0.329 C  
HETATM    8  C   UNL     1     -12.002  14.001  64.517  1.00  0.00    -0.448 C  
ENDROOT
BRANCH   6   9
HETATM    9  C   UNL     1     -10.958  14.705  67.305  1.00  0.00    -0.317 C  
HETATM   10  C   UNL     1     -10.295  14.811  68.725  1.00  0.00    -0.248 C  
HETATM   11  C   UNL     1     -11.318  14.969  69.858  1.00  0.00    -0.307 A  
HETATM   12  C   UNL     1      -9.140  15.902  68.791  1.00  0.00    -0.219 C  
HETATM   13  O   UNL     1      -9.664  13.516  68.938  1.00  0.00    -0.410 OA 
HETATM   14  C   UNL     1     -11.043  14.477  71.148  1.00  0.00     0.360 A  
HETATM   15  C   UNL     1      -8.010  15.776  67.732  1.00  0.00    -0.155 C  
HETATM   16  H   UNL     1      -9.263  13.580  69.796  1.00  0.00     0.000 HD 
HETATM   17  C   UNL     1      -8.281  16.432  66.376  1.00  0.00    -0.366 C  
HETATM   18  C   UNL     1     -12.008  14.504  72.162  1.00  0.00    -0.176 A  
HETATM   19  C   UNL     1      -8.824  17.849  66.480  1.00  0.00    -0.281 C  
HETATM   20  C   UNL     1     -13.269  15.032  71.909  1.00  0.00    -0.455 A  
HETATM   21  C   UNL     1      -9.929  18.012  67.515  1.00  0.00    -0.330 C  
HETATM   22  C   UNL     1     -13.546  15.583  70.664  1.00  0.00    -0.003 A  
HETATM   23  C   UNL     1     -12.577  15.565  69.654  1.00  0.00    -0.032 A  
HETATM   24  C   UNL     1      -9.578  17.380  68.857  1.00  0.00    -0.223 C  
ENDBRANCH   6   9
TORSDOF 1
ENDMDL
MODEL       31
REMARK 921   NORMALIZED FREE ENERGY PREDICTED BY IDOCK:   -4.70 KCAL/MOL
REMARK 922        TOTAL FREE ENERGY PREDICTED BY IDOCK:   -5.37 KCAL/MOL
REMARK 923 INTER-LIGAND FREE ENERGY PREDICTED BY IDOCK:   -4.99 KCAL/MOL
REMARK 924 INTRA-LIGAND FREE ENERGY PREDICTED BY IDOCK:   -0.38 KCAL/MOL
REMARK 927      BINDING AFFINITY PREDICTED BY RF-SCORE:    0.00 PKD
ROOT
HETATM    1  C   UNL     1     -13.768  13.263  72.218  1.00  0.00    -0.589 C  
HETATM    2  N   UNL     1     -13.201  14.657  71.967  1.00  0.00    -0.327 N  
HETATM    3  C   UNL     1     -13.844  15.632  72.949  1.00  0.00    -0.491 C  
HETATM    4  C   UNL     1     -11.662  14.608  72.210  1.00  0.00     0.032 C  
HETATM    5  C   UNL     1     -10.921  15.793  71.554  1.00  0.00     0.059 C  
HETATM    6  N   UNL     1     -11.208  15.952  70.119  1.00  0.00    -0.335 NA 
HETATM    7  C   UNL     1     -12.655  16.194  69.962  1.00  0.00     0.611 C  
HETATM    8  C   UNL     1     -13.555  15.065  70.512  1.00  0.00     0.057 C  
ENDROOT
BRANCH   6   9
HETATM    9  C   UNL     1     -10.770  14.800  69.275  1.00  0.00    -0.256 C  
HETATM   10  C   UNL     1      -9.374  14.804  68.555  1.00  0.00    -0.199 C  
HETATM   11  C   UNL     1      -9.110  16.090  67.761  1.00  0.00    -0.196 A  
HETATM   12  C   UNL     1      -9.116  13.493  67.693  1.00  0.00    -0.205 C  
HETATM   13  O   UNL     1      -8.399  14.797  69.636  1.00  0.00    -0.417 OA 
HETATM   14  C   UNL     1      -7.797  16.567  67.583  1.00  0.00    -0.175 A  
HETATM   15  C   UNL     1      -9.279  12.137  68.434  1.00  0.00    -0.154 C  
HETATM   16  H   UNL     1      -7.555  14.800  69.201  1.00  0.00     0.000 HD 
HETATM   17  C   UNL     1     -10.701  11.573  68.502  1.00  0.00    -0.242 C  
HETATM   18  C   UNL     1      -7.544  17.799  66.967  1.00  0.00    -0.228 A  
HETATM   19  C   UNL     1     -11.433  11.599  67.169  1.00  0.00    -0.344 C  
HETATM   20  C   UNL     1      -8.600  18.578  66.506  1.00  0.00    -0.289 A  
HETATM   21  C   UNL     1     -11.288  12.912  66.410  1.00  0.00    -0.361 C  
HETATM   22  C   UNL     1      -9.901  18.101  66.611  1.00  0.00    -0.350 A  
HETATM   23  C   UNL     1     -10.152  16.865  67.218  1.00  0.00    -0.286 A  
HETATM   24  C   UNL     1      -9.844  13.393  66.337  1.00  0.00    -0.299 C  
ENDBRANCH   6   9
TORSDOF 1
ENDMDL
MODEL       32
REMARK 921   NORMALIZED FREE ENERGY PREDICTED BY IDOCK:   -4.70 KCAL/MOL
REMARK 922        TOTAL FREE ENERGY PREDICTED BY IDOCK:   -5.36 KCAL/MOL
REMARK 923 INTER-LIGAND FREE ENERGY PREDICTED BY IDOCK:   -5.22 KCAL/MOL
REMARK 924 INTRA-LIGAND FREE ENERGY PREDICTED BY IDOCK:   -0.15 KCAL/MOL
REMARK 927      BINDING AFFINITY PREDICTED BY RF-SCORE:    0.00 PKD
ROOT
HETATM    1  C   UNL     1     -10.879  15.345  65.505  1.00  0.00    -0.374 C  
HETATM    2  N   UNL     1     -10.618  14.972  66.961  1.00  0.00    -0.287 N  
HETATM    3  C   UNL     1     -10.912  16.185  67.838  1.00  0.00    -0.318 C  
HETATM    4  C   UNL     1     -11.577  13.804  67.345  1.00  0.00    -0.362 C  
HETATM    5  C   UNL     1     -11.107  13.040  68.600  1.00  0.00    -0.269 C  
HETATM    6  N   UNL     1      -9.719  12.555  68.516  1.00  0.00    -0.175 NA 
HETATM    7  C   UNL     1      -8.832  13.722  68.350  1.00  0.00    -0.165 C  
HETATM    8  C   UNL     1      -9.124  14.574  67.095  1.00  0.00    -0.225 C  
ENDROOT
BRANCH   6   9
HETATM    9  C   UNL     1      -9.485  11.555  67.430  1.00  0.00    -0.165 C  
HETATM   10  C   UNL     1     -10.103  10.113  67.506  1.00  0.00    -0.201 C  
HETATM   11  C   UNL     1      -9.841   9.415  68.848  1.00  0.00    -0.176 A  
HETATM   12  C   UNL     1      -9.714   9.205  66.261  1.00  0.00    -0.344 C  
HETATM   13  O   UNL     1     -11.542  10.323  67.442  1.00  0.00    -0.454 OA 
HETATM   14  C   UNL     1     -10.755   8.473  69.356  1.00  0.00    -0.166 A  
HETATM   15  C   UNL     1     -10.018   9.793  64.855  1.00  0.00    -0.061 C  
HETATM   16  H   UNL     1     -11.916   9.451  67.488  1.00  0.00     0.000 HD 
HETATM   17  C   UNL     1      -8.948  10.715  64.265  1.00  0.00    -0.214 C  
HETATM   18  C   UNL     1     -10.596   7.915  70.632  1.00  0.00    -0.221 A  
HETATM   19  C   UNL     1      -7.536  10.159  64.369  1.00  0.00    -0.130 C  
HETATM   20  C   UNL     1      -9.512   8.282  71.422  1.00  0.00    -0.227 A  
HETATM   21  C   UNL     1      -7.205   9.565  65.733  1.00  0.00    -0.097 C  
HETATM   22  C   UNL     1      -8.561   9.161  70.918  1.00  0.00    -0.259 A  
HETATM   23  C   UNL     1      -8.716   9.710  69.640  1.00  0.00    -0.206 A  
HETATM   24  C   UNL     1      -8.286   8.619  66.241  1.00  0.00    -0.124 C  
ENDBRANCH   6   9
TORSDOF 1
ENDMDL
MODEL       33
REMARK 921   NORMALIZED FREE ENERGY PREDICTED BY IDOCK:   -4.66 KCAL/MOL
REMARK 922        TOTAL FREE ENERGY PREDICTED BY IDOCK:   -5.33 KCAL/MOL
REMARK 923 INTER-LIGAND FREE ENERGY PREDICTED BY IDOCK:   -5.00 KCAL/MOL
REMARK 924 INTRA-LIGAND FREE ENERGY PREDICTED BY IDOCK:   -0.33 KCAL/MOL
REMARK 927      BINDING AFFINITY PREDICTED BY RF-SCORE:    0.00 PKD
ROOT
HETATM    1  C   UNL     1     -11.663  16.216  71.543  1.00  0.00    -0.464 C  
HETATM    2  N   UNL     1     -12.318  15.250  70.559  1.00  0.00    -0.360 N  
HETATM    3  C   UNL     1     -13.814  15.190  70.855  1.00  0.00    -0.241 C  
HETATM    4  C   UNL     1     -12.091  15.795  69.116  1.00  0.00    -0.198 C  
HETATM    5  C   UNL     1     -12.284  14.710  68.037  1.00  0.00    -0.054 C  
HETATM    6  N   UNL     1     -11.476  13.500  68.258  1.00  0.00    -0.289 NA 
HETATM    7  C   UNL     1     -11.873  12.912  69.553  1.00  0.00    -0.320 C  
HETATM    8  C   UNL     1     -11.684  13.849  70.766  1.00  0.00    -0.066 C  
ENDROOT
BRANCH   6   9
HETATM    9  C   UNL     1     -10.001  13.731  68.214  1.00  0.00    -0.243 C  
HETATM   10  C   UNL     1      -9.120  13.140  67.056  1.00  0.00    -0.231 C  
HETATM   11  C   UNL     1      -9.365  11.644  66.815  1.00  0.00    -0.193 A  
HETATM   12  C   UNL     1      -7.577  13.487  67.211  1.00  0.00    -0.074 C  
HETATM   13  O   UNL     1      -9.587  13.817  65.853  1.00  0.00    -0.454 OA 
HETATM   14  C   UNL     1      -9.198  11.087  65.534  1.00  0.00    -0.235 A  
HETATM   15  C   UNL     1      -7.220  14.990  67.377  1.00  0.00    -0.224 C  
HETATM   16  H   UNL     1      -9.054  13.460  65.153  1.00  0.00     0.000 HD 
HETATM   17  C   UNL     1      -7.284  15.544  68.802  1.00  0.00    -0.134 C  
HETATM   18  C   UNL     1      -9.531   9.752  65.268  1.00  0.00    -0.343 A  
HETATM   19  C   UNL     1      -6.590  14.665  69.832  1.00  0.00    -0.167 C  
HETATM   20  C   UNL     1     -10.032   8.944  66.282  1.00  0.00    -0.337 A  
HETATM   21  C   UNL     1      -6.911  13.182  69.694  1.00  0.00     0.165 C  
HETATM   22  C   UNL     1     -10.146   9.452  67.571  1.00  0.00    -0.268 A  
HETATM   23  C   UNL     1      -9.803  10.782  67.838  1.00  0.00    -0.185 A  
HETATM   24  C   UNL     1      -6.781  12.683  68.259  1.00  0.00    -0.081 C  
ENDBRANCH   6   9
TORSDOF 1
ENDMDL
MODEL       34
REMARK 921   NORMALIZED FREE ENERGY PREDICTED BY IDOCK:   -4.61 KCAL/MOL
REMARK 922        TOTAL FREE ENERGY PREDICTED BY IDOCK:   -5.27 KCAL/MOL
REMARK 923 INTER-LIGAND FREE ENERGY PREDICTED BY IDOCK:   -4.93 KCAL/MOL
REMARK 924 INTRA-LIGAND FREE ENERGY PREDICTED BY IDOCK:   -0.34 KCAL/MOL
REMARK 927      BINDING AFFINITY PREDICTED BY RF-SCORE:    0.00 PKD
ROOT
HETATM    1  C   UNL     1      -7.413   8.116  68.785  1.00  0.00    -0.090 C  
HETATM    2  N   UNL     1      -6.620   9.415  68.674  1.00  0.00    -0.052 N  
HETATM    3  C   UNL     1      -5.134   9.095  68.805  1.00  0.00    -0.034 C  
HETATM    4  C   UNL     1      -6.899  10.039  67.273  1.00  0.00    -0.082 C  
HETATM    5  C   UNL     1      -6.547  11.540  67.212  1.00  0.00    -0.113 C  
HETATM    6  N   UNL     1      -7.187  12.344  68.266  1.00  0.00    -0.094 NA 
HETATM    7  C   UNL     1      -6.732  11.835  69.574  1.00  0.00    -0.067 C  
HETATM    8  C   UNL     1      -7.062  10.348  69.833  1.00  0.00    -0.159 C  
ENDROOT
BRANCH   6   9
HETATM    9  C   UNL     1      -8.680  12.366  68.199  1.00  0.00    -0.190 C  
HETATM   10  C   UNL     1      -9.438  13.435  67.333  1.00  0.00    -0.222 C  
HETATM   11  C   UNL     1      -8.961  14.871  67.595  1.00  0.00    -0.181 A  
HETATM   12  C   UNL     1     -11.019  13.294  67.418  1.00  0.00    -0.287 C  
HETATM   13  O   UNL     1      -9.060  13.136  65.959  1.00  0.00    -0.455 OA 
HETATM   14  C   UNL     1      -9.018  15.842  66.578  1.00  0.00    -0.331 A  
HETATM   15  C   UNL     1     -11.606  11.893  67.087  1.00  0.00    -0.363 C  
HETATM   16  H   UNL     1      -9.519  13.782  65.435  1.00  0.00     0.000 HD 
HETATM   17  C   UNL     1     -11.653  10.893  68.245  1.00  0.00    -0.335 C  
HETATM   18  C   UNL     1      -8.479  17.122  66.759  1.00  0.00    -0.264 A  
HETATM   19  C   UNL     1     -12.221  11.473  69.531  1.00  0.00    -0.287 C  
HETATM   20  C   UNL     1      -7.878  17.461  67.966  1.00  0.00    -0.207 A  
HETATM   21  C   UNL     1     -11.675  12.850  69.882  1.00  0.00    -0.324 C  
HETATM   22  C   UNL     1      -7.866  16.542  69.008  1.00  0.00    -0.226 A  
HETATM   23  C   UNL     1      -8.414  15.267  68.830  1.00  0.00    -0.181 A  
HETATM   24  C   UNL     1     -11.700  13.813  68.701  1.00  0.00    -0.391 C  
ENDBRANCH   6   9
TORSDOF 1
ENDMDL
MODEL       35
REMARK 921   NORMALIZED FREE ENERGY PREDICTED BY IDOCK:   -4.60 KCAL/MOL
REMARK 922        TOTAL FREE ENERGY PREDICTED BY IDOCK:   -5.26 KCAL/MOL
REMARK 923 INTER-LIGAND FREE ENERGY PREDICTED BY IDOCK:   -4.97 KCAL/MOL
REMARK 924 INTRA-LIGAND FREE ENERGY PREDICTED BY IDOCK:   -0.29 KCAL/MOL
REMARK 927      BINDING AFFINITY PREDICTED BY RF-SCORE:    0.00 PKD
ROOT
HETATM    1  C   UNL     1     -11.570  12.242  66.940  1.00  0.00    -0.361 C  
HETATM    2  N   UNL     1     -11.546  13.635  66.316  1.00  0.00    -0.334 N  
HETATM    3  C   UNL     1     -12.785  13.800  65.440  1.00  0.00    -0.472 C  
HETATM    4  C   UNL     1     -11.576  14.686  67.467  1.00  0.00    -0.375 C  
HETATM    5  C   UNL     1     -11.095  16.078  67.010  1.00  0.00    -0.071 C  
HETATM    6  N   UNL     1      -9.773  16.068  66.361  1.00  0.00    -0.264 NA 
HETATM    7  C   UNL     1      -9.855  15.212  65.162  1.00  0.00    -0.135 C  
HETATM    8  C   UNL     1     -10.266  13.750  65.446  1.00  0.00    -0.326 C  
ENDROOT
BRANCH   6   9
HETATM    9  C   UNL     1      -8.657  15.624  67.251  1.00  0.00    -0.192 C  
HETATM   10  C   UNL     1      -7.969  16.621  68.250  1.00  0.00    -0.192 C  
HETATM   11  C   UNL     1      -7.543  17.939  67.589  1.00  0.00    -0.215 A  
HETATM   12  C   UNL     1      -6.795  15.951  69.086  1.00  0.00    -0.170 C  
HETATM   13  O   UNL     1      -9.015  16.974  69.200  1.00  0.00    -0.190 OA 
HETATM   14  C   UNL     1      -7.502  19.134  68.331  1.00  0.00    -0.342 A  
HETATM   15  C   UNL     1      -7.153  14.652  69.861  1.00  0.00    -0.056 C  
HETATM   16  H   UNL     1      -8.599  17.577  69.805  1.00  0.00     0.000 HD 
HETATM   17  C   UNL     1      -7.064  13.347  69.066  1.00  0.00    -0.053 C  
HETATM   18  C   UNL     1      -7.232  20.365  67.720  1.00  0.00    -0.334 A  
HETATM   19  C   UNL     1      -5.782  13.209  68.259  1.00  0.00    -0.088 C  
HETATM   20  C   UNL     1      -6.988  20.425  66.353  1.00  0.00    -0.290 A  
HETATM   21  C   UNL     1      -5.395  14.467  67.492  1.00  0.00     0.212 C  
HETATM   22  C   UNL     1      -6.958  19.252  65.608  1.00  0.00    -0.300 A  
HETATM   23  C   UNL     1      -7.218  18.021  66.222  1.00  0.00    -0.310 A  
HETATM   24  C   UNL     1      -5.457  15.723  68.353  1.00  0.00    -0.108 C  
ENDBRANCH   6   9
TORSDOF 1
ENDMDL
MODEL       36
REMARK 921   NORMALIZED FREE ENERGY PREDICTED BY IDOCK:   -4.60 KCAL/MOL
REMARK 922        TOTAL FREE ENERGY PREDICTED BY IDOCK:   -5.26 KCAL/MOL
REMARK 923 INTER-LIGAND FREE ENERGY PREDICTED BY IDOCK:   -4.86 KCAL/MOL
REMARK 924 INTRA-LIGAND FREE ENERGY PREDICTED BY IDOCK:   -0.40 KCAL/MOL
REMARK 927      BINDING AFFINITY PREDICTED BY RF-SCORE:    0.00 PKD
ROOT
HETATM    1  C   UNL     1     -10.359  10.426  66.698  1.00  0.00    -0.231 C  
HETATM    2  N   UNL     1      -9.487   9.175  66.635  1.00  0.00    -0.170 N  
HETATM    3  C   UNL     1      -8.820   9.111  65.263  1.00  0.00    -0.199 C  
HETATM    4  C   UNL     1      -8.395   9.286  67.742  1.00  0.00    -0.116 C  
HETATM    5  C   UNL     1      -7.762   7.922  68.088  1.00  0.00    -0.125 C  
HETATM    6  N   UNL     1      -8.744   6.882  68.440  1.00  0.00    -0.125 NA 
HETATM    7  C   UNL     1      -9.633   6.677  67.280  1.00  0.00    -0.132 C  
HETATM    8  C   UNL     1     -10.404   7.939  66.833  1.00  0.00    -0.330 C  
ENDROOT
BRANCH   6   9
HETATM    9  C   UNL     1      -9.540   7.182  69.668  1.00  0.00    -0.154 C  
HETATM   10  C   UNL     1      -9.202   6.500  71.042  1.00  0.00    -0.160 C  
HETATM   11  C   UNL     1      -9.060   4.975  70.938  1.00  0.00    -0.181 A  
HETATM   12  C   UNL     1     -10.182   6.942  72.212  1.00  0.00    -0.207 C  
HETATM   13  O   UNL     1      -7.878   6.999  71.388  1.00  0.00    -0.094 OA 
HETATM   14  C   UNL     1      -8.202   4.273  71.807  1.00  0.00    -0.096 A  
HETATM   15  C   UNL     1     -10.329   8.470  72.450  1.00  0.00    -0.372 C  
HETATM   16  H   UNL     1      -7.674   6.586  72.219  1.00  0.00     0.000 HD 
HETATM   17  C   UNL     1     -11.362   9.191  71.580  1.00  0.00    -0.446 C  
HETATM   18  C   UNL     1      -7.967   2.901  71.652  1.00  0.00    -0.056 A  
HETATM   19  C   UNL     1     -12.706   8.481  71.513  1.00  0.00    -0.340 C  
HETATM   20  C   UNL     1      -8.593   2.199  70.628  1.00  0.00    -0.098 A  
HETATM   21  C   UNL     1     -12.600   6.978  71.290  1.00  0.00    -0.418 C  
HETATM   22  C   UNL     1      -9.493   2.854  69.796  1.00  0.00    -0.167 A  
HETATM   23  C   UNL     1      -9.735   4.223  69.959  1.00  0.00    -0.287 A  
HETATM   24  C   UNL     1     -11.591   6.314  72.219  1.00  0.00    -0.355 C  
ENDBRANCH   6   9
TORSDOF 1
ENDMDL
MODEL       37
REMARK 921   NORMALIZED FREE ENERGY PREDICTED BY IDOCK:   -4.58 KCAL/MOL
REMARK 922        TOTAL FREE ENERGY PREDICTED BY IDOCK:   -5.24 KCAL/MOL
REMARK 923 INTER-LIGAND FREE ENERGY PREDICTED BY IDOCK:   -4.85 KCAL/MOL
REMARK 924 INTRA-LIGAND FREE ENERGY PREDICTED BY IDOCK:   -0.39 KCAL/MOL
REMARK 927      BINDING AFFINITY PREDICTED BY RF-SCORE:    0.00 PKD
ROOT
HETATM    1  C   UNL     1      -9.856   9.107  68.614  1.00  0.00    -0.164 C  
HETATM    2  N   UNL     1      -8.634   9.822  68.045  1.00  0.00    -0.122 N  
HETATM    3  C   UNL     1      -7.565   8.783  67.719  1.00  0.00    -0.097 C  
HETATM    4  C   UNL     1      -9.063  10.558  66.740  1.00  0.00    -0.151 C  
HETATM    5  C   UNL     1      -8.073  11.670  66.334  1.00  0.00    -0.023 C  
HETATM    6  N   UNL     1      -7.801  12.644  67.404  1.00  0.00    -0.170 NA 
HETATM    7  C   UNL     1      -7.210  11.920  68.546  1.00  0.00    -0.100 C  
HETATM    8  C   UNL     1      -8.103  10.801  69.126  1.00  0.00    -0.131 C  
ENDROOT
BRANCH   6   9
HETATM    9  C   UNL     1      -8.996  13.428  67.838  1.00  0.00    -0.201 C  
HETATM   10  C   UNL     1      -9.298  14.848  67.239  1.00  0.00    -0.204 C  
HETATM   11  C   UNL     1      -8.085  15.788  67.276  1.00  0.00    -0.217 A  
HETATM   12  C   UNL     1     -10.605  15.516  67.851  1.00  0.00    -0.274 C  
HETATM   13  O   UNL     1      -9.568  14.606  65.828  1.00  0.00    -0.432 OA 
HETATM   14  C   UNL     1      -7.925  16.793  66.304  1.00  0.00    -0.352 A  
HETATM   15  C   UNL     1     -11.907  14.671  67.783  1.00  0.00    -0.359 C  
HETATM   16  H   UNL     1      -9.751  15.465  65.466  1.00  0.00     0.000 HD 
HETATM   17  C   UNL     1     -12.123  13.674  68.924  1.00  0.00    -0.335 C  
HETATM   18  C   UNL     1      -6.768  17.581  66.250  1.00  0.00    -0.309 A  
HETATM   19  C   UNL     1     -11.882  14.264  70.306  1.00  0.00    -0.377 C  
HETATM   20  C   UNL     1      -5.749  17.385  67.175  1.00  0.00    -0.169 A  
HETATM   21  C   UNL     1     -10.617  15.106  70.407  1.00  0.00    -0.166 C  
HETATM   22  C   UNL     1      -5.909  16.444  68.185  1.00  0.00    -0.117 A  
HETATM   23  C   UNL     1      -7.070  15.665  68.244  1.00  0.00    -0.116 A  
HETATM   24  C   UNL     1     -10.487  16.112  69.269  1.00  0.00    -0.267 C  
ENDBRANCH   6   9
TORSDOF 1
ENDMDL
MODEL       38
REMARK 921   NORMALIZED FREE ENERGY PREDICTED BY IDOCK:   -4.56 KCAL/MOL
REMARK 922        TOTAL FREE ENERGY PREDICTED BY IDOCK:   -5.22 KCAL/MOL
REMARK 923 INTER-LIGAND FREE ENERGY PREDICTED BY IDOCK:   -5.70 KCAL/MOL
REMARK 924 INTRA-LIGAND FREE ENERGY PREDICTED BY IDOCK:    0.47 KCAL/MOL
REMARK 927      BINDING AFFINITY PREDICTED BY RF-SCORE:    0.00 PKD
ROOT
HETATM    1  C   UNL     1     -10.750   9.455  71.510  1.00  0.00    -0.297 C  
HETATM    2  N   UNL     1     -10.086   9.209  70.158  1.00  0.00    -0.190 N  
HETATM    3  C   UNL     1      -9.604   7.762  70.104  1.00  0.00    -0.168 C  
HETATM    4  C   UNL     1     -11.147   9.449  69.042  1.00  0.00     0.016 C  
HETATM    5  C   UNL     1     -10.508   9.690  67.659  1.00  0.00    -0.261 C  
HETATM    6  N   UNL     1      -9.502  10.764  67.646  1.00  0.00    -0.153 NA 
HETATM    7  C   UNL     1      -8.418  10.391  68.576  1.00  0.00    -0.129 C  
HETATM    8  C   UNL     1      -8.874  10.172  70.036  1.00  0.00     0.033 C  
ENDROOT
BRANCH   6   9
HETATM    9  C   UNL     1     -10.044  12.115  67.983  1.00  0.00    -0.204 C  
HETATM   10  C   UNL     1     -11.338  12.668  67.287  1.00  0.00    -0.318 C  
HETATM   11  C   UNL     1     -11.296  12.550  65.757  1.00  0.00    -0.373 A  
HETATM   12  C   UNL     1     -11.730  14.129  67.774  1.00  0.00    -0.408 C  
HETATM   13  O   UNL     1     -12.404  11.777  67.724  1.00  0.00    -0.369 OA 
HETATM   14  C   UNL     1     -12.483  12.388  65.016  1.00  0.00    -0.393 A  
HETATM   15  C   UNL     1     -11.879  14.329  69.308  1.00  0.00    -0.372 C  
HETATM   16  H   UNL     1     -13.187  12.111  67.302  1.00  0.00     0.000 HD 
HETATM   17  C   UNL     1     -10.590  14.633  70.075  1.00  0.00     0.036 C  
HETATM   18  C   UNL     1     -12.457  12.159  63.635  1.00  0.00    -0.658 A  
HETATM   19  C   UNL     1      -9.733  15.711  69.429  1.00  0.00    -0.292 C  
HETATM   20  C   UNL     1     -11.242  12.096  62.962  1.00  0.00    -0.045 A  
HETATM   21  C   UNL     1      -9.573  15.552  67.923  1.00  0.00    -0.206 C  
HETATM   22  C   UNL     1     -10.059  12.317  63.658  1.00  0.00    -0.369 A  
HETATM   23  C   UNL     1     -10.087  12.555  65.036  1.00  0.00    -0.258 A  
HETATM   24  C   UNL     1     -10.898  15.301  67.212  1.00  0.00    -0.318 C  
ENDBRANCH   6   9
TORSDOF 1
ENDMDL
MODEL       39
REMARK 921   NORMALIZED FREE ENERGY PREDICTED BY IDOCK:   -4.54 KCAL/MOL
REMARK 922        TOTAL FREE ENERGY PREDICTED BY IDOCK:   -5.20 KCAL/MOL
REMARK 923 INTER-LIGAND FREE ENERGY PREDICTED BY IDOCK:   -4.84 KCAL/MOL
REMARK 924 INTRA-LIGAND FREE ENERGY PREDICTED BY IDOCK:   -0.35 KCAL/MOL
REMARK 927      BINDING AFFINITY PREDICTED BY RF-SCORE:    0.00 PKD
ROOT
HETATM    1  C   UNL     1     -11.140   9.659  68.835  1.00  0.00    -0.059 C  
HETATM    2  N   UNL     1     -10.295  10.665  68.059  1.00  0.00    -0.170 N  
HETATM    3  C   UNL     1      -9.434   9.909  67.051  1.00  0.00    -0.160 C  
HETATM    4  C   UNL     1     -11.259  11.630  67.303  1.00  0.00    -0.304 C  
HETATM    5  C   UNL     1     -10.568  12.942  66.875  1.00  0.00    -0.253 C  
HETATM    6  N   UNL     1      -9.898  13.649  67.978  1.00  0.00    -0.236 NA 
HETATM    7  C   UNL     1      -8.857  12.760  68.531  1.00  0.00    -0.040 C  
HETATM    8  C   UNL     1      -9.387  11.413  69.071  1.00  0.00     0.053 C  
ENDROOT
BRANCH   6   9
HETATM    9  C   UNL     1     -10.821  14.115  69.057  1.00  0.00    -0.251 C  
HETATM   10  C   UNL     1     -11.481  15.539  69.002  1.00  0.00    -0.352 C  
HETATM   11  C   UNL     1     -10.470  16.663  68.735  1.00  0.00    -0.324 A  
HETATM   12  C   UNL     1     -12.410  15.842  70.255  1.00  0.00    -0.341 C  
HETATM   13  O   UNL     1     -12.349  15.500  67.832  1.00  0.00    -0.203 OA 
HETATM   14  C   UNL     1     -10.860  17.833  68.057  1.00  0.00    -0.217 A  
HETATM   15  C   UNL     1     -13.522  14.800  70.558  1.00  0.00     0.004 C  
HETATM   16  H   UNL     1     -12.749  16.361  67.799  1.00  0.00     0.000 HD 
HETATM   17  C   UNL     1     -13.105  13.597  71.408  1.00  0.00    -0.396 C  
HETATM   18  C   UNL     1      -9.928  18.816  67.698  1.00  0.00    -0.390 A  
HETATM   19  C   UNL     1     -12.306  13.972  72.647  1.00  0.00     0.027 C  
HETATM   20  C   UNL     1      -8.585  18.651  68.018  1.00  0.00    -0.321 A  
HETATM   21  C   UNL     1     -11.211  14.999  72.389  1.00  0.00     0.054 C  
HETATM   22  C   UNL     1      -8.184  17.536  68.743  1.00  0.00    -0.222 A  
HETATM   23  C   UNL     1      -9.117  16.560  69.110  1.00  0.00    -0.184 A  
HETATM   24  C   UNL     1     -11.704  16.194  71.581  1.00  0.00    -0.558 C  
ENDBRANCH   6   9
TORSDOF 1
ENDMDL
MODEL       40
REMARK 921   NORMALIZED FREE ENERGY PREDICTED BY IDOCK:   -4.53 KCAL/MOL
REMARK 922        TOTAL FREE ENERGY PREDICTED BY IDOCK:   -5.19 KCAL/MOL
REMARK 923 INTER-LIGAND FREE ENERGY PREDICTED BY IDOCK:   -4.91 KCAL/MOL
REMARK 924 INTRA-LIGAND FREE ENERGY PREDICTED BY IDOCK:   -0.28 KCAL/MOL
REMARK 927      BINDING AFFINITY PREDICTED BY RF-SCORE:    0.00 PKD
ROOT
HETATM    1  C   UNL     1     -11.835  16.137  72.055  1.00  0.00    -0.530 C  
HETATM    2  N   UNL     1     -12.528  15.244  71.031  1.00  0.00    -0.349 N  
HETATM    3  C   UNL     1     -14.000  15.111  71.412  1.00  0.00    -0.506 C  
HETATM    4  C   UNL     1     -12.410  15.923  69.632  1.00  0.00    -0.002 C  
HETATM    5  C   UNL     1     -12.645  14.934  68.472  1.00  0.00     0.487 C  
HETATM    6  N   UNL     1     -11.794  13.734  68.531  1.00  0.00    -0.355 NA 
HETATM    7  C   UNL     1     -12.091  13.020  69.788  1.00  0.00    -0.258 C  
HETATM    8  C   UNL     1     -11.846  13.850  71.068  1.00  0.00    -0.053 C  
ENDROOT
BRANCH   6   9
HETATM    9  C   UNL     1     -10.331  14.014  68.416  1.00  0.00    -0.251 C  
HETATM   10  C   UNL     1      -9.655  14.245  67.018  1.00  0.00    -0.257 C  
HETATM   11  C   UNL     1     -10.003  13.157  65.993  1.00  0.00    -0.283 A  
HETATM   12  C   UNL     1      -8.090  14.507  67.119  1.00  0.00    -0.196 C  
HETATM   13  O   UNL     1     -10.257  15.472  66.513  1.00  0.00    -0.265 OA 
HETATM   14  C   UNL     1     -10.049  13.454  64.618  1.00  0.00    -0.256 A  
HETATM   15  C   UNL     1      -7.642  15.650  68.072  1.00  0.00    -0.132 C  
HETATM   16  H   UNL     1      -9.848  15.612  65.667  1.00  0.00     0.000 HD 
HETATM   17  C   UNL     1      -7.474  15.271  69.546  1.00  0.00    -0.214 C  
HETATM   18  C   UNL     1     -10.481  12.508  63.679  1.00  0.00    -0.418 A  
HETATM   19  C   UNL     1      -6.682  13.990  69.761  1.00  0.00    -0.038 C  
HETATM   20  C   UNL     1     -10.868  11.240  64.096  1.00  0.00    -0.407 A  
HETATM   21  C   UNL     1      -7.089  12.849  68.837  1.00  0.00    -0.063 C  
HETATM   22  C   UNL     1     -10.772  10.900  65.441  1.00  0.00    -0.189 A  
HETATM   23  C   UNL     1     -10.331  11.843  66.376  1.00  0.00    -0.252 A  
HETATM   24  C   UNL     1      -7.191  13.281  67.378  1.00  0.00    -0.119 C  
ENDBRANCH   6   9
TORSDOF 1
ENDMDL
MODEL       41
REMARK 921   NORMALIZED FREE ENERGY PREDICTED BY IDOCK:   -4.50 KCAL/MOL
REMARK 922        TOTAL FREE ENERGY PREDICTED BY IDOCK:   -5.16 KCAL/MOL
REMARK 923 INTER-LIGAND FREE ENERGY PREDICTED BY IDOCK:   -4.80 KCAL/MOL
REMARK 924 INTRA-LIGAND FREE ENERGY PREDICTED BY IDOCK:   -0.36 KCAL/MOL
REMARK 927      BINDING AFFINITY PREDICTED BY RF-SCORE:    0.00 PKD
ROOT
HETATM    1  C   UNL     1      -5.703   4.999  70.835  1.00  0.00    -0.016 C  
HETATM    2  N   UNL     1      -6.489   5.880  71.802  1.00  0.00    -0.051 N  
HETATM    3  C   UNL     1      -6.114   5.496  73.230  1.00  0.00    -0.054 C  
HETATM    4  C   UNL     1      -6.094   7.365  71.539  1.00  0.00    -0.036 C  
HETATM    5  C   UNL     1      -7.129   8.361  72.103  1.00  0.00    -0.090 C  
HETATM    6  N   UNL     1      -8.506   8.110  71.647  1.00  0.00    -0.124 NA 
HETATM    7  C   UNL     1      -8.901   6.761  72.096  1.00  0.00    -0.133 C  
HETATM    8  C   UNL     1      -8.001   5.622  71.566  1.00  0.00    -0.117 C  
ENDROOT
BRANCH   6   9
HETATM    9  C   UNL     1      -8.699   8.254  70.173  1.00  0.00    -0.133 C  
HETATM   10  C   UNL     1      -9.493   9.469  69.572  1.00  0.00    -0.185 C  
HETATM   11  C   UNL     1     -10.855   9.691  70.245  1.00  0.00    -0.339 A  
HETATM   12  C   UNL     1      -9.599   9.419  67.986  1.00  0.00    -0.156 C  
HETATM   13  O   UNL     1      -8.690  10.638  69.905  1.00  0.00    -0.346 OA 
HETATM   14  C   UNL     1     -11.413  10.981  70.325  1.00  0.00    -0.363 A  
HETATM   15  C   UNL     1      -8.260   9.278  67.210  1.00  0.00    -0.121 C  
HETATM   16  H   UNL     1      -9.170  11.372  69.541  1.00  0.00     0.000 HD 
HETATM   17  C   UNL     1      -7.737   7.852  67.022  1.00  0.00    -0.100 C  
HETATM   18  C   UNL     1     -12.594  11.223  71.039  1.00  0.00    -0.495 A  
HETATM   19  C   UNL     1      -8.795   6.871  66.540  1.00  0.00    -0.148 C  
HETATM   20  C   UNL     1     -13.247  10.176  71.681  1.00  0.00    -0.518 A  
HETATM   21  C   UNL     1     -10.125   6.986  67.274  1.00  0.00    -0.265 C  
HETATM   22  C   UNL     1     -12.752   8.883  71.563  1.00  0.00    -0.386 A  
HETATM   23  C   UNL     1     -11.577   8.641  70.842  1.00  0.00    -0.307 A  
HETATM   24  C   UNL     1     -10.614   8.426  67.384  1.00  0.00    -0.313 C  
ENDBRANCH   6   9
TORSDOF 1
ENDMDL
MODEL       42
REMARK 921   NORMALIZED FREE ENERGY PREDICTED BY IDOCK:   -4.50 KCAL/MOL
REMARK 922        TOTAL FREE ENERGY PREDICTED BY IDOCK:   -5.15 KCAL/MOL
REMARK 923 INTER-LIGAND FREE ENERGY PREDICTED BY IDOCK:   -4.77 KCAL/MOL
REMARK 924 INTRA-LIGAND FREE ENERGY PREDICTED BY IDOCK:   -0.39 KCAL/MOL
REMARK 927      BINDING AFFINITY PREDICTED BY RF-SCORE:    0.00 PKD
ROOT
HETATM    1  C   UNL     1     -10.825  12.251  67.952  1.00  0.00    -0.218 C  
HETATM    2  N   UNL     1      -9.973  11.126  67.371  1.00  0.00    -0.177 N  
HETATM    3  C   UNL     1      -9.372  11.599  66.050  1.00  0.00    -0.227 C  
HETATM    4  C   UNL     1      -8.829  10.808  68.382  1.00  0.00    -0.146 C  
HETATM    5  C   UNL     1      -8.199   9.420  68.145  1.00  0.00    -0.118 C  
HETATM    6  N   UNL     1      -9.177   8.320  68.117  1.00  0.00    -0.134 NA 
HETATM    7  C   UNL     1     -10.121   8.571  67.011  1.00  0.00    -0.277 C  
HETATM    8  C   UNL     1     -10.896   9.903  67.122  1.00  0.00    -0.157 C  
ENDROOT
BRANCH   6   9
HETATM    9  C   UNL     1      -9.910   8.119  69.403  1.00  0.00    -0.182 C  
HETATM   10  C   UNL     1      -9.434   7.052  70.452  1.00  0.00    -0.162 C  
HETATM   11  C   UNL     1      -9.188   5.668  69.835  1.00  0.00    -0.173 A  
HETATM   12  C   UNL     1     -10.366   6.987  71.739  1.00  0.00    -0.216 C  
HETATM   13  O   UNL     1      -8.131   7.525  70.898  1.00  0.00    -0.101 OA 
HETATM   14  C   UNL     1      -8.226   4.798  70.384  1.00  0.00    -0.083 A  
HETATM   15  C   UNL     1     -10.608   8.329  72.483  1.00  0.00    -0.407 C  
HETATM   16  H   UNL     1      -7.843   6.880  71.532  1.00  0.00     0.000 HD 
HETATM   17  C   UNL     1     -11.746   9.201  71.947  1.00  0.00    -0.436 C  
HETATM   18  C   UNL     1      -7.902   3.584  69.766  1.00  0.00    -0.053 A  
HETATM   19  C   UNL     1     -13.036   8.435  71.694  1.00  0.00    -0.355 C  
HETATM   20  C   UNL     1      -8.539   3.209  68.589  1.00  0.00    -0.123 A  
HETATM   21  C   UNL     1     -12.835   7.108  70.972  1.00  0.00    -0.268 C  
HETATM   22  C   UNL     1      -9.538   4.019  68.061  1.00  0.00    -0.195 A  
HETATM   23  C   UNL     1      -9.868   5.227  68.684  1.00  0.00    -0.216 A  
HETATM   24  C   UNL     1     -11.722   6.267  71.585  1.00  0.00    -0.342 C  
ENDBRANCH   6   9
TORSDOF 1
ENDMDL
MODEL       43
REMARK 921   NORMALIZED FREE ENERGY PREDICTED BY IDOCK:   -4.44 KCAL/MOL
REMARK 922        TOTAL FREE ENERGY PREDICTED BY IDOCK:   -5.09 KCAL/MOL
REMARK 923 INTER-LIGAND FREE ENERGY PREDICTED BY IDOCK:   -4.70 KCAL/MOL
REMARK 924 INTRA-LIGAND FREE ENERGY PREDICTED BY IDOCK:   -0.39 KCAL/MOL
REMARK 927      BINDING AFFINITY PREDICTED BY RF-SCORE:    0.00 PKD
ROOT
HETATM    1  C   UNL     1      -9.188   5.694  69.402  1.00  0.00    -0.121 C  
HETATM    2  N   UNL     1      -9.618   6.879  70.262  1.00  0.00    -0.169 N  
HETATM    3  C   UNL     1     -10.102   6.354  71.611  1.00  0.00    -0.186 C  
HETATM    4  C   UNL     1      -8.381   7.803  70.474  1.00  0.00    -0.125 C  
HETATM    5  C   UNL     1      -8.775   9.229  70.912  1.00  0.00    -0.173 C  
HETATM    6  N   UNL     1      -9.751   9.877  70.020  1.00  0.00    -0.243 NA 
HETATM    7  C   UNL     1     -10.981   9.061  70.012  1.00  0.00    -0.214 C  
HETATM    8  C   UNL     1     -10.779   7.606  69.532  1.00  0.00    -0.209 C  
ENDROOT
BRANCH   6   9
HETATM    9  C   UNL     1      -9.256  10.100  68.629  1.00  0.00    -0.157 C  
HETATM   10  C   UNL     1      -8.809  11.525  68.143  1.00  0.00    -0.165 C  
HETATM   11  C   UNL     1      -9.843  12.618  68.451  1.00  0.00    -0.200 A  
HETATM   12  C   UNL     1      -8.337  11.545  66.626  1.00  0.00    -0.167 C  
HETATM   13  O   UNL     1      -7.642  11.845  68.954  1.00  0.00    -0.215 OA 
HETATM   14  C   UNL     1      -9.437  13.946  68.683  1.00  0.00    -0.123 A  
HETATM   15  C   UNL     1      -7.229  10.528  66.235  1.00  0.00    -0.133 C  
HETATM   16  H   UNL     1      -7.372  12.707  68.661  1.00  0.00     0.000 HD 
HETATM   17  C   UNL     1      -7.707   9.123  65.861  1.00  0.00    -0.095 C  
HETATM   18  C   UNL     1     -10.350  14.930  69.083  1.00  0.00    -0.246 A  
HETATM   19  C   UNL     1      -8.876   9.113  64.887  1.00  0.00    -0.215 C  
HETATM   20  C   UNL     1     -11.692  14.609  69.251  1.00  0.00    -0.348 A  
HETATM   21  C   UNL     1      -9.978  10.106  65.235  1.00  0.00    -0.381 C  
HETATM   22  C   UNL     1     -12.130  13.321  68.966  1.00  0.00    -0.268 A  
HETATM   23  C   UNL     1     -11.219  12.341  68.558  1.00  0.00    -0.316 A  
HETATM   24  C   UNL     1      -9.440  11.497  65.549  1.00  0.00    -0.234 C  
ENDBRANCH   6   9
TORSDOF 1
ENDMDL
MODEL       44
REMARK 921   NORMALIZED FREE ENERGY PREDICTED BY IDOCK:   -4.44 KCAL/MOL
REMARK 922        TOTAL FREE ENERGY PREDICTED BY IDOCK:   -5.09 KCAL/MOL
REMARK 923 INTER-LIGAND FREE ENERGY PREDICTED BY IDOCK:   -4.69 KCAL/MOL
REMARK 924 INTRA-LIGAND FREE ENERGY PREDICTED BY IDOCK:   -0.40 KCAL/MOL
REMARK 927      BINDING AFFINITY PREDICTED BY RF-SCORE:    0.00 PKD
ROOT
HETATM    1  C   UNL     1     -11.000   8.717  71.843  1.00  0.00    -0.365 C  
HETATM    2  N   UNL     1      -9.946   8.084  70.941  1.00  0.00    -0.186 N  
HETATM    3  C   UNL     1      -9.420   6.819  71.614  1.00  0.00    -0.155 C  
HETATM    4  C   UNL     1     -10.622   7.713  69.586  1.00  0.00    -0.243 C  
HETATM    5  C   UNL     1      -9.598   7.506  68.450  1.00  0.00    -0.150 C  
HETATM    6  N   UNL     1      -8.675   8.639  68.268  1.00  0.00    -0.141 NA 
HETATM    7  C   UNL     1      -7.916   8.821  69.520  1.00  0.00    -0.096 C  
HETATM    8  C   UNL     1      -8.790   9.104  70.762  1.00  0.00    -0.239 C  
ENDROOT
BRANCH   6   9
HETATM    9  C   UNL     1      -9.341   9.914  67.864  1.00  0.00    -0.137 C  
HETATM   10  C   UNL     1      -9.365  10.379  66.365  1.00  0.00    -0.164 C  
HETATM   11  C   UNL     1      -7.981  10.346  65.702  1.00  0.00    -0.153 A  
HETATM   12  C   UNL     1     -10.106  11.770  66.158  1.00  0.00    -0.255 C  
HETATM   13  O   UNL     1     -10.159   9.371  65.676  1.00  0.00    -0.377 OA 
HETATM   14  C   UNL     1      -7.853  10.113  64.319  1.00  0.00    -0.140 A  
HETATM   15  C   UNL     1     -11.550  11.874  66.723  1.00  0.00    -0.341 C  
HETATM   16  H   UNL     1     -10.173   9.652  64.768  1.00  0.00     0.000 HD 
HETATM   17  C   UNL     1     -11.668  12.256  68.201  1.00  0.00    -0.408 C  
HETATM   18  C   UNL     1      -6.597   9.960  63.717  1.00  0.00    -0.126 A  
HETATM   19  C   UNL     1     -10.801  13.442  68.597  1.00  0.00    -0.287 C  
HETATM   20  C   UNL     1      -5.441  10.046  64.485  1.00  0.00    -0.094 A  
HETATM   21  C   UNL     1      -9.380  13.378  68.052  1.00  0.00    -0.217 C  
HETATM   22  C   UNL     1      -5.538  10.339  65.840  1.00  0.00    -0.081 A  
HETATM   23  C   UNL     1      -6.792  10.502  66.439  1.00  0.00    -0.119 A  
HETATM   24  C   UNL     1      -9.334  13.042  66.566  1.00  0.00    -0.220 C  
ENDBRANCH   6   9
TORSDOF 1
ENDMDL
MODEL       45
REMARK 921   NORMALIZED FREE ENERGY PREDICTED BY IDOCK:   -4.39 KCAL/MOL
REMARK 922        TOTAL FREE ENERGY PREDICTED BY IDOCK:   -5.04 KCAL/MOL
REMARK 923 INTER-LIGAND FREE ENERGY PREDICTED BY IDOCK:   -4.68 KCAL/MOL
REMARK 924 INTRA-LIGAND FREE ENERGY PREDICTED BY IDOCK:   -0.36 KCAL/MOL
REMARK 927      BINDING AFFINITY PREDICTED BY RF-SCORE:    0.00 PKD
ROOT
HETATM    1  C   UNL     1      -5.869   7.756  65.021  1.00  0.00    -0.038 C  
HETATM    2  N   UNL     1      -6.177   7.030  66.327  1.00  0.00    -0.038 N  
HETATM    3  C   UNL     1      -5.411   5.710  66.346  1.00  0.00    -0.012 C  
HETATM    4  C   UNL     1      -5.700   7.928  67.509  1.00  0.00    -0.038 C  
HETATM    5  C   UNL     1      -6.357   7.540  68.850  1.00  0.00    -0.039 C  
HETATM    6  N   UNL     1      -7.828   7.496  68.801  1.00  0.00    -0.118 NA 
HETATM    7  C   UNL     1      -8.226   6.484  67.804  1.00  0.00    -0.115 C  
HETATM    8  C   UNL     1      -7.703   6.754  66.375  1.00  0.00    -0.098 C  
ENDROOT
BRANCH   6   9
HETATM    9  C   UNL     1      -8.470   8.812  68.504  1.00  0.00    -0.130 C  
HETATM   10  C   UNL     1      -9.267   9.596  69.608  1.00  0.00    -0.211 C  
HETATM   11  C   UNL     1     -10.300   8.726  70.337  1.00  0.00    -0.230 A  
HETATM   12  C   UNL     1      -9.885  10.960  69.077  1.00  0.00    -0.196 C  
HETATM   13  O   UNL     1      -8.267   9.946  70.608  1.00  0.00    -0.389 OA 
HETATM   14  C   UNL     1     -10.646   8.992  71.676  1.00  0.00    -0.434 A  
HETATM   15  C   UNL     1      -8.898  11.947  68.395  1.00  0.00    -0.159 C  
HETATM   16  H   UNL     1      -8.748  10.420  71.276  1.00  0.00     0.000 HD 
HETATM   17  C   UNL     1      -8.636  11.715  66.905  1.00  0.00    -0.174 C  
HETATM   18  C   UNL     1     -11.495   8.141  72.395  1.00  0.00    -0.462 A  
HETATM   19  C   UNL     1      -9.901  11.501  66.088  1.00  0.00    -0.250 C  
HETATM   20  C   UNL     1     -12.023   7.007  71.786  1.00  0.00    -0.361 A  
HETATM   21  C   UNL     1     -10.897  10.545  66.731  1.00  0.00    -0.209 C  
HETATM   22  C   UNL     1     -11.749   6.756  70.447  1.00  0.00    -0.418 A  
HETATM   23  C   UNL     1     -10.909   7.613  69.727  1.00  0.00    -0.222 A  
HETATM   24  C   UNL     1     -11.151  10.860  68.201  1.00  0.00    -0.337 C  
ENDBRANCH   6   9
TORSDOF 1
ENDMDL
MODEL       46
REMARK 921   NORMALIZED FREE ENERGY PREDICTED BY IDOCK:   -4.35 KCAL/MOL
REMARK 922        TOTAL FREE ENERGY PREDICTED BY IDOCK:   -5.00 KCAL/MOL
REMARK 923 INTER-LIGAND FREE ENERGY PREDICTED BY IDOCK:   -4.78 KCAL/MOL
REMARK 924 INTRA-LIGAND FREE ENERGY PREDICTED BY IDOCK:   -0.22 KCAL/MOL
REMARK 927      BINDING AFFINITY PREDICTED BY RF-SCORE:    0.00 PKD
ROOT
HETATM    1  C   UNL     1     -12.412   8.673  72.424  1.00  0.00    -0.362 C  
HETATM    2  N   UNL     1     -11.183   7.942  71.893  1.00  0.00    -0.258 N  
HETATM    3  C   UNL     1     -10.885   6.755  72.805  1.00  0.00    -0.262 C  
HETATM    4  C   UNL     1     -11.505   7.428  70.456  1.00  0.00    -0.255 C  
HETATM    5  C   UNL     1     -10.233   7.096  69.648  1.00  0.00    -0.208 C  
HETATM    6  N   UNL     1      -9.259   8.199  69.590  1.00  0.00    -0.155 NA 
HETATM    7  C   UNL     1      -8.838   8.513  70.969  1.00  0.00    -0.175 C  
HETATM    8  C   UNL     1      -9.989   8.933  71.910  1.00  0.00    -0.314 C  
ENDROOT
BRANCH   6   9
HETATM    9  C   UNL     1      -9.762   9.425  68.900  1.00  0.00    -0.164 C  
HETATM   10  C   UNL     1      -9.904   9.476  67.337  1.00  0.00    -0.170 C  
HETATM   11  C   UNL     1      -8.639   9.011  66.601  1.00  0.00    -0.134 A  
HETATM   12  C   UNL     1     -10.436  10.877  66.807  1.00  0.00    -0.302 C  
HETATM   13  O   UNL     1     -10.929   8.489  67.025  1.00  0.00    -0.352 OA 
HETATM   14  C   UNL     1      -8.728   8.403  65.334  1.00  0.00    -0.175 A  
HETATM   15  C   UNL     1     -11.760  11.395  67.434  1.00  0.00    -0.172 C  
HETATM   16  H   UNL     1     -11.015   8.520  66.079  1.00  0.00     0.000 HD 
HETATM   17  C   UNL     1     -11.625  12.167  68.749  1.00  0.00    -0.380 C  
HETATM   18  C   UNL     1      -7.601   7.865  64.701  1.00  0.00    -0.109 A  
HETATM   19  C   UNL     1     -10.538  13.231  68.725  1.00  0.00    -0.224 C  
HETATM   20  C   UNL     1      -6.357   7.931  65.318  1.00  0.00    -0.041 A  
HETATM   21  C   UNL     1      -9.227  12.760  68.108  1.00  0.00    -0.212 C  
HETATM   22  C   UNL     1      -6.231   8.582  66.539  1.00  0.00    -0.057 A  
HETATM   23  C   UNL     1      -7.356   9.129  67.167  1.00  0.00    -0.087 A  
HETATM   24  C   UNL     1      -9.426  12.043  66.778  1.00  0.00    -0.212 C  
ENDBRANCH   6   9
TORSDOF 1
ENDMDL
MODEL       47
REMARK 921   NORMALIZED FREE ENERGY PREDICTED BY IDOCK:   -4.29 KCAL/MOL
REMARK 922        TOTAL FREE ENERGY PREDICTED BY IDOCK:   -4.93 KCAL/MOL
REMARK 923 INTER-LIGAND FREE ENERGY PREDICTED BY IDOCK:   -4.55 KCAL/MOL
REMARK 924 INTRA-LIGAND FREE ENERGY PREDICTED BY IDOCK:   -0.38 KCAL/MOL
REMARK 927      BINDING AFFINITY PREDICTED BY RF-SCORE:    0.00 PKD
ROOT
HETATM    1  C   UNL     1     -10.884  15.582  65.071  1.00  0.00    -0.450 C  
HETATM    2  N   UNL     1     -10.294  15.540  66.477  1.00  0.00    -0.280 N  
HETATM    3  C   UNL     1     -10.377  16.937  67.085  1.00  0.00    -0.304 C  
HETATM    4  C   UNL     1     -11.140  14.547  67.332  1.00  0.00    -0.314 C  
HETATM    5  C   UNL     1     -10.393  14.067  68.593  1.00  0.00    -0.238 C  
HETATM    6  N   UNL     1      -9.062  13.499  68.318  1.00  0.00    -0.195 NA 
HETATM    7  C   UNL     1      -8.237  14.547  67.686  1.00  0.00    -0.177 C  
HETATM    8  C   UNL     1      -8.809  15.102  66.363  1.00  0.00    -0.242 C  
ENDROOT
BRANCH   6   9
HETATM    9  C   UNL     1      -9.085  12.266  67.475  1.00  0.00    -0.182 C  
HETATM   10  C   UNL     1      -8.820  10.850  68.101  1.00  0.00    -0.137 C  
HETATM   11  C   UNL     1      -7.554  10.800  68.967  1.00  0.00    -0.126 A  
HETATM   12  C   UNL     1      -8.871   9.678  67.028  1.00  0.00    -0.142 C  
HETATM   13  O   UNL     1      -9.934  10.634  69.015  1.00  0.00    -0.198 OA 
HETATM   14  C   UNL     1      -7.463   9.913  70.056  1.00  0.00    -0.173 A  
HETATM   15  C   UNL     1     -10.154   9.594  66.157  1.00  0.00    -0.328 C  
HETATM   16  H   UNL     1      -9.774   9.777  69.393  1.00  0.00     0.000 HD 
HETATM   17  C   UNL     1     -10.176  10.474  64.904  1.00  0.00    -0.371 C  
HETATM   18  C   UNL     1      -6.368   9.936  70.929  1.00  0.00    -0.056 A  
HETATM   19  C   UNL     1      -8.904  10.389  64.075  1.00  0.00    -0.225 C  
HETATM   20  C   UNL     1      -5.334  10.844  70.725  1.00  0.00    -0.110 A  
HETATM   21  C   UNL     1      -7.624  10.459  64.898  1.00  0.00    -0.074 C  
HETATM   22  C   UNL     1      -5.368  11.686  69.620  1.00  0.00    -0.065 A  
HETATM   23  C   UNL     1      -6.458  11.655  68.743  1.00  0.00    -0.064 A  
HETATM   24  C   UNL     1      -7.646   9.525  66.102  1.00  0.00    -0.100 C  
ENDBRANCH   6   9
TORSDOF 1
ENDMDL
MODEL       48
REMARK 921   NORMALIZED FREE ENERGY PREDICTED BY IDOCK:   -4.27 KCAL/MOL
REMARK 922        TOTAL FREE ENERGY PREDICTED BY IDOCK:   -4.91 KCAL/MOL
REMARK 923 INTER-LIGAND FREE ENERGY PREDICTED BY IDOCK:   -4.55 KCAL/MOL
REMARK 924 INTRA-LIGAND FREE ENERGY PREDICTED BY IDOCK:   -0.37 KCAL/MOL
REMARK 927      BINDING AFFINITY PREDICTED BY RF-SCORE:    0.00 PKD
ROOT
HETATM    1  C   UNL     1      -6.642  10.322  63.311  1.00  0.00    -0.112 C  
HETATM    2  N   UNL     1      -6.565   9.336  64.472  1.00  0.00    -0.080 N  
HETATM    3  C   UNL     1      -5.651   8.180  64.074  1.00  0.00    -0.052 C  
HETATM    4  C   UNL     1      -5.963  10.078  65.704  1.00  0.00    -0.080 C  
HETATM    5  C   UNL     1      -6.259   9.355  67.034  1.00  0.00    -0.065 C  
HETATM    6  N   UNL     1      -7.688   9.075  67.254  1.00  0.00    -0.095 NA 
HETATM    7  C   UNL     1      -8.160   8.203  66.162  1.00  0.00    -0.109 C  
HETATM    8  C   UNL     1      -7.997   8.804  64.748  1.00  0.00    -0.132 C  
ENDROOT
BRANCH   6   9
HETATM    9  C   UNL     1      -8.542  10.297  67.361  1.00  0.00    -0.125 C  
HETATM   10  C   UNL     1      -9.155  10.742  68.737  1.00  0.00    -0.178 C  
HETATM   11  C   UNL     1      -9.876   9.603  69.472  1.00  0.00    -0.219 A  
HETATM   12  C   UNL     1     -10.046  12.053  68.625  1.00  0.00    -0.170 C  
HETATM   13  O   UNL     1      -8.005  11.081  69.563  1.00  0.00    -0.363 OA 
HETATM   14  C   UNL     1      -9.936   9.581  70.878  1.00  0.00    -0.308 A  
HETATM   15  C   UNL     1      -9.373  13.290  67.968  1.00  0.00    -0.218 C  
HETATM   16  H   UNL     1      -8.375  11.350  70.396  1.00  0.00     0.000 HD 
HETATM   17  C   UNL     1      -9.434  13.357  66.440  1.00  0.00    -0.230 C  
HETATM   18  C   UNL     1     -10.482   8.492  71.570  1.00  0.00    -0.318 A  
HETATM   19  C   UNL     1     -10.816  13.076  65.870  1.00  0.00    -0.291 C  
HETATM   20  C   UNL     1     -10.989   7.404  70.867  1.00  0.00    -0.271 A  
HETATM   21  C   UNL     1     -11.509  11.873  66.497  1.00  0.00    -0.381 C  
HETATM   22  C   UNL     1     -11.001   7.429  69.478  1.00  0.00    -0.155 A  
HETATM   23  C   UNL     1     -10.464   8.522  68.788  1.00  0.00    -0.208 A  
HETATM   24  C   UNL     1     -11.456  11.891  68.021  1.00  0.00    -0.389 C  
ENDBRANCH   6   9
TORSDOF 1
ENDMDL
MODEL       49
REMARK 921   NORMALIZED FREE ENERGY PREDICTED BY IDOCK:   -4.27 KCAL/MOL
REMARK 922        TOTAL FREE ENERGY PREDICTED BY IDOCK:   -4.91 KCAL/MOL
REMARK 923 INTER-LIGAND FREE ENERGY PREDICTED BY IDOCK:   -4.80 KCAL/MOL
REMARK 924 INTRA-LIGAND FREE ENERGY PREDICTED BY IDOCK:   -0.11 KCAL/MOL
REMARK 927      BINDING AFFINITY PREDICTED BY RF-SCORE:    0.00 PKD
ROOT
HETATM    1  C   UNL     1      -7.936   3.955  67.387  1.00  0.00    -0.091 C  
HETATM    2  N   UNL     1      -7.578   5.345  66.869  1.00  0.00    -0.088 N  
HETATM    3  C   UNL     1      -6.657   5.195  65.662  1.00  0.00    -0.044 C  
HETATM    4  C   UNL     1      -8.895   6.058  66.436  1.00  0.00    -0.136 C  
HETATM    5  C   UNL     1      -8.735   7.589  66.340  1.00  0.00    -0.145 C  
HETATM    6  N   UNL     1      -8.196   8.209  67.562  1.00  0.00    -0.122 NA 
HETATM    7  C   UNL     1      -6.858   7.639  67.816  1.00  0.00    -0.068 C  
HETATM    8  C   UNL     1      -6.841   6.106  68.003  1.00  0.00    -0.067 C  
ENDROOT
BRANCH   6   9
HETATM    9  C   UNL     1      -9.071   8.057  68.763  1.00  0.00    -0.144 C  
HETATM   10  C   UNL     1     -10.471   8.764  68.843  1.00  0.00    -0.197 C  
HETATM   11  C   UNL     1     -10.413  10.258  68.494  1.00  0.00    -0.217 A  
HETATM   12  C   UNL     1     -11.229   8.489  70.213  1.00  0.00    -0.185 C  
HETATM   13  O   UNL     1     -11.262   8.141  67.790  1.00  0.00    -0.364 OA 
HETATM   14  C   UNL     1     -11.521  10.903  67.913  1.00  0.00    -0.344 A  
HETATM   15  C   UNL     1     -11.411   6.998  70.613  1.00  0.00    -0.367 C  
HETATM   16  H   UNL     1     -12.109   8.568  67.839  1.00  0.00     0.000 HD 
HETATM   17  C   UNL     1     -10.241   6.353  71.360  1.00  0.00    -0.228 C  
HETATM   18  C   UNL     1     -11.448  12.232  67.478  1.00  0.00    -0.414 A  
HETATM   19  C   UNL     1      -9.703   7.201  72.503  1.00  0.00    -0.180 C  
HETATM   20  C   UNL     1     -10.265  12.948  67.622  1.00  0.00    -0.220 A  
HETATM   21  C   UNL     1      -9.520   8.671  72.149  1.00  0.00    -0.373 C  
HETATM   22  C   UNL     1      -9.176  12.356  68.250  1.00  0.00    -0.189 A  
HETATM   23  C   UNL     1      -9.254  11.031  68.694  1.00  0.00    -0.186 A  
HETATM   24  C   UNL     1     -10.738   9.266  71.452  1.00  0.00    -0.432 C  
ENDBRANCH   6   9
TORSDOF 1
ENDMDL
MODEL       50
REMARK 921   NORMALIZED FREE ENERGY PREDICTED BY IDOCK:   -4.26 KCAL/MOL
REMARK 922        TOTAL FREE ENERGY PREDICTED BY IDOCK:   -4.91 KCAL/MOL
REMARK 923 INTER-LIGAND FREE ENERGY PREDICTED BY IDOCK:   -4.68 KCAL/MOL
REMARK 924 INTRA-LIGAND FREE ENERGY PREDICTED BY IDOCK:   -0.22 KCAL/MOL
REMARK 927      BINDING AFFINITY PREDICTED BY RF-SCORE:    0.00 PKD
ROOT
HETATM    1  C   UNL     1     -12.726  12.405  71.171  1.00  0.00    -0.240 C  
HETATM    2  N   UNL     1     -12.430  13.901  71.158  1.00  0.00    -0.359 N  
HETATM    3  C   UNL     1     -12.726  14.472  72.542  1.00  0.00    -0.348 C  
HETATM    4  C   UNL     1     -10.920  14.097  70.823  1.00  0.00     0.804 C  
HETATM    5  C   UNL     1     -10.604  15.524  70.328  1.00  0.00    -0.304 C  
HETATM    6  N   UNL     1     -11.439  15.960  69.197  1.00  0.00    -0.363 NA 
HETATM    7  C   UNL     1     -12.849  15.946  69.633  1.00  0.00     0.693 C  
HETATM    8  C   UNL     1     -13.358  14.566  70.106  1.00  0.00     0.468 C  
ENDROOT
BRANCH   6   9
HETATM    9  C   UNL     1     -11.261  15.148  67.956  1.00  0.00    -0.323 C  
HETATM   10  C   UNL     1      -9.989  15.314  67.051  1.00  0.00    -0.234 C  
HETATM   11  C   UNL     1      -9.687  16.778  66.698  1.00  0.00    -0.281 A  
HETATM   12  C   UNL     1     -10.009  14.372  65.771  1.00  0.00    -0.354 C  
HETATM   13  O   UNL     1      -8.880  14.871  67.885  1.00  0.00    -0.159 OA 
HETATM   14  C   UNL     1      -8.365  17.203  66.468  1.00  0.00    -0.309 A  
HETATM   15  C   UNL     1     -10.226  12.856  66.034  1.00  0.00    -0.293 C  
HETATM   16  H   UNL     1      -8.110  14.971  67.337  1.00  0.00     0.000 HD 
HETATM   17  C   UNL     1     -11.681  12.394  66.152  1.00  0.00    -0.460 C  
HETATM   18  C   UNL     1      -8.056  18.554  66.264  1.00  0.00    -0.259 A  
HETATM   19  C   UNL     1     -12.583  12.929  65.049  1.00  0.00    -0.538 C  
HETATM   20  C   UNL     1      -9.066  19.509  66.277  1.00  0.00    -0.403 A  
HETATM   21  C   UNL     1     -12.391  14.412  64.759  1.00  0.00    -0.427 C  
HETATM   22  C   UNL     1     -10.387  19.108  66.438  1.00  0.00    -0.536 A  
HETATM   23  C   UNL     1     -10.696  17.757  66.632  1.00  0.00    -0.124 A  
HETATM   24  C   UNL     1     -10.924  14.796  64.604  1.00  0.00    -0.332 C  
ENDBRANCH   6   9
TORSDOF 1
ENDMDL
MODEL       51
REMARK 921   NORMALIZED FREE ENERGY PREDICTED BY IDOCK:   -4.23 KCAL/MOL
REMARK 922        TOTAL FREE ENERGY PREDICTED BY IDOCK:   -4.87 KCAL/MOL
REMARK 923 INTER-LIGAND FREE ENERGY PREDICTED BY IDOCK:   -4.48 KCAL/MOL
REMARK 924 INTRA-LIGAND FREE ENERGY PREDICTED BY IDOCK:   -0.40 KCAL/MOL
REMARK 927      BINDING AFFINITY PREDICTED BY RF-SCORE:    0.00 PKD
ROOT
HETATM    1  C   UNL     1      -5.955   7.171  71.832  1.00  0.00    -0.037 C  
HETATM    2  N   UNL     1      -6.138   8.513  71.129  1.00  0.00    -0.036 N  
HETATM    3  C   UNL     1      -5.350   9.576  71.889  1.00  0.00    -0.076 C  
HETATM    4  C   UNL     1      -5.579   8.384  69.679  1.00  0.00    -0.030 C  
HETATM    5  C   UNL     1      -6.113   9.485  68.739  1.00  0.00    -0.043 C  
HETATM    6  N   UNL     1      -7.582   9.585  68.714  1.00  0.00    -0.075 NA 
HETATM    7  C   UNL     1      -8.045   9.905  70.078  1.00  0.00    -0.177 C  
HETATM    8  C   UNL     1      -7.650   8.864  71.149  1.00  0.00    -0.119 C  
ENDROOT
BRANCH   6   9
HETATM    9  C   UNL     1      -8.271   8.365  68.195  1.00  0.00    -0.124 C  
HETATM   10  C   UNL     1      -8.832   8.310  66.729  1.00  0.00    -0.140 C  
HETATM   11  C   UNL     1      -9.700   9.524  66.370  1.00  0.00    -0.295 A  
HETATM   12  C   UNL     1      -9.543   6.930  66.388  1.00  0.00    -0.152 C  
HETATM   13  O   UNL     1      -7.653   8.399  65.878  1.00  0.00    -0.079 OA 
HETATM   14  C   UNL     1      -9.773   9.986  65.042  1.00  0.00    -0.386 A  
HETATM   15  C   UNL     1      -8.711   5.643  66.641  1.00  0.00    -0.118 C  
HETATM   16  H   UNL     1      -7.992   8.365  64.991  1.00  0.00     0.000 HD 
HETATM   17  C   UNL     1      -8.750   5.084  68.065  1.00  0.00    -0.105 C  
HETATM   18  C   UNL     1     -10.462  11.161  64.714  1.00  0.00    -0.388 A  
HETATM   19  C   UNL     1     -10.153   4.993  68.648  1.00  0.00    -0.191 C  
HETATM   20  C   UNL     1     -11.100  11.894  65.708  1.00  0.00    -0.367 A  
HETATM   21  C   UNL     1     -11.001   6.235  68.411  1.00  0.00    -0.409 C  
HETATM   22  C   UNL     1     -11.098  11.425  67.016  1.00  0.00    -0.364 A  
HETATM   23  C   UNL     1     -10.418  10.247  67.341  1.00  0.00    -0.303 A  
HETATM   24  C   UNL     1     -10.958   6.712  66.964  1.00  0.00    -0.463 C  
ENDBRANCH   6   9
TORSDOF 1
ENDMDL
MODEL       52
REMARK 921   NORMALIZED FREE ENERGY PREDICTED BY IDOCK:   -4.18 KCAL/MOL
REMARK 922        TOTAL FREE ENERGY PREDICTED BY IDOCK:   -4.82 KCAL/MOL
REMARK 923 INTER-LIGAND FREE ENERGY PREDICTED BY IDOCK:   -4.46 KCAL/MOL
REMARK 924 INTRA-LIGAND FREE ENERGY PREDICTED BY IDOCK:   -0.36 KCAL/MOL
REMARK 927      BINDING AFFINITY PREDICTED BY RF-SCORE:    0.00 PKD
ROOT
HETATM    1  C   UNL     1      -8.220  19.698  67.718  1.00  0.00    -0.302 C  
HETATM    2  N   UNL     1      -9.513  18.889  67.682  1.00  0.00    -0.297 N  
HETATM    3  C   UNL     1     -10.684  19.847  67.480  1.00  0.00    -0.292 C  
HETATM    4  C   UNL     1      -9.436  17.898  66.480  1.00  0.00    -0.299 C  
HETATM    5  C   UNL     1     -10.440  16.734  66.608  1.00  0.00    -0.258 C  
HETATM    6  N   UNL     1     -10.343  16.001  67.881  1.00  0.00    -0.262 NA 
HETATM    7  C   UNL     1     -10.621  16.948  68.979  1.00  0.00    -0.338 C  
HETATM    8  C   UNL     1      -9.660  18.156  69.041  1.00  0.00    -0.154 C  
ENDROOT
BRANCH   6   9
HETATM    9  C   UNL     1      -9.034  15.315  68.096  1.00  0.00    -0.173 C  
HETATM   10  C   UNL     1      -8.812  13.828  67.642  1.00  0.00    -0.189 C  
HETATM   11  C   UNL     1      -9.920  12.880  68.123  1.00  0.00    -0.234 A  
HETATM   12  C   UNL     1      -7.357  13.285  67.982  1.00  0.00    -0.127 C  
HETATM   13  O   UNL     1      -8.922  13.862  66.190  1.00  0.00    -0.474 OA 
HETATM   14  C   UNL     1     -10.262  11.738  67.374  1.00  0.00    -0.220 A  
HETATM   15  C   UNL     1      -6.165  14.136  67.464  1.00  0.00     0.007 C  
HETATM   16  H   UNL     1      -8.788  12.962  65.916  1.00  0.00     0.000 HD 
HETATM   17  C   UNL     1      -5.726  15.297  68.360  1.00  0.00    -0.107 C  
HETATM   18  C   UNL     1     -11.348  10.928  67.731  1.00  0.00    -0.366 A  
HETATM   19  C   UNL     1      -5.574  14.914  69.824  1.00  0.00    -0.101 C  
HETATM   20  C   UNL     1     -12.110  11.239  68.852  1.00  0.00    -0.292 A  
HETATM   21  C   UNL     1      -6.722  14.072  70.365  1.00  0.00     0.197 C  
HETATM   22  C   UNL     1     -11.753  12.323  69.645  1.00  0.00    -0.386 A  
HETATM   23  C   UNL     1     -10.663  13.126  69.293  1.00  0.00     0.022 A  
HETATM   24  C   UNL     1      -7.077  12.905  69.451  1.00  0.00     0.187 C  
ENDBRANCH   6   9
TORSDOF 1
ENDMDL
MODEL       53
REMARK 921   NORMALIZED FREE ENERGY PREDICTED BY IDOCK:   -4.17 KCAL/MOL
REMARK 922        TOTAL FREE ENERGY PREDICTED BY IDOCK:   -4.81 KCAL/MOL
REMARK 923 INTER-LIGAND FREE ENERGY PREDICTED BY IDOCK:   -4.41 KCAL/MOL
REMARK 924 INTRA-LIGAND FREE ENERGY PREDICTED BY IDOCK:   -0.39 KCAL/MOL
REMARK 927      BINDING AFFINITY PREDICTED BY RF-SCORE:    0.00 PKD
ROOT
HETATM    1  C   UNL     1     -11.743   8.314  72.386  1.00  0.00    -0.397 C  
HETATM    2  N   UNL     1     -11.011   7.107  71.807  1.00  0.00    -0.226 N  
HETATM    3  C   UNL     1     -11.059   5.970  72.824  1.00  0.00    -0.269 C  
HETATM    4  C   UNL     1     -11.745   6.672  70.502  1.00  0.00    -0.394 C  
HETATM    5  C   UNL     1     -10.862   5.791  69.593  1.00  0.00    -0.348 C  
HETATM    6  N   UNL     1      -9.556   6.389  69.270  1.00  0.00    -0.138 NA 
HETATM    7  C   UNL     1      -8.821   6.598  70.533  1.00  0.00    -0.152 C  
HETATM    8  C   UNL     1      -9.538   7.518  71.546  1.00  0.00    -0.154 C  
ENDROOT
BRANCH   6   9
HETATM    9  C   UNL     1      -9.641   7.661  68.492  1.00  0.00    -0.148 C  
HETATM   10  C   UNL     1      -9.488   7.669  66.929  1.00  0.00    -0.172 C  
HETATM   11  C   UNL     1      -8.249   6.905  66.441  1.00  0.00    -0.117 A  
HETATM   12  C   UNL     1      -9.590   9.126  66.302  1.00  0.00    -0.321 C  
HETATM   13  O   UNL     1     -10.636   6.917  66.440  1.00  0.00    -0.492 OA 
HETATM   14  C   UNL     1      -8.246   6.273  65.183  1.00  0.00    -0.138 A  
HETATM   15  C   UNL     1     -10.854   9.950  66.673  1.00  0.00    -0.031 C  
HETATM   16  H   UNL     1     -10.544   6.922  65.495  1.00  0.00     0.000 HD 
HETATM   17  C   UNL     1     -10.786  10.734  67.985  1.00  0.00    -0.302 C  
HETATM   18  C   UNL     1      -7.173   5.471  64.770  1.00  0.00    -0.062 A  
HETATM   19  C   UNL     1      -9.502  11.532  68.155  1.00  0.00    -0.184 C  
HETATM   20  C   UNL     1      -6.076   5.292  65.606  1.00  0.00    -0.033 A  
HETATM   21  C   UNL     1      -8.241  10.758  67.792  1.00  0.00    -0.112 C  
HETATM   22  C   UNL     1      -6.026   5.957  66.825  1.00  0.00    -0.018 A  
HETATM   23  C   UNL     1      -7.094   6.765  67.232  1.00  0.00    -0.080 A  
HETATM   24  C   UNL     1      -8.356  10.040  66.452  1.00  0.00    -0.126 C  
ENDBRANCH   6   9
TORSDOF 1
ENDMDL
MODEL       54
REMARK 921   NORMALIZED FREE ENERGY PREDICTED BY IDOCK:   -4.16 KCAL/MOL
REMARK 922        TOTAL FREE ENERGY PREDICTED BY IDOCK:   -4.80 KCAL/MOL
REMARK 923 INTER-LIGAND FREE ENERGY PREDICTED BY IDOCK:   -4.51 KCAL/MOL
REMARK 924 INTRA-LIGAND FREE ENERGY PREDICTED BY IDOCK:   -0.29 KCAL/MOL
REMARK 927      BINDING AFFINITY PREDICTED BY RF-SCORE:    0.00 PKD
ROOT
HETATM    1  C   UNL     1     -12.449  14.433  63.960  1.00  0.00    -0.094 C  
HETATM    2  N   UNL     1     -12.029  13.005  64.299  1.00  0.00    -0.377 N  
HETATM    3  C   UNL     1     -12.933  12.036  63.543  1.00  0.00    -0.192 C  
HETATM    4  C   UNL     1     -10.552  12.809  63.840  1.00  0.00    -0.395 C  
HETATM    5  C   UNL     1      -9.874  11.605  64.527  1.00  0.00    -0.224 C  
HETATM    6  N   UNL     1      -9.952  11.637  65.997  1.00  0.00    -0.220 NA 
HETATM    7  C   UNL     1     -11.377  11.621  66.382  1.00  0.00    -0.245 C  
HETATM    8  C   UNL     1     -12.202  12.804  65.828  1.00  0.00    -0.408 C  
ENDROOT
BRANCH   6   9
HETATM    9  C   UNL     1      -9.248  12.796  66.623  1.00  0.00    -0.212 C  
HETATM   10  C   UNL     1      -7.999  12.584  67.551  1.00  0.00    -0.175 C  
HETATM   11  C   UNL     1      -8.233  11.533  68.645  1.00  0.00    -0.124 A  
HETATM   12  C   UNL     1      -7.415  13.945  68.128  1.00  0.00    -0.126 C  
HETATM   13  O   UNL     1      -6.978  12.024  66.676  1.00  0.00    -0.373 OA 
HETATM   14  C   UNL     1      -7.164  10.765  69.144  1.00  0.00    -0.107 A  
HETATM   15  C   UNL     1      -7.068  15.044  67.087  1.00  0.00     0.010 C  
HETATM   16  H   UNL     1      -6.222  11.895  67.237  1.00  0.00     0.000 HD 
HETATM   17  C   UNL     1      -8.222  15.952  66.655  1.00  0.00    -0.317 C  
HETATM   18  C   UNL     1      -7.375   9.721  70.054  1.00  0.00    -0.145 A  
HETATM   19  C   UNL     1      -9.043  16.491  67.817  1.00  0.00    -0.204 C  
HETATM   20  C   UNL     1      -8.662   9.429  70.492  1.00  0.00    -0.276 A  
HETATM   21  C   UNL     1      -9.395  15.441  68.863  1.00  0.00    -0.218 C  
HETATM   22  C   UNL     1      -9.727  10.213  70.065  1.00  0.00    -0.144 A  
HETATM   23  C   UNL     1      -9.514  11.262  69.163  1.00  0.00     0.064 A  
HETATM   24  C   UNL     1      -8.194  14.604  69.286  1.00  0.00    -0.003 C  
ENDBRANCH   6   9
TORSDOF 1
ENDMDL
MODEL       55
REMARK 921   NORMALIZED FREE ENERGY PREDICTED BY IDOCK:   -4.14 KCAL/MOL
REMARK 922        TOTAL FREE ENERGY PREDICTED BY IDOCK:   -4.78 KCAL/MOL
REMARK 923 INTER-LIGAND FREE ENERGY PREDICTED BY IDOCK:   -4.41 KCAL/MOL
REMARK 924 INTRA-LIGAND FREE ENERGY PREDICTED BY IDOCK:   -0.37 KCAL/MOL
REMARK 927      BINDING AFFINITY PREDICTED BY RF-SCORE:    0.00 PKD
ROOT
HETATM    1  C   UNL     1     -11.977  13.653  68.808  1.00  0.00    -0.359 C  
HETATM    2  N   UNL     1     -11.103  13.046  67.714  1.00  0.00    -0.252 N  
HETATM    3  C   UNL     1     -11.026  14.028  66.548  1.00  0.00    -0.306 C  
HETATM    4  C   UNL     1      -9.677  12.817  68.300  1.00  0.00    -0.216 C  
HETATM    5  C   UNL     1      -8.853  11.808  67.475  1.00  0.00    -0.162 C  
HETATM    6  N   UNL     1      -9.531  10.518  67.262  1.00  0.00    -0.157 NA 
HETATM    7  C   UNL     1     -10.785  10.773  66.526  1.00  0.00    -0.181 C  
HETATM    8  C   UNL     1     -11.767  11.724  67.246  1.00  0.00    -0.217 C  
ENDROOT
BRANCH   6   9
HETATM    9  C   UNL     1      -9.802   9.754  68.517  1.00  0.00    -0.156 C  
HETATM   10  C   UNL     1      -8.778   8.695  69.061  1.00  0.00    -0.134 C  
HETATM   11  C   UNL     1      -8.324   7.691  67.992  1.00  0.00    -0.124 A  
HETATM   12  C   UNL     1      -9.269   7.984  70.395  1.00  0.00    -0.155 C  
HETATM   13  O   UNL     1      -7.593   9.469  69.406  1.00  0.00    -0.079 OA 
HETATM   14  C   UNL     1      -7.045   7.108  68.052  1.00  0.00    -0.085 A  
HETATM   15  C   UNL     1      -9.672   8.920  71.568  1.00  0.00    -0.372 C  
HETATM   16  H   UNL     1      -6.973   8.829  69.735  1.00  0.00     0.000 HD 
HETATM   17  C   UNL     1     -11.112   9.440  71.550  1.00  0.00    -0.446 C  
HETATM   18  C   UNL     1      -6.568   6.284  67.025  1.00  0.00    -0.059 A  
HETATM   19  C   UNL     1     -12.149   8.359  71.285  1.00  0.00    -0.315 C  
HETATM   20  C   UNL     1      -7.366   6.019  65.917  1.00  0.00    -0.076 A  
HETATM   21  C   UNL     1     -11.782   7.417  70.146  1.00  0.00    -0.028 C  
HETATM   22  C   UNL     1      -8.657   6.530  65.864  1.00  0.00    -0.153 A  
HETATM   23  C   UNL     1      -9.136   7.345  66.895  1.00  0.00    -0.164 A  
HETATM   24  C   UNL     1     -10.353   6.896  70.249  1.00  0.00    -0.218 C  
ENDBRANCH   6   9
TORSDOF 1
ENDMDL
MODEL       56
REMARK 921   NORMALIZED FREE ENERGY PREDICTED BY IDOCK:   -4.13 KCAL/MOL
REMARK 922        TOTAL FREE ENERGY PREDICTED BY IDOCK:   -4.76 KCAL/MOL
REMARK 923 INTER-LIGAND FREE ENERGY PREDICTED BY IDOCK:   -4.73 KCAL/MOL
REMARK 924 INTRA-LIGAND FREE ENERGY PREDICTED BY IDOCK:   -0.03 KCAL/MOL
REMARK 927      BINDING AFFINITY PREDICTED BY RF-SCORE:    0.00 PKD
ROOT
HETATM    1  C   UNL     1      -9.242   8.537  72.866  1.00  0.00    -0.119 C  
HETATM    2  N   UNL     1      -9.934   7.279  72.348  1.00  0.00    -0.171 N  
HETATM    3  C   UNL     1     -10.319   6.407  73.539  1.00  0.00    -0.265 C  
HETATM    4  C   UNL     1     -11.219   7.711  71.578  1.00  0.00    -0.246 C  
HETATM    5  C   UNL     1     -11.740   6.610  70.632  1.00  0.00    -0.394 C  
HETATM    6  N   UNL     1     -10.726   6.105  69.691  1.00  0.00    -0.283 NA 
HETATM    7  C   UNL     1      -9.618   5.526  70.475  1.00  0.00    -0.173 C  
HETATM    8  C   UNL     1      -8.931   6.518  71.440  1.00  0.00    -0.140 C  
ENDROOT
BRANCH   6   9
HETATM    9  C   UNL     1     -10.216   7.130  68.732  1.00  0.00    -0.179 C  
HETATM   10  C   UNL     1     -10.189   6.855  67.186  1.00  0.00    -0.240 C  
HETATM   11  C   UNL     1      -9.539   5.512  66.824  1.00  0.00    -0.156 A  
HETATM   12  C   UNL     1      -9.590   8.067  66.350  1.00  0.00    -0.267 C  
HETATM   13  O   UNL     1     -11.590   6.732  66.807  1.00  0.00    -0.655 OA 
HETATM   14  C   UNL     1      -9.941   4.807  65.674  1.00  0.00    -0.195 A  
HETATM   15  C   UNL     1     -10.241   9.457  66.587  1.00  0.00    -0.319 C  
HETATM   16  H   UNL     1     -11.575   6.565  65.872  1.00  0.00     0.000 HD 
HETATM   17  C   UNL     1      -9.697  10.263  67.769  1.00  0.00    -0.178 C  
HETATM   18  C   UNL     1      -9.447   3.527  65.391  1.00  0.00    -0.152 A  
HETATM   19  C   UNL     1      -8.178  10.315  67.826  1.00  0.00    -0.110 C  
HETATM   20  C   UNL     1      -8.533   2.928  66.250  1.00  0.00    -0.105 A  
HETATM   21  C   UNL     1      -7.504   8.969  67.589  1.00  0.00    -0.085 C  
HETATM   22  C   UNL     1      -8.071   3.629  67.358  1.00  0.00    -0.090 A  
HETATM   23  C   UNL     1      -8.557   4.911  67.634  1.00  0.00    -0.103 A  
HETATM   24  C   UNL     1      -8.057   8.240  66.370  1.00  0.00    -0.105 C  
ENDBRANCH   6   9
TORSDOF 1
ENDMDL
MODEL       57
REMARK 921   NORMALIZED FREE ENERGY PREDICTED BY IDOCK:   -4.12 KCAL/MOL
REMARK 922        TOTAL FREE ENERGY PREDICTED BY IDOCK:   -4.75 KCAL/MOL
REMARK 923 INTER-LIGAND FREE ENERGY PREDICTED BY IDOCK:   -4.38 KCAL/MOL
REMARK 924 INTRA-LIGAND FREE ENERGY PREDICTED BY IDOCK:   -0.37 KCAL/MOL
REMARK 927      BINDING AFFINITY PREDICTED BY RF-SCORE:    0.00 PKD
ROOT
HETATM    1  C   UNL     1      -8.514   5.099  64.495  1.00  0.00    -0.141 C  
HETATM    2  N   UNL     1      -8.844   4.612  65.903  1.00  0.00    -0.121 N  
HETATM    3  C   UNL     1      -8.928   3.088  65.887  1.00  0.00    -0.145 C  
HETATM    4  C   UNL     1      -7.696   5.062  66.857  1.00  0.00    -0.092 C  
HETATM    5  C   UNL     1      -8.119   5.048  68.341  1.00  0.00    -0.086 C  
HETATM    6  N   UNL     1      -9.345   5.815  68.618  1.00  0.00    -0.120 NA 
HETATM    7  C   UNL     1     -10.447   5.219  67.837  1.00  0.00    -0.085 C  
HETATM    8  C   UNL     1     -10.217   5.210  66.309  1.00  0.00    -0.253 C  
ENDROOT
BRANCH   6   9
HETATM    9  C   UNL     1      -9.229   7.277  68.336  1.00  0.00    -0.137 C  
HETATM   10  C   UNL     1      -8.810   8.291  69.461  1.00  0.00    -0.149 C  
HETATM   11  C   UNL     1      -9.623   8.127  70.753  1.00  0.00    -0.185 A  
HETATM   12  C   UNL     1      -8.768   9.797  68.955  1.00  0.00    -0.148 C  
HETATM   13  O   UNL     1      -7.444   7.921  69.803  1.00  0.00    -0.083 OA 
HETATM   14  C   UNL     1      -9.056   8.441  72.002  1.00  0.00    -0.296 A  
HETATM   15  C   UNL     1      -7.900  10.079  67.697  1.00  0.00    -0.095 C  
HETATM   16  H   UNL     1      -7.190   8.533  70.483  1.00  0.00     0.000 HD 
HETATM   17  C   UNL     1      -8.582   9.852  66.345  1.00  0.00    -0.136 C  
HETATM   18  C   UNL     1      -9.737   8.186  73.200  1.00  0.00    -0.294 A  
HETATM   19  C   UNL     1      -9.967  10.473  66.248  1.00  0.00    -0.276 C  
HETATM   20  C   UNL     1     -11.006   7.618  73.171  1.00  0.00    -0.411 A  
HETATM   21  C   UNL     1     -10.843  10.224  67.468  1.00  0.00    -0.355 C  
HETATM   22  C   UNL     1     -11.614   7.357  71.949  1.00  0.00    -0.307 A  
HETATM   23  C   UNL     1     -10.937   7.622  70.754  1.00  0.00    -0.262 A  
HETATM   24  C   UNL     1     -10.122  10.514  68.780  1.00  0.00    -0.202 C  
ENDBRANCH   6   9
TORSDOF 1
ENDMDL
MODEL       58
REMARK 921   NORMALIZED FREE ENERGY PREDICTED BY IDOCK:   -4.11 KCAL/MOL
REMARK 922        TOTAL FREE ENERGY PREDICTED BY IDOCK:   -4.74 KCAL/MOL
REMARK 923 INTER-LIGAND FREE ENERGY PREDICTED BY IDOCK:   -4.38 KCAL/MOL
REMARK 924 INTRA-LIGAND FREE ENERGY PREDICTED BY IDOCK:   -0.36 KCAL/MOL
REMARK 927      BINDING AFFINITY PREDICTED BY RF-SCORE:    0.00 PKD
ROOT
HETATM    1  C   UNL     1     -11.910  11.853  65.532  1.00  0.00    -0.063 C  
HETATM    2  N   UNL     1     -11.708  13.323  65.888  1.00  0.00    -0.348 N  
HETATM    3  C   UNL     1     -12.872  14.129  65.320  1.00  0.00    -0.344 C  
HETATM    4  C   UNL     1     -11.692  13.450  67.442  1.00  0.00    -0.373 C  
HETATM    5  C   UNL     1     -11.044  14.766  67.921  1.00  0.00    -0.293 C  
HETATM    6  N   UNL     1      -9.697  15.000  67.376  1.00  0.00    -0.215 NA 
HETATM    7  C   UNL     1      -9.801  15.068  65.905  1.00  0.00    -0.338 C  
HETATM    8  C   UNL     1     -10.376  13.795  65.245  1.00  0.00    -0.361 C  
ENDROOT
BRANCH   6   9
HETATM    9  C   UNL     1      -8.685  13.981  67.787  1.00  0.00    -0.185 C  
HETATM   10  C   UNL     1      -7.541  14.336  68.803  1.00  0.00    -0.130 C  
HETATM   11  C   UNL     1      -6.787  15.622  68.436  1.00  0.00    -0.115 A  
HETATM   12  C   UNL     1      -6.562  13.116  69.087  1.00  0.00    -0.104 C  
HETATM   13  O   UNL     1      -8.231  14.624  70.053  1.00  0.00    -0.292 OA 
HETATM   14  C   UNL     1      -6.211  16.426  69.437  1.00  0.00    -0.186 A  
HETATM   15  C   UNL     1      -7.227  11.789  69.546  1.00  0.00     0.160 C  
HETATM   16  H   UNL     1      -7.539  14.839  70.667  1.00  0.00     0.000 HD 
HETATM   17  C   UNL     1      -7.731  10.868  68.432  1.00  0.00    -0.116 C  
HETATM   18  C   UNL     1      -5.624  17.662  69.135  1.00  0.00    -0.191 A  
HETATM   19  C   UNL     1      -6.724  10.657  67.312  1.00  0.00    -0.078 C  
HETATM   20  C   UNL     1      -5.593  18.115  67.821  1.00  0.00    -0.151 A  
HETATM   21  C   UNL     1      -6.045  11.936  66.842  1.00  0.00    -0.120 C  
HETATM   22  C   UNL     1      -6.097  17.311  66.805  1.00  0.00    -0.236 A  
HETATM   23  C   UNL     1      -6.674  16.073  67.107  1.00  0.00    -0.205 A  
HETATM   24  C   UNL     1      -5.523  12.784  67.996  1.00  0.00    -0.092 C  
ENDBRANCH   6   9
TORSDOF 1
ENDMDL
MODEL       59
REMARK 921   NORMALIZED FREE ENERGY PREDICTED BY IDOCK:   -4.10 KCAL/MOL
REMARK 922        TOTAL FREE ENERGY PREDICTED BY IDOCK:   -4.73 KCAL/MOL
REMARK 923 INTER-LIGAND FREE ENERGY PREDICTED BY IDOCK:   -4.60 KCAL/MOL
REMARK 924 INTRA-LIGAND FREE ENERGY PREDICTED BY IDOCK:   -0.13 KCAL/MOL
REMARK 927      BINDING AFFINITY PREDICTED BY RF-SCORE:    0.00 PKD
ROOT
HETATM    1  C   UNL     1     -11.714  13.223  68.347  1.00  0.00    -0.354 C  
HETATM    2  N   UNL     1     -10.641  12.489  67.548  1.00  0.00    -0.218 N  
HETATM    3  C   UNL     1     -10.284  13.327  66.323  1.00  0.00    -0.296 C  
HETATM    4  C   UNL     1      -9.384  12.326  68.454  1.00  0.00    -0.162 C  
HETATM    5  C   UNL     1      -8.430  11.223  67.950  1.00  0.00    -0.133 C  
HETATM    6  N   UNL     1      -9.083   9.920  67.742  1.00  0.00    -0.131 NA 
HETATM    7  C   UNL     1     -10.139  10.091  66.726  1.00  0.00    -0.226 C  
HETATM    8  C   UNL     1     -11.226  11.123  67.099  1.00  0.00    -0.249 C  
ENDROOT
BRANCH   6   9
HETATM    9  C   UNL     1      -9.642   9.310  68.986  1.00  0.00    -0.159 C  
HETATM   10  C   UNL     1      -8.700   8.798  70.134  1.00  0.00    -0.149 C  
HETATM   11  C   UNL     1      -7.578   7.881  69.629  1.00  0.00    -0.098 A  
HETATM   12  C   UNL     1      -9.497   8.167  71.356  1.00  0.00    -0.211 C  
HETATM   13  O   UNL     1      -8.040   9.996  70.634  1.00  0.00    -0.411 OA 
HETATM   14  C   UNL     1      -6.340   7.826  70.298  1.00  0.00    -0.037 A  
HETATM   15  C   UNL     1     -10.603   9.055  71.992  1.00  0.00    -0.321 C  
HETATM   16  H   UNL     1      -7.470   9.686  71.328  1.00  0.00     0.000 HD 
HETATM   17  C   UNL     1     -11.978   9.000  71.323  1.00  0.00    -0.374 C  
HETATM   18  C   UNL     1      -5.264   7.089  69.786  1.00  0.00    -0.015 A  
HETATM   19  C   UNL     1     -12.462   7.587  71.035  1.00  0.00    -0.243 C  
HETATM   20  C   UNL     1      -5.407   6.384  68.596  1.00  0.00    -0.011 A  
HETATM   21  C   UNL     1     -11.401   6.685  70.418  1.00  0.00    -0.421 C  
HETATM   22  C   UNL     1      -6.637   6.370  67.949  1.00  0.00    -0.062 A  
HETATM   23  C   UNL     1      -7.714   7.098  68.467  1.00  0.00    -0.120 A  
HETATM   24  C   UNL     1     -10.071   6.748  71.160  1.00  0.00    -0.198 C  
ENDBRANCH   6   9
TORSDOF 1
ENDMDL
MODEL       60
REMARK 921   NORMALIZED FREE ENERGY PREDICTED BY IDOCK:   -4.07 KCAL/MOL
REMARK 922        TOTAL FREE ENERGY PREDICTED BY IDOCK:   -4.70 KCAL/MOL
REMARK 923 INTER-LIGAND FREE ENERGY PREDICTED BY IDOCK:   -4.51 KCAL/MOL
REMARK 924 INTRA-LIGAND FREE ENERGY PREDICTED BY IDOCK:   -0.19 KCAL/MOL
REMARK 927      BINDING AFFINITY PREDICTED BY RF-SCORE:    0.00 PKD
ROOT
HETATM    1  C   UNL     1      -9.993  10.196  65.340  1.00  0.00    -0.307 C  
HETATM    2  N   UNL     1      -9.835  10.475  66.832  1.00  0.00    -0.186 N  
HETATM    3  C   UNL     1      -9.941  11.980  67.063  1.00  0.00    -0.204 C  
HETATM    4  C   UNL     1     -10.987   9.748  67.589  1.00  0.00    -0.162 C  
HETATM    5  C   UNL     1     -10.685   9.562  69.091  1.00  0.00    -0.210 C  
HETATM    6  N   UNL     1      -9.398   8.900  69.361  1.00  0.00    -0.152 NA 
HETATM    7  C   UNL     1      -8.322   9.735  68.792  1.00  0.00    -0.113 C  
HETATM    8  C   UNL     1      -8.433   9.973  67.270  1.00  0.00    -0.122 C  
ENDROOT
BRANCH   6   9
HETATM    9  C   UNL     1      -9.308   7.501  68.845  1.00  0.00    -0.142 C  
HETATM   10  C   UNL     1     -10.108   6.332  69.523  1.00  0.00    -0.176 C  
HETATM   11  C   UNL     1      -9.924   6.280  71.046  1.00  0.00    -0.213 A  
HETATM   12  C   UNL     1      -9.855   4.923  68.831  1.00  0.00    -0.241 C  
HETATM   13  O   UNL     1     -11.509   6.665  69.304  1.00  0.00    -0.578 OA 
HETATM   14  C   UNL     1     -10.947   5.783  71.876  1.00  0.00    -0.318 A  
HETATM   15  C   UNL     1     -10.097   4.854  67.297  1.00  0.00    -0.212 C  
HETATM   16  H   UNL     1     -11.993   5.958  69.714  1.00  0.00     0.000 HD 
HETATM   17  C   UNL     1      -8.923   5.277  66.411  1.00  0.00    -0.128 C  
HETATM   18  C   UNL     1     -10.847   5.839  73.272  1.00  0.00    -0.306 A  
HETATM   19  C   UNL     1      -7.594   4.658  66.819  1.00  0.00    -0.087 C  
HETATM   20  C   UNL     1      -9.716   6.385  73.868  1.00  0.00    -0.228 A  
HETATM   21  C   UNL     1      -7.328   4.701  68.319  1.00  0.00    -0.065 C  
HETATM   22  C   UNL     1      -8.664   6.823  73.073  1.00  0.00    -0.132 A  
HETATM   23  C   UNL     1      -8.761   6.758  71.678  1.00  0.00    -0.126 A  
HETATM   24  C   UNL     1      -8.517   4.221  69.142  1.00  0.00    -0.099 C  
ENDBRANCH   6   9
TORSDOF 1
ENDMDL
MODEL       61
REMARK 921   NORMALIZED FREE ENERGY PREDICTED BY IDOCK:   -4.06 KCAL/MOL
REMARK 922        TOTAL FREE ENERGY PREDICTED BY IDOCK:   -4.69 KCAL/MOL
REMARK 923 INTER-LIGAND FREE ENERGY PREDICTED BY IDOCK:   -4.38 KCAL/MOL
REMARK 924 INTRA-LIGAND FREE ENERGY PREDICTED BY IDOCK:   -0.31 KCAL/MOL
REMARK 927      BINDING AFFINITY PREDICTED BY RF-SCORE:    0.00 PKD
ROOT
HETATM    1  C   UNL     1      -5.226  13.138  70.433  1.00  0.00    -0.114 C  
HETATM    2  N   UNL     1      -5.972  13.988  69.408  1.00  0.00    -0.091 N  
HETATM    3  C   UNL     1      -5.234  15.313  69.240  1.00  0.00    -0.095 C  
HETATM    4  C   UNL     1      -5.983  13.220  68.052  1.00  0.00    -0.122 C  
HETATM    5  C   UNL     1      -7.075  13.733  67.090  1.00  0.00     0.294 C  
HETATM    6  N   UNL     1      -8.425  13.752  67.678  1.00  0.00    -0.169 NA 
HETATM    7  C   UNL     1      -8.406  14.653  68.847  1.00  0.00    -0.142 C  
HETATM    8  C   UNL     1      -7.403  14.248  69.950  1.00  0.00     0.267 C  
ENDROOT
BRANCH   6   9
HETATM    9  C   UNL     1      -8.946  12.405  68.059  1.00  0.00    -0.194 C  
HETATM   10  C   UNL     1      -9.664  11.484  67.008  1.00  0.00    -0.184 C  
HETATM   11  C   UNL     1     -10.769  12.209  66.227  1.00  0.00    -0.296 A  
HETATM   12  C   UNL     1     -10.158  10.105  67.625  1.00  0.00    -0.231 C  
HETATM   13  O   UNL     1      -8.632  11.164  66.031  1.00  0.00    -0.172 OA 
HETATM   14  C   UNL     1     -11.084  11.828  64.909  1.00  0.00    -0.345 A  
HETATM   15  C   UNL     1      -9.087   9.257  68.366  1.00  0.00    -0.128 C  
HETATM   16  H   UNL     1      -9.066  10.607  65.395  1.00  0.00     0.000 HD 
HETATM   17  C   UNL     1      -8.854   9.605  69.838  1.00  0.00    -0.240 C  
HETATM   18  C   UNL     1     -12.003  12.552  64.139  1.00  0.00    -0.508 A  
HETATM   19  C   UNL     1     -10.137   9.754  70.642  1.00  0.00    -0.252 C  
HETATM   20  C   UNL     1     -12.635  13.668  64.675  1.00  0.00    -0.289 A  
HETATM   21  C   UNL     1     -11.213  10.573  69.942  1.00  0.00    -0.374 C  
HETATM   22  C   UNL     1     -12.390  14.027  65.996  1.00  0.00    -0.504 A  
HETATM   23  C   UNL     1     -11.479  13.298  66.767  1.00  0.00    -0.387 A  
HETATM   24  C   UNL     1     -11.431  10.145  68.496  1.00  0.00    -0.098 C  
ENDBRANCH   6   9
TORSDOF 1
ENDMDL
MODEL       62
REMARK 921   NORMALIZED FREE ENERGY PREDICTED BY IDOCK:   -4.02 KCAL/MOL
REMARK 922        TOTAL FREE ENERGY PREDICTED BY IDOCK:   -4.65 KCAL/MOL
REMARK 923 INTER-LIGAND FREE ENERGY PREDICTED BY IDOCK:   -4.26 KCAL/MOL
REMARK 924 INTRA-LIGAND FREE ENERGY PREDICTED BY IDOCK:   -0.39 KCAL/MOL
REMARK 927      BINDING AFFINITY PREDICTED BY RF-SCORE:    0.00 PKD
ROOT
HETATM    1  C   UNL     1     -12.073  13.756  68.845  1.00  0.00    -0.313 C  
HETATM    2  N   UNL     1     -11.207  13.614  67.596  1.00  0.00    -0.269 N  
HETATM    3  C   UNL     1     -11.440  14.827  66.699  1.00  0.00    -0.335 C  
HETATM    4  C   UNL     1      -9.713  13.572  68.040  1.00  0.00    -0.228 C  
HETATM    5  C   UNL     1      -8.791  12.976  66.957  1.00  0.00    -0.212 C  
HETATM    6  N   UNL     1      -9.218  11.652  66.473  1.00  0.00    -0.193 NA 
HETATM    7  C   UNL     1     -10.563  11.791  65.882  1.00  0.00    -0.271 C  
HETATM    8  C   UNL     1     -11.639  12.321  66.856  1.00  0.00    -0.361 C  
ENDROOT
BRANCH   6   9
HETATM    9  C   UNL     1      -9.209  10.585  67.518  1.00  0.00    -0.142 C  
HETATM   10  C   UNL     1      -8.004   9.586  67.649  1.00  0.00    -0.106 C  
HETATM   11  C   UNL     1      -7.614   8.935  66.314  1.00  0.00    -0.095 A  
HETATM   12  C   UNL     1      -8.205   8.519  68.810  1.00  0.00    -0.122 C  
HETATM   13  O   UNL     1      -6.871  10.418  68.030  1.00  0.00    -0.068 OA 
HETATM   14  C   UNL     1      -6.285   8.543  66.069  1.00  0.00    -0.052 A  
HETATM   15  C   UNL     1      -8.522   9.087  70.221  1.00  0.00    -0.180 C  
HETATM   16  H   UNL     1      -6.143   9.814  68.109  1.00  0.00     0.000 HD 
HETATM   17  C   UNL     1      -9.995   9.386  70.511  1.00  0.00    -0.328 C  
HETATM   18  C   UNL     1      -5.884   8.059  64.816  1.00  0.00    -0.045 A  
HETATM   19  C   UNL     1     -10.937   8.260  70.111  1.00  0.00    -0.222 C  
HETATM   20  C   UNL     1      -6.810   7.949  63.784  1.00  0.00    -0.063 A  
HETATM   21  C   UNL     1     -10.650   7.673  68.735  1.00  0.00    -0.169 C  
HETATM   22  C   UNL     1      -8.141   8.269  64.019  1.00  0.00    -0.128 A  
HETATM   23  C   UNL     1      -8.542   8.743  65.273  1.00  0.00    -0.212 A  
HETATM   24  C   UNL     1      -9.174   7.353  68.529  1.00  0.00    -0.142 C  
ENDBRANCH   6   9
TORSDOF 1
ENDMDL
MODEL       63
REMARK 921   NORMALIZED FREE ENERGY PREDICTED BY IDOCK:   -3.95 KCAL/MOL
REMARK 922        TOTAL FREE ENERGY PREDICTED BY IDOCK:   -4.57 KCAL/MOL
REMARK 923 INTER-LIGAND FREE ENERGY PREDICTED BY IDOCK:   -4.20 KCAL/MOL
REMARK 924 INTRA-LIGAND FREE ENERGY PREDICTED BY IDOCK:   -0.37 KCAL/MOL
REMARK 927      BINDING AFFINITY PREDICTED BY RF-SCORE:    0.00 PKD
ROOT
HETATM    1  C   UNL     1     -10.928   5.522  72.358  1.00  0.00    -0.255 C  
HETATM    2  N   UNL     1     -10.629   6.936  71.868  1.00  0.00    -0.210 N  
HETATM    3  C   UNL     1     -11.166   7.933  72.891  1.00  0.00    -0.366 C  
HETATM    4  C   UNL     1      -9.083   7.093  71.746  1.00  0.00    -0.139 C  
HETATM    5  C   UNL     1      -8.678   8.275  70.840  1.00  0.00    -0.146 C  
HETATM    6  N   UNL     1      -9.296   8.240  69.504  1.00  0.00    -0.158 NA 
HETATM    7  C   UNL     1     -10.761   8.293  69.672  1.00  0.00    -0.194 C  
HETATM    8  C   UNL     1     -11.351   7.135  70.508  1.00  0.00    -0.297 C  
ENDROOT
BRANCH   6   9
HETATM    9  C   UNL     1      -8.901   7.059  68.678  1.00  0.00    -0.128 C  
HETATM   10  C   UNL     1      -7.926   7.211  67.456  1.00  0.00    -0.113 C  
HETATM   11  C   UNL     1      -8.334   8.337  66.496  1.00  0.00    -0.112 A  
HETATM   12  C   UNL     1      -7.655   5.837  66.704  1.00  0.00    -0.092 C  
HETATM   13  O   UNL     1      -6.660   7.629  68.042  1.00  0.00    -0.052 OA 
HETATM   14  C   UNL     1      -7.363   9.033  65.752  1.00  0.00    -0.089 A  
HETATM   15  C   UNL     1      -7.157   4.656  67.581  1.00  0.00    -0.065 C  
HETATM   16  H   UNL     1      -6.070   7.721  67.303  1.00  0.00     0.000 HD 
HETATM   17  C   UNL     1      -8.241   3.831  68.279  1.00  0.00    -0.090 C  
HETATM   18  C   UNL     1      -7.701  10.140  64.963  1.00  0.00    -0.141 A  
HETATM   19  C   UNL     1      -9.389   3.432  67.363  1.00  0.00    -0.243 C  
HETATM   20  C   UNL     1      -9.021  10.569  64.895  1.00  0.00    -0.222 A  
HETATM   21  C   UNL     1      -9.898   4.565  66.481  1.00  0.00    -0.244 C  
HETATM   22  C   UNL     1     -10.009   9.860  65.568  1.00  0.00    -0.363 A  
HETATM   23  C   UNL     1      -9.672   8.749  66.348  1.00  0.00    -0.335 A  
HETATM   24  C   UNL     1      -8.773   5.314  65.778  1.00  0.00    -0.143 C  
ENDBRANCH   6   9
TORSDOF 1
ENDMDL
MODEL       64
REMARK 921   NORMALIZED FREE ENERGY PREDICTED BY IDOCK:   -3.91 KCAL/MOL
REMARK 922        TOTAL FREE ENERGY PREDICTED BY IDOCK:   -4.53 KCAL/MOL
REMARK 923 INTER-LIGAND FREE ENERGY PREDICTED BY IDOCK:   -4.14 KCAL/MOL
REMARK 924 INTRA-LIGAND FREE ENERGY PREDICTED BY IDOCK:   -0.40 KCAL/MOL
REMARK 927      BINDING AFFINITY PREDICTED BY RF-SCORE:    0.00 PKD
ROOT
HETATM    1  C   UNL     1      -6.191   7.408  65.030  1.00  0.00    -0.038 C  
HETATM    2  N   UNL     1      -6.784   8.788  64.761  1.00  0.00    -0.069 N  
HETATM    3  C   UNL     1      -6.192   9.331  63.463  1.00  0.00    -0.090 C  
HETATM    4  C   UNL     1      -8.328   8.635  64.607  1.00  0.00    -0.155 C  
HETATM    5  C   UNL     1      -9.077   9.970  64.797  1.00  0.00    -0.224 C  
HETATM    6  N   UNL     1      -8.754  10.660  66.057  1.00  0.00    -0.171 NA 
HETATM    7  C   UNL     1      -7.309  10.958  66.062  1.00  0.00    -0.081 C  
HETATM    8  C   UNL     1      -6.398   9.716  65.944  1.00  0.00    -0.077 C  
ENDROOT
BRANCH   6   9
HETATM    9  C   UNL     1      -9.140   9.903  67.286  1.00  0.00    -0.135 C  
HETATM   10  C   UNL     1     -10.454  10.249  68.074  1.00  0.00    -0.196 C  
HETATM   11  C   UNL     1     -10.594  11.746  68.385  1.00  0.00    -0.239 A  
HETATM   12  C   UNL     1     -10.666   9.339  69.360  1.00  0.00    -0.222 C  
HETATM   13  O   UNL     1     -11.535   9.934  67.150  1.00  0.00    -0.211 OA 
HETATM   14  C   UNL     1     -11.865  12.341  68.494  1.00  0.00    -0.359 A  
HETATM   15  C   UNL     1     -10.624   7.802  69.132  1.00  0.00    -0.193 C  
HETATM   16  H   UNL     1     -12.330  10.143  67.627  1.00  0.00     0.000 HD 
HETATM   17  C   UNL     1      -9.237   7.156  69.146  1.00  0.00    -0.139 C  
HETATM   18  C   UNL     1     -12.013  13.725  68.657  1.00  0.00    -0.401 A  
HETATM   19  C   UNL     1      -8.371   7.594  70.318  1.00  0.00    -0.132 C  
HETATM   20  C   UNL     1     -10.890  14.542  68.724  1.00  0.00    -0.256 A  
HETATM   21  C   UNL     1      -8.394   9.094  70.577  1.00  0.00    -0.222 C  
HETATM   22  C   UNL     1      -9.623  13.973  68.684  1.00  0.00    -0.159 A  
HETATM   23  C   UNL     1      -9.476  12.590  68.531  1.00  0.00    -0.100 A  
HETATM   24  C   UNL     1      -9.806   9.667  70.598  1.00  0.00    -0.268 C  
ENDBRANCH   6   9
TORSDOF 1
ENDMDL
MODEL       65
REMARK 921   NORMALIZED FREE ENERGY PREDICTED BY IDOCK:   -3.87 KCAL/MOL
REMARK 922        TOTAL FREE ENERGY PREDICTED BY IDOCK:   -4.49 KCAL/MOL
REMARK 923 INTER-LIGAND FREE ENERGY PREDICTED BY IDOCK:   -4.26 KCAL/MOL
REMARK 924 INTRA-LIGAND FREE ENERGY PREDICTED BY IDOCK:   -0.23 KCAL/MOL
REMARK 927      BINDING AFFINITY PREDICTED BY RF-SCORE:    0.00 PKD
ROOT
HETATM    1  C   UNL     1      -8.330   7.192  65.294  1.00  0.00    -0.096 C  
HETATM    2  N   UNL     1      -8.660   5.979  66.158  1.00  0.00    -0.137 N  
HETATM    3  C   UNL     1      -8.561   4.722  65.297  1.00  0.00    -0.137 C  
HETATM    4  C   UNL     1      -7.615   5.904  67.313  1.00  0.00    -0.096 C  
HETATM    5  C   UNL     1      -8.097   5.031  68.491  1.00  0.00    -0.085 C  
HETATM    6  N   UNL     1      -9.416   5.418  69.018  1.00  0.00    -0.126 NA 
HETATM    7  C   UNL     1     -10.405   5.280  67.932  1.00  0.00    -0.125 C  
HETATM    8  C   UNL     1     -10.110   6.143  66.685  1.00  0.00    -0.162 C  
ENDROOT
BRANCH   6   9
HETATM    9  C   UNL     1      -9.463   6.792  69.603  1.00  0.00    -0.146 C  
HETATM   10  C   UNL     1      -8.845   7.096  71.015  1.00  0.00    -0.145 C  
HETATM   11  C   UNL     1      -9.306   6.111  72.099  1.00  0.00    -0.155 A  
HETATM   12  C   UNL     1      -9.020   8.613  71.456  1.00  0.00    -0.302 C  
HETATM   13  O   UNL     1      -7.416   6.866  70.852  1.00  0.00    -0.080 OA 
HETATM   14  C   UNL     1      -8.472   5.803  73.190  1.00  0.00    -0.117 A  
HETATM   15  C   UNL     1      -8.505   9.686  70.458  1.00  0.00    -0.128 C  
HETATM   16  H   UNL     1      -7.043   7.049  71.706  1.00  0.00     0.000 HD 
HETATM   17  C   UNL     1      -9.481  10.101  69.353  1.00  0.00    -0.240 C  
HETATM   18  C   UNL     1      -8.823   4.819  74.123  1.00  0.00    -0.113 A  
HETATM   19  C   UNL     1     -10.884  10.402  69.858  1.00  0.00    -0.353 C  
HETATM   20  C   UNL     1     -10.023   4.129  73.990  1.00  0.00    -0.182 A  
HETATM   21  C   UNL     1     -11.418   9.374  70.847  1.00  0.00    -0.382 C  
HETATM   22  C   UNL     1     -10.894   4.459  72.958  1.00  0.00    -0.293 A  
HETATM   23  C   UNL     1     -10.546   5.449  72.032  1.00  0.00    -0.284 A  
HETATM   24  C   UNL     1     -10.418   9.041  71.948  1.00  0.00    -0.373 C  
ENDBRANCH   6   9
TORSDOF 1
ENDMDL
MODEL       66
REMARK 921   NORMALIZED FREE ENERGY PREDICTED BY IDOCK:   -3.77 KCAL/MOL
REMARK 922        TOTAL FREE ENERGY PREDICTED BY IDOCK:   -4.39 KCAL/MOL
REMARK 923 INTER-LIGAND FREE ENERGY PREDICTED BY IDOCK:   -4.04 KCAL/MOL
REMARK 924 INTRA-LIGAND FREE ENERGY PREDICTED BY IDOCK:   -0.34 KCAL/MOL
REMARK 927      BINDING AFFINITY PREDICTED BY RF-SCORE:    0.00 PKD
ROOT
HETATM    1  C   UNL     1      -9.301  16.319  68.964  1.00  0.00    -0.254 C  
HETATM    2  N   UNL     1     -10.087  15.334  68.105  1.00  0.00    -0.227 N  
HETATM    3  C   UNL     1     -11.439  15.953  67.761  1.00  0.00    -0.128 C  
HETATM    4  C   UNL     1      -9.281  15.078  66.795  1.00  0.00    -0.257 C  
HETATM    5  C   UNL     1      -9.717  13.785  66.075  1.00  0.00    -0.237 C  
HETATM    6  N   UNL     1      -9.691  12.589  66.932  1.00  0.00    -0.226 NA 
HETATM    7  C   UNL     1     -10.624  12.806  68.055  1.00  0.00    -0.226 C  
HETATM    8  C   UNL     1     -10.297  14.037  68.930  1.00  0.00    -0.176 C  
ENDROOT
BRANCH   6   9
HETATM    9  C   UNL     1      -8.332  12.227  67.439  1.00  0.00    -0.177 C  
HETATM   10  C   UNL     1      -7.596  10.933  66.938  1.00  0.00    -0.128 C  
HETATM   11  C   UNL     1      -8.473   9.675  67.012  1.00  0.00    -0.124 A  
HETATM   12  C   UNL     1      -6.174  10.725  67.616  1.00  0.00    -0.052 C  
HETATM   13  O   UNL     1      -7.358  11.167  65.520  1.00  0.00    -0.361 OA 
HETATM   14  C   UNL     1      -8.287   8.616  66.103  1.00  0.00    -0.127 A  
HETATM   15  C   UNL     1      -5.183  11.918  67.520  1.00  0.00    -0.082 C  
HETATM   16  H   UNL     1      -6.913  10.384  65.217  1.00  0.00     0.000 HD 
HETATM   17  C   UNL     1      -5.319  12.996  68.598  1.00  0.00    -0.066 C  
HETATM   18  C   UNL     1      -9.152   7.514  66.078  1.00  0.00    -0.139 A  
HETATM   19  C   UNL     1      -5.423  12.439  70.010  1.00  0.00    -0.112 C  
HETATM   20  C   UNL     1     -10.217   7.444  66.969  1.00  0.00    -0.357 A  
HETATM   21  C   UNL     1      -6.381  11.261  70.140  1.00  0.00    -0.120 C  
HETATM   22  C   UNL     1     -10.384   8.445  67.919  1.00  0.00    -0.279 A  
HETATM   23  C   UNL     1      -9.514   9.540  67.950  1.00  0.00    -0.149 A  
HETATM   24  C   UNL     1      -6.161  10.201  69.067  1.00  0.00    -0.040 C  
ENDBRANCH   6   9
TORSDOF 1
ENDMDL
MODEL       67
REMARK 921   NORMALIZED FREE ENERGY PREDICTED BY IDOCK:   -3.77 KCAL/MOL
REMARK 922        TOTAL FREE ENERGY PREDICTED BY IDOCK:   -4.39 KCAL/MOL
REMARK 923 INTER-LIGAND FREE ENERGY PREDICTED BY IDOCK:   -4.22 KCAL/MOL
REMARK 924 INTRA-LIGAND FREE ENERGY PREDICTED BY IDOCK:   -0.17 KCAL/MOL
REMARK 927      BINDING AFFINITY PREDICTED BY RF-SCORE:    0.00 PKD
ROOT
HETATM    1  C   UNL     1     -10.737  10.527  66.614  1.00  0.00    -0.155 C  
HETATM    2  N   UNL     1      -9.673   9.437  66.698  1.00  0.00    -0.201 N  
HETATM    3  C   UNL     1      -8.920   9.385  65.372  1.00  0.00    -0.206 C  
HETATM    4  C   UNL     1      -8.685   9.808  67.846  1.00  0.00    -0.125 C  
HETATM    5  C   UNL     1      -7.864   8.596  68.334  1.00  0.00    -0.105 C  
HETATM    6  N   UNL     1      -8.685   7.437  68.721  1.00  0.00    -0.129 NA 
HETATM    7  C   UNL     1      -9.454   7.003  67.539  1.00  0.00    -0.126 C  
HETATM    8  C   UNL     1     -10.389   8.084  66.951  1.00  0.00    -0.338 C  
ENDROOT
BRANCH   6   9
HETATM    9  C   UNL     1      -9.595   7.690  69.879  1.00  0.00    -0.160 C  
HETATM   10  C   UNL     1      -9.028   7.883  71.331  1.00  0.00    -0.136 C  
HETATM   11  C   UNL     1      -8.042   6.782  71.744  1.00  0.00    -0.102 A  
HETATM   12  C   UNL     1     -10.166   8.119  72.416  1.00  0.00    -0.368 C  
HETATM   13  O   UNL     1      -8.246   9.110  71.264  1.00  0.00    -0.290 OA 
HETATM   14  C   UNL     1      -7.001   7.054  72.653  1.00  0.00    -0.069 A  
HETATM   15  C   UNL     1     -11.167   9.272  72.126  1.00  0.00    -0.043 C  
HETATM   16  H   UNL     1      -7.903   9.227  72.142  1.00  0.00     0.000 HD 
HETATM   17  C   UNL     1     -12.362   8.918  71.238  1.00  0.00    -0.342 C  
HETATM   18  C   UNL     1      -6.021   6.098  72.950  1.00  0.00    -0.042 A  
HETATM   19  C   UNL     1     -13.061   7.627  71.640  1.00  0.00    -0.392 C  
HETATM   20  C   UNL     1      -6.067   4.844  72.350  1.00  0.00    -0.025 A  
HETATM   21  C   UNL     1     -12.109   6.477  71.940  1.00  0.00    -0.388 C  
HETATM   22  C   UNL     1      -7.119   4.528  71.498  1.00  0.00    -0.050 A  
HETATM   23  C   UNL     1      -8.103   5.481  71.210  1.00  0.00    -0.113 A  
HETATM   24  C   UNL     1     -10.969   6.883  72.867  1.00  0.00    -0.315 C  
ENDBRANCH   6   9
TORSDOF 1
ENDMDL
MODEL       68
REMARK 921   NORMALIZED FREE ENERGY PREDICTED BY IDOCK:   -3.76 KCAL/MOL
REMARK 922        TOTAL FREE ENERGY PREDICTED BY IDOCK:   -4.37 KCAL/MOL
REMARK 923 INTER-LIGAND FREE ENERGY PREDICTED BY IDOCK:   -4.12 KCAL/MOL
REMARK 924 INTRA-LIGAND FREE ENERGY PREDICTED BY IDOCK:   -0.25 KCAL/MOL
REMARK 927      BINDING AFFINITY PREDICTED BY RF-SCORE:    0.00 PKD
ROOT
HETATM    1  C   UNL     1      -7.820   6.080  70.908  1.00  0.00    -0.107 C  
HETATM    2  N   UNL     1      -9.080   6.934  70.804  1.00  0.00    -0.154 N  
HETATM    3  C   UNL     1     -10.081   6.462  71.855  1.00  0.00    -0.183 C  
HETATM    4  C   UNL     1      -8.688   8.417  71.085  1.00  0.00    -0.159 C  
HETATM    5  C   UNL     1      -9.742   9.416  70.564  1.00  0.00    -0.271 C  
HETATM    6  N   UNL     1     -10.080   9.238  69.142  1.00  0.00    -0.192 NA 
HETATM    7  C   UNL     1     -10.633   7.880  68.968  1.00  0.00    -0.162 C  
HETATM    8  C   UNL     1      -9.676   6.741  69.384  1.00  0.00    -0.152 C  
ENDROOT
BRANCH   6   9
HETATM    9  C   UNL     1      -8.937   9.466  68.207  1.00  0.00    -0.128 C  
HETATM   10  C   UNL     1      -8.477  10.919  67.827  1.00  0.00    -0.124 C  
HETATM   11  C   UNL     1      -9.635  11.820  67.378  1.00  0.00    -0.173 A  
HETATM   12  C   UNL     1      -7.259  10.937  66.805  1.00  0.00    -0.134 C  
HETATM   13  O   UNL     1      -7.989  11.491  69.075  1.00  0.00    -0.304 OA 
HETATM   14  C   UNL     1      -9.586  13.211  67.591  1.00  0.00    -0.210 A  
HETATM   15  C   UNL     1      -6.004  10.118  67.213  1.00  0.00    -0.054 C  
HETATM   16  H   UNL     1      -7.710  12.370  68.845  1.00  0.00     0.000 HD 
HETATM   17  C   UNL     1      -6.025   8.630  66.854  1.00  0.00    -0.057 C  
HETATM   18  C   UNL     1     -10.681  14.034  67.298  1.00  0.00    -0.278 A  
HETATM   19  C   UNL     1      -6.462   8.351  65.424  1.00  0.00    -0.055 C  
HETATM   20  C   UNL     1     -11.847  13.484  66.777  1.00  0.00    -0.450 A  
HETATM   21  C   UNL     1      -7.687   9.145  64.987  1.00  0.00    -0.109 C  
HETATM   22  C   UNL     1     -11.898  12.123  66.497  1.00  0.00    -0.322 A  
HETATM   23  C   UNL     1     -10.800  11.304  66.781  1.00  0.00    -0.334 A  
HETATM   24  C   UNL     1      -7.581  10.626  65.329  1.00  0.00    -0.006 C  
ENDBRANCH   6   9
TORSDOF 1
ENDMDL
MODEL       69
REMARK 921   NORMALIZED FREE ENERGY PREDICTED BY IDOCK:   -3.71 KCAL/MOL
REMARK 922        TOTAL FREE ENERGY PREDICTED BY IDOCK:   -4.32 KCAL/MOL
REMARK 923 INTER-LIGAND FREE ENERGY PREDICTED BY IDOCK:   -3.92 KCAL/MOL
REMARK 924 INTRA-LIGAND FREE ENERGY PREDICTED BY IDOCK:   -0.40 KCAL/MOL
REMARK 927      BINDING AFFINITY PREDICTED BY RF-SCORE:    0.00 PKD
ROOT
HETATM    1  C   UNL     1      -7.493  10.629  69.061  1.00  0.00    -0.117 C  
HETATM    2  N   UNL     1      -6.945   9.216  68.886  1.00  0.00    -0.063 N  
HETATM    3  C   UNL     1      -5.789   9.258  67.891  1.00  0.00    -0.041 C  
HETATM    4  C   UNL     1      -6.426   8.719  70.270  1.00  0.00    -0.039 C  
HETATM    5  C   UNL     1      -6.285   7.184  70.333  1.00  0.00    -0.034 C  
HETATM    6  N   UNL     1      -7.509   6.458  69.956  1.00  0.00    -0.089 NA 
HETATM    7  C   UNL     1      -7.846   6.815  68.564  1.00  0.00    -0.118 C  
HETATM    8  C   UNL     1      -8.086   8.323  68.330  1.00  0.00    -0.127 C  
ENDROOT
BRANCH   6   9
HETATM    9  C   UNL     1      -8.672   6.707  70.860  1.00  0.00    -0.138 C  
HETATM   10  C   UNL     1      -9.075   5.671  71.970  1.00  0.00    -0.137 C  
HETATM   11  C   UNL     1      -9.195   4.235  71.439  1.00  0.00    -0.194 A  
HETATM   12  C   UNL     1     -10.350   6.119  72.806  1.00  0.00    -0.220 C  
HETATM   13  O   UNL     1      -7.947   5.659  72.893  1.00  0.00    -0.100 OA 
HETATM   14  C   UNL     1      -8.928   3.136  72.277  1.00  0.00    -0.131 A  
HETATM   15  C   UNL     1     -10.289   7.530  73.455  1.00  0.00    -0.405 C  
HETATM   16  H   UNL     1      -8.191   5.033  73.564  1.00  0.00     0.000 HD 
HETATM   17  C   UNL     1     -10.708   8.700  72.561  1.00  0.00    -0.214 C  
HETATM   18  C   UNL     1      -8.915   1.825  71.782  1.00  0.00    -0.119 A  
HETATM   19  C   UNL     1     -12.009   8.461  71.811  1.00  0.00    -0.380 C  
HETATM   20  C   UNL     1      -9.177   1.586  70.437  1.00  0.00    -0.154 A  
HETATM   21  C   UNL     1     -12.108   7.084  71.168  1.00  0.00    -0.412 C  
HETATM   22  C   UNL     1      -9.507   2.648  69.603  1.00  0.00    -0.138 A  
HETATM   23  C   UNL     1      -9.529   3.955  70.101  1.00  0.00    -0.261 A  
HETATM   24  C   UNL     1     -11.725   5.960  72.124  1.00  0.00    -0.287 C  
ENDBRANCH   6   9
TORSDOF 1
ENDMDL
MODEL       70
REMARK 921   NORMALIZED FREE ENERGY PREDICTED BY IDOCK:   -3.61 KCAL/MOL
REMARK 922        TOTAL FREE ENERGY PREDICTED BY IDOCK:   -4.21 KCAL/MOL
REMARK 923 INTER-LIGAND FREE ENERGY PREDICTED BY IDOCK:   -4.04 KCAL/MOL
REMARK 924 INTRA-LIGAND FREE ENERGY PREDICTED BY IDOCK:   -0.17 KCAL/MOL
REMARK 927      BINDING AFFINITY PREDICTED BY RF-SCORE:    0.00 PKD
ROOT
HETATM    1  C   UNL     1      -8.873  10.617  63.993  1.00  0.00    -0.164 C  
HETATM    2  N   UNL     1      -9.431  11.153  65.308  1.00  0.00    -0.221 N  
HETATM    3  C   UNL     1      -9.864  12.602  65.103  1.00  0.00    -0.092 C  
HETATM    4  C   UNL     1     -10.667  10.289  65.702  1.00  0.00     0.152 C  
HETATM    5  C   UNL     1     -11.028  10.417  67.197  1.00  0.00    -0.196 C  
HETATM    6  N   UNL     1      -9.902  10.143  68.106  1.00  0.00    -0.143 NA 
HETATM    7  C   UNL     1      -8.833  11.121  67.823  1.00  0.00    -0.135 C  
HETATM    8  C   UNL     1      -8.303  11.086  66.372  1.00  0.00    -0.165 C  
ENDROOT
BRANCH   6   9
HETATM    9  C   UNL     1      -9.376   8.748  68.026  1.00  0.00    -0.142 C  
HETATM   10  C   UNL     1     -10.209   7.533  68.571  1.00  0.00    -0.197 C  
HETATM   11  C   UNL     1     -10.735   7.753  69.996  1.00  0.00    -0.245 A  
HETATM   12  C   UNL     1      -9.458   6.141  68.407  1.00  0.00    -0.119 C  
HETATM   13  O   UNL     1     -11.388   7.479  67.717  1.00  0.00    -0.351 OA 
HETATM   14  C   UNL     1     -11.935   7.151  70.419  1.00  0.00    -0.190 A  
HETATM   15  C   UNL     1      -8.960   5.790  66.978  1.00  0.00    -0.114 C  
HETATM   16  H   UNL     1     -11.892   6.745  68.046  1.00  0.00     0.000 HD 
HETATM   17  C   UNL     1      -7.591   6.350  66.585  1.00  0.00    -0.094 C  
HETATM   18  C   UNL     1     -12.493   7.434  71.673  1.00  0.00    -0.381 A  
HETATM   19  C   UNL     1      -6.518   6.139  67.643  1.00  0.00    -0.046 C  
HETATM   20  C   UNL     1     -11.856   8.321  72.534  1.00  0.00    -0.439 A  
HETATM   21  C   UNL     1      -6.974   6.466  69.059  1.00  0.00    -0.072 C  
HETATM   22  C   UNL     1     -10.637   8.879  72.167  1.00  0.00    -0.323 A  
HETATM   23  C   UNL     1     -10.076   8.587  70.918  1.00  0.00    -0.246 A  
HETATM   24  C   UNL     1      -8.320   5.839  69.404  1.00  0.00    -0.112 C  
ENDBRANCH   6   9
TORSDOF 1
ENDMDL
MODEL       71
REMARK 921   NORMALIZED FREE ENERGY PREDICTED BY IDOCK:   -3.60 KCAL/MOL
REMARK 922        TOTAL FREE ENERGY PREDICTED BY IDOCK:   -4.20 KCAL/MOL
REMARK 923 INTER-LIGAND FREE ENERGY PREDICTED BY IDOCK:   -4.17 KCAL/MOL
REMARK 924 INTRA-LIGAND FREE ENERGY PREDICTED BY IDOCK:   -0.03 KCAL/MOL
REMARK 927      BINDING AFFINITY PREDICTED BY RF-SCORE:    0.00 PKD
ROOT
HETATM    1  C   UNL     1      -7.529   8.025  69.879  1.00  0.00    -0.078 C  
HETATM    2  N   UNL     1      -8.893   8.674  69.661  1.00  0.00    -0.135 N  
HETATM    3  C   UNL     1      -9.688   8.592  70.961  1.00  0.00    -0.210 C  
HETATM    4  C   UNL     1      -8.667  10.169  69.280  1.00  0.00    -0.179 C  
HETATM    5  C   UNL     1      -9.898  10.797  68.594  1.00  0.00    -0.184 C  
HETATM    6  N   UNL     1     -10.381  10.040  67.428  1.00  0.00    -0.222 NA 
HETATM    7  C   UNL     1     -10.769   8.691  67.883  1.00  0.00    -0.093 C  
HETATM    8  C   UNL     1      -9.628   7.886  68.544  1.00  0.00    -0.150 C  
ENDROOT
BRANCH   6   9
HETATM    9  C   UNL     1      -9.401   9.955  66.303  1.00  0.00    -0.176 C  
HETATM   10  C   UNL     1      -8.924  11.244  65.542  1.00  0.00    -0.129 C  
HETATM   11  C   UNL     1     -10.085  12.137  65.084  1.00  0.00    -0.288 A  
HETATM   12  C   UNL     1      -7.898  10.929  64.370  1.00  0.00     0.378 C  
HETATM   13  O   UNL     1      -8.200  12.017  66.542  1.00  0.00    -0.356 OA 
HETATM   14  C   UNL     1      -9.917  13.530  64.970  1.00  0.00    -0.193 A  
HETATM   15  C   UNL     1      -6.644  10.097  64.755  1.00  0.00    -0.124 C  
HETATM   16  H   UNL     1      -7.911  12.797  66.082  1.00  0.00     0.000 HD 
HETATM   17  C   UNL     1      -6.815   8.576  64.746  1.00  0.00    -0.072 C  
HETATM   18  C   UNL     1     -10.994  14.375  64.670  1.00  0.00    -0.367 A  
HETATM   19  C   UNL     1      -7.503   8.046  63.497  1.00  0.00    -0.122 C  
HETATM   20  C   UNL     1     -12.262  13.841  64.468  1.00  0.00    -0.441 A  
HETATM   21  C   UNL     1      -8.734   8.843  63.085  1.00  0.00    -0.059 C  
HETATM   22  C   UNL     1     -12.442  12.464  64.511  1.00  0.00    -0.519 A  
HETATM   23  C   UNL     1     -11.364  11.621  64.801  1.00  0.00    -0.270 A  
HETATM   24  C   UNL     1      -8.483  10.346  63.067  1.00  0.00    -0.180 C  
ENDBRANCH   6   9
TORSDOF 1
ENDMDL
MODEL       72
REMARK 921   NORMALIZED FREE ENERGY PREDICTED BY IDOCK:   -3.58 KCAL/MOL
REMARK 922        TOTAL FREE ENERGY PREDICTED BY IDOCK:   -4.18 KCAL/MOL
REMARK 923 INTER-LIGAND FREE ENERGY PREDICTED BY IDOCK:   -4.18 KCAL/MOL
REMARK 924 INTRA-LIGAND FREE ENERGY PREDICTED BY IDOCK:   -0.00 KCAL/MOL
REMARK 927      BINDING AFFINITY PREDICTED BY RF-SCORE:    0.00 PKD
ROOT
HETATM    1  C   UNL     1     -12.062  13.797  72.144  1.00  0.00     0.553 C  
HETATM    2  N   UNL     1     -11.793  14.662  70.916  1.00  0.00    -0.311 N  
HETATM    3  C   UNL     1     -12.395  16.045  71.149  1.00  0.00    -0.271 C  
HETATM    4  C   UNL     1     -10.250  14.787  70.735  1.00  0.00     0.881 C  
HETATM    5  C   UNL     1      -9.854  15.225  69.310  1.00  0.00    -0.255 C  
HETATM    6  N   UNL     1     -10.426  14.381  68.248  1.00  0.00    -0.239 NA 
HETATM    7  C   UNL     1     -11.897  14.457  68.342  1.00  0.00    -0.319 C  
HETATM    8  C   UNL     1     -12.477  13.989  69.695  1.00  0.00    -0.157 C  
ENDROOT
BRANCH   6   9
HETATM    9  C   UNL     1      -9.968  12.960  68.281  1.00  0.00    -0.234 C  
HETATM   10  C   UNL     1      -9.411  12.255  66.992  1.00  0.00    -0.205 C  
HETATM   11  C   UNL     1     -10.326  12.423  65.771  1.00  0.00    -0.289 A  
HETATM   12  C   UNL     1      -8.998  10.741  67.241  1.00  0.00    -0.143 C  
HETATM   13  O   UNL     1      -8.188  12.979  66.673  1.00  0.00    -0.409 OA 
HETATM   14  C   UNL     1      -9.789  12.442  64.469  1.00  0.00    -0.104 A  
HETATM   15  C   UNL     1      -8.006  10.478  68.408  1.00  0.00    -0.116 C  
HETATM   16  H   UNL     1      -7.850  12.553  65.894  1.00  0.00     0.000 HD 
HETATM   17  C   UNL     1      -8.627  10.331  69.799  1.00  0.00    -0.078 C  
HETATM   18  C   UNL     1     -10.590  12.713  63.352  1.00  0.00    -0.169 A  
HETATM   19  C   UNL     1      -9.829   9.399  69.837  1.00  0.00    -0.235 C  
HETATM   20  C   UNL     1     -11.948  12.962  63.513  1.00  0.00    -0.629 A  
HETATM   21  C   UNL     1     -10.820   9.623  68.702  1.00  0.00    -0.203 C  
HETATM   22  C   UNL     1     -12.515  12.884  64.780  1.00  0.00    -0.517 A  
HETATM   23  C   UNL     1     -11.716  12.604  65.894  1.00  0.00    -0.470 A  
HETATM   24  C   UNL     1     -10.143   9.711  67.339  1.00  0.00    -0.257 C  
ENDBRANCH   6   9
TORSDOF 1
ENDMDL
MODEL       73
REMARK 921   NORMALIZED FREE ENERGY PREDICTED BY IDOCK:   -3.57 KCAL/MOL
REMARK 922        TOTAL FREE ENERGY PREDICTED BY IDOCK:   -4.17 KCAL/MOL
REMARK 923 INTER-LIGAND FREE ENERGY PREDICTED BY IDOCK:   -3.78 KCAL/MOL
REMARK 924 INTRA-LIGAND FREE ENERGY PREDICTED BY IDOCK:   -0.39 KCAL/MOL
REMARK 927      BINDING AFFINITY PREDICTED BY RF-SCORE:    0.00 PKD
ROOT
HETATM    1  C   UNL     1     -11.227   5.367  72.721  1.00  0.00    -0.300 C  
HETATM    2  N   UNL     1     -10.205   6.483  72.924  1.00  0.00    -0.184 N  
HETATM    3  C   UNL     1     -10.128   6.812  74.412  1.00  0.00    -0.250 C  
HETATM    4  C   UNL     1      -8.819   5.970  72.429  1.00  0.00    -0.133 C  
HETATM    5  C   UNL     1      -7.829   7.120  72.147  1.00  0.00    -0.091 C  
HETATM    6  N   UNL     1      -8.353   8.144  71.228  1.00  0.00    -0.112 NA 
HETATM    7  C   UNL     1      -9.559   8.738  71.839  1.00  0.00    -0.302 C  
HETATM    8  C   UNL     1     -10.690   7.728  72.133  1.00  0.00    -0.248 C  
ENDROOT
BRANCH   6   9
HETATM    9  C   UNL     1      -8.652   7.640  69.854  1.00  0.00    -0.138 C  
HETATM   10  C   UNL     1      -7.628   7.829  68.678  1.00  0.00    -0.105 C  
HETATM   11  C   UNL     1      -7.122   9.272  68.545  1.00  0.00    -0.071 A  
HETATM   12  C   UNL     1      -8.150   7.237  67.298  1.00  0.00    -0.112 C  
HETATM   13  O   UNL     1      -6.468   7.037  69.065  1.00  0.00    -0.034 OA 
HETATM   14  C   UNL     1      -5.836   9.538  68.041  1.00  0.00    -0.041 A  
HETATM   15  C   UNL     1      -8.608   5.752  67.312  1.00  0.00    -0.109 C  
HETATM   16  H   UNL     1      -5.849   7.151  68.354  1.00  0.00     0.000 HD 
HETATM   17  C   UNL     1     -10.055   5.498  67.742  1.00  0.00    -0.214 C  
HETATM   18  C   UNL     1      -5.311  10.837  68.024  1.00  0.00    -0.036 A  
HETATM   19  C   UNL     1     -11.064   6.411  67.062  1.00  0.00    -0.405 C  
HETATM   20  C   UNL     1      -6.068  11.900  68.504  1.00  0.00    -0.050 A  
HETATM   21  C   UNL     1     -10.644   7.874  67.023  1.00  0.00    -0.381 C  
HETATM   22  C   UNL     1      -7.365  11.674  68.948  1.00  0.00    -0.107 A  
HETATM   23  C   UNL     1      -7.892  10.377  68.955  1.00  0.00    -0.120 A  
HETATM   24  C   UNL     1      -9.211   8.063  66.540  1.00  0.00    -0.236 C  
ENDBRANCH   6   9
TORSDOF 1
ENDMDL
MODEL       74
REMARK 921   NORMALIZED FREE ENERGY PREDICTED BY IDOCK:   -3.56 KCAL/MOL
REMARK 922        TOTAL FREE ENERGY PREDICTED BY IDOCK:   -4.16 KCAL/MOL
REMARK 923 INTER-LIGAND FREE ENERGY PREDICTED BY IDOCK:   -3.76 KCAL/MOL
REMARK 924 INTRA-LIGAND FREE ENERGY PREDICTED BY IDOCK:   -0.39 KCAL/MOL
REMARK 927      BINDING AFFINITY PREDICTED BY RF-SCORE:    0.00 PKD
ROOT
HETATM    1  C   UNL     1      -8.075   4.598  63.009  1.00  0.00    -0.086 C  
HETATM    2  N   UNL     1      -8.496   4.034  64.363  1.00  0.00    -0.102 N  
HETATM    3  C   UNL     1      -8.689   2.526  64.228  1.00  0.00    -0.097 C  
HETATM    4  C   UNL     1      -7.359   4.326  65.389  1.00  0.00    -0.073 C  
HETATM    5  C   UNL     1      -7.842   4.233  66.851  1.00  0.00    -0.097 C  
HETATM    6  N   UNL     1      -9.020   5.067  67.143  1.00  0.00    -0.112 NA 
HETATM    7  C   UNL     1     -10.129   4.615  66.281  1.00  0.00    -0.265 C  
HETATM    8  C   UNL     1      -9.838   4.702  64.766  1.00  0.00     0.037 C  
ENDROOT
BRANCH   6   9
HETATM    9  C   UNL     1      -8.788   6.534  66.979  1.00  0.00    -0.116 C  
HETATM   10  C   UNL     1      -8.480   7.451  68.216  1.00  0.00    -0.125 C  
HETATM   11  C   UNL     1      -9.476   7.262  69.369  1.00  0.00    -0.154 A  
HETATM   12  C   UNL     1      -8.286   8.979  67.824  1.00  0.00    -0.109 C  
HETATM   13  O   UNL     1      -7.198   6.978  68.719  1.00  0.00    -0.085 OA 
HETATM   14  C   UNL     1      -9.077   7.467  70.703  1.00  0.00    -0.155 A  
HETATM   15  C   UNL     1      -7.234   9.280  66.720  1.00  0.00    -0.083 C  
HETATM   16  H   UNL     1      -7.011   7.532  69.468  1.00  0.00     0.000 HD 
HETATM   17  C   UNL     1      -7.727   9.176  65.274  1.00  0.00    -0.099 C  
HETATM   18  C   UNL     1      -9.935   7.185  71.774  1.00  0.00    -0.186 A  
HETATM   19  C   UNL     1      -9.049   9.886  65.027  1.00  0.00    -0.264 C  
HETATM   20  C   UNL     1     -11.215   6.699  71.532  1.00  0.00    -0.313 A  
HETATM   21  C   UNL     1     -10.102   9.620  66.095  1.00  0.00    -0.328 C  
HETATM   22  C   UNL     1     -11.656   6.548  70.223  1.00  0.00    -0.473 A  
HETATM   23  C   UNL     1     -10.802   6.840  69.153  1.00  0.00    -0.298 A  
HETATM   24  C   UNL     1      -9.561   9.788  67.510  1.00  0.00    -0.178 C  
ENDBRANCH   6   9
TORSDOF 1
ENDMDL
MODEL       75
REMARK 921   NORMALIZED FREE ENERGY PREDICTED BY IDOCK:   -3.55 KCAL/MOL
REMARK 922        TOTAL FREE ENERGY PREDICTED BY IDOCK:   -4.16 KCAL/MOL
REMARK 923 INTER-LIGAND FREE ENERGY PREDICTED BY IDOCK:   -3.83 KCAL/MOL
REMARK 924 INTRA-LIGAND FREE ENERGY PREDICTED BY IDOCK:   -0.33 KCAL/MOL
REMARK 927      BINDING AFFINITY PREDICTED BY RF-SCORE:    0.00 PKD
ROOT
HETATM    1  C   UNL     1     -13.219  15.438  70.257  1.00  0.00     0.032 C  
HETATM    2  N   UNL     1     -12.017  14.534  70.515  1.00  0.00    -0.298 N  
HETATM    3  C   UNL     1     -11.673  14.588  72.001  1.00  0.00     0.108 C  
HETATM    4  C   UNL     1     -12.409  13.077  70.122  1.00  0.00    -0.200 C  
HETATM    5  C   UNL     1     -11.178  12.175  69.893  1.00  0.00     0.097 C  
HETATM    6  N   UNL     1     -10.210  12.722  68.929  1.00  0.00    -0.063 NA 
HETATM    7  C   UNL     1      -9.721  14.013  69.449  1.00  0.00     0.446 C  
HETATM    8  C   UNL     1     -10.825  15.070  69.679  1.00  0.00    -0.271 C  
ENDROOT
BRANCH   6   9
HETATM    9  C   UNL     1     -10.747  12.880  67.544  1.00  0.00    -0.226 C  
HETATM   10  C   UNL     1     -10.704  11.695  66.514  1.00  0.00    -0.272 C  
HETATM   11  C   UNL     1      -9.319  11.042  66.406  1.00  0.00    -0.204 A  
HETATM   12  C   UNL     1     -11.308  12.081  65.096  1.00  0.00    -0.359 C  
HETATM   13  O   UNL     1     -11.578  10.678  67.083  1.00  0.00    -0.321 OA 
HETATM   14  C   UNL     1      -9.191   9.680  66.074  1.00  0.00    -0.232 A  
HETATM   15  C   UNL     1     -12.744  12.675  65.095  1.00  0.00    -0.329 C  
HETATM   16  H   UNL     1     -11.552   9.961  66.460  1.00  0.00     0.000 HD 
HETATM   17  C   UNL     1     -12.848  14.184  65.330  1.00  0.00    -0.393 C  
HETATM   18  C   UNL     1      -7.946   9.037  66.087  1.00  0.00    -0.103 A  
HETATM   19  C   UNL     1     -11.880  15.002  64.489  1.00  0.00    -0.377 C  
HETATM   20  C   UNL     1      -6.800   9.748  66.424  1.00  0.00    -0.088 A  
HETATM   21  C   UNL     1     -10.463  14.444  64.459  1.00  0.00    -0.113 C  
HETATM   22  C   UNL     1      -6.889  11.108  66.693  1.00  0.00    -0.137 A  
HETATM   23  C   UNL     1      -8.132  11.751  66.670  1.00  0.00    -0.094 A  
HETATM   24  C   UNL     1     -10.426  12.948  64.173  1.00  0.00    -0.429 C  
ENDBRANCH   6   9
TORSDOF 1
ENDMDL
MODEL       76
REMARK 921   NORMALIZED FREE ENERGY PREDICTED BY IDOCK:   -3.55 KCAL/MOL
REMARK 922        TOTAL FREE ENERGY PREDICTED BY IDOCK:   -4.15 KCAL/MOL
REMARK 923 INTER-LIGAND FREE ENERGY PREDICTED BY IDOCK:   -3.86 KCAL/MOL
REMARK 924 INTRA-LIGAND FREE ENERGY PREDICTED BY IDOCK:   -0.29 KCAL/MOL
REMARK 927      BINDING AFFINITY PREDICTED BY RF-SCORE:    0.00 PKD
ROOT
HETATM    1  C   UNL     1     -10.695  15.225  66.888  1.00  0.00    -0.313 C  
HETATM    2  N   UNL     1     -11.066  13.788  66.533  1.00  0.00    -0.303 N  
HETATM    3  C   UNL     1     -12.480  13.775  65.959  1.00  0.00    -0.445 C  
HETATM    4  C   UNL     1     -10.060  13.275  65.458  1.00  0.00    -0.263 C  
HETATM    5  C   UNL     1     -10.031  11.736  65.360  1.00  0.00    -0.253 C  
HETATM    6  N   UNL     1      -9.791  11.063  66.647  1.00  0.00    -0.195 NA 
HETATM    7  C   UNL     1     -10.884  11.427  67.569  1.00  0.00    -0.244 C  
HETATM    8  C   UNL     1     -11.018  12.943  67.834  1.00  0.00    -0.241 C  
ENDROOT
BRANCH   6   9
HETATM    9  C   UNL     1      -8.462  11.366  67.259  1.00  0.00    -0.148 C  
HETATM   10  C   UNL     1      -7.166  10.600  66.809  1.00  0.00    -0.119 C  
HETATM   11  C   UNL     1      -7.340   9.074  66.804  1.00  0.00    -0.086 A  
HETATM   12  C   UNL     1      -5.866  11.061  67.598  1.00  0.00    -0.044 C  
HETATM   13  O   UNL     1      -6.974  10.982  65.417  1.00  0.00    -0.366 OA 
HETATM   14  C   UNL     1      -6.612   8.272  65.904  1.00  0.00    -0.053 A  
HETATM   15  C   UNL     1      -5.559  12.584  67.591  1.00  0.00    -0.128 C  
HETATM   16  H   UNL     1      -6.190  10.518  65.145  1.00  0.00     0.000 HD 
HETATM   17  C   UNL     1      -6.265  13.419  68.663  1.00  0.00    -0.088 C  
HETATM   18  C   UNL     1      -6.844   6.895  65.801  1.00  0.00    -0.052 A  
HETATM   19  C   UNL     1      -6.185  12.816  70.058  1.00  0.00    -0.060 C  
HETATM   20  C   UNL     1      -7.804   6.288  66.603  1.00  0.00    -0.104 A  
HETATM   21  C   UNL     1      -6.473  11.321  70.101  1.00  0.00    -0.071 C  
HETATM   22  C   UNL     1      -8.491   7.046  67.544  1.00  0.00    -0.122 A  
HETATM   23  C   UNL     1      -8.252   8.420  67.653  1.00  0.00    -0.126 A  
HETATM   24  C   UNL     1      -5.703  10.541  69.042  1.00  0.00    -0.040 C  
ENDBRANCH   6   9
TORSDOF 1
ENDMDL
MODEL       77
REMARK 921   NORMALIZED FREE ENERGY PREDICTED BY IDOCK:   -3.55 KCAL/MOL
REMARK 922        TOTAL FREE ENERGY PREDICTED BY IDOCK:   -4.15 KCAL/MOL
REMARK 923 INTER-LIGAND FREE ENERGY PREDICTED BY IDOCK:   -3.85 KCAL/MOL
REMARK 924 INTRA-LIGAND FREE ENERGY PREDICTED BY IDOCK:   -0.30 KCAL/MOL
REMARK 927      BINDING AFFINITY PREDICTED BY RF-SCORE:    0.00 PKD
ROOT
HETATM    1  C   UNL     1     -11.582   5.731  72.647  1.00  0.00    -0.253 C  
HETATM    2  N   UNL     1     -11.882   6.911  71.727  1.00  0.00    -0.299 N  
HETATM    3  C   UNL     1     -13.395   7.103  71.655  1.00  0.00    -0.331 C  
HETATM    4  C   UNL     1     -11.222   8.185  72.337  1.00  0.00    -0.386 C  
HETATM    5  C   UNL     1     -11.052   9.316  71.301  1.00  0.00    -0.357 C  
HETATM    6  N   UNL     1     -10.338   8.904  70.081  1.00  0.00    -0.199 NA 
HETATM    7  C   UNL     1     -11.113   7.826  69.436  1.00  0.00     0.055 C  
HETATM    8  C   UNL     1     -11.326   6.576  70.318  1.00  0.00    -0.395 C  
ENDROOT
BRANCH   6   9
HETATM    9  C   UNL     1      -8.926   8.473  70.314  1.00  0.00    -0.149 C  
HETATM   10  C   UNL     1      -7.720   9.289  69.726  1.00  0.00    -0.096 C  
HETATM   11  C   UNL     1      -7.873   9.599  68.231  1.00  0.00    -0.085 A  
HETATM   12  C   UNL     1      -6.308   8.648  70.074  1.00  0.00    -0.034 C  
HETATM   13  O   UNL     1      -7.778  10.577  70.405  1.00  0.00    -0.425 OA 
HETATM   14  C   UNL     1      -7.303  10.760  67.676  1.00  0.00    -0.094 A  
HETATM   15  C   UNL     1      -6.025   8.373  71.577  1.00  0.00    -0.041 C  
HETATM   16  H   UNL     1      -7.048  11.071  70.050  1.00  0.00     0.000 HD 
HETATM   17  C   UNL     1      -6.544   7.042  72.127  1.00  0.00    -0.056 C  
HETATM   18  C   UNL     1      -7.532  11.122  66.342  1.00  0.00    -0.103 A  
HETATM   19  C   UNL     1      -6.215   5.846  71.246  1.00  0.00    -0.039 C  
HETATM   20  C   UNL     1      -8.331  10.323  65.531  1.00  0.00    -0.165 A  
HETATM   21  C   UNL     1      -6.472   6.083  69.763  1.00  0.00    -0.042 C  
HETATM   22  C   UNL     1      -8.852   9.138  66.036  1.00  0.00    -0.200 A  
HETATM   23  C   UNL     1      -8.615   8.772  67.365  1.00  0.00    -0.126 A  
HETATM   24  C   UNL     1      -5.889   7.401  69.267  1.00  0.00    -0.026 C  
ENDBRANCH   6   9
TORSDOF 1
ENDMDL
MODEL       78
REMARK 921   NORMALIZED FREE ENERGY PREDICTED BY IDOCK:   -3.53 KCAL/MOL
REMARK 922        TOTAL FREE ENERGY PREDICTED BY IDOCK:   -4.13 KCAL/MOL
REMARK 923 INTER-LIGAND FREE ENERGY PREDICTED BY IDOCK:   -4.05 KCAL/MOL
REMARK 924 INTRA-LIGAND FREE ENERGY PREDICTED BY IDOCK:   -0.08 KCAL/MOL
REMARK 927      BINDING AFFINITY PREDICTED BY RF-SCORE:    0.00 PKD
ROOT
HETATM    1  C   UNL     1      -6.195  11.319  70.277  1.00  0.00    -0.124 C  
HETATM    2  N   UNL     1      -6.600  10.738  68.925  1.00  0.00    -0.053 N  
HETATM    3  C   UNL     1      -5.835  11.472  67.828  1.00  0.00    -0.049 C  
HETATM    4  C   UNL     1      -6.217   9.227  68.909  1.00  0.00    -0.043 C  
HETATM    5  C   UNL     1      -6.973   8.436  67.822  1.00  0.00    -0.075 C  
HETATM    6  N   UNL     1      -8.436   8.592  67.882  1.00  0.00    -0.129 NA 
HETATM    7  C   UNL     1      -8.755  10.021  67.692  1.00  0.00    -0.121 C  
HETATM    8  C   UNL     1      -8.125  10.962  68.744  1.00  0.00    -0.145 C  
ENDROOT
BRANCH   6   9
HETATM    9  C   UNL     1      -9.057   8.075  69.138  1.00  0.00    -0.145 C  
HETATM   10  C   UNL     1      -9.022   6.545  69.492  1.00  0.00    -0.137 C  
HETATM   11  C   UNL     1      -9.489   5.649  68.337  1.00  0.00    -0.142 A  
HETATM   12  C   UNL     1      -9.755   6.207  70.861  1.00  0.00    -0.203 C  
HETATM   13  O   UNL     1      -7.610   6.241  69.683  1.00  0.00    -0.089 OA 
HETATM   14  C   UNL     1      -8.981   4.344  68.189  1.00  0.00    -0.146 A  
HETATM   15  C   UNL     1      -9.291   7.007  72.109  1.00  0.00    -0.146 C  
HETATM   16  H   UNL     1      -7.588   5.316  69.897  1.00  0.00     0.000 HD 
HETATM   17  C   UNL     1      -9.953   8.370  72.320  1.00  0.00    -0.383 C  
HETATM   18  C   UNL     1      -9.304   3.555  67.077  1.00  0.00    -0.221 A  
HETATM   19  C   UNL     1     -11.468   8.343  72.177  1.00  0.00    -0.442 C  
HETATM   20  C   UNL     1     -10.149   4.053  66.092  1.00  0.00    -0.065 A  
HETATM   21  C   UNL     1     -11.960   7.559  70.967  1.00  0.00    -0.317 C  
HETATM   22  C   UNL     1     -10.715   5.313  66.246  1.00  0.00    -0.260 A  
HETATM   23  C   UNL     1     -10.401   6.096  67.361  1.00  0.00    -0.262 A  
HETATM   24  C   UNL     1     -11.298   6.192  70.842  1.00  0.00    -0.355 C  
ENDBRANCH   6   9
TORSDOF 1
ENDMDL
MODEL       79
REMARK 921   NORMALIZED FREE ENERGY PREDICTED BY IDOCK:   -3.51 KCAL/MOL
REMARK 922        TOTAL FREE ENERGY PREDICTED BY IDOCK:   -4.11 KCAL/MOL
REMARK 923 INTER-LIGAND FREE ENERGY PREDICTED BY IDOCK:   -4.06 KCAL/MOL
REMARK 924 INTRA-LIGAND FREE ENERGY PREDICTED BY IDOCK:   -0.05 KCAL/MOL
REMARK 927      BINDING AFFINITY PREDICTED BY RF-SCORE:    0.00 PKD
ROOT
HETATM    1  C   UNL     1      -7.374   5.697  64.643  1.00  0.00    -0.068 C  
HETATM    2  N   UNL     1      -7.780   6.946  65.419  1.00  0.00    -0.100 N  
HETATM    3  C   UNL     1      -7.655   8.157  64.499  1.00  0.00    -0.113 C  
HETATM    4  C   UNL     1      -9.264   6.781  65.867  1.00  0.00     0.040 C  
HETATM    5  C   UNL     1      -9.641   7.729  67.025  1.00  0.00    -0.184 C  
HETATM    6  N   UNL     1      -8.743   7.636  68.188  1.00  0.00    -0.123 NA 
HETATM    7  C   UNL     1      -7.381   7.996  67.747  1.00  0.00    -0.093 C  
HETATM    8  C   UNL     1      -6.814   7.099  66.624  1.00  0.00    -0.065 C  
ENDROOT
BRANCH   6   9
HETATM    9  C   UNL     1      -8.745   6.301  68.858  1.00  0.00    -0.125 C  
HETATM   10  C   UNL     1     -10.038   5.743  69.553  1.00  0.00    -0.214 C  
HETATM   11  C   UNL     1     -10.688   6.749  70.514  1.00  0.00    -0.277 A  
HETATM   12  C   UNL     1      -9.818   4.317  70.222  1.00  0.00    -0.263 C  
HETATM   13  O   UNL     1     -10.992   5.558  68.468  1.00  0.00    -0.111 OA 
HETATM   14  C   UNL     1     -12.078   6.732  70.737  1.00  0.00    -0.402 A  
HETATM   15  C   UNL     1      -9.240   3.206  69.303  1.00  0.00    -0.218 C  
HETATM   16  H   UNL     1     -11.774   5.220  68.888  1.00  0.00     0.000 HD 
HETATM   17  C   UNL     1      -7.715   3.162  69.177  1.00  0.00    -0.048 C  
HETATM   18  C   UNL     1     -12.705   7.715  71.514  1.00  0.00    -0.373 A  
HETATM   19  C   UNL     1      -6.988   3.251  70.511  1.00  0.00    -0.034 C  
HETATM   20  C   UNL     1     -11.952   8.731  72.092  1.00  0.00    -0.436 A  
HETATM   21  C   UNL     1      -7.535   4.325  71.441  1.00  0.00    -0.059 C  
HETATM   22  C   UNL     1     -10.570   8.733  71.940  1.00  0.00    -0.425 A  
HETATM   23  C   UNL     1      -9.944   7.746  71.172  1.00  0.00    -0.194 A  
HETATM   24  C   UNL     1      -9.054   4.284  71.561  1.00  0.00    -0.176 C  
ENDBRANCH   6   9
TORSDOF 1
ENDMDL
MODEL       80
REMARK 921   NORMALIZED FREE ENERGY PREDICTED BY IDOCK:   -3.51 KCAL/MOL
REMARK 922        TOTAL FREE ENERGY PREDICTED BY IDOCK:   -4.11 KCAL/MOL
REMARK 923 INTER-LIGAND FREE ENERGY PREDICTED BY IDOCK:   -3.91 KCAL/MOL
REMARK 924 INTRA-LIGAND FREE ENERGY PREDICTED BY IDOCK:   -0.20 KCAL/MOL
REMARK 927      BINDING AFFINITY PREDICTED BY RF-SCORE:    0.00 PKD
ROOT
HETATM    1  C   UNL     1     -12.844  13.062  71.326  1.00  0.00    -0.281 C  
HETATM    2  N   UNL     1     -12.467  14.376  70.648  1.00  0.00    -0.330 N  
HETATM    3  C   UNL     1     -13.472  15.447  71.063  1.00  0.00    -0.444 C  
HETATM    4  C   UNL     1     -11.041  14.783  71.130  1.00  0.00     0.067 C  
HETATM    5  C   UNL     1     -10.370  15.808  70.193  1.00  0.00    -0.220 C  
HETATM    6  N   UNL     1     -10.333  15.389  68.782  1.00  0.00    -0.222 NA 
HETATM    7  C   UNL     1     -11.722  15.210  68.318  1.00  0.00    -0.314 C  
HETATM    8  C   UNL     1     -12.531  14.160  69.113  1.00  0.00     0.030 C  
ENDROOT
BRANCH   6   9
HETATM    9  C   UNL     1      -9.528  14.156  68.530  1.00  0.00    -0.202 C  
HETATM   10  C   UNL     1      -7.959  14.183  68.589  1.00  0.00    -0.132 C  
HETATM   11  C   UNL     1      -7.344  15.319  67.760  1.00  0.00    -0.181 A  
HETATM   12  C   UNL     1      -7.301  12.772  68.270  1.00  0.00    -0.117 C  
HETATM   13  O   UNL     1      -7.646  14.491  69.978  1.00  0.00    -0.393 OA 
HETATM   14  C   UNL     1      -6.118  15.900  68.136  1.00  0.00    -0.130 A  
HETATM   15  C   UNL     1      -7.801  11.570  69.119  1.00  0.00     0.067 C  
HETATM   16  H   UNL     1      -6.697  14.508  70.014  1.00  0.00     0.000 HD 
HETATM   17  C   UNL     1      -9.066  10.871  68.617  1.00  0.00    -0.175 C  
HETATM   18  C   UNL     1      -5.600  17.015  67.464  1.00  0.00    -0.161 A  
HETATM   19  C   UNL     1      -9.044  10.562  67.127  1.00  0.00    -0.154 C  
HETATM   20  C   UNL     1      -6.295  17.568  66.394  1.00  0.00    -0.275 A  
HETATM   21  C   UNL     1      -8.551  11.716  66.264  1.00  0.00    -0.103 C  
HETATM   22  C   UNL     1      -7.475  16.974  65.962  1.00  0.00    -0.115 A  
HETATM   23  C   UNL     1      -7.986  15.855  66.627  1.00  0.00    -0.270 A  
HETATM   24  C   UNL     1      -7.262  12.336  66.791  1.00  0.00     0.151 C  
ENDBRANCH   6   9
TORSDOF 1
ENDMDL
MODEL       81
REMARK 921   NORMALIZED FREE ENERGY PREDICTED BY IDOCK:   -3.51 KCAL/MOL
REMARK 922        TOTAL FREE ENERGY PREDICTED BY IDOCK:   -4.10 KCAL/MOL
REMARK 923 INTER-LIGAND FREE ENERGY PREDICTED BY IDOCK:   -3.74 KCAL/MOL
REMARK 924 INTRA-LIGAND FREE ENERGY PREDICTED BY IDOCK:   -0.36 KCAL/MOL
REMARK 927      BINDING AFFINITY PREDICTED BY RF-SCORE:    0.00 PKD
ROOT
HETATM    1  C   UNL     1      -8.362   4.134  66.730  1.00  0.00    -0.101 C  
HETATM    2  N   UNL     1      -9.095   5.154  67.596  1.00  0.00    -0.110 N  
HETATM    3  C   UNL     1      -9.747   4.425  68.767  1.00  0.00    -0.129 C  
HETATM    4  C   UNL     1      -8.049   6.178  68.134  1.00  0.00    -0.111 C  
HETATM    5  C   UNL     1      -8.701   7.490  68.618  1.00  0.00    -0.128 C  
HETATM    6  N   UNL     1      -9.571   8.127  67.616  1.00  0.00    -0.148 NA 
HETATM    7  C   UNL     1     -10.661   7.187  67.288  1.00  0.00    -0.327 C  
HETATM    8  C   UNL     1     -10.186   5.830  66.723  1.00  0.00    -0.221 C  
ENDROOT
BRANCH   6   9
HETATM    9  C   UNL     1      -8.861   8.565  66.377  1.00  0.00    -0.150 C  
HETATM   10  C   UNL     1      -8.260  10.011  66.253  1.00  0.00    -0.124 C  
HETATM   11  C   UNL     1      -9.258  11.113  66.633  1.00  0.00    -0.188 A  
HETATM   12  C   UNL     1      -7.566  10.276  64.848  1.00  0.00    -0.119 C  
HETATM   13  O   UNL     1      -7.209  10.063  67.260  1.00  0.00    -0.085 OA 
HETATM   14  C   UNL     1      -8.809  12.331  67.180  1.00  0.00    -0.194 A  
HETATM   15  C   UNL     1      -6.478   9.256  64.412  1.00  0.00    -0.082 C  
HETATM   16  H   UNL     1      -6.845  10.937  67.185  1.00  0.00     0.000 HD 
HETATM   17  C   UNL     1      -6.981   7.997  63.702  1.00  0.00    -0.076 C  
HETATM   18  C   UNL     1      -9.708  13.300  67.644  1.00  0.00    -0.219 A  
HETATM   19  C   UNL     1      -7.990   8.279  62.598  1.00  0.00    -0.159 C  
HETATM   20  C   UNL     1     -11.078  13.074  67.562  1.00  0.00    -0.297 A  
HETATM   21  C   UNL     1      -9.068   9.282  62.988  1.00  0.00     0.015 C  
HETATM   22  C   UNL     1     -11.548  11.909  66.968  1.00  0.00    -0.365 A  
HETATM   23  C   UNL     1     -10.649  10.946  66.496  1.00  0.00    -0.295 A  
HETATM   24  C   UNL     1      -8.497  10.534  63.645  1.00  0.00    -0.133 C  
ENDBRANCH   6   9
TORSDOF 1
ENDMDL
MODEL       82
REMARK 921   NORMALIZED FREE ENERGY PREDICTED BY IDOCK:   -3.49 KCAL/MOL
REMARK 922        TOTAL FREE ENERGY PREDICTED BY IDOCK:   -4.09 KCAL/MOL
REMARK 923 INTER-LIGAND FREE ENERGY PREDICTED BY IDOCK:   -3.69 KCAL/MOL
REMARK 924 INTRA-LIGAND FREE ENERGY PREDICTED BY IDOCK:   -0.39 KCAL/MOL
REMARK 927      BINDING AFFINITY PREDICTED BY RF-SCORE:    0.00 PKD
ROOT
HETATM    1  C   UNL     1      -7.605  15.886  69.036  1.00  0.00    -0.202 C  
HETATM    2  N   UNL     1      -6.604  14.741  68.915  1.00  0.00    -0.087 N  
HETATM    3  C   UNL     1      -5.194  15.324  68.876  1.00  0.00    -0.099 C  
HETATM    4  C   UNL     1      -6.755  13.825  70.168  1.00  0.00     0.186 C  
HETATM    5  C   UNL     1      -6.155  12.421  69.951  1.00  0.00    -0.135 C  
HETATM    6  N   UNL     1      -6.664  11.734  68.752  1.00  0.00    -0.076 NA 
HETATM    7  C   UNL     1      -6.318  12.551  67.572  1.00  0.00    -0.154 C  
HETATM    8  C   UNL     1      -6.897  13.983  67.593  1.00  0.00    -0.179 C  
ENDROOT
BRANCH   6   9
HETATM    9  C   UNL     1      -8.130  11.450  68.785  1.00  0.00    -0.112 C  
HETATM   10  C   UNL     1      -8.675  10.035  69.193  1.00  0.00    -0.167 C  
HETATM   11  C   UNL     1      -7.993   8.886  68.437  1.00  0.00    -0.105 A  
HETATM   12  C   UNL     1     -10.261   9.941  69.143  1.00  0.00    -0.218 C  
HETATM   13  O   UNL     1      -8.286   9.876  70.588  1.00  0.00    -0.383 OA 
HETATM   14  C   UNL     1      -7.853   7.618  69.032  1.00  0.00    -0.119 A  
HETATM   15  C   UNL     1     -11.042  11.015  69.949  1.00  0.00    -0.276 C  
HETATM   16  H   UNL     1      -8.615   9.020  70.835  1.00  0.00     0.000 HD 
HETATM   17  C   UNL     1     -11.295  12.343  69.231  1.00  0.00    -0.315 C  
HETATM   18  C   UNL     1      -7.130   6.593  68.408  1.00  0.00    -0.083 A  
HETATM   19  C   UNL     1     -11.824  12.181  67.814  1.00  0.00    -0.327 C  
HETATM   20  C   UNL     1      -6.539   6.813  67.169  1.00  0.00    -0.047 A  
HETATM   21  C   UNL     1     -11.086  11.129  66.996  1.00  0.00    -0.339 C  
HETATM   22  C   UNL     1      -6.716   8.034  66.531  1.00  0.00    -0.062 A  
HETATM   23  C   UNL     1      -7.447   9.054  67.151  1.00  0.00    -0.087 A  
HETATM   24  C   UNL     1     -10.910   9.815  67.749  1.00  0.00    -0.306 C  
ENDBRANCH   6   9
TORSDOF 1
ENDMDL
MODEL       83
REMARK 921   NORMALIZED FREE ENERGY PREDICTED BY IDOCK:   -3.45 KCAL/MOL
REMARK 922        TOTAL FREE ENERGY PREDICTED BY IDOCK:   -4.05 KCAL/MOL
REMARK 923 INTER-LIGAND FREE ENERGY PREDICTED BY IDOCK:   -3.66 KCAL/MOL
REMARK 924 INTRA-LIGAND FREE ENERGY PREDICTED BY IDOCK:   -0.39 KCAL/MOL
REMARK 927      BINDING AFFINITY PREDICTED BY RF-SCORE:    0.00 PKD
ROOT
HETATM    1  C   UNL     1     -10.831   7.642  73.097  1.00  0.00    -0.382 C  
HETATM    2  N   UNL     1     -11.006   7.925  71.607  1.00  0.00    -0.233 N  
HETATM    3  C   UNL     1     -11.908   9.145  71.444  1.00  0.00    -0.345 C  
HETATM    4  C   UNL     1      -9.602   8.227  71.000  1.00  0.00    -0.160 C  
HETATM    5  C   UNL     1      -9.575   8.070  69.465  1.00  0.00    -0.164 C  
HETATM    6  N   UNL     1     -10.067   6.766  68.992  1.00  0.00    -0.159 NA 
HETATM    7  C   UNL     1     -11.470   6.617  69.428  1.00  0.00    -0.225 C  
HETATM    8  C   UNL     1     -11.675   6.685  70.957  1.00  0.00    -0.360 C  
ENDROOT
BRANCH   6   9
HETATM    9  C   UNL     1      -9.248   5.601  69.444  1.00  0.00    -0.121 C  
HETATM   10  C   UNL     1      -8.122   4.997  68.530  1.00  0.00    -0.085 C  
HETATM   11  C   UNL     1      -8.597   4.706  67.100  1.00  0.00    -0.104 A  
HETATM   12  C   UNL     1      -7.386   3.753  69.192  1.00  0.00    -0.053 C  
HETATM   13  O   UNL     1      -7.132   6.058  68.411  1.00  0.00    -0.076 OA 
HETATM   14  C   UNL     1      -7.699   4.769  66.018  1.00  0.00    -0.091 A  
HETATM   15  C   UNL     1      -6.796   3.975  70.612  1.00  0.00    -0.033 C  
HETATM   16  H   UNL     1      -6.451   5.693  67.859  1.00  0.00     0.000 HD 
HETATM   17  C   UNL     1      -7.762   3.774  71.782  1.00  0.00    -0.062 C  
HETATM   18  C   UNL     1      -8.136   4.626  64.695  1.00  0.00    -0.104 A  
HETATM   19  C   UNL     1      -8.581   2.496  71.686  1.00  0.00    -0.095 C  
HETATM   20  C   UNL     1      -9.483   4.407  64.427  1.00  0.00    -0.119 A  
HETATM   21  C   UNL     1      -9.169   2.241  70.305  1.00  0.00    -0.193 C  
HETATM   22  C   UNL     1     -10.380   4.277  65.480  1.00  0.00    -0.210 A  
HETATM   23  C   UNL     1      -9.941   4.410  66.801  1.00  0.00    -0.223 A  
HETATM   24  C   UNL     1      -8.145   2.409  69.189  1.00  0.00    -0.067 C  
ENDBRANCH   6   9
TORSDOF 1
ENDMDL
MODEL       84
REMARK 921   NORMALIZED FREE ENERGY PREDICTED BY IDOCK:   -3.45 KCAL/MOL
REMARK 922        TOTAL FREE ENERGY PREDICTED BY IDOCK:   -4.04 KCAL/MOL
REMARK 923 INTER-LIGAND FREE ENERGY PREDICTED BY IDOCK:   -3.72 KCAL/MOL
REMARK 924 INTRA-LIGAND FREE ENERGY PREDICTED BY IDOCK:   -0.32 KCAL/MOL
REMARK 927      BINDING AFFINITY PREDICTED BY RF-SCORE:    0.00 PKD
ROOT
HETATM    1  C   UNL     1     -12.447   9.067  72.373  1.00  0.00    -0.305 C  
HETATM    2  N   UNL     1     -11.607   8.890  71.111  1.00  0.00    -0.286 N  
HETATM    3  C   UNL     1     -11.948  10.011  70.133  1.00  0.00    -0.131 C  
HETATM    4  C   UNL     1     -10.102   8.985  71.510  1.00  0.00    -0.339 C  
HETATM    5  C   UNL     1      -9.168   8.372  70.446  1.00  0.00    -0.153 C  
HETATM    6  N   UNL     1      -9.513   6.989  70.077  1.00  0.00    -0.161 NA 
HETATM    7  C   UNL     1     -10.879   6.988  69.519  1.00  0.00    -0.238 C  
HETATM    8  C   UNL     1     -11.964   7.516  70.484  1.00  0.00    -0.061 C  
ENDROOT
BRANCH   6   9
HETATM    9  C   UNL     1      -9.400   6.009  71.199  1.00  0.00    -0.160 C  
HETATM   10  C   UNL     1      -8.315   4.874  71.181  1.00  0.00    -0.113 C  
HETATM   11  C   UNL     1      -8.292   4.083  69.866  1.00  0.00    -0.081 A  
HETATM   12  C   UNL     1      -8.381   3.931  72.458  1.00  0.00    -0.098 C  
HETATM   13  O   UNL     1      -7.041   5.578  71.241  1.00  0.00    -0.066 OA 
HETATM   14  C   UNL     1      -7.098   3.504  69.396  1.00  0.00    -0.042 A  
HETATM   15  C   UNL     1      -8.326   4.636  73.841  1.00  0.00    -0.104 C  
HETATM   16  H   UNL     1      -6.384   4.892  71.230  1.00  0.00     0.000 HD 
HETATM   17  C   UNL     1      -9.661   5.144  74.392  1.00  0.00    -0.155 C  
HETATM   18  C   UNL     1      -7.030   2.882  68.143  1.00  0.00    -0.049 A  
HETATM   19  C   UNL     1     -10.786   4.123  74.304  1.00  0.00    -0.259 C  
HETATM   20  C   UNL     1      -8.160   2.818  67.335  1.00  0.00    -0.077 A  
HETATM   21  C   UNL     1     -10.865   3.405  72.964  1.00  0.00    -0.192 C  
HETATM   22  C   UNL     1      -9.367   3.324  67.802  1.00  0.00    -0.246 A  
HETATM   23  C   UNL     1      -9.436   3.936  69.058  1.00  0.00    -0.240 A  
HETATM   24  C   UNL     1      -9.512   2.882  72.495  1.00  0.00    -0.168 C  
ENDBRANCH   6   9
TORSDOF 1
ENDMDL
MODEL       85
REMARK 921   NORMALIZED FREE ENERGY PREDICTED BY IDOCK:   -3.40 KCAL/MOL
REMARK 922        TOTAL FREE ENERGY PREDICTED BY IDOCK:   -4.00 KCAL/MOL
REMARK 923 INTER-LIGAND FREE ENERGY PREDICTED BY IDOCK:   -3.66 KCAL/MOL
REMARK 924 INTRA-LIGAND FREE ENERGY PREDICTED BY IDOCK:   -0.33 KCAL/MOL
REMARK 927      BINDING AFFINITY PREDICTED BY RF-SCORE:    0.00 PKD
ROOT
HETATM    1  C   UNL     1      -9.419  13.356  67.991  1.00  0.00    -0.218 C  
HETATM    2  N   UNL     1      -9.775  12.341  66.908  1.00  0.00    -0.208 N  
HETATM    3  C   UNL     1     -10.342  13.088  65.704  1.00  0.00    -0.285 C  
HETATM    4  C   UNL     1      -8.471  11.593  66.493  1.00  0.00    -0.141 C  
HETATM    5  C   UNL     1      -8.758  10.259  65.773  1.00  0.00    -0.156 C  
HETATM    6  N   UNL     1      -9.649   9.357  66.522  1.00  0.00    -0.190 NA 
HETATM    7  C   UNL     1     -10.942  10.043  66.716  1.00  0.00     0.053 C  
HETATM    8  C   UNL     1     -10.848  11.380  67.485  1.00  0.00    -0.244 C  
ENDROOT
BRANCH   6   9
HETATM    9  C   UNL     1      -9.095   8.897  67.831  1.00  0.00    -0.139 C  
HETATM   10  C   UNL     1      -8.181   7.623  67.923  1.00  0.00    -0.123 C  
HETATM   11  C   UNL     1      -8.778   6.400  67.213  1.00  0.00    -0.106 A  
HETATM   12  C   UNL     1      -7.716   7.298  69.408  1.00  0.00    -0.107 C  
HETATM   13  O   UNL     1      -6.982   7.971  67.172  1.00  0.00    -0.071 OA 
HETATM   14  C   UNL     1      -7.941   5.419  66.647  1.00  0.00    -0.105 A  
HETATM   15  C   UNL     1      -7.023   8.453  70.183  1.00  0.00    -0.042 C  
HETATM   16  H   UNL     1      -6.429   7.201  67.228  1.00  0.00     0.000 HD 
HETATM   17  C   UNL     1      -7.952   9.436  70.900  1.00  0.00    -0.096 C  
HETATM   18  C   UNL     1      -8.463   4.361  65.892  1.00  0.00    -0.114 A  
HETATM   19  C   UNL     1      -9.044   8.760  71.716  1.00  0.00    -0.305 C  
HETATM   20  C   UNL     1      -9.835   4.256  65.695  1.00  0.00    -0.223 A  
HETATM   21  C   UNL     1      -9.740   7.616  70.990  1.00  0.00    -0.169 C  
HETATM   22  C   UNL     1     -10.687   5.174  66.297  1.00  0.00    -0.272 A  
HETATM   23  C   UNL     1     -10.166   6.226  67.058  1.00  0.00    -0.256 A  
HETATM   24  C   UNL     1      -8.759   6.647  70.340  1.00  0.00    -0.151 C  
ENDBRANCH   6   9
TORSDOF 1
ENDMDL
MODEL       86
REMARK 921   NORMALIZED FREE ENERGY PREDICTED BY IDOCK:   -3.34 KCAL/MOL
REMARK 922        TOTAL FREE ENERGY PREDICTED BY IDOCK:   -3.93 KCAL/MOL
REMARK 923 INTER-LIGAND FREE ENERGY PREDICTED BY IDOCK:   -3.70 KCAL/MOL
REMARK 924 INTRA-LIGAND FREE ENERGY PREDICTED BY IDOCK:   -0.22 KCAL/MOL
REMARK 927      BINDING AFFINITY PREDICTED BY RF-SCORE:    0.00 PKD
ROOT
HETATM    1  C   UNL     1     -11.668   8.001  72.341  1.00  0.00    -0.386 C  
HETATM    2  N   UNL     1     -10.418   7.140  72.496  1.00  0.00    -0.211 N  
HETATM    3  C   UNL     1     -10.154   6.922  73.983  1.00  0.00    -0.348 C  
HETATM    4  C   UNL     1     -10.682   5.767  71.805  1.00  0.00    -0.249 C  
HETATM    5  C   UNL     1      -9.380   5.005  71.485  1.00  0.00    -0.148 C  
HETATM    6  N   UNL     1      -8.407   5.790  70.707  1.00  0.00    -0.122 NA 
HETATM    7  C   UNL     1      -8.040   6.981  71.497  1.00  0.00    -0.104 C  
HETATM    8  C   UNL     1      -9.227   7.902  71.856  1.00  0.00    -0.154 C  
ENDROOT
BRANCH   6   9
HETATM    9  C   UNL     1      -8.884   6.184  69.348  1.00  0.00    -0.126 C  
HETATM   10  C   UNL     1      -8.948   5.142  68.174  1.00  0.00    -0.110 C  
HETATM   11  C   UNL     1      -7.644   4.351  68.000  1.00  0.00    -0.069 A  
HETATM   12  C   UNL     1      -9.464   5.773  66.810  1.00  0.00    -0.154 C  
HETATM   13  O   UNL     1      -9.948   4.170  68.596  1.00  0.00    -0.069 OA 
HETATM   14  C   UNL     1      -7.664   3.037  67.497  1.00  0.00    -0.069 A  
HETATM   15  C   UNL     1     -10.823   6.526  66.868  1.00  0.00    -0.427 C  
HETATM   16  H   UNL     1      -9.986   3.540  67.886  1.00  0.00     0.000 HD 
HETATM   17  C   UNL     1     -10.761   7.995  67.295  1.00  0.00    -0.280 C  
HETATM   18  C   UNL     1      -6.501   2.257  67.442  1.00  0.00    -0.032 A  
HETATM   19  C   UNL     1      -9.683   8.794  66.578  1.00  0.00    -0.328 C  
HETATM   20  C   UNL     1      -5.291   2.780  67.883  1.00  0.00    -0.013 A  
HETATM   21  C   UNL     1      -8.339   8.083  66.495  1.00  0.00    -0.121 C  
HETATM   22  C   UNL     1      -5.232   4.097  68.324  1.00  0.00    -0.008 A  
HETATM   23  C   UNL     1      -6.392   4.878  68.368  1.00  0.00    -0.036 A  
HETATM   24  C   UNL     1      -8.464   6.641  66.018  1.00  0.00    -0.142 C  
ENDBRANCH   6   9
TORSDOF 1
ENDMDL
MODEL       87
REMARK 921   NORMALIZED FREE ENERGY PREDICTED BY IDOCK:   -3.34 KCAL/MOL
REMARK 922        TOTAL FREE ENERGY PREDICTED BY IDOCK:   -3.93 KCAL/MOL
REMARK 923 INTER-LIGAND FREE ENERGY PREDICTED BY IDOCK:   -3.63 KCAL/MOL
REMARK 924 INTRA-LIGAND FREE ENERGY PREDICTED BY IDOCK:   -0.29 KCAL/MOL
REMARK 927      BINDING AFFINITY PREDICTED BY RF-SCORE:    0.00 PKD
ROOT
HETATM    1  C   UNL     1     -11.050  12.482  68.380  1.00  0.00    -0.258 C  
HETATM    2  N   UNL     1     -10.257  12.340  67.084  1.00  0.00    -0.210 N  
HETATM    3  C   UNL     1     -10.246  13.686  66.366  1.00  0.00    -0.292 C  
HETATM    4  C   UNL     1      -8.798  11.929  67.447  1.00  0.00    -0.171 C  
HETATM    5  C   UNL     1      -8.042  11.311  66.252  1.00  0.00    -0.108 C  
HETATM    6  N   UNL     1      -8.748  10.184  65.619  1.00  0.00    -0.152 NA 
HETATM    7  C   UNL     1     -10.044  10.678  65.116  1.00  0.00    -0.307 C  
HETATM    8  C   UNL     1     -10.966  11.278  66.201  1.00  0.00    -0.191 C  
ENDROOT
BRANCH   6   9
HETATM    9  C   UNL     1      -8.944   9.004  66.514  1.00  0.00    -0.146 C  
HETATM   10  C   UNL     1      -7.804   7.943  66.721  1.00  0.00    -0.103 C  
HETATM   11  C   UNL     1      -7.208   7.434  65.401  1.00  0.00    -0.069 A  
HETATM   12  C   UNL     1      -8.227   6.759  67.694  1.00  0.00    -0.119 C  
HETATM   13  O   UNL     1      -6.733   8.673  67.384  1.00  0.00    -0.061 OA 
HETATM   14  C   UNL     1      -5.866   7.013  65.334  1.00  0.00    -0.036 A  
HETATM   15  C   UNL     1      -8.767   7.173  69.090  1.00  0.00    -0.133 C  
HETATM   16  H   UNL     1      -6.044   8.032  67.509  1.00  0.00     0.000 HD 
HETATM   17  C   UNL     1     -10.260   7.503  69.165  1.00  0.00    -0.202 C  
HETATM   18  C   UNL     1      -5.270   6.660  64.117  1.00  0.00    -0.026 A  
HETATM   19  C   UNL     1     -11.148   6.475  68.479  1.00  0.00    -0.347 C  
HETATM   20  C   UNL     1      -6.007   6.713  62.939  1.00  0.00    -0.038 A  
HETATM   21  C   UNL     1     -10.644   6.039  67.110  1.00  0.00    -0.374 C  
HETATM   22  C   UNL     1      -7.352   7.063  62.986  1.00  0.00    -0.083 A  
HETATM   23  C   UNL     1      -7.949   7.406  64.204  1.00  0.00    -0.092 A  
HETATM   24  C   UNL     1      -9.163   5.678  67.114  1.00  0.00    -0.114 C  
ENDBRANCH   6   9
TORSDOF 1
ENDMDL
MODEL       88
REMARK 921   NORMALIZED FREE ENERGY PREDICTED BY IDOCK:   -3.33 KCAL/MOL
REMARK 922        TOTAL FREE ENERGY PREDICTED BY IDOCK:   -3.92 KCAL/MOL
REMARK 923 INTER-LIGAND FREE ENERGY PREDICTED BY IDOCK:   -3.66 KCAL/MOL
REMARK 924 INTRA-LIGAND FREE ENERGY PREDICTED BY IDOCK:   -0.26 KCAL/MOL
REMARK 927      BINDING AFFINITY PREDICTED BY RF-SCORE:    0.00 PKD
ROOT
HETATM    1  C   UNL     1      -9.687  13.792  66.665  1.00  0.00    -0.289 C  
HETATM    2  N   UNL     1     -10.568  12.577  66.941  1.00  0.00    -0.234 N  
HETATM    3  C   UNL     1     -12.018  12.945  66.640  1.00  0.00    -0.366 C  
HETATM    4  C   UNL     1     -10.115  11.421  65.998  1.00  0.00    -0.234 C  
HETATM    5  C   UNL     1     -10.591  10.038  66.487  1.00  0.00    -0.095 C  
HETATM    6  N   UNL     1     -10.218   9.737  67.879  1.00  0.00    -0.182 NA 
HETATM    7  C   UNL     1     -10.839  10.753  68.752  1.00  0.00    -0.221 C  
HETATM    8  C   UNL     1     -10.419  12.207  68.441  1.00  0.00    -0.231 C  
ENDROOT
BRANCH   6   9
HETATM    9  C   UNL     1      -8.745   9.667  68.117  1.00  0.00    -0.119 C  
HETATM   10  C   UNL     1      -8.062   8.338  68.601  1.00  0.00    -0.120 C  
HETATM   11  C   UNL     1      -8.761   7.708  69.814  1.00  0.00    -0.140 A  
HETATM   12  C   UNL     1      -6.493   8.486  68.811  1.00  0.00    -0.053 C  
HETATM   13  O   UNL     1      -8.254   7.401  67.502  1.00  0.00    -0.112 OA 
HETATM   14  C   UNL     1      -8.741   6.314  70.010  1.00  0.00    -0.141 A  
HETATM   15  C   UNL     1      -5.684   9.039  67.606  1.00  0.00    -0.039 C  
HETATM   16  H   UNL     1      -7.841   6.597  67.794  1.00  0.00     0.000 HD 
HETATM   17  C   UNL     1      -5.612  10.564  67.486  1.00  0.00    -0.044 C  
HETATM   18  C   UNL     1      -9.472   5.710  71.041  1.00  0.00    -0.200 A  
HETATM   19  C   UNL     1      -5.264  11.264  68.791  1.00  0.00    -0.040 C  
HETATM   20  C   UNL     1     -10.233   6.490  71.904  1.00  0.00    -0.214 A  
HETATM   21  C   UNL     1      -6.033  10.741  69.997  1.00  0.00    -0.094 C  
HETATM   22  C   UNL     1     -10.219   7.874  71.772  1.00  0.00    -0.247 A  
HETATM   23  C   UNL     1      -9.480   8.477  70.748  1.00  0.00    -0.213 A  
HETATM   24  C   UNL     1      -6.025   9.219  70.086  1.00  0.00    -0.035 C  
ENDBRANCH   6   9
TORSDOF 1
ENDMDL
MODEL       89
REMARK 921   NORMALIZED FREE ENERGY PREDICTED BY IDOCK:   -3.32 KCAL/MOL
REMARK 922        TOTAL FREE ENERGY PREDICTED BY IDOCK:   -3.90 KCAL/MOL
REMARK 923 INTER-LIGAND FREE ENERGY PREDICTED BY IDOCK:   -3.55 KCAL/MOL
REMARK 924 INTRA-LIGAND FREE ENERGY PREDICTED BY IDOCK:   -0.36 KCAL/MOL
REMARK 927      BINDING AFFINITY PREDICTED BY RF-SCORE:    0.00 PKD
ROOT
HETATM    1  C   UNL     1      -8.955  11.639  66.517  1.00  0.00    -0.191 C  
HETATM    2  N   UNL     1     -10.083  10.952  67.283  1.00  0.00    -0.185 N  
HETATM    3  C   UNL     1     -11.382  11.712  67.028  1.00  0.00    -0.305 C  
HETATM    4  C   UNL     1     -10.217   9.493  66.748  1.00  0.00    -0.243 C  
HETATM    5  C   UNL     1     -10.974   8.572  67.727  1.00  0.00     0.163 C  
HETATM    6  N   UNL     1     -10.420   8.567  69.090  1.00  0.00    -0.217 NA 
HETATM    7  C   UNL     1     -10.499   9.941  69.624  1.00  0.00    -0.249 C  
HETATM    8  C   UNL     1      -9.734  10.996  68.794  1.00  0.00    -0.191 C  
ENDROOT
BRANCH   6   9
HETATM    9  C   UNL     1      -9.023   8.046  69.182  1.00  0.00    -0.145 C  
HETATM   10  C   UNL     1      -8.714   6.662  69.858  1.00  0.00    -0.141 C  
HETATM   11  C   UNL     1      -9.361   6.511  71.243  1.00  0.00    -0.158 A  
HETATM   12  C   UNL     1      -7.165   6.307  69.868  1.00  0.00    -0.074 C  
HETATM   13  O   UNL     1      -9.368   5.679  69.006  1.00  0.00    -0.120 OA 
HETATM   14  C   UNL     1      -9.740   5.243  71.723  1.00  0.00    -0.206 A  
HETATM   15  C   UNL     1      -6.438   6.352  68.495  1.00  0.00    -0.049 C  
HETATM   16  H   UNL     1      -9.182   4.842  69.415  1.00  0.00     0.000 HD 
HETATM   17  C   UNL     1      -5.919   7.722  68.052  1.00  0.00    -0.041 C  
HETATM   18  C   UNL     1     -10.439   5.097  72.928  1.00  0.00    -0.255 A  
HETATM   19  C   UNL     1      -5.157   8.467  69.138  1.00  0.00    -0.031 C  
HETATM   20  C   UNL     1     -10.765   6.217  73.684  1.00  0.00    -0.229 A  
HETATM   21  C   UNL     1      -5.837   8.437  70.501  1.00  0.00    -0.028 C  
HETATM   22  C   UNL     1     -10.346   7.474  73.265  1.00  0.00    -0.412 A  
HETATM   23  C   UNL     1      -9.639   7.618  72.066  1.00  0.00    -0.200 A  
HETATM   24  C   UNL     1      -6.286   7.038  70.904  1.00  0.00    -0.040 C  
ENDBRANCH   6   9
TORSDOF 1
ENDMDL
MODEL       90
REMARK 921   NORMALIZED FREE ENERGY PREDICTED BY IDOCK:   -3.25 KCAL/MOL
REMARK 922        TOTAL FREE ENERGY PREDICTED BY IDOCK:   -3.83 KCAL/MOL
REMARK 923 INTER-LIGAND FREE ENERGY PREDICTED BY IDOCK:   -3.73 KCAL/MOL
REMARK 924 INTRA-LIGAND FREE ENERGY PREDICTED BY IDOCK:   -0.10 KCAL/MOL
REMARK 927      BINDING AFFINITY PREDICTED BY RF-SCORE:    0.00 PKD
ROOT
HETATM    1  C   UNL     1     -12.233  10.124  70.379  1.00  0.00    -0.218 C  
HETATM    2  N   UNL     1     -12.342   9.026  71.433  1.00  0.00    -0.308 N  
HETATM    3  C   UNL     1     -13.573   9.294  72.294  1.00  0.00    -0.480 C  
HETATM    4  C   UNL     1     -12.504   7.660  70.700  1.00  0.00     0.122 C  
HETATM    5  C   UNL     1     -12.161   6.458  71.605  1.00  0.00    -0.262 C  
HETATM    6  N   UNL     1     -10.833   6.547  72.234  1.00  0.00    -0.223 NA 
HETATM    7  C   UNL     1     -10.802   7.758  73.076  1.00  0.00    -0.389 C  
HETATM    8  C   UNL     1     -11.064   9.075  72.313  1.00  0.00    -0.064 C  
ENDROOT
BRANCH   6   9
HETATM    9  C   UNL     1      -9.695   6.548  71.265  1.00  0.00    -0.173 C  
HETATM   10  C   UNL     1      -9.372   5.285  70.390  1.00  0.00    -0.159 C  
HETATM   11  C   UNL     1      -9.285   3.990  71.209  1.00  0.00    -0.197 A  
HETATM   12  C   UNL     1      -8.112   5.492  69.443  1.00  0.00    -0.095 C  
HETATM   13  O   UNL     1     -10.531   5.129  69.522  1.00  0.00    -0.257 OA 
HETATM   14  C   UNL     1      -9.622   2.751  70.631  1.00  0.00    -0.174 A  
HETATM   15  C   UNL     1      -8.144   6.735  68.512  1.00  0.00    -0.120 C  
HETATM   16  H   UNL     1     -10.335   4.365  68.992  1.00  0.00     0.000 HD 
HETATM   17  C   UNL     1      -7.650   8.048  69.125  1.00  0.00    -0.097 C  
HETATM   18  C   UNL     1      -9.666   1.576  71.393  1.00  0.00    -0.206 A  
HETATM   19  C   UNL     1      -6.332   7.916  69.873  1.00  0.00    -0.030 C  
HETATM   20  C   UNL     1      -9.364   1.615  72.750  1.00  0.00    -0.106 A  
HETATM   21  C   UNL     1      -6.261   6.702  70.790  1.00  0.00    -0.032 C  
HETATM   22  C   UNL     1      -8.966   2.813  73.331  1.00  0.00    -0.085 A  
HETATM   23  C   UNL     1      -8.913   3.984  72.567  1.00  0.00    -0.128 A  
HETATM   24  C   UNL     1      -6.720   5.419  70.105  1.00  0.00    -0.047 C  
ENDBRANCH   6   9
TORSDOF 1
ENDMDL
MODEL       91
REMARK 921   NORMALIZED FREE ENERGY PREDICTED BY IDOCK:   -3.25 KCAL/MOL
REMARK 922        TOTAL FREE ENERGY PREDICTED BY IDOCK:   -3.83 KCAL/MOL
REMARK 923 INTER-LIGAND FREE ENERGY PREDICTED BY IDOCK:   -3.45 KCAL/MOL
REMARK 924 INTRA-LIGAND FREE ENERGY PREDICTED BY IDOCK:   -0.38 KCAL/MOL
REMARK 927      BINDING AFFINITY PREDICTED BY RF-SCORE:    0.00 PKD
ROOT
HETATM    1  C   UNL     1      -8.391  10.555  65.904  1.00  0.00    -0.161 C  
HETATM    2  N   UNL     1      -7.936   9.107  65.746  1.00  0.00    -0.101 N  
HETATM    3  C   UNL     1      -7.349   8.927  64.349  1.00  0.00    -0.099 C  
HETATM    4  C   UNL     1      -6.838   8.821  66.815  1.00  0.00    -0.069 C  
HETATM    5  C   UNL     1      -6.637   7.312  67.068  1.00  0.00    -0.060 C  
HETATM    6  N   UNL     1      -7.878   6.595  67.406  1.00  0.00    -0.111 NA 
HETATM    7  C   UNL     1      -8.812   6.733  66.272  1.00  0.00    -0.147 C  
HETATM    8  C   UNL     1      -9.178   8.191  65.918  1.00  0.00    -0.097 C  
ENDROOT
BRANCH   6   9
HETATM    9  C   UNL     1      -8.520   7.046  68.677  1.00  0.00    -0.121 C  
HETATM   10  C   UNL     1      -8.245   6.306  70.034  1.00  0.00    -0.125 C  
HETATM   11  C   UNL     1      -8.422   4.784  69.937  1.00  0.00    -0.086 A  
HETATM   12  C   UNL     1      -9.042   6.934  71.258  1.00  0.00    -0.149 C  
HETATM   13  O   UNL     1      -6.829   6.524  70.296  1.00  0.00    -0.054 OA 
HETATM   14  C   UNL     1      -7.674   3.920  70.759  1.00  0.00    -0.051 A  
HETATM   15  C   UNL     1      -8.860   8.460  71.489  1.00  0.00    -0.239 C  
HETATM   16  H   UNL     1      -6.662   6.076  71.117  1.00  0.00     0.000 HD 
HETATM   17  C   UNL     1      -9.777   9.378  70.676  1.00  0.00    -0.336 C  
HETATM   18  C   UNL     1      -7.733   2.529  70.603  1.00  0.00    -0.042 A  
HETATM   19  C   UNL     1     -11.238   8.957  70.697  1.00  0.00    -0.308 C  
HETATM   20  C   UNL     1      -8.549   1.972  69.625  1.00  0.00    -0.101 A  
HETATM   21  C   UNL     1     -11.454   7.464  70.482  1.00  0.00    -0.281 C  
HETATM   22  C   UNL     1      -9.346   2.799  68.843  1.00  0.00    -0.220 A  
HETATM   23  C   UNL     1      -9.294   4.188  69.007  1.00  0.00    -0.232 A  
HETATM   24  C   UNL     1     -10.547   6.606  71.355  1.00  0.00    -0.255 C  
ENDBRANCH   6   9
TORSDOF 1
ENDMDL
MODEL       92
REMARK 921   NORMALIZED FREE ENERGY PREDICTED BY IDOCK:   -3.23 KCAL/MOL
REMARK 922        TOTAL FREE ENERGY PREDICTED BY IDOCK:   -3.81 KCAL/MOL
REMARK 923 INTER-LIGAND FREE ENERGY PREDICTED BY IDOCK:   -3.50 KCAL/MOL
REMARK 924 INTRA-LIGAND FREE ENERGY PREDICTED BY IDOCK:   -0.31 KCAL/MOL
REMARK 927      BINDING AFFINITY PREDICTED BY RF-SCORE:    0.00 PKD
ROOT
HETATM    1  C   UNL     1     -12.057  12.649  71.001  1.00  0.00     0.081 C  
HETATM    2  N   UNL     1     -12.394  14.124  70.796  1.00  0.00    -0.346 N  
HETATM    3  C   UNL     1     -13.815  14.375  71.293  1.00  0.00    -0.266 C  
HETATM    4  C   UNL     1     -11.389  14.974  71.631  1.00  0.00    -0.253 C  
HETATM    5  C   UNL     1     -11.319  16.441  71.158  1.00  0.00    -0.141 C  
HETATM    6  N   UNL     1     -11.043  16.590  69.719  1.00  0.00    -0.309 NA 
HETATM    7  C   UNL     1     -12.133  15.935  68.970  1.00  0.00    -0.100 C  
HETATM    8  C   UNL     1     -12.305  14.430  69.277  1.00  0.00    -0.153 C  
ENDROOT
BRANCH   6   9
HETATM    9  C   UNL     1      -9.714  16.056  69.292  1.00  0.00    -0.257 C  
HETATM   10  C   UNL     1      -8.586  17.012  68.764  1.00  0.00    -0.238 C  
HETATM   11  C   UNL     1      -9.074  17.976  67.673  1.00  0.00    -0.255 A  
HETATM   12  C   UNL     1      -7.262  16.239  68.345  1.00  0.00    -0.152 C  
HETATM   13  O   UNL     1      -8.243  17.848  69.907  1.00  0.00     1.044 OA 
HETATM   14  C   UNL     1      -8.483  19.244  67.519  1.00  0.00    -0.324 A  
HETATM   15  C   UNL     1      -6.643  15.299  69.416  1.00  0.00    -0.152 C  
HETATM   16  H   UNL     1      -7.561  18.427  69.587  1.00  0.00     0.000 HD 
HETATM   17  C   UNL     1      -7.215  13.881  69.479  1.00  0.00     0.147 C  
HETATM   18  C   UNL     1      -8.992  20.182  66.611  1.00  0.00    -0.416 A  
HETATM   19  C   UNL     1      -7.338  13.211  68.119  1.00  0.00    -0.119 C  
HETATM   20  C   UNL     1     -10.099  19.868  65.832  1.00  0.00    -0.519 A  
HETATM   21  C   UNL     1      -7.934  14.106  67.040  1.00  0.00     0.008 C  
HETATM   22  C   UNL     1     -10.662  18.600  65.919  1.00  0.00    -0.274 A  
HETATM   23  C   UNL     1     -10.147  17.660  66.818  1.00  0.00    -0.334 A  
HETATM   24  C   UNL     1      -7.289  15.486  66.998  1.00  0.00    -0.172 C  
ENDBRANCH   6   9
TORSDOF 1
ENDMDL
MODEL       93
REMARK 921   NORMALIZED FREE ENERGY PREDICTED BY IDOCK:   -3.22 KCAL/MOL
REMARK 922        TOTAL FREE ENERGY PREDICTED BY IDOCK:   -3.81 KCAL/MOL
REMARK 923 INTER-LIGAND FREE ENERGY PREDICTED BY IDOCK:   -4.67 KCAL/MOL
REMARK 924 INTRA-LIGAND FREE ENERGY PREDICTED BY IDOCK:    0.86 KCAL/MOL
REMARK 927      BINDING AFFINITY PREDICTED BY RF-SCORE:    0.00 PKD
ROOT
HETATM    1  C   UNL     1     -12.854  15.795  71.138  1.00  0.00    -0.410 C  
HETATM    2  N   UNL     1     -12.163  14.810  70.201  1.00  0.00    -0.321 N  
HETATM    3  C   UNL     1     -12.577  13.393  70.587  1.00  0.00    -0.253 C  
HETATM    4  C   UNL     1     -12.629  15.113  68.744  1.00  0.00     0.418 C  
HETATM    5  C   UNL     1     -11.678  14.521  67.683  1.00  0.00    -0.382 C  
HETATM    6  N   UNL     1     -10.270  14.913  67.861  1.00  0.00    -0.227 NA 
HETATM    7  C   UNL     1      -9.819  14.427  69.180  1.00  0.00    -0.031 C  
HETATM    8  C   UNL     1     -10.629  14.976  70.375  1.00  0.00    -0.045 C  
ENDROOT
BRANCH   6   9
HETATM    9  C   UNL     1     -10.020  16.380  67.727  1.00  0.00    -0.248 C  
HETATM   10  C   UNL     1      -8.653  16.925  67.178  1.00  0.00    -0.197 C  
HETATM   11  C   UNL     1      -7.434  16.306  67.875  1.00  0.00    -0.142 A  
HETATM   12  C   UNL     1      -8.590  18.513  67.135  1.00  0.00    -0.273 C  
HETATM   13  O   UNL     1      -8.597  16.462  65.798  1.00  0.00    -0.398 OA 
HETATM   14  C   UNL     1      -6.214  16.155  67.189  1.00  0.00    -0.135 A  
HETATM   15  C   UNL     1      -9.741  19.229  66.376  1.00  0.00    -0.435 C  
HETATM   16  H   UNL     1      -7.771  16.792  65.465  1.00  0.00     0.000 HD 
HETATM   17  C   UNL     1     -11.013  19.500  67.183  1.00  0.00    -0.459 C  
HETATM   18  C   UNL     1      -5.128  15.485  67.767  1.00  0.00    -0.101 A  
HETATM   19  C   UNL     1     -10.751  20.109  68.552  1.00  0.00     0.103 C  
HETATM   20  C   UNL     1      -5.237  14.960  69.050  1.00  0.00    -0.094 A  
HETATM   21  C   UNL     1      -9.622  19.436  69.322  1.00  0.00    -0.275 C  
HETATM   22  C   UNL     1      -6.408  15.151  69.773  1.00  0.00    -0.154 A  
HETATM   23  C   UNL     1      -7.488  15.829  69.199  1.00  0.00    -0.207 A  
HETATM   24  C   UNL     1      -8.369  19.240  68.477  1.00  0.00    -0.401 C  
ENDBRANCH   6   9
TORSDOF 1
ENDMDL
MODEL       94
REMARK 921   NORMALIZED FREE ENERGY PREDICTED BY IDOCK:   -3.20 KCAL/MOL
REMARK 922        TOTAL FREE ENERGY PREDICTED BY IDOCK:   -3.78 KCAL/MOL
REMARK 923 INTER-LIGAND FREE ENERGY PREDICTED BY IDOCK:   -3.44 KCAL/MOL
REMARK 924 INTRA-LIGAND FREE ENERGY PREDICTED BY IDOCK:   -0.34 KCAL/MOL
REMARK 927      BINDING AFFINITY PREDICTED BY RF-SCORE:    0.00 PKD
ROOT
HETATM    1  C   UNL     1      -5.476  19.106  66.618  1.00  0.00    -0.151 C  
HETATM    2  N   UNL     1      -6.994  19.103  66.773  1.00  0.00    -0.199 N  
HETATM    3  C   UNL     1      -7.520  20.503  66.468  1.00  0.00    -0.179 C  
HETATM    4  C   UNL     1      -7.587  18.087  65.750  1.00  0.00    -0.035 C  
HETATM    5  C   UNL     1      -9.022  17.652  66.113  1.00  0.00    -0.107 C  
HETATM    6  N   UNL     1      -9.158  17.134  67.484  1.00  0.00    -0.224 NA 
HETATM    7  C   UNL     1      -8.771  18.206  68.422  1.00  0.00    -0.291 C  
HETATM    8  C   UNL     1      -7.326  18.724  68.241  1.00  0.00    -0.271 C  
ENDROOT
BRANCH   6   9
HETATM    9  C   UNL     1      -8.373  15.891  67.751  1.00  0.00    -0.150 C  
HETATM   10  C   UNL     1      -9.089  14.515  67.999  1.00  0.00    -0.185 C  
HETATM   11  C   UNL     1     -10.205  14.598  69.050  1.00  0.00    -0.222 A  
HETATM   12  C   UNL     1      -8.071  13.328  68.283  1.00  0.00    -0.156 C  
HETATM   13  O   UNL     1      -9.753  14.211  66.739  1.00  0.00    -0.258 OA 
HETATM   14  C   UNL     1     -11.318  13.739  68.983  1.00  0.00    -0.333 A  
HETATM   15  C   UNL     1      -6.951  13.112  67.228  1.00  0.00    -0.021 C  
HETATM   16  H   UNL     1     -10.186  13.379  66.889  1.00  0.00     0.000 HD 
HETATM   17  C   UNL     1      -5.693  13.967  67.397  1.00  0.00     0.276 C  
HETATM   18  C   UNL     1     -12.402  13.878  69.860  1.00  0.00    -0.358 A  
HETATM   19  C   UNL     1      -5.155  13.988  68.820  1.00  0.00    -0.084 C  
HETATM   20  C   UNL     1     -12.390  14.874  70.830  1.00  0.00    -0.392 A  
HETATM   21  C   UNL     1      -6.228  14.190  69.882  1.00  0.00    -0.146 C  
HETATM   22  C   UNL     1     -11.275  15.694  70.959  1.00  0.00    -0.411 A  
HETATM   23  C   UNL     1     -10.189  15.548  70.089  1.00  0.00    -0.230 A  
HETATM   24  C   UNL     1      -7.431  13.276  69.685  1.00  0.00     0.689 C  
ENDBRANCH   6   9
TORSDOF 1
ENDMDL
MODEL       95
REMARK 921   NORMALIZED FREE ENERGY PREDICTED BY IDOCK:   -3.19 KCAL/MOL
REMARK 922        TOTAL FREE ENERGY PREDICTED BY IDOCK:   -3.77 KCAL/MOL
REMARK 923 INTER-LIGAND FREE ENERGY PREDICTED BY IDOCK:   -3.42 KCAL/MOL
REMARK 924 INTRA-LIGAND FREE ENERGY PREDICTED BY IDOCK:   -0.35 KCAL/MOL
REMARK 927      BINDING AFFINITY PREDICTED BY RF-SCORE:    0.00 PKD
ROOT
HETATM    1  C   UNL     1     -12.949  10.559  71.704  1.00  0.00    -0.476 C  
HETATM    2  N   UNL     1     -12.884   9.047  71.902  1.00  0.00    -0.358 N  
HETATM    3  C   UNL     1     -13.827   8.660  73.037  1.00  0.00     0.245 C  
HETATM    4  C   UNL     1     -13.347   8.362  70.580  1.00  0.00     0.729 C  
HETATM    5  C   UNL     1     -12.893   6.890  70.486  1.00  0.00     0.327 C  
HETATM    6  N   UNL     1     -11.446   6.700  70.681  1.00  0.00    -0.342 NA 
HETATM    7  C   UNL     1     -11.095   7.186  72.029  1.00  0.00    -0.245 C  
HETATM    8  C   UNL     1     -11.425   8.674  72.279  1.00  0.00    -0.353 C  
ENDROOT
BRANCH   6   9
HETATM    9  C   UNL     1     -10.597   7.360  69.644  1.00  0.00    -0.236 C  
HETATM   10  C   UNL     1     -10.187   6.606  68.328  1.00  0.00    -0.171 C  
HETATM   11  C   UNL     1      -9.605   5.210  68.590  1.00  0.00    -0.194 A  
HETATM   12  C   UNL     1      -9.267   7.480  67.372  1.00  0.00    -0.149 C  
HETATM   13  O   UNL     1     -11.442   6.386  67.622  1.00  0.00    -0.668 OA 
HETATM   14  C   UNL     1      -9.755   4.180  67.642  1.00  0.00    -0.176 A  
HETATM   15  C   UNL     1      -9.812   8.882  66.982  1.00  0.00    -0.277 C  
HETATM   16  H   UNL     1     -11.195   5.930  66.826  1.00  0.00     0.000 HD 
HETATM   17  C   UNL     1      -9.523  10.016  67.969  1.00  0.00    -0.150 C  
HETATM   18  C   UNL     1      -9.338   2.871  67.913  1.00  0.00    -0.256 A  
HETATM   19  C   UNL     1      -8.076  10.064  68.438  1.00  0.00    -0.101 C  
HETATM   20  C   UNL     1      -8.751   2.565  69.136  1.00  0.00    -0.132 A  
HETATM   21  C   UNL     1      -7.506   8.705  68.822  1.00  0.00    -0.091 C  
HETATM   22  C   UNL     1      -8.532   3.577  70.063  1.00  0.00    -0.092 A  
HETATM   23  C   UNL     1      -8.941   4.886  69.788  1.00  0.00    -0.138 A  
HETATM   24  C   UNL     1      -7.785   7.632  67.775  1.00  0.00    -0.122 C  
ENDBRANCH   6   9
TORSDOF 1
ENDMDL
MODEL       96
REMARK 921   NORMALIZED FREE ENERGY PREDICTED BY IDOCK:   -3.18 KCAL/MOL
REMARK 922        TOTAL FREE ENERGY PREDICTED BY IDOCK:   -3.76 KCAL/MOL
REMARK 923 INTER-LIGAND FREE ENERGY PREDICTED BY IDOCK:   -3.62 KCAL/MOL
REMARK 924 INTRA-LIGAND FREE ENERGY PREDICTED BY IDOCK:   -0.15 KCAL/MOL
REMARK 927      BINDING AFFINITY PREDICTED BY RF-SCORE:    0.00 PKD
ROOT
HETATM    1  C   UNL     1      -9.994  11.433  66.890  1.00  0.00    -0.206 C  
HETATM    2  N   UNL     1      -8.701  11.162  67.654  1.00  0.00    -0.128 N  
HETATM    3  C   UNL     1      -7.860  12.435  67.662  1.00  0.00    -0.163 C  
HETATM    4  C   UNL     1      -9.072  10.772  69.117  1.00  0.00    -0.095 C  
HETATM    5  C   UNL     1      -7.925  10.037  69.843  1.00  0.00    -0.171 C  
HETATM    6  N   UNL     1      -7.415   8.864  69.114  1.00  0.00    -0.072 NA 
HETATM    7  C   UNL     1      -6.894   9.321  67.812  1.00  0.00    -0.079 C  
HETATM    8  C   UNL     1      -7.936  10.030  66.918  1.00  0.00    -0.113 C  
ENDROOT
BRANCH   6   9
HETATM    9  C   UNL     1      -8.420   7.774  68.927  1.00  0.00    -0.129 C  
HETATM   10  C   UNL     1      -8.942   6.932  70.146  1.00  0.00    -0.149 C  
HETATM   11  C   UNL     1      -7.810   6.378  71.023  1.00  0.00    -0.110 A  
HETATM   12  C   UNL     1      -9.989   5.813  69.725  1.00  0.00    -0.250 C  
HETATM   13  O   UNL     1      -9.657   7.888  70.979  1.00  0.00    -0.159 OA 
HETATM   14  C   UNL     1      -8.009   6.164  72.400  1.00  0.00    -0.105 A  
HETATM   15  C   UNL     1     -11.217   6.292  68.902  1.00  0.00    -0.387 C  
HETATM   16  H   UNL     1      -9.973   7.379  71.716  1.00  0.00     0.000 HD 
HETATM   17  C   UNL     1     -11.015   6.393  67.388  1.00  0.00    -0.463 C  
HETATM   18  C   UNL     1      -6.957   5.774  73.239  1.00  0.00    -0.085 A  
HETATM   19  C   UNL     1     -10.347   5.170  66.777  1.00  0.00    -0.306 C  
HETATM   20  C   UNL     1      -5.684   5.580  72.715  1.00  0.00    -0.023 A  
HETATM   21  C   UNL     1      -9.143   4.667  67.563  1.00  0.00    -0.134 C  
HETATM   22  C   UNL     1      -5.475   5.721  71.348  1.00  0.00    -0.017 A  
HETATM   23  C   UNL     1      -6.529   6.102  70.510  1.00  0.00    -0.043 A  
HETATM   24  C   UNL     1      -9.424   4.542  69.056  1.00  0.00    -0.229 C  
ENDBRANCH   6   9
TORSDOF 1
ENDMDL
MODEL       97
REMARK 921   NORMALIZED FREE ENERGY PREDICTED BY IDOCK:   -3.17 KCAL/MOL
REMARK 922        TOTAL FREE ENERGY PREDICTED BY IDOCK:   -3.75 KCAL/MOL
REMARK 923 INTER-LIGAND FREE ENERGY PREDICTED BY IDOCK:   -3.43 KCAL/MOL
REMARK 924 INTRA-LIGAND FREE ENERGY PREDICTED BY IDOCK:   -0.32 KCAL/MOL
REMARK 927      BINDING AFFINITY PREDICTED BY RF-SCORE:    0.00 PKD
ROOT
HETATM    1  C   UNL     1     -10.379  13.406  64.538  1.00  0.00    -0.373 C  
HETATM    2  N   UNL     1     -10.476  13.195  66.046  1.00  0.00    -0.279 N  
HETATM    3  C   UNL     1     -11.174  14.402  66.666  1.00  0.00    -0.339 C  
HETATM    4  C   UNL     1     -11.322  11.911  66.305  1.00  0.00    -0.334 C  
HETATM    5  C   UNL     1     -11.107  11.337  67.721  1.00  0.00    -0.271 C  
HETATM    6  N   UNL     1      -9.694  11.094  68.057  1.00  0.00    -0.171 NA 
HETATM    7  C   UNL     1      -8.977  12.382  67.988  1.00  0.00    -0.194 C  
HETATM    8  C   UNL     1      -9.034  13.074  66.608  1.00  0.00    -0.124 C  
ENDROOT
BRANCH   6   9
HETATM    9  C   UNL     1      -9.026  10.072  67.196  1.00  0.00    -0.135 C  
HETATM   10  C   UNL     1      -8.547   8.699  67.789  1.00  0.00    -0.136 C  
HETATM   11  C   UNL     1      -7.709   8.853  69.066  1.00  0.00    -0.090 A  
HETATM   12  C   UNL     1      -7.845   7.767  66.709  1.00  0.00    -0.106 C  
HETATM   13  O   UNL     1      -9.771   8.024  68.197  1.00  0.00    -0.153 OA 
HETATM   14  C   UNL     1      -7.713   7.849  70.053  1.00  0.00    -0.089 A  
HETATM   15  C   UNL     1      -8.653   7.484  65.412  1.00  0.00    -0.069 C  
HETATM   16  H   UNL     1      -9.482   7.193  68.556  1.00  0.00     0.000 HD 
HETATM   17  C   UNL     1      -8.530   8.529  64.301  1.00  0.00    -0.068 C  
HETATM   18  C   UNL     1      -7.053   8.023  71.276  1.00  0.00    -0.057 A  
HETATM   19  C   UNL     1      -7.097   8.950  64.013  1.00  0.00    -0.094 C  
HETATM   20  C   UNL     1      -6.365   9.204  71.534  1.00  0.00    -0.060 A  
HETATM   21  C   UNL     1      -6.272   9.228  65.262  1.00  0.00    -0.064 C  
HETATM   22  C   UNL     1      -6.292  10.184  70.552  1.00  0.00    -0.117 A  
HETATM   23  C   UNL     1      -6.944  10.005  69.327  1.00  0.00    -0.063 A  
HETATM   24  C   UNL     1      -6.399   8.127  66.309  1.00  0.00    -0.046 C  
ENDBRANCH   6   9
TORSDOF 1
ENDMDL
MODEL       98
REMARK 921   NORMALIZED FREE ENERGY PREDICTED BY IDOCK:   -3.17 KCAL/MOL
REMARK 922        TOTAL FREE ENERGY PREDICTED BY IDOCK:   -3.74 KCAL/MOL
REMARK 923 INTER-LIGAND FREE ENERGY PREDICTED BY IDOCK:   -3.45 KCAL/MOL
REMARK 924 INTRA-LIGAND FREE ENERGY PREDICTED BY IDOCK:   -0.29 KCAL/MOL
REMARK 927      BINDING AFFINITY PREDICTED BY RF-SCORE:    0.00 PKD
ROOT
HETATM    1  C   UNL     1      -9.505   8.791  71.604  1.00  0.00    -0.288 C  
HETATM    2  N   UNL     1     -10.258   8.589  70.292  1.00  0.00    -0.189 N  
HETATM    3  C   UNL     1     -11.526   7.789  70.574  1.00  0.00    -0.205 C  
HETATM    4  C   UNL     1     -10.639   9.991  69.727  1.00  0.00    -0.267 C  
HETATM    5  C   UNL     1     -10.975   9.951  68.222  1.00  0.00    -0.196 C  
HETATM    6  N   UNL     1      -9.926   9.333  67.393  1.00  0.00    -0.185 NA 
HETATM    7  C   UNL     1      -9.744   7.940  67.844  1.00  0.00    -0.155 C  
HETATM    8  C   UNL     1      -9.338   7.794  69.327  1.00  0.00    -0.148 C  
ENDROOT
BRANCH   6   9
HETATM    9  C   UNL     1      -8.624  10.066  67.407  1.00  0.00    -0.125 C  
HETATM   10  C   UNL     1      -8.057  10.739  66.106  1.00  0.00    -0.160 C  
HETATM   11  C   UNL     1      -8.049   9.796  64.894  1.00  0.00    -0.140 A  
HETATM   12  C   UNL     1      -6.652  11.447  66.335  1.00  0.00    -0.020 C  
HETATM   13  O   UNL     1      -9.013  11.790  65.785  1.00  0.00    -0.372 OA 
HETATM   14  C   UNL     1      -8.188  10.305  63.589  1.00  0.00    -0.158 A  
HETATM   15  C   UNL     1      -6.582  12.484  67.491  1.00  0.00    -0.150 C  
HETATM   16  H   UNL     1      -8.670  12.197  64.998  1.00  0.00     0.000 HD 
HETATM   17  C   UNL     1      -6.302  11.919  68.886  1.00  0.00    -0.073 C  
HETATM   18  C   UNL     1      -8.304   9.454  62.482  1.00  0.00    -0.179 A  
HETATM   19  C   UNL     1      -5.149  10.927  68.923  1.00  0.00    -0.041 C  
HETATM   20  C   UNL     1      -8.275   8.075  62.657  1.00  0.00    -0.129 A  
HETATM   21  C   UNL     1      -5.181   9.900  67.799  1.00  0.00    -0.035 C  
HETATM   22  C   UNL     1      -8.074   7.549  63.927  1.00  0.00    -0.029 A  
HETATM   23  C   UNL     1      -7.949   8.399  65.031  1.00  0.00    -0.139 A  
HETATM   24  C   UNL     1      -5.414  10.531  66.431  1.00  0.00    -0.067 C  
ENDBRANCH   6   9
TORSDOF 1
ENDMDL
MODEL       99
REMARK 921   NORMALIZED FREE ENERGY PREDICTED BY IDOCK:   -3.12 KCAL/MOL
REMARK 922        TOTAL FREE ENERGY PREDICTED BY IDOCK:   -3.69 KCAL/MOL
REMARK 923 INTER-LIGAND FREE ENERGY PREDICTED BY IDOCK:   -3.35 KCAL/MOL
REMARK 924 INTRA-LIGAND FREE ENERGY PREDICTED BY IDOCK:   -0.34 KCAL/MOL
REMARK 927      BINDING AFFINITY PREDICTED BY RF-SCORE:    0.00 PKD
ROOT
HETATM    1  C   UNL     1     -11.005   7.280  73.095  1.00  0.00    -0.340 C  
HETATM    2  N   UNL     1     -11.415   7.355  71.627  1.00  0.00    -0.256 N  
HETATM    3  C   UNL     1     -12.925   7.557  71.550  1.00  0.00    -0.359 C  
HETATM    4  C   UNL     1     -10.690   8.574  70.980  1.00  0.00    -0.228 C  
HETATM    5  C   UNL     1     -10.646   8.487  69.440  1.00  0.00    -0.195 C  
HETATM    6  N   UNL     1     -10.080   7.226  68.931  1.00  0.00    -0.175 NA 
HETATM    7  C   UNL     1     -10.923   6.115  69.413  1.00  0.00    -0.385 C  
HETATM    8  C   UNL     1     -11.028   6.012  70.951  1.00  0.00    -0.289 C  
ENDROOT
BRANCH   6   9
HETATM    9  C   UNL     1      -8.650   7.003  69.301  1.00  0.00    -0.136 C  
HETATM   10  C   UNL     1      -7.514   7.048  68.218  1.00  0.00    -0.099 C  
HETATM   11  C   UNL     1      -7.818   6.180  66.989  1.00  0.00    -0.101 A  
HETATM   12  C   UNL     1      -6.070   6.765  68.821  1.00  0.00    -0.026 C  
HETATM   13  O   UNL     1      -7.510   8.424  67.741  1.00  0.00    -0.094 OA 
HETATM   14  C   UNL     1      -7.313   6.528  65.722  1.00  0.00    -0.079 A  
HETATM   15  C   UNL     1      -5.636   7.653  70.020  1.00  0.00    -0.023 C  
HETATM   16  H   UNL     1      -6.823   8.451  67.086  1.00  0.00     0.000 HD 
HETATM   17  C   UNL     1      -6.089   7.183  71.404  1.00  0.00    -0.037 C  
HETATM   18  C   UNL     1      -7.678   5.819  64.570  1.00  0.00    -0.095 A  
HETATM   19  C   UNL     1      -5.844   5.703  71.658  1.00  0.00    -0.025 C  
HETATM   20  C   UNL     1      -8.549   4.740  64.663  1.00  0.00    -0.147 A  
HETATM   21  C   UNL     1      -6.250   4.802  70.498  1.00  0.00    -0.022 C  
HETATM   22  C   UNL     1      -9.011   4.336  65.910  1.00  0.00    -0.124 A  
HETATM   23  C   UNL     1      -8.638   5.038  67.061  1.00  0.00    -0.105 A  
HETATM   24  C   UNL     1      -5.727   5.299  69.156  1.00  0.00    -0.012 C  
ENDBRANCH   6   9
TORSDOF 1
ENDMDL
MODEL      100
REMARK 921   NORMALIZED FREE ENERGY PREDICTED BY IDOCK:   -3.07 KCAL/MOL
REMARK 922        TOTAL FREE ENERGY PREDICTED BY IDOCK:   -3.64 KCAL/MOL
REMARK 923 INTER-LIGAND FREE ENERGY PREDICTED BY IDOCK:   -3.39 KCAL/MOL
REMARK 924 INTRA-LIGAND FREE ENERGY PREDICTED BY IDOCK:   -0.25 KCAL/MOL
REMARK 927      BINDING AFFINITY PREDICTED BY RF-SCORE:    0.00 PKD
ROOT
HETATM    1  C   UNL     1      -7.609   5.358  64.454  1.00  0.00    -0.075 C  
HETATM    2  N   UNL     1      -8.723   4.704  65.265  1.00  0.00    -0.132 N  
HETATM    3  C   UNL     1      -9.672   3.989  64.306  1.00  0.00    -0.169 C  
HETATM    4  C   UNL     1      -8.078   3.666  66.233  1.00  0.00    -0.096 C  
HETATM    5  C   UNL     1      -9.011   3.287  67.402  1.00  0.00    -0.151 C  
HETATM    6  N   UNL     1      -9.518   4.445  68.158  1.00  0.00    -0.146 NA 
HETATM    7  C   UNL     1     -10.292   5.296  67.232  1.00  0.00    -0.199 C  
HETATM    8  C   UNL     1      -9.486   5.822  66.023  1.00  0.00    -0.086 C  
ENDROOT
BRANCH   6   9
HETATM    9  C   UNL     1      -8.457   5.241  68.845  1.00  0.00    -0.091 C  
HETATM   10  C   UNL     1      -8.434   5.385  70.409  1.00  0.00    -0.117 C  
HETATM   11  C   UNL     1      -9.789   5.808  70.995  1.00  0.00    -0.227 A  
HETATM   12  C   UNL     1      -7.236   6.289  70.931  1.00  0.00    -0.071 C  
HETATM   13  O   UNL     1      -8.193   4.036  70.902  1.00  0.00    -0.065 OA 
HETATM   14  C   UNL     1     -10.165   5.410  72.291  1.00  0.00    -0.244 A  
HETATM   15  C   UNL     1      -5.811   5.888  70.457  1.00  0.00    -0.025 C  
HETATM   16  H   UNL     1      -8.179   4.123  71.848  1.00  0.00     0.000 HD 
HETATM   17  C   UNL     1      -5.374   6.440  69.099  1.00  0.00    -0.012 C  
HETATM   18  C   UNL     1     -11.442   5.684  72.798  1.00  0.00    -0.328 A  
HETATM   19  C   UNL     1      -5.647   7.927  68.926  1.00  0.00    -0.030 C  
HETATM   20  C   UNL     1     -12.368   6.370  72.020  1.00  0.00    -0.268 A  
HETATM   21  C   UNL     1      -7.033   8.358  69.388  1.00  0.00    -0.050 C  
HETATM   22  C   UNL     1     -12.000   6.830  70.761  1.00  0.00    -0.433 A  
HETATM   23  C   UNL     1     -10.721   6.565  70.260  1.00  0.00    -0.307 A  
HETATM   24  C   UNL     1      -7.388   7.816  70.768  1.00  0.00    -0.065 C  
ENDBRANCH   6   9
TORSDOF 1
ENDMDL
MODEL      101
REMARK 921   NORMALIZED FREE ENERGY PREDICTED BY IDOCK:   -3.04 KCAL/MOL
REMARK 922        TOTAL FREE ENERGY PREDICTED BY IDOCK:   -3.61 KCAL/MOL
REMARK 923 INTER-LIGAND FREE ENERGY PREDICTED BY IDOCK:   -3.22 KCAL/MOL
REMARK 924 INTRA-LIGAND FREE ENERGY PREDICTED BY IDOCK:   -0.39 KCAL/MOL
REMARK 927      BINDING AFFINITY PREDICTED BY RF-SCORE:    0.00 PKD
ROOT
HETATM    1  C   UNL     1     -11.690  16.316  72.505  1.00  0.00    -0.393 C  
HETATM    2  N   UNL     1     -12.156  15.163  71.621  1.00  0.00    -0.330 N  
HETATM    3  C   UNL     1     -13.098  14.276  72.430  1.00  0.00    -0.431 C  
HETATM    4  C   UNL     1     -12.919  15.760  70.400  1.00  0.00     0.062 C  
HETATM    5  C   UNL     1     -13.028  14.766  69.226  1.00  0.00     0.801 C  
HETATM    6  N   UNL     1     -11.734  14.207  68.797  1.00  0.00    -0.324 NA 
HETATM    7  C   UNL     1     -11.145  13.481  69.939  1.00  0.00     0.188 C  
HETATM    8  C   UNL     1     -10.905  14.349  71.194  1.00  0.00     1.099 C  
ENDROOT
BRANCH   6   9
HETATM    9  C   UNL     1     -10.775  15.221  68.265  1.00  0.00    -0.254 C  
HETATM   10  C   UNL     1     -10.489  15.340  66.725  1.00  0.00    -0.293 C  
HETATM   11  C   UNL     1     -10.156  13.992  66.069  1.00  0.00    -0.327 A  
HETATM   12  C   UNL     1      -9.424  16.467  66.376  1.00  0.00    -0.320 C  
HETATM   13  O   UNL     1     -11.756  15.761  66.143  1.00  0.00     0.279 OA 
HETATM   14  C   UNL     1     -10.472  13.754  64.718  1.00  0.00    -0.448 A  
HETATM   15  C   UNL     1      -9.718  17.889  66.928  1.00  0.00    -0.309 C  
HETATM   16  H   UNL     1     -11.584  15.833  65.212  1.00  0.00     0.000 HD 
HETATM   17  C   UNL     1      -9.249  18.166  68.358  1.00  0.00    -0.316 C  
HETATM   18  C   UNL     1     -10.286  12.494  64.134  1.00  0.00    -0.416 A  
HETATM   19  C   UNL     1      -7.820  17.721  68.630  1.00  0.00    -0.278 C  
HETATM   20  C   UNL     1      -9.771  11.447  64.889  1.00  0.00    -0.283 A  
HETATM   21  C   UNL     1      -7.493  16.333  68.094  1.00  0.00    -0.148 C  
HETATM   22  C   UNL     1      -9.391  11.672  66.207  1.00  0.00    -0.228 A  
HETATM   23  C   UNL     1      -9.568  12.933  66.786  1.00  0.00    -0.246 A  
HETATM   24  C   UNL     1      -7.942  16.138  66.651  1.00  0.00    -0.305 C  
ENDBRANCH   6   9
TORSDOF 1
ENDMDL
MODEL      102
REMARK 921   NORMALIZED FREE ENERGY PREDICTED BY IDOCK:   -3.01 KCAL/MOL
REMARK 922        TOTAL FREE ENERGY PREDICTED BY IDOCK:   -3.58 KCAL/MOL
REMARK 923 INTER-LIGAND FREE ENERGY PREDICTED BY IDOCK:   -3.31 KCAL/MOL
REMARK 924 INTRA-LIGAND FREE ENERGY PREDICTED BY IDOCK:   -0.27 KCAL/MOL
REMARK 927      BINDING AFFINITY PREDICTED BY RF-SCORE:    0.00 PKD
ROOT
HETATM    1  C   UNL     1      -9.266   9.197  66.957  1.00  0.00    -0.135 C  
HETATM    2  N   UNL     1      -8.402   7.984  67.289  1.00  0.00    -0.121 N  
HETATM    3  C   UNL     1      -7.489   7.692  66.101  1.00  0.00    -0.083 C  
HETATM    4  C   UNL     1      -7.538   8.328  68.540  1.00  0.00    -0.100 C  
HETATM    5  C   UNL     1      -6.987   7.070  69.243  1.00  0.00    -0.074 C  
HETATM    6  N   UNL     1      -8.021   6.082  69.592  1.00  0.00    -0.104 NA 
HETATM    7  C   UNL     1      -8.676   5.641  68.345  1.00  0.00    -0.109 C  
HETATM    8  C   UNL     1      -9.344   6.776  67.537  1.00  0.00    -0.124 C  
ENDROOT
BRANCH   6   9
HETATM    9  C   UNL     1      -9.033   6.575  70.574  1.00  0.00    -0.152 C  
HETATM   10  C   UNL     1      -8.718   6.622  72.112  1.00  0.00    -0.130 C  
HETATM   11  C   UNL     1      -8.149   5.301  72.651  1.00  0.00    -0.110 A  
HETATM   12  C   UNL     1      -9.936   7.159  72.980  1.00  0.00    -0.247 C  
HETATM   13  O   UNL     1      -7.644   7.597  72.241  1.00  0.00    -0.075 OA 
HETATM   14  C   UNL     1      -7.264   5.295  73.745  1.00  0.00    -0.083 A  
HETATM   15  C   UNL     1     -10.529   8.533  72.561  1.00  0.00    -0.303 C  
HETATM   16  H   UNL     1      -7.453   7.626  73.171  1.00  0.00     0.000 HD 
HETATM   17  C   UNL     1     -11.587   8.502  71.456  1.00  0.00    -0.352 C  
HETATM   18  C   UNL     1      -6.641   4.116  74.175  1.00  0.00    -0.052 A  
HETATM   19  C   UNL     1     -12.661   7.446  71.668  1.00  0.00    -0.399 C  
HETATM   20  C   UNL     1      -6.899   2.915  73.524  1.00  0.00    -0.031 A  
HETATM   21  C   UNL     1     -12.117   6.086  72.088  1.00  0.00    -0.201 C  
HETATM   22  C   UNL     1      -7.819   2.882  72.482  1.00  0.00    -0.058 A  
HETATM   23  C   UNL     1      -8.447   4.059  72.060  1.00  0.00    -0.110 A  
HETATM   24  C   UNL     1     -11.105   6.183  73.224  1.00  0.00    -0.160 C  
ENDBRANCH   6   9
TORSDOF 1
ENDMDL
MODEL      103
REMARK 921   NORMALIZED FREE ENERGY PREDICTED BY IDOCK:   -2.96 KCAL/MOL
REMARK 922        TOTAL FREE ENERGY PREDICTED BY IDOCK:   -3.52 KCAL/MOL
REMARK 923 INTER-LIGAND FREE ENERGY PREDICTED BY IDOCK:   -3.14 KCAL/MOL
REMARK 924 INTRA-LIGAND FREE ENERGY PREDICTED BY IDOCK:   -0.38 KCAL/MOL
REMARK 927      BINDING AFFINITY PREDICTED BY RF-SCORE:    0.00 PKD
ROOT
HETATM    1  C   UNL     1      -5.888   6.543  65.113  1.00  0.00    -0.026 C  
HETATM    2  N   UNL     1      -7.132   7.408  64.935  1.00  0.00    -0.058 N  
HETATM    3  C   UNL     1      -7.340   7.667  63.445  1.00  0.00    -0.090 C  
HETATM    4  C   UNL     1      -8.355   6.628  65.505  1.00  0.00    -0.144 C  
HETATM    5  C   UNL     1      -9.556   7.548  65.808  1.00  0.00     0.394 C  
HETATM    6  N   UNL     1      -9.226   8.688  66.679  1.00  0.00    -0.168 NA 
HETATM    7  C   UNL     1      -8.203   9.506  65.999  1.00  0.00    -0.115 C  
HETATM    8  C   UNL     1      -6.894   8.752  65.674  1.00  0.00    -0.075 C  
ENDROOT
BRANCH   6   9
HETATM    9  C   UNL     1      -8.770   8.302  68.048  1.00  0.00    -0.135 C  
HETATM   10  C   UNL     1      -9.703   8.488  69.298  1.00  0.00    -0.173 C  
HETATM   11  C   UNL     1     -10.316   9.892  69.389  1.00  0.00    -0.238 A  
HETATM   12  C   UNL     1      -9.016   8.034  70.658  1.00  0.00    -0.148 C  
HETATM   13  O   UNL     1     -10.819   7.582  69.065  1.00  0.00    -0.366 OA 
HETATM   14  C   UNL     1     -11.573  10.089  69.992  1.00  0.00    -0.279 A  
HETATM   15  C   UNL     1      -8.438   6.592  70.691  1.00  0.00    -0.138 C  
HETATM   16  H   UNL     1     -11.384   7.694  69.821  1.00  0.00     0.000 HD 
HETATM   17  C   UNL     1      -7.016   6.425  70.149  1.00  0.00    -0.063 C  
HETATM   18  C   UNL     1     -12.202  11.341  69.978  1.00  0.00    -0.389 A  
HETATM   19  C   UNL     1      -6.034   7.458  70.679  1.00  0.00    -0.031 C  
HETATM   20  C   UNL     1     -11.582  12.425  69.368  1.00  0.00    -0.371 A  
HETATM   21  C   UNL     1      -6.571   8.884  70.669  1.00  0.00    -0.050 C  
HETATM   22  C   UNL     1     -10.312  12.273  68.823  1.00  0.00    -0.156 A  
HETATM   23  C   UNL     1      -9.681  11.025  68.846  1.00  0.00    -0.184 A  
HETATM   24  C   UNL     1      -7.969   8.990  71.266  1.00  0.00    -0.139 C  
ENDBRANCH   6   9
TORSDOF 1
ENDMDL
MODEL      104
REMARK 921   NORMALIZED FREE ENERGY PREDICTED BY IDOCK:   -2.95 KCAL/MOL
REMARK 922        TOTAL FREE ENERGY PREDICTED BY IDOCK:   -3.52 KCAL/MOL
REMARK 923 INTER-LIGAND FREE ENERGY PREDICTED BY IDOCK:   -3.14 KCAL/MOL
REMARK 924 INTRA-LIGAND FREE ENERGY PREDICTED BY IDOCK:   -0.38 KCAL/MOL
REMARK 927      BINDING AFFINITY PREDICTED BY RF-SCORE:    0.00 PKD
ROOT
HETATM    1  C   UNL     1     -10.718   5.554  70.987  1.00  0.00    -0.205 C  
HETATM    2  N   UNL     1     -10.471   7.029  71.292  1.00  0.00    -0.207 N  
HETATM    3  C   UNL     1     -11.167   7.381  72.604  1.00  0.00    -0.332 C  
HETATM    4  C   UNL     1      -8.934   7.246  71.441  1.00  0.00    -0.138 C  
HETATM    5  C   UNL     1      -8.528   8.726  71.286  1.00  0.00    -0.186 C  
HETATM    6  N   UNL     1      -9.014   9.350  70.044  1.00  0.00    -0.194 NA 
HETATM    7  C   UNL     1     -10.489   9.294  70.048  1.00  0.00    -0.226 C  
HETATM    8  C   UNL     1     -11.075   7.867  70.134  1.00  0.00    -0.201 C  
ENDROOT
BRANCH   6   9
HETATM    9  C   UNL     1      -8.466   8.739  68.796  1.00  0.00    -0.129 C  
HETATM   10  C   UNL     1      -7.195   9.333  68.090  1.00  0.00    -0.078 C  
HETATM   11  C   UNL     1      -7.284  10.850  67.867  1.00  0.00    -0.086 A  
HETATM   12  C   UNL     1      -6.794   8.547  66.768  1.00  0.00    -0.069 C  
HETATM   13  O   UNL     1      -6.114   9.135  69.045  1.00  0.00    -0.042 OA 
HETATM   14  C   UNL     1      -6.120  11.642  67.850  1.00  0.00    -0.050 A  
HETATM   15  C   UNL     1      -6.599   7.012  66.911  1.00  0.00    -0.055 C  
HETATM   16  H   UNL     1      -5.345   9.495  68.618  1.00  0.00     0.000 HD 
HETATM   17  C   UNL     1      -7.865   6.159  66.797  1.00  0.00    -0.104 C  
HETATM   18  C   UNL     1      -6.188  13.039  67.769  1.00  0.00    -0.149 A  
HETATM   19  C   UNL     1      -8.744   6.526  65.611  1.00  0.00    -0.102 C  
HETATM   20  C   UNL     1      -7.423  13.673  67.694  1.00  0.00    -0.191 A  
HETATM   21  C   UNL     1      -8.950   8.025  65.435  1.00  0.00     0.013 C  
HETATM   22  C   UNL     1      -8.584  12.911  67.644  1.00  0.00    -0.182 A  
HETATM   23  C   UNL     1      -8.515  11.515  67.715  1.00  0.00    -0.137 A  
HETATM   24  C   UNL     1      -7.646   8.811  65.510  1.00  0.00    -0.087 C  
ENDBRANCH   6   9
TORSDOF 1
ENDMDL
MODEL      105
REMARK 921   NORMALIZED FREE ENERGY PREDICTED BY IDOCK:   -2.93 KCAL/MOL
REMARK 922        TOTAL FREE ENERGY PREDICTED BY IDOCK:   -3.50 KCAL/MOL
REMARK 923 INTER-LIGAND FREE ENERGY PREDICTED BY IDOCK:   -3.11 KCAL/MOL
REMARK 924 INTRA-LIGAND FREE ENERGY PREDICTED BY IDOCK:   -0.39 KCAL/MOL
REMARK 927      BINDING AFFINITY PREDICTED BY RF-SCORE:    0.00 PKD
ROOT
HETATM    1  C   UNL     1      -8.413  11.121  68.367  1.00  0.00    -0.151 C  
HETATM    2  N   UNL     1      -7.908  10.034  67.423  1.00  0.00    -0.099 N  
HETATM    3  C   UNL     1      -7.366  10.696  66.159  1.00  0.00    -0.138 C  
HETATM    4  C   UNL     1      -6.762   9.258  68.140  1.00  0.00    -0.060 C  
HETATM    5  C   UNL     1      -6.493   7.878  67.505  1.00  0.00    -0.056 C  
HETATM    6  N   UNL     1      -7.692   7.031  67.394  1.00  0.00    -0.108 NA 
HETATM    7  C   UNL     1      -8.672   7.729  66.538  1.00  0.00    -0.148 C  
HETATM    8  C   UNL     1      -9.106   9.115  67.063  1.00  0.00    -0.123 C  
ENDROOT
BRANCH   6   9
HETATM    9  C   UNL     1      -8.306   6.662  68.705  1.00  0.00    -0.120 C  
HETATM   10  C   UNL     1      -8.118   5.227  69.315  1.00  0.00    -0.092 C  
HETATM   11  C   UNL     1      -8.434   4.102  68.319  1.00  0.00    -0.104 A  
HETATM   12  C   UNL     1      -8.868   5.039  70.704  1.00  0.00    -0.152 C  
HETATM   13  O   UNL     1      -6.691   5.124  69.589  1.00  0.00    -0.047 OA 
HETATM   14  C   UNL     1      -7.779   2.859  68.408  1.00  0.00    -0.055 A  
HETATM   15  C   UNL     1      -8.548   6.084  71.808  1.00  0.00    -0.134 C  
HETATM   16  H   UNL     1      -6.576   4.256  69.958  1.00  0.00     0.000 HD 
HETATM   17  C   UNL     1      -9.365   7.377  71.767  1.00  0.00    -0.161 C  
HETATM   18  C   UNL     1      -7.964   1.864  67.440  1.00  0.00    -0.065 A  
HETATM   19  C   UNL     1     -10.860   7.151  71.596  1.00  0.00    -0.250 C  
HETATM   20  C   UNL     1      -8.816   2.089  66.364  1.00  0.00    -0.126 A  
HETATM   21  C   UNL     1     -11.211   6.126  70.526  1.00  0.00    -0.403 C  
HETATM   22  C   UNL     1      -9.524   3.283  66.287  1.00  0.00    -0.095 A  
HETATM   23  C   UNL     1      -9.346   4.272  67.260  1.00  0.00    -0.186 A  
HETATM   24  C   UNL     1     -10.397   4.842  70.651  1.00  0.00    -0.233 C  
ENDBRANCH   6   9
TORSDOF 1
ENDMDL
MODEL      106
REMARK 921   NORMALIZED FREE ENERGY PREDICTED BY IDOCK:   -2.81 KCAL/MOL
REMARK 922        TOTAL FREE ENERGY PREDICTED BY IDOCK:   -3.37 KCAL/MOL
REMARK 923 INTER-LIGAND FREE ENERGY PREDICTED BY IDOCK:   -3.97 KCAL/MOL
REMARK 924 INTRA-LIGAND FREE ENERGY PREDICTED BY IDOCK:    0.61 KCAL/MOL
REMARK 927      BINDING AFFINITY PREDICTED BY RF-SCORE:    0.00 PKD
ROOT
HETATM    1  C   UNL     1      -8.377  18.178  68.606  1.00  0.00    -0.275 C  
HETATM    2  N   UNL     1      -9.802  17.749  68.267  1.00  0.00    -0.321 N  
HETATM    3  C   UNL     1     -10.705  18.979  68.299  1.00  0.00    -0.022 C  
HETATM    4  C   UNL     1      -9.800  17.138  66.833  1.00  0.00    -0.285 C  
HETATM    5  C   UNL     1     -11.041  16.263  66.560  1.00  0.00     0.120 C  
HETATM    6  N   UNL     1     -11.258  15.208  67.565  1.00  0.00    -0.327 NA 
HETATM    7  C   UNL     1     -11.452  15.855  68.877  1.00  0.00    -0.386 C  
HETATM    8  C   UNL     1     -10.265  16.729  69.341  1.00  0.00    -0.225 C  
ENDROOT
BRANCH   6   9
HETATM    9  C   UNL     1     -10.164  14.193  67.633  1.00  0.00    -0.241 C  
HETATM   10  C   UNL     1      -9.565  13.554  66.329  1.00  0.00    -0.232 C  
HETATM   11  C   UNL     1     -10.640  13.019  65.372  1.00  0.00    -0.307 A  
HETATM   12  C   UNL     1      -8.427  12.485  66.627  1.00  0.00    -0.006 C  
HETATM   13  O   UNL     1      -8.930  14.663  65.631  1.00  0.00    -0.335 OA 
HETATM   14  C   UNL     1     -10.416  12.994  63.983  1.00  0.00    -0.337 A  
HETATM   15  C   UNL     1      -7.250  12.961  67.522  1.00  0.00    -0.149 C  
HETATM   16  H   UNL     1      -8.568  14.277  64.842  1.00  0.00     0.000 HD 
HETATM   17  C   UNL     1      -7.468  12.857  69.033  1.00  0.00     0.104 C  
HETATM   18  C   UNL     1     -11.426  12.623  63.086  1.00  0.00    -0.167 A  
HETATM   19  C   UNL     1      -8.032  11.516  69.479  1.00  0.00     0.511 C  
HETATM   20  C   UNL     1     -12.680  12.259  63.562  1.00  0.00    -0.512 A  
HETATM   21  C   UNL     1      -9.184  11.014  68.618  1.00  0.00    -0.186 C  
HETATM   22  C   UNL     1     -12.908  12.212  64.932  1.00  0.00     0.244 A  
HETATM   23  C   UNL     1     -11.895  12.574  65.827  1.00  0.00    -0.494 A  
HETATM   24  C   UNL     1      -8.884  11.098  67.126  1.00  0.00    -0.143 C  
ENDBRANCH   6   9
TORSDOF 1
ENDMDL
MODEL      107
REMARK 921   NORMALIZED FREE ENERGY PREDICTED BY IDOCK:   -2.80 KCAL/MOL
REMARK 922        TOTAL FREE ENERGY PREDICTED BY IDOCK:   -3.36 KCAL/MOL
REMARK 923 INTER-LIGAND FREE ENERGY PREDICTED BY IDOCK:   -3.05 KCAL/MOL
REMARK 924 INTRA-LIGAND FREE ENERGY PREDICTED BY IDOCK:   -0.31 KCAL/MOL
REMARK 927      BINDING AFFINITY PREDICTED BY RF-SCORE:    0.00 PKD
ROOT
HETATM    1  C   UNL     1      -5.897  13.687  70.479  1.00  0.00    -0.169 C  
HETATM    2  N   UNL     1      -5.913  13.759  68.954  1.00  0.00    -0.081 N  
HETATM    3  C   UNL     1      -5.143  15.001  68.514  1.00  0.00    -0.102 C  
HETATM    4  C   UNL     1      -5.211  12.483  68.398  1.00  0.00    -0.057 C  
HETATM    5  C   UNL     1      -5.566  12.208  66.922  1.00  0.00    -0.007 C  
HETATM    6  N   UNL     1      -7.014  12.150  66.659  1.00  0.00     0.121 NA 
HETATM    7  C   UNL     1      -7.600  13.456  67.019  1.00  0.00     0.206 C  
HETATM    8  C   UNL     1      -7.392  13.866  68.494  1.00  0.00    -0.116 C  
ENDROOT
BRANCH   6   9
HETATM    9  C   UNL     1      -7.722  11.041  67.367  1.00  0.00    -0.114 C  
HETATM   10  C   UNL     1      -7.774   9.593  66.762  1.00  0.00    -0.098 C  
HETATM   11  C   UNL     1      -8.220   9.570  65.293  1.00  0.00    -0.131 A  
HETATM   12  C   UNL     1      -8.592   8.572  67.663  1.00  0.00    -0.133 C  
HETATM   13  O   UNL     1      -6.389   9.141  66.762  1.00  0.00    -0.064 OA 
HETATM   14  C   UNL     1      -7.764   8.564  64.420  1.00  0.00    -0.128 A  
HETATM   15  C   UNL     1      -8.158   8.463  69.151  1.00  0.00    -0.119 C  
HETATM   16  H   UNL     1      -6.420   8.265  66.396  1.00  0.00     0.000 HD 
HETATM   17  C   UNL     1      -8.768   9.490  70.108  1.00  0.00    -0.258 C  
HETATM   18  C   UNL     1      -8.063   8.593  63.052  1.00  0.00    -0.174 A  
HETATM   19  C   UNL     1     -10.273   9.652  69.952  1.00  0.00    -0.279 C  
HETATM   20  C   UNL     1      -8.833   9.626  62.529  1.00  0.00    -0.257 A  
HETATM   21  C   UNL     1     -10.736   9.754  68.504  1.00  0.00    -0.252 C  
HETATM   22  C   UNL     1      -9.350  10.596  63.380  1.00  0.00    -0.324 A  
HETATM   23  C   UNL     1      -9.059  10.560  64.748  1.00  0.00    -0.242 A  
HETATM   24  C   UNL     1     -10.131   8.674  67.615  1.00  0.00    -0.271 C  
ENDBRANCH   6   9
TORSDOF 1
ENDMDL
MODEL      108
REMARK 921   NORMALIZED FREE ENERGY PREDICTED BY IDOCK:   -2.80 KCAL/MOL
REMARK 922        TOTAL FREE ENERGY PREDICTED BY IDOCK:   -3.35 KCAL/MOL
REMARK 923 INTER-LIGAND FREE ENERGY PREDICTED BY IDOCK:   -3.01 KCAL/MOL
REMARK 924 INTRA-LIGAND FREE ENERGY PREDICTED BY IDOCK:   -0.34 KCAL/MOL
REMARK 927      BINDING AFFINITY PREDICTED BY RF-SCORE:    0.00 PKD
ROOT
HETATM    1  C   UNL     1      -9.251   7.448  70.910  1.00  0.00    -0.154 C  
HETATM    2  N   UNL     1      -9.853   7.597  69.516  1.00  0.00    -0.175 N  
HETATM    3  C   UNL     1     -10.745   8.836  69.498  1.00  0.00    -0.188 C  
HETATM    4  C   UNL     1      -8.687   7.777  68.497  1.00  0.00    -0.128 C  
HETATM    5  C   UNL     1      -9.117   7.475  67.047  1.00  0.00    -0.135 C  
HETATM    6  N   UNL     1      -9.746   6.155  66.875  1.00  0.00    -0.143 NA 
HETATM    7  C   UNL     1     -10.960   6.111  67.714  1.00  0.00    -0.303 C  
HETATM    8  C   UNL     1     -10.703   6.332  69.222  1.00  0.00    -0.305 C  
ENDROOT
BRANCH   6   9
HETATM    9  C   UNL     1      -8.848   5.003  67.186  1.00  0.00    -0.106 C  
HETATM   10  C   UNL     1      -7.932   4.365  66.080  1.00  0.00    -0.099 C  
HETATM   11  C   UNL     1      -8.692   4.030  64.789  1.00  0.00    -0.119 A  
HETATM   12  C   UNL     1      -7.072   3.140  66.616  1.00  0.00    -0.054 C  
HETATM   13  O   UNL     1      -6.991   5.419  65.725  1.00  0.00    -0.063 OA 
HETATM   14  C   UNL     1      -8.036   4.055  63.543  1.00  0.00    -0.087 A  
HETATM   15  C   UNL     1      -6.202   3.406  67.875  1.00  0.00    -0.032 C  
HETATM   16  H   UNL     1      -6.438   5.033  65.056  1.00  0.00     0.000 HD 
HETATM   17  C   UNL     1      -6.906   3.247  69.225  1.00  0.00    -0.041 C  
HETATM   18  C   UNL     1      -8.736   3.870  62.344  1.00  0.00    -0.088 A  
HETATM   19  C   UNL     1      -7.723   1.969  69.342  1.00  0.00    -0.045 C  
HETATM   20  C   UNL     1     -10.108   3.648  62.366  1.00  0.00    -0.143 A  
HETATM   21  C   UNL     1      -8.582   1.672  68.120  1.00  0.00    -0.097 C  
HETATM   22  C   UNL     1     -10.769   3.555  63.586  1.00  0.00    -0.265 A  
HETATM   23  C   UNL     1     -10.067   3.730  64.783  1.00  0.00    -0.172 A  
HETATM   24  C   UNL     1      -7.811   1.800  66.812  1.00  0.00    -0.067 C  
ENDBRANCH   6   9
TORSDOF 1
ENDMDL
MODEL      109
REMARK 921   NORMALIZED FREE ENERGY PREDICTED BY IDOCK:   -2.75 KCAL/MOL
REMARK 922        TOTAL FREE ENERGY PREDICTED BY IDOCK:   -3.31 KCAL/MOL
REMARK 923 INTER-LIGAND FREE ENERGY PREDICTED BY IDOCK:   -3.17 KCAL/MOL
REMARK 924 INTRA-LIGAND FREE ENERGY PREDICTED BY IDOCK:   -0.14 KCAL/MOL
REMARK 927      BINDING AFFINITY PREDICTED BY RF-SCORE:    0.00 PKD
ROOT
HETATM    1  C   UNL     1      -9.014  12.481  67.187  1.00  0.00    -0.200 C  
HETATM    2  N   UNL     1      -9.938  11.279  67.362  1.00  0.00    -0.181 N  
HETATM    3  C   UNL     1     -11.300  11.617  66.762  1.00  0.00    -0.286 C  
HETATM    4  C   UNL     1      -9.317  10.070  66.600  1.00  0.00    -0.166 C  
HETATM    5  C   UNL     1      -9.886   8.716  67.073  1.00  0.00    -0.220 C  
HETATM    6  N   UNL     1      -9.793   8.507  68.528  1.00  0.00    -0.168 NA 
HETATM    7  C   UNL     1     -10.567   9.570  69.197  1.00  0.00    -0.222 C  
HETATM    8  C   UNL     1     -10.087  11.005  68.883  1.00  0.00    -0.199 C  
ENDROOT
BRANCH   6   9
HETATM    9  C   UNL     1      -8.395   8.462  69.052  1.00  0.00    -0.119 C  
HETATM   10  C   UNL     1      -7.432   7.272  68.700  1.00  0.00    -0.102 C  
HETATM   11  C   UNL     1      -8.065   5.894  68.939  1.00  0.00    -0.103 A  
HETATM   12  C   UNL     1      -6.000   7.410  69.375  1.00  0.00    -0.030 C  
HETATM   13  O   UNL     1      -7.232   7.371  67.260  1.00  0.00    -0.088 OA 
HETATM   14  C   UNL     1      -7.684   4.784  68.162  1.00  0.00    -0.082 A  
HETATM   15  C   UNL     1      -5.242   8.742  69.120  1.00  0.00    -0.036 C  
HETATM   16  H   UNL     1      -6.650   6.651  67.047  1.00  0.00     0.000 HD 
HETATM   17  C   UNL     1      -5.580   9.900  70.062  1.00  0.00    -0.042 C  
HETATM   18  C   UNL     1      -8.333   3.549  68.283  1.00  0.00    -0.096 A  
HETATM   19  C   UNL     1      -5.590   9.509  71.533  1.00  0.00    -0.074 C  
HETATM   20  C   UNL     1      -9.373   3.395  69.193  1.00  0.00    -0.237 A  
HETATM   21  C   UNL     1      -6.318   8.202  71.819  1.00  0.00    -0.047 C  
HETATM   22  C   UNL     1      -9.726   4.457  70.018  1.00  0.00    -0.286 A  
HETATM   23  C   UNL     1      -9.070   5.687  69.903  1.00  0.00    -0.155 A  
HETATM   24  C   UNL     1      -5.901   7.078  70.878  1.00  0.00    -0.028 C  
ENDBRANCH   6   9
TORSDOF 1
ENDMDL
MODEL      110
REMARK 921   NORMALIZED FREE ENERGY PREDICTED BY IDOCK:   -2.74 KCAL/MOL
REMARK 922        TOTAL FREE ENERGY PREDICTED BY IDOCK:   -3.29 KCAL/MOL
REMARK 923 INTER-LIGAND FREE ENERGY PREDICTED BY IDOCK:   -2.89 KCAL/MOL
REMARK 924 INTRA-LIGAND FREE ENERGY PREDICTED BY IDOCK:   -0.40 KCAL/MOL
REMARK 927      BINDING AFFINITY PREDICTED BY RF-SCORE:    0.00 PKD
ROOT
HETATM    1  C   UNL     1     -12.822  10.003  70.704  1.00  0.00    -0.192 C  
HETATM    2  N   UNL     1     -12.586   8.758  71.554  1.00  0.00    -0.319 N  
HETATM    3  C   UNL     1     -13.814   8.522  72.428  1.00  0.00    -0.294 C  
HETATM    4  C   UNL     1     -12.384   7.544  70.597  1.00  0.00     0.013 C  
HETATM    5  C   UNL     1     -11.690   6.353  71.289  1.00  0.00    -0.300 C  
HETATM    6  N   UNL     1     -10.420   6.703  71.945  1.00  0.00    -0.200 NA 
HETATM    7  C   UNL     1     -10.700   7.716  72.982  1.00  0.00    -0.391 C  
HETATM    8  C   UNL     1     -11.344   9.015  72.449  1.00  0.00     0.035 C  
ENDROOT
BRANCH   6   9
HETATM    9  C   UNL     1      -9.360   7.186  71.009  1.00  0.00    -0.158 C  
HETATM   10  C   UNL     1      -8.194   6.242  70.545  1.00  0.00    -0.118 C  
HETATM   11  C   UNL     1      -7.497   5.527  71.711  1.00  0.00    -0.093 A  
HETATM   12  C   UNL     1      -7.166   6.959  69.568  1.00  0.00    -0.081 C  
HETATM   13  O   UNL     1      -8.850   5.195  69.774  1.00  0.00    -0.103 OA 
HETATM   14  C   UNL     1      -6.914   4.259  71.530  1.00  0.00    -0.038 A  
HETATM   15  C   UNL     1      -7.770   7.642  68.310  1.00  0.00    -0.120 C  
HETATM   16  H   UNL     1      -8.145   4.623  69.493  1.00  0.00     0.000 HD 
HETATM   17  C   UNL     1      -8.281   9.072  68.501  1.00  0.00    -0.112 C  
HETATM   18  C   UNL     1      -6.380   3.539  72.607  1.00  0.00    -0.013 A  
HETATM   19  C   UNL     1      -7.307   9.976  69.242  1.00  0.00    -0.091 C  
HETATM   20  C   UNL     1      -6.410   4.079  73.888  1.00  0.00    -0.037 A  
HETATM   21  C   UNL     1      -6.688   9.335  70.477  1.00  0.00    -0.078 C  
HETATM   22  C   UNL     1      -6.921   5.356  74.084  1.00  0.00    -0.078 A  
HETATM   23  C   UNL     1      -7.445   6.078  73.006  1.00  0.00    -0.094 A  
HETATM   24  C   UNL     1      -6.155   7.932  70.208  1.00  0.00    -0.032 C  
ENDBRANCH   6   9
TORSDOF 1
ENDMDL
MODEL      111
REMARK 921   NORMALIZED FREE ENERGY PREDICTED BY IDOCK:   -2.70 KCAL/MOL
REMARK 922        TOTAL FREE ENERGY PREDICTED BY IDOCK:   -3.25 KCAL/MOL
REMARK 923 INTER-LIGAND FREE ENERGY PREDICTED BY IDOCK:   -3.07 KCAL/MOL
REMARK 924 INTRA-LIGAND FREE ENERGY PREDICTED BY IDOCK:   -0.18 KCAL/MOL
REMARK 927      BINDING AFFINITY PREDICTED BY RF-SCORE:    0.00 PKD
ROOT
HETATM    1  C   UNL     1     -11.577   5.644  72.562  1.00  0.00    -0.246 C  
HETATM    2  N   UNL     1     -11.681   7.048  71.973  1.00  0.00    -0.285 N  
HETATM    3  C   UNL     1     -13.054   7.621  72.313  1.00  0.00     0.035 C  
HETATM    4  C   UNL     1     -10.570   7.931  72.620  1.00  0.00    -0.329 C  
HETATM    5  C   UNL     1     -10.269   9.200  71.796  1.00  0.00    -0.235 C  
HETATM    6  N   UNL     1      -9.951   8.932  70.383  1.00  0.00    -0.184 NA 
HETATM    7  C   UNL     1     -11.117   8.270  69.766  1.00  0.00    -0.052 C  
HETATM    8  C   UNL     1     -11.523   6.936  70.433  1.00  0.00    -0.338 C  
ENDROOT
BRANCH   6   9
HETATM    9  C   UNL     1      -8.714   8.120  70.178  1.00  0.00    -0.130 C  
HETATM   10  C   UNL     1      -7.290   8.726  70.451  1.00  0.00    -0.063 C  
HETATM   11  C   UNL     1      -7.074  10.086  69.773  1.00  0.00    -0.119 A  
HETATM   12  C   UNL     1      -6.112   7.702  70.150  1.00  0.00    -0.026 C  
HETATM   13  O   UNL     1      -7.267   8.988  71.883  1.00  0.00    -0.305 OA 
HETATM   14  C   UNL     1      -6.212  11.042  70.342  1.00  0.00    -0.106 A  
HETATM   15  C   UNL     1      -6.199   6.322  70.859  1.00  0.00    -0.039 C  
HETATM   16  H   UNL     1      -6.406   9.354  72.049  1.00  0.00     0.000 HD 
HETATM   17  C   UNL     1      -7.040   5.255  70.154  1.00  0.00    -0.061 C  
HETATM   18  C   UNL     1      -6.093  12.331  69.806  1.00  0.00    -0.141 A  
HETATM   19  C   UNL     1      -6.744   5.128  68.667  1.00  0.00    -0.050 C  
HETATM   20  C   UNL     1      -6.830  12.688  68.682  1.00  0.00    -0.091 A  
HETATM   21  C   UNL     1      -6.643   6.463  67.941  1.00  0.00    -0.062 C  
HETATM   22  C   UNL     1      -7.640  11.743  68.064  1.00  0.00    -0.116 A  
HETATM   23  C   UNL     1      -7.750  10.453  68.594  1.00  0.00    -0.101 A  
HETATM   24  C   UNL     1      -5.754   7.464  68.669  1.00  0.00    -0.023 C  
ENDBRANCH   6   9
TORSDOF 1
ENDMDL
MODEL      112
REMARK 921   NORMALIZED FREE ENERGY PREDICTED BY IDOCK:   -2.66 KCAL/MOL
REMARK 922        TOTAL FREE ENERGY PREDICTED BY IDOCK:   -3.20 KCAL/MOL
REMARK 923 INTER-LIGAND FREE ENERGY PREDICTED BY IDOCK:   -3.23 KCAL/MOL
REMARK 924 INTRA-LIGAND FREE ENERGY PREDICTED BY IDOCK:    0.02 KCAL/MOL
REMARK 927      BINDING AFFINITY PREDICTED BY RF-SCORE:    0.00 PKD
ROOT
HETATM    1  C   UNL     1     -10.822   8.944  68.306  1.00  0.00     0.007 C  
HETATM    2  N   UNL     1      -9.367   9.313  68.027  1.00  0.00    -0.134 N  
HETATM    3  C   UNL     1      -8.539   8.032  67.972  1.00  0.00    -0.129 C  
HETATM    4  C   UNL     1      -9.304  10.037  66.648  1.00  0.00    -0.166 C  
HETATM    5  C   UNL     1      -8.008  10.856  66.469  1.00  0.00    -0.152 C  
HETATM    6  N   UNL     1      -7.751  11.810  67.560  1.00  0.00    -0.134 NA 
HETATM    7  C   UNL     1      -7.623  11.049  68.818  1.00  0.00    -0.127 C  
HETATM    8  C   UNL     1      -8.868  10.213  69.189  1.00  0.00    -0.175 C  
ENDROOT
BRANCH   6   9
HETATM    9  C   UNL     1      -8.785  12.880  67.694  1.00  0.00    -0.185 C  
HETATM   10  C   UNL     1      -8.380  14.394  67.801  1.00  0.00    -0.169 C  
HETATM   11  C   UNL     1      -7.299  14.654  68.860  1.00  0.00    -0.128 A  
HETATM   12  C   UNL     1      -9.630  15.363  67.957  1.00  0.00    -0.206 C  
HETATM   13  O   UNL     1      -7.762  14.704  66.519  1.00  0.00    -0.169 OA 
HETATM   14  C   UNL     1      -6.388  15.717  68.709  1.00  0.00    -0.104 A  
HETATM   15  C   UNL     1     -10.743  15.231  66.881  1.00  0.00    -0.313 C  
HETATM   16  H   UNL     1      -7.516  15.619  66.584  1.00  0.00     0.000 HD 
HETATM   17  C   UNL     1     -11.799  14.152  67.132  1.00  0.00    -0.454 C  
HETATM   18  C   UNL     1      -5.322  15.898  69.600  1.00  0.00    -0.116 A  
HETATM   19  C   UNL     1     -12.356  14.160  68.548  1.00  0.00    -0.031 C  
HETATM   20  C   UNL     1      -5.150  15.023  70.667  1.00  0.00    -0.126 A  
HETATM   21  C   UNL     1     -11.293  14.296  69.630  1.00  0.00    -0.292 C  
HETATM   22  C   UNL     1      -6.072  14.005  70.876  1.00  0.00    -0.130 A  
HETATM   23  C   UNL     1      -7.142  13.831  69.991  1.00  0.00     0.463 A  
HETATM   24  C   UNL     1     -10.303  15.419  69.344  1.00  0.00    -0.258 C  
ENDBRANCH   6   9
TORSDOF 1
ENDMDL
MODEL      113
REMARK 921   NORMALIZED FREE ENERGY PREDICTED BY IDOCK:   -2.63 KCAL/MOL
REMARK 922        TOTAL FREE ENERGY PREDICTED BY IDOCK:   -3.18 KCAL/MOL
REMARK 923 INTER-LIGAND FREE ENERGY PREDICTED BY IDOCK:   -2.79 KCAL/MOL
REMARK 924 INTRA-LIGAND FREE ENERGY PREDICTED BY IDOCK:   -0.39 KCAL/MOL
REMARK 927      BINDING AFFINITY PREDICTED BY RF-SCORE:    0.00 PKD
ROOT
HETATM    1  C   UNL     1     -11.934  12.448  70.801  1.00  0.00     0.010 C  
HETATM    2  N   UNL     1     -11.789  11.206  69.926  1.00  0.00    -0.330 N  
HETATM    3  C   UNL     1     -13.037  10.343  70.090  1.00  0.00     0.152 C  
HETATM    4  C   UNL     1     -11.662  11.666  68.442  1.00  0.00    -0.307 C  
HETATM    5  C   UNL     1     -11.056  10.576  67.534  1.00  0.00    -0.290 C  
HETATM    6  N   UNL     1      -9.769  10.047  68.017  1.00  0.00    -0.138 NA 
HETATM    7  C   UNL     1      -9.989   9.444  69.346  1.00  0.00    -0.183 C  
HETATM    8  C   UNL     1     -10.540  10.421  70.409  1.00  0.00    -0.041 C  
ENDROOT
BRANCH   6   9
HETATM    9  C   UNL     1      -8.672  11.060  68.072  1.00  0.00    -0.138 C  
HETATM   10  C   UNL     1      -7.643  11.207  66.895  1.00  0.00    -0.145 C  
HETATM   11  C   UNL     1      -7.023   9.869  66.466  1.00  0.00    -0.090 A  
HETATM   12  C   UNL     1      -6.548  12.327  67.164  1.00  0.00    -0.109 C  
HETATM   13  O   UNL     1      -8.438  11.657  65.761  1.00  0.00    -0.386 OA 
HETATM   14  C   UNL     1      -6.608   9.664  65.136  1.00  0.00    -0.093 A  
HETATM   15  C   UNL     1      -7.081  13.741  67.525  1.00  0.00    -0.172 C  
HETATM   16  H   UNL     1      -7.816  11.746  65.049  1.00  0.00     0.000 HD 
HETATM   17  C   UNL     1      -7.404  13.982  69.002  1.00  0.00    -0.081 C  
HETATM   18  C   UNL     1      -6.152   8.414  64.697  1.00  0.00    -0.064 A  
HETATM   19  C   UNL     1      -6.311  13.512  69.951  1.00  0.00    -0.071 C  
HETATM   20  C   UNL     1      -6.093   7.344  65.583  1.00  0.00    -0.038 A  
HETATM   21  C   UNL     1      -5.759  12.132  69.621  1.00  0.00    -0.100 C  
HETATM   22  C   UNL     1      -6.436   7.537  66.916  1.00  0.00    -0.056 A  
HETATM   23  C   UNL     1      -6.881   8.788  67.356  1.00  0.00    -0.071 A  
HETATM   24  C   UNL     1      -5.412  11.973  68.146  1.00  0.00    -0.051 C  
ENDBRANCH   6   9
TORSDOF 1
ENDMDL
MODEL      114
REMARK 921   NORMALIZED FREE ENERGY PREDICTED BY IDOCK:   -2.61 KCAL/MOL
REMARK 922        TOTAL FREE ENERGY PREDICTED BY IDOCK:   -3.16 KCAL/MOL
REMARK 923 INTER-LIGAND FREE ENERGY PREDICTED BY IDOCK:   -2.76 KCAL/MOL
REMARK 924 INTRA-LIGAND FREE ENERGY PREDICTED BY IDOCK:   -0.40 KCAL/MOL
REMARK 927      BINDING AFFINITY PREDICTED BY RF-SCORE:    0.00 PKD
ROOT
HETATM    1  C   UNL     1      -8.600   4.474  72.400  1.00  0.00    -0.114 C  
HETATM    2  N   UNL     1      -8.239   3.563  71.231  1.00  0.00    -0.066 N  
HETATM    3  C   UNL     1      -7.789   2.213  71.783  1.00  0.00    -0.044 C  
HETATM    4  C   UNL     1      -9.512   3.369  70.352  1.00  0.00    -0.175 C  
HETATM    5  C   UNL     1      -9.179   2.873  68.929  1.00  0.00    -0.164 C  
HETATM    6  N   UNL     1      -8.192   3.707  68.224  1.00  0.00    -0.081 NA 
HETATM    7  C   UNL     1      -6.938   3.694  69.002  1.00  0.00    -0.046 C  
HETATM    8  C   UNL     1      -7.075   4.225  70.446  1.00  0.00    -0.041 C  
ENDROOT
BRANCH   6   9
HETATM    9  C   UNL     1      -8.642   5.109  67.972  1.00  0.00    -0.103 C  
HETATM   10  C   UNL     1      -9.142   5.559  66.553  1.00  0.00    -0.138 C  
HETATM   11  C   UNL     1      -8.179   5.168  65.423  1.00  0.00    -0.124 A  
HETATM   12  C   UNL     1      -9.554   7.093  66.497  1.00  0.00    -0.203 C  
HETATM   13  O   UNL     1     -10.355   4.787  66.324  1.00  0.00    -0.265 OA 
HETATM   14  C   UNL     1      -8.662   4.905  64.127  1.00  0.00    -0.124 A  
HETATM   15  C   UNL     1     -10.591   7.568  67.553  1.00  0.00    -0.331 C  
HETATM   16  H   UNL     1     -10.658   5.059  65.466  1.00  0.00     0.000 HD 
HETATM   17  C   UNL     1     -10.026   7.973  68.916  1.00  0.00    -0.199 C  
HETATM   18  C   UNL     1      -7.818   4.431  63.114  1.00  0.00    -0.071 A  
HETATM   19  C   UNL     1      -8.821   8.897  68.829  1.00  0.00    -0.137 C  
HETATM   20  C   UNL     1      -6.469   4.219  63.374  1.00  0.00    -0.030 A  
HETATM   21  C   UNL     1      -7.787   8.467  67.797  1.00  0.00    -0.107 C  
HETATM   22  C   UNL     1      -5.954   4.532  64.626  1.00  0.00    -0.018 A  
HETATM   23  C   UNL     1      -6.796   5.015  65.634  1.00  0.00    -0.061 A  
HETATM   24  C   UNL     1      -8.408   8.124  66.448  1.00  0.00    -0.115 C  
ENDBRANCH   6   9
TORSDOF 1
ENDMDL
MODEL      115
REMARK 921   NORMALIZED FREE ENERGY PREDICTED BY IDOCK:   -2.60 KCAL/MOL
REMARK 922        TOTAL FREE ENERGY PREDICTED BY IDOCK:   -3.15 KCAL/MOL
REMARK 923 INTER-LIGAND FREE ENERGY PREDICTED BY IDOCK:   -2.93 KCAL/MOL
REMARK 924 INTRA-LIGAND FREE ENERGY PREDICTED BY IDOCK:   -0.22 KCAL/MOL
REMARK 927      BINDING AFFINITY PREDICTED BY RF-SCORE:    0.00 PKD
ROOT
HETATM    1  C   UNL     1      -5.410   9.699  71.928  1.00  0.00    -0.068 C  
HETATM    2  N   UNL     1      -6.091   9.701  70.562  1.00  0.00    -0.062 N  
HETATM    3  C   UNL     1      -5.705  10.980  69.824  1.00  0.00    -0.062 C  
HETATM    4  C   UNL     1      -5.585   8.462  69.763  1.00  0.00    -0.029 C  
HETATM    5  C   UNL     1      -6.517   8.094  68.590  1.00  0.00    -0.053 C  
HETATM    6  N   UNL     1      -7.924   7.909  68.983  1.00  0.00    -0.120 NA 
HETATM    7  C   UNL     1      -8.413   9.179  69.555  1.00  0.00    -0.128 C  
HETATM    8  C   UNL     1      -7.626   9.669  70.791  1.00  0.00     0.002 C  
ENDROOT
BRANCH   6   9
HETATM    9  C   UNL     1      -8.151   6.780  69.935  1.00  0.00    -0.126 C  
HETATM   10  C   UNL     1      -8.096   5.286  69.451  1.00  0.00    -0.092 C  
HETATM   11  C   UNL     1      -8.951   5.025  68.204  1.00  0.00    -0.119 A  
HETATM   12  C   UNL     1      -8.385   4.245  70.617  1.00  0.00    -0.084 C  
HETATM   13  O   UNL     1      -6.715   5.082  69.035  1.00  0.00    -0.046 OA 
HETATM   14  C   UNL     1      -8.591   4.022  67.283  1.00  0.00    -0.106 A  
HETATM   15  C   UNL     1      -7.509   4.377  71.893  1.00  0.00    -0.070 C  
HETATM   16  H   UNL     1      -6.682   4.179  68.742  1.00  0.00     0.000 HD 
HETATM   17  C   UNL     1      -7.992   5.383  72.941  1.00  0.00    -0.102 C  
HETATM   18  C   UNL     1      -9.289   3.848  66.081  1.00  0.00    -0.179 A  
HETATM   19  C   UNL     1      -9.475   5.265  73.262  1.00  0.00    -0.148 C  
HETATM   20  C   UNL     1     -10.369   4.670  65.778  1.00  0.00    -0.295 A  
HETATM   21  C   UNL     1     -10.364   5.126  72.034  1.00  0.00    -0.274 C  
HETATM   22  C   UNL     1     -10.786   5.624  66.698  1.00  0.00    -0.339 A  
HETATM   23  C   UNL     1     -10.094   5.790  67.903  1.00  0.00    -0.197 A  
HETATM   24  C   UNL     1      -9.854   4.075  71.054  1.00  0.00    -0.230 C  
ENDBRANCH   6   9
TORSDOF 1
ENDMDL
MODEL      116
REMARK 921   NORMALIZED FREE ENERGY PREDICTED BY IDOCK:   -2.59 KCAL/MOL
REMARK 922        TOTAL FREE ENERGY PREDICTED BY IDOCK:   -3.13 KCAL/MOL
REMARK 923 INTER-LIGAND FREE ENERGY PREDICTED BY IDOCK:   -2.92 KCAL/MOL
REMARK 924 INTRA-LIGAND FREE ENERGY PREDICTED BY IDOCK:   -0.22 KCAL/MOL
REMARK 927      BINDING AFFINITY PREDICTED BY RF-SCORE:    0.00 PKD
ROOT
HETATM    1  C   UNL     1      -6.477   7.495  66.871  1.00  0.00    -0.056 C  
HETATM    2  N   UNL     1      -7.802   6.838  67.247  1.00  0.00    -0.108 N  
HETATM    3  C   UNL     1      -8.634   6.652  65.981  1.00  0.00    -0.148 C  
HETATM    4  C   UNL     1      -7.495   5.446  67.879  1.00  0.00    -0.077 C  
HETATM    5  C   UNL     1      -8.675   4.898  68.707  1.00  0.00    -0.093 C  
HETATM    6  N   UNL     1      -9.164   5.831  69.737  1.00  0.00    -0.138 NA 
HETATM    7  C   UNL     1      -9.628   7.059  69.063  1.00  0.00    -0.141 C  
HETATM    8  C   UNL     1      -8.544   7.781  68.231  1.00  0.00    -0.124 C  
ENDROOT
BRANCH   6   9
HETATM    9  C   UNL     1      -8.160   6.156  70.794  1.00  0.00    -0.124 C  
HETATM   10  C   UNL     1      -7.802   5.123  71.921  1.00  0.00    -0.110 C  
HETATM   11  C   UNL     1      -9.039   4.537  72.617  1.00  0.00    -0.137 A  
HETATM   12  C   UNL     1      -6.728   5.676  72.954  1.00  0.00    -0.073 C  
HETATM   13  O   UNL     1      -7.178   4.009  71.219  1.00  0.00    -0.035 OA 
HETATM   14  C   UNL     1      -9.012   3.237  73.156  1.00  0.00    -0.096 A  
HETATM   15  C   UNL     1      -5.402   6.216  72.349  1.00  0.00    -0.031 C  
HETATM   16  H   UNL     1      -6.962   3.384  71.900  1.00  0.00     0.000 HD 
HETATM   17  C   UNL     1      -5.418   7.675  71.887  1.00  0.00    -0.036 C  
HETATM   18  C   UNL     1     -10.163   2.641  73.686  1.00  0.00    -0.194 A  
HETATM   19  C   UNL     1      -6.026   8.631  72.902  1.00  0.00    -0.081 C  
HETATM   20  C   UNL     1     -11.366   3.338  73.696  1.00  0.00    -0.217 A  
HETATM   21  C   UNL     1      -7.323   8.130  73.523  1.00  0.00    -0.190 C  
HETATM   22  C   UNL     1     -11.406   4.646  73.229  1.00  0.00    -0.393 A  
HETATM   23  C   UNL     1     -10.253   5.244  72.709  1.00  0.00    -0.228 A  
HETATM   24  C   UNL     1      -7.226   6.688  74.006  1.00  0.00    -0.087 C  
ENDBRANCH   6   9
TORSDOF 1
ENDMDL
MODEL      117
REMARK 921   NORMALIZED FREE ENERGY PREDICTED BY IDOCK:   -2.58 KCAL/MOL
REMARK 922        TOTAL FREE ENERGY PREDICTED BY IDOCK:   -3.12 KCAL/MOL
REMARK 923 INTER-LIGAND FREE ENERGY PREDICTED BY IDOCK:   -2.86 KCAL/MOL
REMARK 924 INTRA-LIGAND FREE ENERGY PREDICTED BY IDOCK:   -0.27 KCAL/MOL
REMARK 927      BINDING AFFINITY PREDICTED BY RF-SCORE:    0.00 PKD
ROOT
HETATM    1  C   UNL     1     -12.007  10.424  69.472  1.00  0.00    -0.103 C  
HETATM    2  N   UNL     1     -11.874   9.692  70.805  1.00  0.00    -0.294 N  
HETATM    3  C   UNL     1     -12.530  10.536  71.894  1.00  0.00    -0.145 C  
HETATM    4  C   UNL     1     -12.615   8.325  70.686  1.00  0.00     0.343 C  
HETATM    5  C   UNL     1     -12.172   7.316  71.765  1.00  0.00    -0.334 C  
HETATM    6  N   UNL     1     -10.715   7.106  71.822  1.00  0.00    -0.215 NA 
HETATM    7  C   UNL     1     -10.075   8.398  72.134  1.00  0.00    -0.306 C  
HETATM    8  C   UNL     1     -10.363   9.519  71.110  1.00  0.00    -0.260 C  
ENDROOT
BRANCH   6   9
HETATM    9  C   UNL     1     -10.133   6.515  70.579  1.00  0.00    -0.185 C  
HETATM   10  C   UNL     1      -9.440   5.106  70.596  1.00  0.00    -0.170 C  
HETATM   11  C   UNL     1      -8.398   4.961  71.714  1.00  0.00    -0.118 A  
HETATM   12  C   UNL     1      -8.872   4.676  69.175  1.00  0.00    -0.126 C  
HETATM   13  O   UNL     1     -10.507   4.171  70.926  1.00  0.00     0.106 OA 
HETATM   14  C   UNL     1      -8.136   3.705  72.293  1.00  0.00    -0.072 A  
HETATM   15  C   UNL     1      -9.877   4.710  67.991  1.00  0.00    -0.174 C  
HETATM   16  H   UNL     1     -10.088   3.319  70.936  1.00  0.00     0.000 HD 
HETATM   17  C   UNL     1     -10.049   6.061  67.293  1.00  0.00    -0.205 C  
HETATM   18  C   UNL     1      -7.279   3.571  73.393  1.00  0.00    -0.055 A  
HETATM   19  C   UNL     1      -8.734   6.748  66.959  1.00  0.00    -0.114 C  
HETATM   20  C   UNL     1      -6.658   4.692  73.932  1.00  0.00    -0.059 A  
HETATM   21  C   UNL     1      -7.720   6.726  68.095  1.00  0.00    -0.109 C  
HETATM   22  C   UNL     1      -6.848   5.935  73.340  1.00  0.00    -0.080 A  
HETATM   23  C   UNL     1      -7.697   6.066  72.235  1.00  0.00    -0.101 A  
HETATM   24  C   UNL     1      -7.559   5.343  68.715  1.00  0.00    -0.079 C  
ENDBRANCH   6   9
TORSDOF 1
ENDMDL
MODEL      118
REMARK 921   NORMALIZED FREE ENERGY PREDICTED BY IDOCK:   -2.58 KCAL/MOL
REMARK 922        TOTAL FREE ENERGY PREDICTED BY IDOCK:   -3.12 KCAL/MOL
REMARK 923 INTER-LIGAND FREE ENERGY PREDICTED BY IDOCK:   -2.74 KCAL/MOL
REMARK 924 INTRA-LIGAND FREE ENERGY PREDICTED BY IDOCK:   -0.38 KCAL/MOL
REMARK 927      BINDING AFFINITY PREDICTED BY RF-SCORE:    0.00 PKD
ROOT
HETATM    1  C   UNL     1      -7.810  10.894  69.111  1.00  0.00    -0.119 C  
HETATM    2  N   UNL     1      -6.892   9.954  69.886  1.00  0.00    -0.080 N  
HETATM    3  C   UNL     1      -5.730  10.763  70.456  1.00  0.00    -0.120 C  
HETATM    4  C   UNL     1      -7.712   9.324  71.054  1.00  0.00    -0.063 C  
HETATM    5  C   UNL     1      -7.060   8.041  71.610  1.00  0.00    -0.072 C  
HETATM    6  N   UNL     1      -6.772   7.027  70.582  1.00  0.00    -0.052 NA 
HETATM    7  C   UNL     1      -5.832   7.613  69.607  1.00  0.00    -0.023 C  
HETATM    8  C   UNL     1      -6.355   8.884  68.899  1.00  0.00    -0.044 C  
ENDROOT
BRANCH   6   9
HETATM    9  C   UNL     1      -7.984   6.492  69.891  1.00  0.00    -0.116 C  
HETATM   10  C   UNL     1      -8.673   5.165  70.371  1.00  0.00    -0.114 C  
HETATM   11  C   UNL     1      -7.686   4.003  70.547  1.00  0.00    -0.048 A  
HETATM   12  C   UNL     1      -9.933   4.765  69.487  1.00  0.00    -0.287 C  
HETATM   13  O   UNL     1      -9.172   5.467  71.705  1.00  0.00    -0.141 OA 
HETATM   14  C   UNL     1      -7.927   2.994  71.498  1.00  0.00    -0.056 A  
HETATM   15  C   UNL     1     -11.031   5.852  69.319  1.00  0.00    -0.397 C  
HETATM   16  H   UNL     1      -9.589   4.664  71.995  1.00  0.00     0.000 HD 
HETATM   17  C   UNL     1     -10.810   6.863  68.191  1.00  0.00    -0.258 C  
HETATM   18  C   UNL     1      -6.983   1.992  71.758  1.00  0.00    -0.027 A  
HETATM   19  C   UNL     1     -10.414   6.226  66.868  1.00  0.00    -0.337 C  
HETATM   20  C   UNL     1      -5.778   1.974  71.063  1.00  0.00    -0.013 A  
HETATM   21  C   UNL     1      -9.344   5.149  66.996  1.00  0.00    -0.127 C  
HETATM   22  C   UNL     1      -5.542   2.921  70.073  1.00  0.00    -0.017 A  
HETATM   23  C   UNL     1      -6.491   3.915  69.808  1.00  0.00    -0.033 A  
HETATM   24  C   UNL     1      -9.648   4.147  68.103  1.00  0.00    -0.195 C  
ENDBRANCH   6   9
TORSDOF 1
ENDMDL
MODEL      119
REMARK 921   NORMALIZED FREE ENERGY PREDICTED BY IDOCK:   -2.56 KCAL/MOL
REMARK 922        TOTAL FREE ENERGY PREDICTED BY IDOCK:   -3.11 KCAL/MOL
REMARK 923 INTER-LIGAND FREE ENERGY PREDICTED BY IDOCK:   -2.89 KCAL/MOL
REMARK 924 INTRA-LIGAND FREE ENERGY PREDICTED BY IDOCK:   -0.21 KCAL/MOL
REMARK 927      BINDING AFFINITY PREDICTED BY RF-SCORE:    0.00 PKD
ROOT
HETATM    1  C   UNL     1      -9.200  10.734  67.183  1.00  0.00    -0.147 C  
HETATM    2  N   UNL     1     -10.218   9.763  67.774  1.00  0.00    -0.194 N  
HETATM    3  C   UNL     1     -11.520  10.516  68.033  1.00  0.00    -0.151 C  
HETATM    4  C   UNL     1     -10.468   8.627  66.736  1.00  0.00    -0.228 C  
HETATM    5  C   UNL     1     -11.095   7.370  67.373  1.00  0.00     0.004 C  
HETATM    6  N   UNL     1     -10.343   6.850  68.528  1.00  0.00    -0.177 NA 
HETATM    7  C   UNL     1     -10.307   7.901  69.564  1.00  0.00    -0.217 C  
HETATM    8  C   UNL     1      -9.647   9.223  69.112  1.00  0.00    -0.161 C  
ENDROOT
BRANCH   6   9
HETATM    9  C   UNL     1      -8.962   6.384  68.200  1.00  0.00    -0.116 C  
HETATM   10  C   UNL     1      -8.525   4.897  68.456  1.00  0.00    -0.094 C  
HETATM   11  C   UNL     1      -8.860   4.405  69.871  1.00  0.00    -0.129 A  
HETATM   12  C   UNL     1      -7.012   4.618  68.057  1.00  0.00    -0.057 C  
HETATM   13  O   UNL     1      -9.352   4.107  67.554  1.00  0.00    -0.145 OA 
HETATM   14  C   UNL     1      -9.136   3.046  70.111  1.00  0.00    -0.189 A  
HETATM   15  C   UNL     1      -6.595   5.007  66.611  1.00  0.00    -0.046 C  
HETATM   16  H   UNL     1      -9.087   3.208  67.709  1.00  0.00     0.000 HD 
HETATM   17  C   UNL     1      -6.175   6.464  66.401  1.00  0.00    -0.037 C  
HETATM   18  C   UNL     1      -9.560   2.597  71.368  1.00  0.00    -0.222 A  
HETATM   19  C   UNL     1      -5.194   6.974  67.446  1.00  0.00    -0.012 C  
HETATM   20  C   UNL     1      -9.710   3.499  72.416  1.00  0.00    -0.217 A  
HETATM   21  C   UNL     1      -5.566   6.604  68.876  1.00  0.00    -0.017 C  
HETATM   22  C   UNL     1      -9.383   4.836  72.222  1.00  0.00    -0.158 A  
HETATM   23  C   UNL     1      -8.949   5.281  70.969  1.00  0.00    -0.159 A  
HETATM   24  C   UNL     1      -5.927   5.130  69.027  1.00  0.00    -0.021 C  
ENDBRANCH   6   9
TORSDOF 1
ENDMDL
MODEL      120
REMARK 921   NORMALIZED FREE ENERGY PREDICTED BY IDOCK:   -2.55 KCAL/MOL
REMARK 922        TOTAL FREE ENERGY PREDICTED BY IDOCK:   -3.09 KCAL/MOL
REMARK 923 INTER-LIGAND FREE ENERGY PREDICTED BY IDOCK:   -2.86 KCAL/MOL
REMARK 924 INTRA-LIGAND FREE ENERGY PREDICTED BY IDOCK:   -0.23 KCAL/MOL
REMARK 927      BINDING AFFINITY PREDICTED BY RF-SCORE:    0.00 PKD
ROOT
HETATM    1  C   UNL     1     -11.572  14.936  73.229  1.00  0.00     0.077 C  
HETATM    2  N   UNL     1     -12.441  14.737  71.991  1.00  0.00    -0.326 N  
HETATM    3  C   UNL     1     -13.882  14.506  72.435  1.00  0.00    -0.483 C  
HETATM    4  C   UNL     1     -12.361  16.032  71.126  1.00  0.00    -0.271 C  
HETATM    5  C   UNL     1     -12.798  15.796  69.665  1.00  0.00     0.509 C  
HETATM    6  N   UNL     1     -12.083  14.693  69.001  1.00  0.00    -0.272 NA 
HETATM    7  C   UNL     1     -12.355  13.451  69.750  1.00  0.00    -0.159 C  
HETATM    8  C   UNL     1     -11.917  13.489  71.231  1.00  0.00     0.237 C  
ENDROOT
BRANCH   6   9
HETATM    9  C   UNL     1     -10.613  14.914  68.860  1.00  0.00    -0.247 C  
HETATM   10  C   UNL     1     -10.038  15.890  67.772  1.00  0.00    -0.244 C  
HETATM   11  C   UNL     1     -10.608  15.634  66.370  1.00  0.00    -0.308 A  
HETATM   12  C   UNL     1      -8.450  15.963  67.779  1.00  0.00    -0.165 C  
HETATM   13  O   UNL     1     -10.523  17.207  68.163  1.00  0.00    -0.330 OA 
HETATM   14  C   UNL     1     -10.736  16.686  65.444  1.00  0.00    -0.228 A  
HETATM   15  C   UNL     1      -7.781  16.300  69.140  1.00  0.00    -0.229 C  
HETATM   16  H   UNL     1     -10.175  17.798  67.505  1.00  0.00     0.000 HD 
HETATM   17  C   UNL     1      -7.534  15.118  70.081  1.00  0.00     0.220 C  
HETATM   18  C   UNL     1     -11.363  16.498  64.205  1.00  0.00     0.242 A  
HETATM   19  C   UNL     1      -6.893  13.918  69.399  1.00  0.00    -0.065 C  
HETATM   20  C   UNL     1     -11.869  15.249  63.864  1.00  0.00     0.208 A  
HETATM   21  C   UNL     1      -7.519  13.564  68.056  1.00  0.00    -0.140 C  
HETATM   22  C   UNL     1     -11.699  14.178  64.733  1.00  0.00    -0.416 A  
HETATM   23  C   UNL     1     -11.063  14.365  65.966  1.00  0.00    -0.324 A  
HETATM   24  C   UNL     1      -7.693  14.776  67.149  1.00  0.00    -0.149 C  
ENDBRANCH   6   9
TORSDOF 1
ENDMDL
MODEL      121
REMARK 921   NORMALIZED FREE ENERGY PREDICTED BY IDOCK:   -2.54 KCAL/MOL
REMARK 922        TOTAL FREE ENERGY PREDICTED BY IDOCK:   -3.08 KCAL/MOL
REMARK 923 INTER-LIGAND FREE ENERGY PREDICTED BY IDOCK:   -2.93 KCAL/MOL
REMARK 924 INTRA-LIGAND FREE ENERGY PREDICTED BY IDOCK:   -0.16 KCAL/MOL
REMARK 927      BINDING AFFINITY PREDICTED BY RF-SCORE:    0.00 PKD
ROOT
HETATM    1  C   UNL     1      -6.279   3.452  64.436  1.00  0.00    -0.023 C  
HETATM    2  N   UNL     1      -6.174   4.955  64.195  1.00  0.00    -0.022 N  
HETATM    3  C   UNL     1      -5.392   5.192  62.906  1.00  0.00    -0.013 C  
HETATM    4  C   UNL     1      -7.617   5.527  64.043  1.00  0.00    -0.071 C  
HETATM    5  C   UNL     1      -7.675   7.053  64.261  1.00  0.00    -0.117 C  
HETATM    6  N   UNL     1      -7.081   7.496  65.533  1.00  0.00    -0.060 NA 
HETATM    7  C   UNL     1      -5.659   7.102  65.539  1.00  0.00    -0.032 C  
HETATM    8  C   UNL     1      -5.415   5.583  65.394  1.00  0.00    -0.013 C  
ENDROOT
BRANCH   6   9
HETATM    9  C   UNL     1      -7.778   6.977  66.748  1.00  0.00    -0.098 C  
HETATM   10  C   UNL     1      -9.217   7.472  67.134  1.00  0.00    -0.136 C  
HETATM   11  C   UNL     1      -9.346   9.002  67.140  1.00  0.00    -0.184 A  
HETATM   12  C   UNL     1      -9.765   6.810  68.471  1.00  0.00    -0.133 C  
HETATM   13  O   UNL     1     -10.073   7.007  66.051  1.00  0.00    -0.383 OA 
HETATM   14  C   UNL     1     -10.576   9.620  66.843  1.00  0.00    -0.241 A  
HETATM   15  C   UNL     1      -9.752   5.257  68.528  1.00  0.00    -0.194 C  
HETATM   16  H   UNL     1     -10.943   7.307  66.284  1.00  0.00     0.000 HD 
HETATM   17  C   UNL     1      -8.440   4.610  68.979  1.00  0.00    -0.088 C  
HETATM   18  C   UNL     1     -10.685  11.012  66.726  1.00  0.00    -0.319 A  
HETATM   19  C   UNL     1      -7.845   5.243  70.228  1.00  0.00    -0.083 C  
HETATM   20  C   UNL     1      -9.567  11.816  66.912  1.00  0.00    -0.204 A  
HETATM   21  C   UNL     1      -7.848   6.766  70.211  1.00  0.00    -0.110 C  
HETATM   22  C   UNL     1      -8.355  11.236  67.270  1.00  0.00    -0.145 A  
HETATM   23  C   UNL     1      -8.250   9.847  67.396  1.00  0.00    -0.118 A  
HETATM   24  C   UNL     1      -9.197   7.347  69.801  1.00  0.00    -0.140 C  
ENDBRANCH   6   9
TORSDOF 1
ENDMDL
MODEL      122
REMARK 921   NORMALIZED FREE ENERGY PREDICTED BY IDOCK:   -2.53 KCAL/MOL
REMARK 922        TOTAL FREE ENERGY PREDICTED BY IDOCK:   -3.07 KCAL/MOL
REMARK 923 INTER-LIGAND FREE ENERGY PREDICTED BY IDOCK:   -2.68 KCAL/MOL
REMARK 924 INTRA-LIGAND FREE ENERGY PREDICTED BY IDOCK:   -0.39 KCAL/MOL
REMARK 927      BINDING AFFINITY PREDICTED BY RF-SCORE:    0.00 PKD
ROOT
HETATM    1  C   UNL     1     -10.585   5.361  67.054  1.00  0.00    -0.226 C  
HETATM    2  N   UNL     1     -10.383   6.412  68.142  1.00  0.00    -0.171 N  
HETATM    3  C   UNL     1     -11.393   6.163  69.258  1.00  0.00    -0.291 C  
HETATM    4  C   UNL     1      -8.936   6.260  68.702  1.00  0.00    -0.127 C  
HETATM    5  C   UNL     1      -8.456   7.522  69.449  1.00  0.00    -0.133 C  
HETATM    6  N   UNL     1      -8.572   8.761  68.662  1.00  0.00    -0.133 NA 
HETATM    7  C   UNL     1      -9.994   8.960  68.325  1.00  0.00    -0.175 C  
HETATM    8  C   UNL     1     -10.627   7.809  67.512  1.00  0.00    -0.248 C  
ENDROOT
BRANCH   6   9
HETATM    9  C   UNL     1      -7.729   8.783  67.428  1.00  0.00    -0.097 C  
HETATM   10  C   UNL     1      -6.336   9.509  67.409  1.00  0.00    -0.065 C  
HETATM   11  C   UNL     1      -6.395  10.941  67.960  1.00  0.00    -0.057 A  
HETATM   12  C   UNL     1      -5.615   9.431  65.995  1.00  0.00    -0.045 C  
HETATM   13  O   UNL     1      -5.513   8.757  68.346  1.00  0.00    -0.037 OA 
HETATM   14  C   UNL     1      -5.276  11.513  68.594  1.00  0.00    -0.043 A  
HETATM   15  C   UNL     1      -5.433   8.011  65.390  1.00  0.00    -0.032 C  
HETATM   16  H   UNL     1      -4.671   9.196  68.334  1.00  0.00     0.000 HD 
HETATM   17  C   UNL     1      -6.619   7.462  64.594  1.00  0.00    -0.040 C  
HETATM   18  C   UNL     1      -5.346  12.769  69.209  1.00  0.00    -0.071 A  
HETATM   19  C   UNL     1      -7.194   8.452  63.591  1.00  0.00    -0.095 C  
HETATM   20  C   UNL     1      -6.538  13.486  69.195  1.00  0.00    -0.109 A  
HETATM   21  C   UNL     1      -7.378   9.858  64.148  1.00  0.00    -0.133 C  
HETATM   22  C   UNL     1      -7.640  12.972  68.520  1.00  0.00    -0.121 A  
HETATM   23  C   UNL     1      -7.565  11.721  67.898  1.00  0.00    -0.121 A  
HETATM   24  C   UNL     1      -6.145  10.365  64.886  1.00  0.00    -0.108 C  
ENDBRANCH   6   9
TORSDOF 1
ENDMDL
MODEL      123
REMARK 921   NORMALIZED FREE ENERGY PREDICTED BY IDOCK:   -2.42 KCAL/MOL
REMARK 922        TOTAL FREE ENERGY PREDICTED BY IDOCK:   -2.95 KCAL/MOL
REMARK 923 INTER-LIGAND FREE ENERGY PREDICTED BY IDOCK:   -3.43 KCAL/MOL
REMARK 924 INTRA-LIGAND FREE ENERGY PREDICTED BY IDOCK:    0.48 KCAL/MOL
REMARK 927      BINDING AFFINITY PREDICTED BY RF-SCORE:    0.00 PKD
ROOT
HETATM    1  C   UNL     1      -6.177   6.333  64.318  1.00  0.00    -0.030 C  
HETATM    2  N   UNL     1      -6.256   7.780  63.840  1.00  0.00    -0.057 N  
HETATM    3  C   UNL     1      -5.522   7.897  62.507  1.00  0.00    -0.063 C  
HETATM    4  C   UNL     1      -7.758   8.147  63.643  1.00  0.00    -0.143 C  
HETATM    5  C   UNL     1      -7.997   9.671  63.620  1.00  0.00    -0.142 C  
HETATM    6  N   UNL     1      -7.446  10.378  64.788  1.00  0.00    -0.098 NA 
HETATM    7  C   UNL     1      -5.987  10.159  64.814  1.00  0.00    -0.123 C  
HETATM    8  C   UNL     1      -5.564   8.675  64.902  1.00  0.00    -0.047 C  
ENDROOT
BRANCH   6   9
HETATM    9  C   UNL     1      -8.062   9.982  66.090  1.00  0.00    -0.122 C  
HETATM   10  C   UNL     1      -9.622   9.915  66.264  1.00  0.00    -0.209 C  
HETATM   11  C   UNL     1     -10.338  11.182  65.776  1.00  0.00    -0.316 A  
HETATM   12  C   UNL     1     -10.066   9.493  67.731  1.00  0.00    -0.244 C  
HETATM   13  O   UNL     1     -10.050   8.848  65.370  1.00  0.00    -0.260 OA 
HETATM   14  C   UNL     1     -11.649  11.115  65.269  1.00  0.00     0.415 A  
HETATM   15  C   UNL     1      -9.456   8.174  68.284  1.00  0.00    -0.148 C  
HETATM   16  H   UNL     1     -10.993   8.808  65.475  1.00  0.00     0.000 HD 
HETATM   17  C   UNL     1      -8.082   8.294  68.947  1.00  0.00    -0.115 C  
HETATM   18  C   UNL     1     -12.274  12.237  64.708  1.00  0.00    -0.438 A  
HETATM   19  C   UNL     1      -7.981   9.443  69.940  1.00  0.00    -0.132 C  
HETATM   20  C   UNL     1     -11.602  13.453  64.651  1.00  0.00    -0.386 A  
HETATM   21  C   UNL     1      -8.577  10.750  69.434  1.00  0.00     0.017 C  
HETATM   22  C   UNL     1     -10.331  13.561  65.202  1.00  0.00    -0.368 A  
HETATM   23  C   UNL     1      -9.712  12.443  65.771  1.00  0.00    -0.210 A  
HETATM   24  C   UNL     1      -9.964  10.570  68.830  1.00  0.00    -0.213 C  
ENDBRANCH   6   9
TORSDOF 1
ENDMDL
MODEL      124
REMARK 921   NORMALIZED FREE ENERGY PREDICTED BY IDOCK:   -2.39 KCAL/MOL
REMARK 922        TOTAL FREE ENERGY PREDICTED BY IDOCK:   -2.92 KCAL/MOL
REMARK 923 INTER-LIGAND FREE ENERGY PREDICTED BY IDOCK:   -2.86 KCAL/MOL
REMARK 924 INTRA-LIGAND FREE ENERGY PREDICTED BY IDOCK:   -0.07 KCAL/MOL
REMARK 927      BINDING AFFINITY PREDICTED BY RF-SCORE:    0.00 PKD
ROOT
HETATM    1  C   UNL     1     -11.558   8.872  72.014  1.00  0.00    -0.364 C  
HETATM    2  N   UNL     1     -11.638   7.387  71.674  1.00  0.00    -0.261 N  
HETATM    3  C   UNL     1     -13.103   6.962  71.677  1.00  0.00    -0.279 C  
HETATM    4  C   UNL     1     -11.037   7.180  70.250  1.00  0.00    -0.274 C  
HETATM    5  C   UNL     1     -10.636   5.714  69.985  1.00  0.00    -0.318 C  
HETATM    6  N   UNL     1      -9.739   5.148  71.006  1.00  0.00    -0.173 NA 
HETATM    7  C   UNL     1     -10.437   5.187  72.305  1.00  0.00    -0.219 C  
HETATM    8  C   UNL     1     -10.859   6.602  72.762  1.00  0.00    -0.251 C  
ENDROOT
BRANCH   6   9
HETATM    9  C   UNL     1      -8.411   5.827  71.099  1.00  0.00    -0.128 C  
HETATM   10  C   UNL     1      -7.073   5.009  71.019  1.00  0.00    -0.055 C  
HETATM   11  C   UNL     1      -7.047   3.801  71.967  1.00  0.00    -0.049 A  
HETATM   12  C   UNL     1      -5.778   5.921  71.160  1.00  0.00    -0.018 C  
HETATM   13  O   UNL     1      -7.056   4.456  69.672  1.00  0.00    -0.048 OA 
HETATM   14  C   UNL     1      -6.304   2.650  71.643  1.00  0.00    -0.015 A  
HETATM   15  C   UNL     1      -5.673   7.125  70.184  1.00  0.00    -0.024 C  
HETATM   16  H   UNL     1      -6.246   3.961  69.624  1.00  0.00     0.000 HD 
HETATM   17  C   UNL     1      -6.383   8.409  70.619  1.00  0.00    -0.036 C  
HETATM   18  C   UNL     1      -6.363   1.495  72.434  1.00  0.00    -0.013 A  
HETATM   19  C   UNL     1      -6.102   8.803  72.062  1.00  0.00    -0.073 C  
HETATM   20  C   UNL     1      -7.162   1.471  73.572  1.00  0.00    -0.027 A  
HETATM   21  C   UNL     1      -6.188   7.645  73.047  1.00  0.00    -0.061 C  
HETATM   22  C   UNL     1      -7.855   2.615  73.949  1.00  0.00    -0.055 A  
HETATM   23  C   UNL     1      -7.787   3.771  73.164  1.00  0.00    -0.078 A  
HETATM   24  C   UNL     1      -5.421   6.414  72.577  1.00  0.00    -0.036 C  
ENDBRANCH   6   9
TORSDOF 1
ENDMDL
MODEL      125
REMARK 921   NORMALIZED FREE ENERGY PREDICTED BY IDOCK:   -2.38 KCAL/MOL
REMARK 922        TOTAL FREE ENERGY PREDICTED BY IDOCK:   -2.91 KCAL/MOL
REMARK 923 INTER-LIGAND FREE ENERGY PREDICTED BY IDOCK:   -3.19 KCAL/MOL
REMARK 924 INTRA-LIGAND FREE ENERGY PREDICTED BY IDOCK:    0.27 KCAL/MOL
REMARK 927      BINDING AFFINITY PREDICTED BY RF-SCORE:    0.00 PKD
ROOT
HETATM    1  C   UNL     1      -8.342  11.731  68.420  1.00  0.00    -0.153 C  
HETATM    2  N   UNL     1      -9.533  10.779  68.363  1.00  0.00    -0.166 N  
HETATM    3  C   UNL     1     -10.700  11.407  69.119  1.00  0.00    -0.189 C  
HETATM    4  C   UNL     1      -9.926  10.579  66.867  1.00  0.00    -0.200 C  
HETATM    5  C   UNL     1     -10.781   9.314  66.644  1.00  0.00     0.004 C  
HETATM    6  N   UNL     1     -10.177   8.084  67.183  1.00  0.00    -0.262 NA 
HETATM    7  C   UNL     1     -10.009   8.253  68.639  1.00  0.00    -0.190 C  
HETATM    8  C   UNL     1      -9.118   9.448  69.046  1.00  0.00    -0.142 C  
ENDROOT
BRANCH   6   9
HETATM    9  C   UNL     1      -8.881   7.707  66.542  1.00  0.00    -0.147 C  
HETATM   10  C   UNL     1      -8.557   6.213  66.182  1.00  0.00    -0.141 C  
HETATM   11  C   UNL     1      -8.800   5.245  67.349  1.00  0.00    -0.105 A  
HETATM   12  C   UNL     1      -7.120   6.029  65.528  1.00  0.00    -0.069 C  
HETATM   13  O   UNL     1      -9.534   5.857  65.163  1.00  0.00    -0.322 OA 
HETATM   14  C   UNL     1      -9.173   3.910  67.109  1.00  0.00    -0.197 A  
HETATM   15  C   UNL     1      -6.810   6.908  64.285  1.00  0.00    -0.046 C  
HETATM   16  H   UNL     1      -9.338   4.953  64.945  1.00  0.00     0.000 HD 
HETATM   17  C   UNL     1      -6.281   8.316  64.572  1.00  0.00    -0.065 C  
HETATM   18  C   UNL     1      -9.515   3.046  68.157  1.00  0.00    -0.219 A  
HETATM   19  C   UNL     1      -5.163   8.351  65.603  1.00  0.00    -0.031 C  
HETATM   20  C   UNL     1      -9.483   3.499  69.471  1.00  0.00    -0.236 A  
HETATM   21  C   UNL     1      -5.430   7.493  66.832  1.00  0.00    -0.027 C  
HETATM   22  C   UNL     1      -9.056   4.794  69.741  1.00  0.00    -0.159 A  
HETATM   23  C   UNL     1      -8.705   5.652  68.694  1.00  0.00    -0.106 A  
HETATM   24  C   UNL     1      -5.906   6.089  66.479  1.00  0.00    -0.017 C  
ENDBRANCH   6   9
TORSDOF 1
ENDMDL
MODEL      126
REMARK 921   NORMALIZED FREE ENERGY PREDICTED BY IDOCK:   -2.37 KCAL/MOL
REMARK 922        TOTAL FREE ENERGY PREDICTED BY IDOCK:   -2.90 KCAL/MOL
REMARK 923 INTER-LIGAND FREE ENERGY PREDICTED BY IDOCK:   -2.78 KCAL/MOL
REMARK 924 INTRA-LIGAND FREE ENERGY PREDICTED BY IDOCK:   -0.12 KCAL/MOL
REMARK 927      BINDING AFFINITY PREDICTED BY RF-SCORE:    0.00 PKD
ROOT
HETATM    1  C   UNL     1      -8.704   6.096  70.529  1.00  0.00    -0.142 C  
HETATM    2  N   UNL     1      -9.204   7.313  69.756  1.00  0.00    -0.141 N  
HETATM    3  C   UNL     1      -9.863   8.279  70.736  1.00  0.00    -0.179 C  
HETATM    4  C   UNL     1      -7.977   8.003  69.087  1.00  0.00    -0.114 C  
HETATM    5  C   UNL     1      -8.382   8.938  67.928  1.00  0.00    -0.118 C  
HETATM    6  N   UNL     1      -9.224   8.290  66.908  1.00  0.00    -0.150 NA 
HETATM    7  C   UNL     1     -10.465   7.829  67.560  1.00  0.00    -0.268 C  
HETATM    8  C   UNL     1     -10.247   6.826  68.715  1.00  0.00    -0.175 C  
ENDROOT
BRANCH   6   9
HETATM    9  C   UNL     1      -8.557   7.164  66.187  1.00  0.00    -0.146 C  
HETATM   10  C   UNL     1      -7.343   7.422  65.224  1.00  0.00    -0.076 C  
HETATM   11  C   UNL     1      -7.610   8.537  64.203  1.00  0.00    -0.123 A  
HETATM   12  C   UNL     1      -6.796   6.093  64.546  1.00  0.00    -0.046 C  
HETATM   13  O   UNL     1      -6.283   7.922  66.089  1.00  0.00    -0.044 OA 
HETATM   14  C   UNL     1      -6.554   9.324  63.708  1.00  0.00    -0.092 A  
HETATM   15  C   UNL     1      -6.419   4.932  65.507  1.00  0.00    -0.036 C  
HETATM   16  H   UNL     1      -5.549   8.077  65.507  1.00  0.00     0.000 HD 
HETATM   17  C   UNL     1      -7.564   4.008  65.930  1.00  0.00    -0.089 C  
HETATM   18  C   UNL     1      -6.790  10.421  62.870  1.00  0.00    -0.104 A  
HETATM   19  C   UNL     1      -8.435   3.545  64.772  1.00  0.00    -0.100 C  
HETATM   20  C   UNL     1      -8.091  10.749  62.501  1.00  0.00    -0.198 A  
HETATM   21  C   UNL     1      -8.818   4.656  63.804  1.00  0.00    -0.130 C  
HETATM   22  C   UNL     1      -9.146   9.949  62.924  1.00  0.00    -0.291 A  
HETATM   23  C   UNL     1      -8.907   8.847  63.753  1.00  0.00     0.055 A  
HETATM   24  C   UNL     1      -7.626   5.508  63.384  1.00  0.00    -0.070 C  
ENDBRANCH   6   9
TORSDOF 1
ENDMDL
MODEL      127
REMARK 921   NORMALIZED FREE ENERGY PREDICTED BY IDOCK:   -2.34 KCAL/MOL
REMARK 922        TOTAL FREE ENERGY PREDICTED BY IDOCK:   -2.87 KCAL/MOL
REMARK 923 INTER-LIGAND FREE ENERGY PREDICTED BY IDOCK:   -2.58 KCAL/MOL
REMARK 924 INTRA-LIGAND FREE ENERGY PREDICTED BY IDOCK:   -0.29 KCAL/MOL
REMARK 927      BINDING AFFINITY PREDICTED BY RF-SCORE:    0.00 PKD
ROOT
HETATM    1  C   UNL     1      -7.507  11.475  68.029  1.00  0.00    -0.098 C  
HETATM    2  N   UNL     1      -6.801  10.173  67.664  1.00  0.00    -0.075 N  
HETATM    3  C   UNL     1      -5.891  10.428  66.466  1.00  0.00    -0.068 C  
HETATM    4  C   UNL     1      -5.943   9.724  68.886  1.00  0.00    -0.038 C  
HETATM    5  C   UNL     1      -5.565   8.229  68.826  1.00  0.00    -0.036 C  
HETATM    6  N   UNL     1      -6.717   7.330  68.652  1.00  0.00    -0.058 NA 
HETATM    7  C   UNL     1      -7.379   7.670  67.377  1.00  0.00    -0.092 C  
HETATM    8  C   UNL     1      -7.884   9.127  67.288  1.00  0.00    -0.099 C  
ENDROOT
BRANCH   6   9
HETATM    9  C   UNL     1      -7.696   7.363  69.780  1.00  0.00    -0.103 C  
HETATM   10  C   UNL     1      -7.453   6.533  71.091  1.00  0.00    -0.085 C  
HETATM   11  C   UNL     1      -7.105   5.063  70.819  1.00  0.00    -0.056 A  
HETATM   12  C   UNL     1      -8.624   6.694  72.154  1.00  0.00    -0.118 C  
HETATM   13  O   UNL     1      -6.260   7.120  71.685  1.00  0.00    -0.037 OA 
HETATM   14  C   UNL     1      -6.284   4.344  71.707  1.00  0.00    -0.018 A  
HETATM   15  C   UNL     1      -8.995   8.148  72.558  1.00  0.00    -0.286 C  
HETATM   16  H   UNL     1      -6.113   6.619  72.479  1.00  0.00     0.000 HD 
HETATM   17  C   UNL     1      -9.991   8.868  71.645  1.00  0.00    -0.397 C  
HETATM   18  C   UNL     1      -5.857   3.042  71.417  1.00  0.00    -0.013 A  
HETATM   19  C   UNL     1     -11.214   8.032  71.296  1.00  0.00    -0.287 C  
HETATM   20  C   UNL     1      -6.250   2.428  70.233  1.00  0.00    -0.024 A  
HETATM   21  C   UNL     1     -10.889   6.597  70.903  1.00  0.00    -0.297 C  
HETATM   22  C   UNL     1      -7.113   3.092  69.369  1.00  0.00    -0.044 A  
HETATM   23  C   UNL     1      -7.547   4.389  69.665  1.00  0.00    -0.054 A  
HETATM   24  C   UNL     1      -9.931   5.921  71.878  1.00  0.00    -0.203 C  
ENDBRANCH   6   9
TORSDOF 1
ENDMDL
MODEL      128
REMARK 921   NORMALIZED FREE ENERGY PREDICTED BY IDOCK:   -2.29 KCAL/MOL
REMARK 922        TOTAL FREE ENERGY PREDICTED BY IDOCK:   -2.82 KCAL/MOL
REMARK 923 INTER-LIGAND FREE ENERGY PREDICTED BY IDOCK:   -2.71 KCAL/MOL
REMARK 924 INTRA-LIGAND FREE ENERGY PREDICTED BY IDOCK:   -0.11 KCAL/MOL
REMARK 927      BINDING AFFINITY PREDICTED BY RF-SCORE:    0.00 PKD
ROOT
HETATM    1  C   UNL     1     -10.354   6.714  71.300  1.00  0.00    -0.205 C  
HETATM    2  N   UNL     1     -10.321   7.565  70.034  1.00  0.00    -0.216 N  
HETATM    3  C   UNL     1     -10.998   8.902  70.324  1.00  0.00    -0.241 C  
HETATM    4  C   UNL     1      -8.829   7.807  69.649  1.00  0.00    -0.139 C  
HETATM    5  C   UNL     1      -8.661   8.238  68.177  1.00  0.00    -0.136 C  
HETATM    6  N   UNL     1      -9.297   7.324  67.213  1.00  0.00    -0.128 NA 
HETATM    7  C   UNL     1     -10.744   7.286  67.500  1.00  0.00    -0.256 C  
HETATM    8  C   UNL     1     -11.101   6.809  68.926  1.00  0.00    -0.181 C  
ENDROOT
BRANCH   6   9
HETATM    9  C   UNL     1      -8.723   5.945  67.206  1.00  0.00    -0.108 C  
HETATM   10  C   UNL     1      -7.256   5.677  66.714  1.00  0.00    -0.074 C  
HETATM   11  C   UNL     1      -6.951   6.315  65.352  1.00  0.00    -0.056 A  
HETATM   12  C   UNL     1      -6.853   4.140  66.770  1.00  0.00    -0.055 C  
HETATM   13  O   UNL     1      -6.410   6.371  67.676  1.00  0.00    -0.036 OA 
HETATM   14  C   UNL     1      -5.646   6.733  65.031  1.00  0.00    -0.031 A  
HETATM   15  C   UNL     1      -7.047   3.425  68.136  1.00  0.00    -0.050 C  
HETATM   16  H   UNL     1      -5.522   6.209  67.378  1.00  0.00     0.000 HD 
HETATM   17  C   UNL     1      -8.445   2.864  68.408  1.00  0.00    -0.100 C  
HETATM   18  C   UNL     1      -5.370   7.425  63.845  1.00  0.00    -0.029 A  
HETATM   19  C   UNL     1      -9.022   2.068  67.247  1.00  0.00    -0.166 C  
HETATM   20  C   UNL     1      -6.396   7.707  62.949  1.00  0.00    -0.063 A  
HETATM   21  C   UNL     1      -8.842   2.736  65.890  1.00  0.00    -0.135 C  
HETATM   22  C   UNL     1      -7.682   7.249  63.211  1.00  0.00    -0.120 A  
HETATM   23  C   UNL     1      -7.954   6.549  64.392  1.00  0.00    -0.103 A  
HETATM   24  C   UNL     1      -7.417   3.228  65.661  1.00  0.00    -0.076 C  
ENDBRANCH   6   9
TORSDOF 1
ENDMDL
MODEL      129
REMARK 921   NORMALIZED FREE ENERGY PREDICTED BY IDOCK:   -2.27 KCAL/MOL
REMARK 922        TOTAL FREE ENERGY PREDICTED BY IDOCK:   -2.80 KCAL/MOL
REMARK 923 INTER-LIGAND FREE ENERGY PREDICTED BY IDOCK:   -2.40 KCAL/MOL
REMARK 924 INTRA-LIGAND FREE ENERGY PREDICTED BY IDOCK:   -0.40 KCAL/MOL
REMARK 927      BINDING AFFINITY PREDICTED BY RF-SCORE:    0.00 PKD
ROOT
HETATM    1  C   UNL     1      -6.760  10.805  70.316  1.00  0.00    -0.045 C  
HETATM    2  N   UNL     1      -6.341   9.391  70.709  1.00  0.00    -0.072 N  
HETATM    3  C   UNL     1      -5.234   9.482  71.756  1.00  0.00    -0.074 C  
HETATM    4  C   UNL     1      -7.579   8.666  71.318  1.00  0.00    -0.110 C  
HETATM    5  C   UNL     1      -7.424   7.131  71.321  1.00  0.00    -0.080 C  
HETATM    6  N   UNL     1      -7.098   6.564  70.003  1.00  0.00    -0.072 NA 
HETATM    7  C   UNL     1      -5.812   7.137  69.560  1.00  0.00    -0.023 C  
HETATM    8  C   UNL     1      -5.806   8.677  69.439  1.00  0.00    -0.034 C  
ENDROOT
BRANCH   6   9
HETATM    9  C   UNL     1      -8.153   6.773  68.967  1.00  0.00    -0.117 C  
HETATM   10  C   UNL     1      -9.136   5.617  68.562  1.00  0.00    -0.114 C  
HETATM   11  C   UNL     1      -8.415   4.301  68.235  1.00  0.00    -0.103 A  
HETATM   12  C   UNL     1     -10.166   6.044  67.430  1.00  0.00    -0.230 C  
HETATM   13  O   UNL     1      -9.914   5.354  69.765  1.00  0.00    -0.183 OA 
HETATM   14  C   UNL     1      -9.046   3.062  68.459  1.00  0.00    -0.213 A  
HETATM   15  C   UNL     1     -11.005   7.322  67.707  1.00  0.00    -0.141 C  
HETATM   16  H   UNL     1     -10.509   4.654  69.520  1.00  0.00     0.000 HD 
HETATM   17  C   UNL     1     -10.347   8.654  67.335  1.00  0.00    -0.353 C  
HETATM   18  C   UNL     1      -8.364   1.852  68.281  1.00  0.00    -0.077 A  
HETATM   19  C   UNL     1      -9.720   8.659  65.949  1.00  0.00    -0.154 C  
HETATM   20  C   UNL     1      -7.037   1.855  67.866  1.00  0.00    -0.046 A  
HETATM   21  C   UNL     1      -8.896   7.416  65.639  1.00  0.00    -0.056 C  
HETATM   22  C   UNL     1      -6.411   3.061  67.576  1.00  0.00    -0.037 A  
HETATM   23  C   UNL     1      -7.096   4.269  67.745  1.00  0.00    -0.064 A  
HETATM   24  C   UNL     1      -9.626   6.124  65.987  1.00  0.00    -0.002 C  
ENDBRANCH   6   9
TORSDOF 1
ENDMDL
MODEL      130
REMARK 921   NORMALIZED FREE ENERGY PREDICTED BY IDOCK:   -2.19 KCAL/MOL
REMARK 922        TOTAL FREE ENERGY PREDICTED BY IDOCK:   -2.72 KCAL/MOL
REMARK 923 INTER-LIGAND FREE ENERGY PREDICTED BY IDOCK:   -2.51 KCAL/MOL
REMARK 924 INTRA-LIGAND FREE ENERGY PREDICTED BY IDOCK:   -0.21 KCAL/MOL
REMARK 927      BINDING AFFINITY PREDICTED BY RF-SCORE:    0.00 PKD
ROOT
HETATM    1  C   UNL     1     -10.402  10.543  63.623  1.00  0.00     0.086 C  
HETATM    2  N   UNL     1     -11.174  11.763  64.119  1.00  0.00    -0.357 N  
HETATM    3  C   UNL     1     -12.386  11.976  63.216  1.00  0.00    -0.438 C  
HETATM    4  C   UNL     1     -11.650  11.480  65.576  1.00  0.00     0.097 C  
HETATM    5  C   UNL     1     -12.020  12.769  66.338  1.00  0.00    -0.375 C  
HETATM    6  N   UNL     1     -10.956  13.788  66.337  1.00  0.00    -0.297 NA 
HETATM    7  C   UNL     1     -10.682  14.165  64.937  1.00  0.00    -0.428 C  
HETATM    8  C   UNL     1     -10.232  12.994  64.035  1.00  0.00    -0.142 C  
ENDROOT
BRANCH   6   9
HETATM    9  C   UNL     1      -9.700  13.362  67.025  1.00  0.00    -0.239 C  
HETATM   10  C   UNL     1      -9.623  13.268  68.591  1.00  0.00    -0.048 C  
HETATM   11  C   UNL     1     -10.137  14.531  69.296  1.00  0.00    -0.083 A  
HETATM   12  C   UNL     1      -8.192  12.817  69.116  1.00  0.00     0.555 C  
HETATM   13  O   UNL     1     -10.557  12.208  68.945  1.00  0.00    -0.299 OA 
HETATM   14  C   UNL     1     -10.724  14.451  70.573  1.00  0.00     0.505 A  
HETATM   15  C   UNL     1      -7.621  11.501  68.520  1.00  0.00    -0.130 C  
HETATM   16  H   UNL     1     -10.510  12.151  69.892  1.00  0.00     0.000 HD 
HETATM   17  C   UNL     1      -6.873  11.632  67.191  1.00  0.00    -0.143 C  
HETATM   18  C   UNL     1     -11.306  15.571  71.181  1.00  0.00    -0.442 A  
HETATM   19  C   UNL     1      -5.860  12.767  67.170  1.00  0.00     0.121 C  
HETATM   20  C   UNL     1     -11.306  16.798  70.528  1.00  0.00     0.292 A  
HETATM   21  C   UNL     1      -6.383  14.073  67.755  1.00  0.00    -0.170 C  
HETATM   22  C   UNL     1     -10.676  16.918  69.295  1.00  0.00    -0.288 A  
HETATM   23  C   UNL     1     -10.086  15.802  68.692  1.00  0.00    -0.211 A  
HETATM   24  C   UNL     1      -7.074  13.880  69.100  1.00  0.00    -0.069 C  
ENDBRANCH   6   9
TORSDOF 1
ENDMDL
MODEL      131
REMARK 921   NORMALIZED FREE ENERGY PREDICTED BY IDOCK:   -2.08 KCAL/MOL
REMARK 922        TOTAL FREE ENERGY PREDICTED BY IDOCK:   -2.59 KCAL/MOL
REMARK 923 INTER-LIGAND FREE ENERGY PREDICTED BY IDOCK:   -2.58 KCAL/MOL
REMARK 924 INTRA-LIGAND FREE ENERGY PREDICTED BY IDOCK:   -0.01 KCAL/MOL
REMARK 927      BINDING AFFINITY PREDICTED BY RF-SCORE:    0.00 PKD
ROOT
HETATM    1  C   UNL     1      -9.352  11.293  64.229  1.00  0.00    -0.114 C  
HETATM    2  N   UNL     1      -8.304  10.374  63.609  1.00  0.00    -0.169 N  
HETATM    3  C   UNL     1      -7.752  11.039  62.351  1.00  0.00    -0.039 C  
HETATM    4  C   UNL     1      -7.154  10.176  64.643  1.00  0.00    -0.124 C  
HETATM    5  C   UNL     1      -6.290   8.935  64.338  1.00  0.00    -0.071 C  
HETATM    6  N   UNL     1      -7.065   7.692  64.191  1.00  0.00    -0.064 NA 
HETATM    7  C   UNL     1      -8.005   7.865  63.066  1.00  0.00    -0.139 C  
HETATM    8  C   UNL     1      -8.997   9.036  63.236  1.00  0.00     0.136 C  
ENDROOT
BRANCH   6   9
HETATM    9  C   UNL     1      -7.793   7.274  65.427  1.00  0.00    -0.118 C  
HETATM   10  C   UNL     1      -7.667   5.813  65.990  1.00  0.00    -0.095 C  
HETATM   11  C   UNL     1      -7.901   4.734  64.924  1.00  0.00    -0.091 A  
HETATM   12  C   UNL     1      -8.537   5.575  67.299  1.00  0.00    -0.108 C  
HETATM   13  O   UNL     1      -6.270   5.686  66.383  1.00  0.00    -0.032 OA 
HETATM   14  C   UNL     1      -7.264   3.482  65.017  1.00  0.00    -0.067 A  
HETATM   15  C   UNL     1      -8.310   6.570  68.470  1.00  0.00    -0.121 C  
HETATM   16  H   UNL     1      -6.194   4.803  66.723  1.00  0.00     0.000 HD 
HETATM   17  C   UNL     1      -9.113   7.872  68.412  1.00  0.00    -0.135 C  
HETATM   18  C   UNL     1      -7.369   2.530  63.995  1.00  0.00    -0.058 A  
HETATM   19  C   UNL     1     -10.588   7.667  68.101  1.00  0.00    -0.187 C  
HETATM   20  C   UNL     1      -8.122   2.807  62.860  1.00  0.00    -0.073 A  
HETATM   21  C   UNL     1     -10.849   6.690  66.962  1.00  0.00    -0.467 C  
HETATM   22  C   UNL     1      -8.813   4.010  62.771  1.00  0.00    -0.102 A  
HETATM   23  C   UNL     1      -8.716   4.956  63.797  1.00  0.00    -0.108 A  
HETATM   24  C   UNL     1     -10.057   5.395  67.104  1.00  0.00    -0.231 C  
ENDBRANCH   6   9
TORSDOF 1
ENDMDL
MODEL      132
REMARK 921   NORMALIZED FREE ENERGY PREDICTED BY IDOCK:   -2.05 KCAL/MOL
REMARK 922        TOTAL FREE ENERGY PREDICTED BY IDOCK:   -2.56 KCAL/MOL
REMARK 923 INTER-LIGAND FREE ENERGY PREDICTED BY IDOCK:   -2.27 KCAL/MOL
REMARK 924 INTRA-LIGAND FREE ENERGY PREDICTED BY IDOCK:   -0.29 KCAL/MOL
REMARK 927      BINDING AFFINITY PREDICTED BY RF-SCORE:    0.00 PKD
ROOT
HETATM    1  C   UNL     1      -6.203   7.233  65.010  1.00  0.00    -0.038 C  
HETATM    2  N   UNL     1      -6.282   8.638  64.421  1.00  0.00    -0.066 N  
HETATM    3  C   UNL     1      -5.341   8.720  63.222  1.00  0.00    -0.068 C  
HETATM    4  C   UNL     1      -7.748   8.888  63.952  1.00  0.00    -0.129 C  
HETATM    5  C   UNL     1      -8.066  10.387  63.777  1.00  0.00    -0.104 C  
HETATM    6  N   UNL     1      -7.763  11.203  64.965  1.00  0.00     0.415 NA 
HETATM    7  C   UNL     1      -6.319  11.087  65.246  1.00  0.00     0.288 C  
HETATM    8  C   UNL     1      -5.833   9.644  65.513  1.00  0.00    -0.061 C  
ENDROOT
BRANCH   6   9
HETATM    9  C   UNL     1      -8.566  10.849  66.173  1.00  0.00    -0.169 C  
HETATM   10  C   UNL     1      -9.582  11.869  66.801  1.00  0.00    -0.204 C  
HETATM   11  C   UNL     1      -8.973  13.258  67.037  1.00  0.00    -0.230 A  
HETATM   12  C   UNL     1     -10.317  11.299  68.091  1.00  0.00    -0.205 C  
HETATM   13  O   UNL     1     -10.604  12.051  65.779  1.00  0.00    -0.247 OA 
HETATM   14  C   UNL     1      -9.778  14.412  66.985  1.00  0.00    -0.256 A  
HETATM   15  C   UNL     1     -11.036   9.932  67.928  1.00  0.00    -0.216 C  
HETATM   16  H   UNL     1     -11.218  12.668  66.159  1.00  0.00     0.000 HD 
HETATM   17  C   UNL     1     -10.166   8.687  68.117  1.00  0.00    -0.250 C  
HETATM   18  C   UNL     1      -9.222  15.695  67.077  1.00  0.00    -0.239 A  
HETATM   19  C   UNL     1      -9.287   8.738  69.358  1.00  0.00    -0.157 C  
HETATM   20  C   UNL     1      -7.849  15.850  67.233  1.00  0.00    -0.218 A  
HETATM   21  C   UNL     1      -8.572  10.068  69.554  1.00  0.00    -0.197 C  
HETATM   22  C   UNL     1      -7.041  14.726  67.351  1.00  0.00    -0.173 A  
HETATM   23  C   UNL     1      -7.598  13.445  67.269  1.00  0.00    -0.076 A  
HETATM   24  C   UNL     1      -9.503  11.265  69.401  1.00  0.00     0.327 C  
ENDBRANCH   6   9
TORSDOF 1
ENDMDL
MODEL      133
REMARK 921   NORMALIZED FREE ENERGY PREDICTED BY IDOCK:   -2.01 KCAL/MOL
REMARK 922        TOTAL FREE ENERGY PREDICTED BY IDOCK:   -2.52 KCAL/MOL
REMARK 923 INTER-LIGAND FREE ENERGY PREDICTED BY IDOCK:   -3.05 KCAL/MOL
REMARK 924 INTRA-LIGAND FREE ENERGY PREDICTED BY IDOCK:    0.53 KCAL/MOL
REMARK 927      BINDING AFFINITY PREDICTED BY RF-SCORE:    0.00 PKD
ROOT
HETATM    1  C   UNL     1     -13.589  14.084  71.095  1.00  0.00    -0.142 C  
HETATM    2  N   UNL     1     -12.411  15.052  71.017  1.00  0.00    -0.304 N  
HETATM    3  C   UNL     1     -12.388  15.899  72.287  1.00  0.00    -0.483 C  
HETATM    4  C   UNL     1     -11.098  14.216  70.923  1.00  0.00     0.739 C  
HETATM    5  C   UNL     1      -9.911  15.038  70.380  1.00  0.00     0.487 C  
HETATM    6  N   UNL     1     -10.186  15.705  69.097  1.00  0.00    -0.218 NA 
HETATM    7  C   UNL     1     -11.315  16.635  69.293  1.00  0.00    -0.025 C  
HETATM    8  C   UNL     1     -12.619  15.964  69.779  1.00  0.00     0.239 C  
ENDROOT
BRANCH   6   9
HETATM    9  C   UNL     1     -10.464  14.768  67.967  1.00  0.00    -0.246 C  
HETATM   10  C   UNL     1      -9.540  13.528  67.692  1.00  0.00    -0.222 C  
HETATM   11  C   UNL     1      -8.048  13.888  67.643  1.00  0.00    -0.183 A  
HETATM   12  C   UNL     1     -10.002  12.676  66.433  1.00  0.00    -0.262 C  
HETATM   13  O   UNL     1      -9.704  12.677  68.862  1.00  0.00    -0.408 OA 
HETATM   14  C   UNL     1      -7.071  12.950  68.025  1.00  0.00    -0.111 A  
HETATM   15  C   UNL     1     -11.479  12.193  66.430  1.00  0.00    -0.430 C  
HETATM   16  H   UNL     1      -9.145  11.927  68.696  1.00  0.00     0.000 HD 
HETATM   17  C   UNL     1     -12.511  13.185  65.889  1.00  0.00    -0.386 C  
HETATM   18  C   UNL     1      -5.716  13.296  68.102  1.00  0.00    -0.101 A  
HETATM   19  C   UNL     1     -12.108  13.828  64.570  1.00  0.00    -0.463 C  
HETATM   20  C   UNL     1      -5.308  14.588  67.789  1.00  0.00    -0.007 A  
HETATM   21  C   UNL     1     -10.662  14.306  64.533  1.00  0.00    -0.280 C  
HETATM   22  C   UNL     1      -6.245  15.515  67.347  1.00  0.00    -0.072 A  
HETATM   23  C   UNL     1      -7.597  15.165  67.261  1.00  0.00    -0.236 A  
HETATM   24  C   UNL     1      -9.681  13.255  65.039  1.00  0.00     0.065 C  
ENDBRANCH   6   9
TORSDOF 1
ENDMDL
MODEL      134
REMARK 921   NORMALIZED FREE ENERGY PREDICTED BY IDOCK:   -1.96 KCAL/MOL
REMARK 922        TOTAL FREE ENERGY PREDICTED BY IDOCK:   -2.46 KCAL/MOL
REMARK 923 INTER-LIGAND FREE ENERGY PREDICTED BY IDOCK:   -2.16 KCAL/MOL
REMARK 924 INTRA-LIGAND FREE ENERGY PREDICTED BY IDOCK:   -0.30 KCAL/MOL
REMARK 927      BINDING AFFINITY PREDICTED BY RF-SCORE:    0.00 PKD
ROOT
HETATM    1  C   UNL     1      -6.530  12.247  69.791  1.00  0.00    -0.038 C  
HETATM    2  N   UNL     1      -6.081  11.616  68.476  1.00  0.00    -0.049 N  
HETATM    3  C   UNL     1      -5.137  12.582  67.766  1.00  0.00    -0.098 C  
HETATM    4  C   UNL     1      -5.326  10.291  68.803  1.00  0.00    -0.038 C  
HETATM    5  C   UNL     1      -5.236   9.346  67.587  1.00  0.00    -0.037 C  
HETATM    6  N   UNL     1      -6.537   9.052  66.964  1.00  0.00    -0.061 NA 
HETATM    7  C   UNL     1      -7.120  10.324  66.493  1.00  0.00    -0.108 C  
HETATM    8  C   UNL     1      -7.342  11.375  67.603  1.00  0.00    -0.102 C  
ENDROOT
BRANCH   6   9
HETATM    9  C   UNL     1      -7.495   8.331  67.855  1.00  0.00    -0.098 C  
HETATM   10  C   UNL     1      -7.434   6.770  68.019  1.00  0.00    -0.099 C  
HETATM   11  C   UNL     1      -7.393   6.024  66.678  1.00  0.00    -0.078 A  
HETATM   12  C   UNL     1      -8.553   6.204  68.996  1.00  0.00    -0.121 C  
HETATM   13  O   UNL     1      -6.149   6.513  68.655  1.00  0.00    -0.023 OA 
HETATM   14  C   UNL     1      -6.741   4.781  66.567  1.00  0.00    -0.054 A  
HETATM   15  C   UNL     1      -8.619   6.840  70.412  1.00  0.00    -0.146 C  
HETATM   16  H   UNL     1      -6.112   5.569  68.754  1.00  0.00     0.000 HD 
HETATM   17  C   UNL     1      -9.442   8.125  70.534  1.00  0.00    -0.168 C  
HETATM   18  C   UNL     1      -6.589   4.143  65.330  1.00  0.00    -0.047 A  
HETATM   19  C   UNL     1     -10.808   8.042  69.869  1.00  0.00    -0.217 C  
HETATM   20  C   UNL     1      -7.094   4.732  64.176  1.00  0.00    -0.050 A  
HETATM   21  C   UNL     1     -10.782   7.414  68.482  1.00  0.00    -0.138 C  
HETATM   22  C   UNL     1      -7.797   5.927  64.266  1.00  0.00    -0.116 A  
HETATM   23  C   UNL     1      -7.957   6.559  65.504  1.00  0.00    -0.117 A  
HETATM   24  C   UNL     1      -9.988   6.114  68.438  1.00  0.00    -0.162 C  
ENDBRANCH   6   9
TORSDOF 1
ENDMDL
MODEL      135
REMARK 921   NORMALIZED FREE ENERGY PREDICTED BY IDOCK:   -1.95 KCAL/MOL
REMARK 922        TOTAL FREE ENERGY PREDICTED BY IDOCK:   -2.45 KCAL/MOL
REMARK 923 INTER-LIGAND FREE ENERGY PREDICTED BY IDOCK:   -2.31 KCAL/MOL
REMARK 924 INTRA-LIGAND FREE ENERGY PREDICTED BY IDOCK:   -0.14 KCAL/MOL
REMARK 927      BINDING AFFINITY PREDICTED BY RF-SCORE:    0.00 PKD
ROOT
HETATM    1  C   UNL     1      -9.577   9.711  70.857  1.00  0.00    -0.015 C  
HETATM    2  N   UNL     1     -10.478   9.052  69.817  1.00  0.00    -0.213 N  
HETATM    3  C   UNL     1     -11.871   8.877  70.416  1.00  0.00     0.031 C  
HETATM    4  C   UNL     1     -10.557   9.990  68.575  1.00  0.00    -0.215 C  
HETATM    5  C   UNL     1     -11.034   9.253  67.306  1.00  0.00     0.081 C  
HETATM    6  N   UNL     1     -10.252   8.047  66.988  1.00  0.00    -0.276 NA 
HETATM    7  C   UNL     1     -10.374   7.107  68.118  1.00  0.00    -0.196 C  
HETATM    8  C   UNL     1      -9.877   7.664  69.471  1.00  0.00    -0.178 C  
ENDROOT
BRANCH   6   9
HETATM    9  C   UNL     1      -8.815   8.314  66.677  1.00  0.00    -0.144 C  
HETATM   10  C   UNL     1      -8.176   7.842  65.322  1.00  0.00    -0.145 C  
HETATM   11  C   UNL     1      -8.456   6.367  65.005  1.00  0.00    -0.032 A  
HETATM   12  C   UNL     1      -6.634   8.208  65.202  1.00  0.00    -0.052 C  
HETATM   13  O   UNL     1      -8.873   8.607  64.297  1.00  0.00    -0.417 OA 
HETATM   14  C   UNL     1      -8.541   5.922  63.671  1.00  0.00     0.206 A  
HETATM   15  C   UNL     1      -6.259   9.700  65.424  1.00  0.00    -0.071 C  
HETATM   16  H   UNL     1      -8.486   8.322  63.477  1.00  0.00     0.000 HD 
HETATM   17  C   UNL     1      -6.045  10.130  66.878  1.00  0.00    -0.056 C  
HETATM   18  C   UNL     1      -8.913   4.608  63.361  1.00  0.00    -0.110 A  
HETATM   19  C   UNL     1      -5.158   9.183  67.672  1.00  0.00    -0.034 C  
HETATM   20  C   UNL     1      -9.201   3.707  64.380  1.00  0.00    -0.136 A  
HETATM   21  C   UNL     1      -5.492   7.710  67.471  1.00  0.00    -0.035 C  
HETATM   22  C   UNL     1      -9.063   4.102  65.705  1.00  0.00    -0.136 A  
HETATM   23  C   UNL     1      -8.681   5.412  66.014  1.00  0.00    -0.137 A  
HETATM   24  C   UNL     1      -5.644   7.336  66.001  1.00  0.00    -0.031 C  
ENDBRANCH   6   9
TORSDOF 1
ENDMDL
MODEL      136
REMARK 921   NORMALIZED FREE ENERGY PREDICTED BY IDOCK:   -1.94 KCAL/MOL
REMARK 922        TOTAL FREE ENERGY PREDICTED BY IDOCK:   -2.44 KCAL/MOL
REMARK 923 INTER-LIGAND FREE ENERGY PREDICTED BY IDOCK:   -2.31 KCAL/MOL
REMARK 924 INTRA-LIGAND FREE ENERGY PREDICTED BY IDOCK:   -0.13 KCAL/MOL
REMARK 927      BINDING AFFINITY PREDICTED BY RF-SCORE:    0.00 PKD
ROOT
HETATM    1  C   UNL     1     -10.613  14.269  65.422  1.00  0.00    -0.354 C  
HETATM    2  N   UNL     1     -10.961  12.979  64.685  1.00  0.00    -0.323 N  
HETATM    3  C   UNL     1     -12.132  13.253  63.745  1.00  0.00    -0.482 C  
HETATM    4  C   UNL     1      -9.716  12.541  63.855  1.00  0.00     0.115 C  
HETATM    5  C   UNL     1      -9.769  11.053  63.450  1.00  0.00    -0.348 C  
HETATM    6  N   UNL     1      -9.977  10.135  64.582  1.00  0.00    -0.305 NA 
HETATM    7  C   UNL     1     -11.269  10.468  65.213  1.00  0.00     0.816 C  
HETATM    8  C   UNL     1     -11.369  11.917  65.740  1.00  0.00    -0.299 C  
ENDROOT
BRANCH   6   9
HETATM    9  C   UNL     1      -8.877  10.149  65.593  1.00  0.00    -0.165 C  
HETATM   10  C   UNL     1      -7.448   9.598  65.246  1.00  0.00    -0.113 C  
HETATM   11  C   UNL     1      -7.479   8.201  64.609  1.00  0.00    -0.096 A  
HETATM   12  C   UNL     1      -6.435   9.688  66.467  1.00  0.00    -0.070 C  
HETATM   13  O   UNL     1      -6.945  10.493  64.213  1.00  0.00    -0.327 OA 
HETATM   14  C   UNL     1      -6.480   7.804  63.701  1.00  0.00    -0.062 A  
HETATM   15  C   UNL     1      -6.271  11.085  67.127  1.00  0.00    -0.075 C  
HETATM   16  H   UNL     1      -6.081  10.160  64.003  1.00  0.00     0.000 HD 
HETATM   17  C   UNL     1      -7.295  11.443  68.207  1.00  0.00    -0.089 C  
HETATM   18  C   UNL     1      -6.555   6.583  63.019  1.00  0.00    -0.038 A  
HETATM   19  C   UNL     1      -7.517  10.339  69.230  1.00  0.00    -0.112 C  
HETATM   20  C   UNL     1      -7.629   5.727  63.239  1.00  0.00    -0.081 A  
HETATM   21  C   UNL     1      -7.672   8.953  68.619  1.00  0.00    -0.097 C  
HETATM   22  C   UNL     1      -8.595   6.066  64.179  1.00  0.00     0.200 A  
HETATM   23  C   UNL     1      -8.514   7.282  64.867  1.00  0.00     0.057 A  
HETATM   24  C   UNL     1      -6.594   8.639  67.588  1.00  0.00    -0.062 C  
ENDBRANCH   6   9
TORSDOF 1
ENDMDL
MODEL      137
REMARK 921   NORMALIZED FREE ENERGY PREDICTED BY IDOCK:   -1.75 KCAL/MOL
REMARK 922        TOTAL FREE ENERGY PREDICTED BY IDOCK:   -2.25 KCAL/MOL
REMARK 923 INTER-LIGAND FREE ENERGY PREDICTED BY IDOCK:   -1.97 KCAL/MOL
REMARK 924 INTRA-LIGAND FREE ENERGY PREDICTED BY IDOCK:   -0.27 KCAL/MOL
REMARK 927      BINDING AFFINITY PREDICTED BY RF-SCORE:    0.00 PKD
ROOT
HETATM    1  C   UNL     1      -5.301  11.317  68.654  1.00  0.00    -0.043 C  
HETATM    2  N   UNL     1      -6.353  10.883  67.637  1.00  0.00    -0.054 N  
HETATM    3  C   UNL     1      -6.696  12.075  66.748  1.00  0.00     0.046 C  
HETATM    4  C   UNL     1      -5.747   9.740  66.767  1.00  0.00    -0.050 C  
HETATM    5  C   UNL     1      -6.828   8.915  66.038  1.00  0.00    -0.076 C  
HETATM    6  N   UNL     1      -7.871   8.381  66.930  1.00  0.00    -0.095 NA 
HETATM    7  C   UNL     1      -8.547   9.519  67.581  1.00  0.00    -0.122 C  
HETATM    8  C   UNL     1      -7.615  10.425  68.415  1.00  0.00    -0.093 C  
ENDROOT
BRANCH   6   9
HETATM    9  C   UNL     1      -7.367   7.412  67.950  1.00  0.00    -0.093 C  
HETATM   10  C   UNL     1      -7.091   5.911  67.579  1.00  0.00    -0.074 C  
HETATM   11  C   UNL     1      -8.262   5.247  66.843  1.00  0.00    -0.108 A  
HETATM   12  C   UNL     1      -6.580   5.050  68.814  1.00  0.00    -0.048 C  
HETATM   13  O   UNL     1      -5.997   5.962  66.618  1.00  0.00    -0.020 OA 
HETATM   14  C   UNL     1      -8.034   4.211  65.918  1.00  0.00    -0.094 A  
HETATM   15  C   UNL     1      -5.342   5.600  69.575  1.00  0.00    -0.004 C  
HETATM   16  H   UNL     1      -5.829   5.055  66.394  1.00  0.00     0.000 HD 
HETATM   17  C   UNL     1      -5.628   6.634  70.667  1.00  0.00    -0.023 C  
HETATM   18  C   UNL     1      -9.075   3.674  65.149  1.00  0.00    -0.143 A  
HETATM   19  C   UNL     1      -6.758   6.235  71.605  1.00  0.00    -0.063 C  
HETATM   20  C   UNL     1     -10.370   4.158  65.296  1.00  0.00    -0.184 A  
HETATM   21  C   UNL     1      -7.986   5.682  70.894  1.00  0.00    -0.110 C  
HETATM   22  C   UNL     1     -10.634   5.136  66.248  1.00  0.00    -0.325 A  
HETATM   23  C   UNL     1      -9.595   5.664  67.022  1.00  0.00    -0.143 A  
HETATM   24  C   UNL     1      -7.637   4.624  69.853  1.00  0.00    -0.054 C  
ENDBRANCH   6   9
TORSDOF 1
ENDMDL
MODEL      138
REMARK 921   NORMALIZED FREE ENERGY PREDICTED BY IDOCK:   -1.69 KCAL/MOL
REMARK 922        TOTAL FREE ENERGY PREDICTED BY IDOCK:   -2.19 KCAL/MOL
REMARK 923 INTER-LIGAND FREE ENERGY PREDICTED BY IDOCK:   -2.63 KCAL/MOL
REMARK 924 INTRA-LIGAND FREE ENERGY PREDICTED BY IDOCK:    0.44 KCAL/MOL
REMARK 927      BINDING AFFINITY PREDICTED BY RF-SCORE:    0.00 PKD
ROOT
HETATM    1  C   UNL     1      -6.114   7.058  73.176  1.00  0.00    -0.057 C  
HETATM    2  N   UNL     1      -7.363   7.836  72.769  1.00  0.00    -0.081 N  
HETATM    3  C   UNL     1      -7.794   8.716  73.939  1.00  0.00     0.092 C  
HETATM    4  C   UNL     1      -7.003   8.731  71.545  1.00  0.00    -0.082 C  
HETATM    5  C   UNL     1      -8.250   9.196  70.765  1.00  0.00    -0.190 C  
HETATM    6  N   UNL     1      -9.137   8.096  70.351  1.00  0.00    -0.149 NA 
HETATM    7  C   UNL     1      -9.608   7.402  71.565  1.00  0.00    -0.151 C  
HETATM    8  C   UNL     1      -8.481   6.811  72.442  1.00  0.00    -0.119 C  
ENDROOT
BRANCH   6   9
HETATM    9  C   UNL     1      -8.511   7.129  69.399  1.00  0.00    -0.134 C  
HETATM   10  C   UNL     1      -7.756   7.626  68.115  1.00  0.00    -0.119 C  
HETATM   11  C   UNL     1      -8.570   8.633  67.290  1.00  0.00    -0.125 A  
HETATM   12  C   UNL     1      -7.184   6.436  67.231  1.00  0.00    -0.078 C  
HETATM   13  O   UNL     1      -6.608   8.366  68.623  1.00  0.00    -0.052 OA 
HETATM   14  C   UNL     1      -7.923   9.623  66.525  1.00  0.00    -0.112 A  
HETATM   15  C   UNL     1      -6.277   5.407  67.962  1.00  0.00    -0.034 C  
HETATM   16  H   UNL     1      -6.151   8.667  67.846  1.00  0.00     0.000 HD 
HETATM   17  C   UNL     1      -6.999   4.264  68.680  1.00  0.00    -0.051 C  
HETATM   18  C   UNL     1      -8.647  10.623  65.862  1.00  0.00    -0.177 A  
HETATM   19  C   UNL     1      -8.075   3.596  67.837  1.00  0.00    -0.085 C  
HETATM   20  C   UNL     1     -10.035  10.649  65.943  1.00  0.00    -0.312 A  
HETATM   21  C   UNL     1      -8.978   4.575  67.098  1.00  0.00    -0.122 C  
HETATM   22  C   UNL     1     -10.700   9.646  66.638  1.00  0.00    -0.102 A  
HETATM   23  C   UNL     1      -9.977   8.642  67.291  1.00  0.00    -0.282 A  
HETATM   24  C   UNL     1      -8.196   5.659  66.365  1.00  0.00    -0.107 C  
ENDBRANCH   6   9
TORSDOF 1
ENDMDL
MODEL      139
REMARK 921   NORMALIZED FREE ENERGY PREDICTED BY IDOCK:   -1.42 KCAL/MOL
REMARK 922        TOTAL FREE ENERGY PREDICTED BY IDOCK:   -1.90 KCAL/MOL
REMARK 923 INTER-LIGAND FREE ENERGY PREDICTED BY IDOCK:   -2.00 KCAL/MOL
REMARK 924 INTRA-LIGAND FREE ENERGY PREDICTED BY IDOCK:    0.10 KCAL/MOL
REMARK 927      BINDING AFFINITY PREDICTED BY RF-SCORE:    0.00 PKD
ROOT
HETATM    1  C   UNL     1      -9.857  11.673  64.586  1.00  0.00    -0.227 C  
HETATM    2  N   UNL     1      -8.729  10.671  64.359  1.00  0.00    -0.167 N  
HETATM    3  C   UNL     1      -8.305  10.733  62.894  1.00  0.00    -0.114 C  
HETATM    4  C   UNL     1      -7.528  11.074  65.268  1.00  0.00     0.334 C  
HETATM    5  C   UNL     1      -6.533   9.915  65.483  1.00  0.00    -0.091 C  
HETATM    6  N   UNL     1      -7.158   8.679  65.981  1.00  0.00    -0.082 NA 
HETATM    7  C   UNL     1      -8.151   8.231  64.985  1.00  0.00    -0.148 C  
HETATM    8  C   UNL     1      -9.270   9.255  64.692  1.00  0.00    -0.046 C  
ENDROOT
BRANCH   6   9
HETATM    9  C   UNL     1      -7.787   8.810  67.330  1.00  0.00    -0.097 C  
HETATM   10  C   UNL     1      -7.539   7.737  68.450  1.00  0.00    -0.109 C  
HETATM   11  C   UNL     1      -7.768   6.298  67.967  1.00  0.00    -0.103 A  
HETATM   12  C   UNL     1      -8.316   8.057  69.799  1.00  0.00    -0.122 C  
HETATM   13  O   UNL     1      -6.117   7.834  68.748  1.00  0.00    -0.036 OA 
HETATM   14  C   UNL     1      -7.051   5.228  68.535  1.00  0.00    -0.062 A  
HETATM   15  C   UNL     1      -8.083   9.465  70.413  1.00  0.00    -0.197 C  
HETATM   16  H   UNL     1      -5.967   7.185  69.426  1.00  0.00     0.000 HD 
HETATM   17  C   UNL     1      -8.966  10.591  69.869  1.00  0.00     0.272 C  
HETATM   18  C   UNL     1      -7.156   3.926  68.028  1.00  0.00    -0.055 A  
HETATM   19  C   UNL     1     -10.442  10.228  69.792  1.00  0.00    -0.300 C  
HETATM   20  C   UNL     1      -7.989   3.666  66.945  1.00  0.00    -0.088 A  
HETATM   21  C   UNL     1     -10.708   8.849  69.202  1.00  0.00    -0.162 C  
HETATM   22  C   UNL     1      -8.757   4.692  66.407  1.00  0.00    -0.112 A  
HETATM   23  C   UNL     1      -8.658   5.990  66.921  1.00  0.00    -0.108 A  
HETATM   24  C   UNL     1      -9.831   7.765  69.820  1.00  0.00    -0.178 C  
ENDBRANCH   6   9
TORSDOF 1
ENDMDL
MODEL      140
REMARK 921   NORMALIZED FREE ENERGY PREDICTED BY IDOCK:   -1.26 KCAL/MOL
REMARK 922        TOTAL FREE ENERGY PREDICTED BY IDOCK:   -1.73 KCAL/MOL
REMARK 923 INTER-LIGAND FREE ENERGY PREDICTED BY IDOCK:   -2.35 KCAL/MOL
REMARK 924 INTRA-LIGAND FREE ENERGY PREDICTED BY IDOCK:    0.62 KCAL/MOL
REMARK 927      BINDING AFFINITY PREDICTED BY RF-SCORE:    0.00 PKD
ROOT
HETATM    1  C   UNL     1     -12.120   6.934  69.632  1.00  0.00     0.392 C  
HETATM    2  N   UNL     1     -10.781   6.758  68.922  1.00  0.00    -0.230 N  
HETATM    3  C   UNL     1     -11.009   6.848  67.415  1.00  0.00    -0.304 C  
HETATM    4  C   UNL     1      -9.832   7.909  69.377  1.00  0.00    -0.180 C  
HETATM    5  C   UNL     1      -8.346   7.592  69.109  1.00  0.00    -0.135 C  
HETATM    6  N   UNL     1      -7.900   6.308  69.675  1.00  0.00    -0.105 NA 
HETATM    7  C   UNL     1      -8.700   5.231  69.061  1.00  0.00    -0.100 C  
HETATM    8  C   UNL     1     -10.223   5.356  69.287  1.00  0.00    -0.245 C  
ENDROOT
BRANCH   6   9
HETATM    9  C   UNL     1      -7.976   6.236  71.166  1.00  0.00    -0.116 C  
HETATM   10  C   UNL     1      -6.913   5.431  71.996  1.00  0.00    -0.079 C  
HETATM   11  C   UNL     1      -6.692   4.006  71.470  1.00  0.00    -0.026 A  
HETATM   12  C   UNL     1      -7.189   5.467  73.560  1.00  0.00    -0.087 C  
HETATM   13  O   UNL     1      -5.657   6.135  71.772  1.00  0.00    -0.025 OA 
HETATM   14  C   UNL     1      -5.445   3.370  71.620  1.00  0.00    -0.008 A  
HETATM   15  C   UNL     1      -7.345   6.874  74.202  1.00  0.00    -0.101 C  
HETATM   16  H   UNL     1      -5.014   5.648  72.274  1.00  0.00     0.000 HD 
HETATM   17  C   UNL     1      -8.744   7.491  74.140  1.00  0.00    -0.282 C  
HETATM   18  C   UNL     1      -5.187   2.120  71.044  1.00  0.00    -0.004 A  
HETATM   19  C   UNL     1      -9.852   6.536  74.558  1.00  0.00    -0.355 C  
HETATM   20  C   UNL     1      -6.177   1.474  70.311  1.00  0.00    -0.023 A  
HETATM   21  C   UNL     1      -9.727   5.143  73.955  1.00  0.00    -0.155 C  
HETATM   22  C   UNL     1      -7.437   2.049  70.203  1.00  0.00    -0.039 A  
HETATM   23  C   UNL     1      -7.696   3.294  70.787  1.00  0.00    -0.040 A  
HETATM   24  C   UNL     1      -8.323   4.566  74.092  1.00  0.00    -0.102 C  
ENDBRANCH   6   9
TORSDOF 1
ENDMDL
MODEL      141
REMARK 921   NORMALIZED FREE ENERGY PREDICTED BY IDOCK:   -1.19 KCAL/MOL
REMARK 922        TOTAL FREE ENERGY PREDICTED BY IDOCK:   -1.65 KCAL/MOL
REMARK 923 INTER-LIGAND FREE ENERGY PREDICTED BY IDOCK:   -1.48 KCAL/MOL
REMARK 924 INTRA-LIGAND FREE ENERGY PREDICTED BY IDOCK:   -0.16 KCAL/MOL
REMARK 927      BINDING AFFINITY PREDICTED BY RF-SCORE:    0.00 PKD
ROOT
HETATM    1  C   UNL     1     -11.864  10.643  70.181  1.00  0.00    -0.337 C  
HETATM    2  N   UNL     1     -11.268   9.263  69.921  1.00  0.00    -0.180 N  
HETATM    3  C   UNL     1     -12.091   8.224  70.677  1.00  0.00     0.042 C  
HETATM    4  C   UNL     1     -11.344   8.979  68.390  1.00  0.00     0.603 C  
HETATM    5  C   UNL     1     -10.379   7.859  67.948  1.00  0.00    -0.221 C  
HETATM    6  N   UNL     1      -8.983   8.080  68.357  1.00  0.00    -0.133 NA 
HETATM    7  C   UNL     1      -8.940   8.143  69.831  1.00  0.00    -0.143 C  
HETATM    8  C   UNL     1      -9.808   9.262  70.449  1.00  0.00    -0.241 C  
ENDROOT
BRANCH   6   9
HETATM    9  C   UNL     1      -8.353   9.295  67.758  1.00  0.00    -0.116 C  
HETATM   10  C   UNL     1      -8.006   9.360  66.228  1.00  0.00    -0.111 C  
HETATM   11  C   UNL     1      -7.221   8.136  65.736  1.00  0.00    -0.068 A  
HETATM   12  C   UNL     1      -7.325  10.731  65.803  1.00  0.00    -0.061 C  
HETATM   13  O   UNL     1      -9.296   9.301  65.553  1.00  0.00    -0.227 OA 
HETATM   14  C   UNL     1      -7.346   7.690  64.406  1.00  0.00    -0.088 A  
HETATM   15  C   UNL     1      -8.090  12.029  66.185  1.00  0.00     0.379 C  
HETATM   16  H   UNL     1      -9.086   9.340  64.627  1.00  0.00     0.000 HD 
HETATM   17  C   UNL     1      -7.837  12.569  67.595  1.00  0.00    -0.162 C  
HETATM   18  C   UNL     1      -6.733   6.508  63.971  1.00  0.00    -0.044 A  
HETATM   19  C   UNL     1      -6.364  12.629  67.971  1.00  0.00    -0.093 C  
HETATM   20  C   UNL     1      -5.973   5.751  64.856  1.00  0.00    -0.025 A  
HETATM   21  C   UNL     1      -5.581  11.376  67.603  1.00  0.00    -0.050 C  
HETATM   22  C   UNL     1      -5.780   6.203  66.156  1.00  0.00    -0.017 A  
HETATM   23  C   UNL     1      -6.385   7.389  66.587  1.00  0.00    -0.045 A  
HETATM   24  C   UNL     1      -5.839  10.919  66.172  1.00  0.00    -0.145 C  
ENDBRANCH   6   9
TORSDOF 1
ENDMDL
MODEL      142
REMARK 921   NORMALIZED FREE ENERGY PREDICTED BY IDOCK:   -1.15 KCAL/MOL
REMARK 922        TOTAL FREE ENERGY PREDICTED BY IDOCK:   -1.61 KCAL/MOL
REMARK 923 INTER-LIGAND FREE ENERGY PREDICTED BY IDOCK:   -3.58 KCAL/MOL
REMARK 924 INTRA-LIGAND FREE ENERGY PREDICTED BY IDOCK:    1.97 KCAL/MOL
REMARK 927      BINDING AFFINITY PREDICTED BY RF-SCORE:    0.00 PKD
ROOT
HETATM    1  C   UNL     1     -12.221  12.186  71.048  1.00  0.00    -0.124 C  
HETATM    2  N   UNL     1     -12.001  10.853  70.339  1.00  0.00    -0.332 N  
HETATM    3  C   UNL     1     -13.209   9.957  70.594  1.00  0.00    -0.076 C  
HETATM    4  C   UNL     1     -11.869  11.130  68.810  1.00  0.00    -0.320 C  
HETATM    5  C   UNL     1     -11.194   9.966  68.054  1.00  0.00    -0.061 C  
HETATM    6  N   UNL     1      -9.893   9.567  68.615  1.00  0.00    -0.158 NA 
HETATM    7  C   UNL     1     -10.108   9.124  70.007  1.00  0.00    -0.206 C  
HETATM    8  C   UNL     1     -10.724  10.198  70.931  1.00  0.00     0.011 C  
ENDROOT
BRANCH   6   9
HETATM    9  C   UNL     1      -8.847  10.631  68.555  1.00  0.00    -0.148 C  
HETATM   10  C   UNL     1      -8.962  11.828  67.545  1.00  0.00    -0.168 C  
HETATM   11  C   UNL     1      -9.252  11.377  66.106  1.00  0.00    -0.223 A  
HETATM   12  C   UNL     1      -7.736  12.835  67.632  1.00  0.00    -0.162 C  
HETATM   13  O   UNL     1     -10.144  12.564  67.975  1.00  0.00    -0.207 OA 
HETATM   14  C   UNL     1      -9.976  12.203  65.227  1.00  0.00    -0.260 A  
HETATM   15  C   UNL     1      -7.415  13.413  69.038  1.00  0.00     0.064 C  
HETATM   16  H   UNL     1     -10.214  13.288  67.364  1.00  0.00     0.000 HD 
HETATM   17  C   UNL     1      -6.517  12.553  69.931  1.00  0.00     0.036 C  
HETATM   18  C   UNL     1     -10.354  11.761  63.952  1.00  0.00    -0.428 A  
HETATM   19  C   UNL     1      -5.279  12.024  69.224  1.00  0.00    -0.056 C  
HETATM   20  C   UNL     1     -10.006  10.484  63.527  1.00  0.00    -0.278 A  
HETATM   21  C   UNL     1      -5.554  11.456  67.837  1.00  0.00    -0.044 C  
HETATM   22  C   UNL     1      -9.236   9.672  64.351  1.00  0.00    -0.258 A  
HETATM   23  C   UNL     1      -8.851  10.118  65.620  1.00  0.00    -0.185 A  
HETATM   24  C   UNL     1      -6.412  12.382  66.982  1.00  0.00     0.004 C  
ENDBRANCH   6   9
TORSDOF 1
ENDMDL
MODEL      143
REMARK 921   NORMALIZED FREE ENERGY PREDICTED BY IDOCK:   -1.11 KCAL/MOL
REMARK 922        TOTAL FREE ENERGY PREDICTED BY IDOCK:   -1.57 KCAL/MOL
REMARK 923 INTER-LIGAND FREE ENERGY PREDICTED BY IDOCK:   -1.96 KCAL/MOL
REMARK 924 INTRA-LIGAND FREE ENERGY PREDICTED BY IDOCK:    0.39 KCAL/MOL
REMARK 927      BINDING AFFINITY PREDICTED BY RF-SCORE:    0.00 PKD
ROOT
HETATM    1  C   UNL     1      -9.846   8.401  65.554  1.00  0.00     0.664 C  
HETATM    2  N   UNL     1      -9.683   9.543  66.553  1.00  0.00    -0.204 N  
HETATM    3  C   UNL     1      -9.573  10.856  65.782  1.00  0.00    -0.216 C  
HETATM    4  C   UNL     1     -10.947   9.577  67.465  1.00  0.00    -0.054 C  
HETATM    5  C   UNL     1     -10.709  10.353  68.777  1.00  0.00    -0.225 C  
HETATM    6  N   UNL     1      -9.540   9.887  69.541  1.00  0.00    -0.212 NA 
HETATM    7  C   UNL     1      -8.340  10.063  68.699  1.00  0.00    -0.116 C  
HETATM    8  C   UNL     1      -8.381   9.294  67.359  1.00  0.00    -0.122 C  
ENDROOT
BRANCH   6   9
HETATM    9  C   UNL     1      -9.645   8.477  70.022  1.00  0.00    -0.169 C  
HETATM   10  C   UNL     1      -9.114   8.061  71.441  1.00  0.00    -0.141 C  
HETATM   11  C   UNL     1      -7.682   8.542  71.713  1.00  0.00    -0.154 A  
HETATM   12  C   UNL     1      -9.304   6.512  71.746  1.00  0.00    -0.149 C  
HETATM   13  O   UNL     1      -9.960   8.784  72.380  1.00  0.00    -0.282 OA 
HETATM   14  C   UNL     1      -7.260   8.834  73.024  1.00  0.00     0.144 A  
HETATM   15  C   UNL     1     -10.742   5.948  71.578  1.00  0.00    -0.313 C  
HETATM   16  H   UNL     1      -9.639   8.532  73.238  1.00  0.00     0.000 HD 
HETATM   17  C   UNL     1     -11.135   5.515  70.163  1.00  0.00    -0.063 C  
HETATM   18  C   UNL     1      -5.998   9.387  73.279  1.00  0.00     0.252 A  
HETATM   19  C   UNL     1     -10.088   4.653  69.475  1.00  0.00    -0.212 C  
HETATM   20  C   UNL     1      -5.128   9.651  72.228  1.00  0.00    -0.076 A  
HETATM   21  C   UNL     1      -8.664   5.172  69.626  1.00  0.00    -0.107 C  
HETATM   22  C   UNL     1      -5.495   9.312  70.931  1.00  0.00    -0.039 A  
HETATM   23  C   UNL     1      -6.751   8.751  70.678  1.00  0.00    -0.048 A  
HETATM   24  C   UNL     1      -8.320   5.539  71.065  1.00  0.00    -0.121 C  
ENDBRANCH   6   9
TORSDOF 1
ENDMDL
MODEL      144
REMARK 921   NORMALIZED FREE ENERGY PREDICTED BY IDOCK:   -0.97 KCAL/MOL
REMARK 922        TOTAL FREE ENERGY PREDICTED BY IDOCK:   -1.42 KCAL/MOL
REMARK 923 INTER-LIGAND FREE ENERGY PREDICTED BY IDOCK:   -3.00 KCAL/MOL
REMARK 924 INTRA-LIGAND FREE ENERGY PREDICTED BY IDOCK:    1.58 KCAL/MOL
REMARK 927      BINDING AFFINITY PREDICTED BY RF-SCORE:    0.00 PKD
ROOT
HETATM    1  C   UNL     1      -7.070  14.554  71.550  1.00  0.00     2.106 C  
HETATM    2  N   UNL     1      -6.607  14.636  70.098  1.00  0.00    -0.172 N  
HETATM    3  C   UNL     1      -5.228  15.288  70.060  1.00  0.00    -0.107 C  
HETATM    4  C   UNL     1      -6.516  13.187  69.532  1.00  0.00    -0.074 C  
HETATM    5  C   UNL     1      -6.517  13.153  67.989  1.00  0.00    -0.126 C  
HETATM    6  N   UNL     1      -7.649  13.870  67.379  1.00  0.00    -0.170 NA 
HETATM    7  C   UNL     1      -7.573  15.286  67.790  1.00  0.00    -0.154 C  
HETATM    8  C   UNL     1      -7.624  15.511  69.318  1.00  0.00    -0.221 C  
ENDROOT
BRANCH   6   9
HETATM    9  C   UNL     1      -8.988  13.296  67.709  1.00  0.00    -0.196 C  
HETATM   10  C   UNL     1     -10.236  13.565  66.794  1.00  0.00    -0.264 C  
HETATM   11  C   UNL     1     -10.433  15.052  66.467  1.00  0.00    -0.285 A  
HETATM   12  C   UNL     1     -11.563  12.880  67.335  1.00  0.00    -0.414 C  
HETATM   13  O   UNL     1      -9.914  12.921  65.528  1.00  0.00    -0.331 OA 
HETATM   14  C   UNL     1     -11.032  15.448  65.256  1.00  0.00    -0.397 A  
HETATM   15  C   UNL     1     -11.486  11.354  67.618  1.00  0.00    -0.348 C  
HETATM   16  H   UNL     1     -10.668  13.084  64.974  1.00  0.00     0.000 HD 
HETATM   17  C   UNL     1     -10.952  10.950  68.994  1.00  0.00    -0.285 C  
HETATM   18  C   UNL     1     -11.112  16.797  64.886  1.00  0.00    -0.061 A  
HETATM   19  C   UNL     1     -11.579  11.723  70.144  1.00  0.00    -0.281 C  
HETATM   20  C   UNL     1     -10.603  17.780  65.726  1.00  0.00    -0.175 A  
HETATM   21  C   UNL     1     -11.678  13.223  69.899  1.00  0.00    -0.330 C  
HETATM   22  C   UNL     1     -10.065  17.422  66.956  1.00  0.00    -0.313 A  
HETATM   23  C   UNL     1      -9.994  16.075  67.329  1.00  0.00    -0.242 A  
HETATM   24  C   UNL     1     -12.263  13.558  68.532  1.00  0.00    -0.160 C  
ENDBRANCH   6   9
TORSDOF 1
ENDMDL
MODEL      145
REMARK 921   NORMALIZED FREE ENERGY PREDICTED BY IDOCK:   -0.81 KCAL/MOL
REMARK 922        TOTAL FREE ENERGY PREDICTED BY IDOCK:   -1.25 KCAL/MOL
REMARK 923 INTER-LIGAND FREE ENERGY PREDICTED BY IDOCK:   -3.54 KCAL/MOL
REMARK 924 INTRA-LIGAND FREE ENERGY PREDICTED BY IDOCK:    2.29 KCAL/MOL
REMARK 927      BINDING AFFINITY PREDICTED BY RF-SCORE:    0.00 PKD
ROOT
HETATM    1  C   UNL     1      -6.732  10.779  70.290  1.00  0.00    -0.045 C  
HETATM    2  N   UNL     1      -6.270   9.451  70.883  1.00  0.00    -0.067 N  
HETATM    3  C   UNL     1      -5.261   9.734  71.993  1.00  0.00    -0.063 C  
HETATM    4  C   UNL     1      -7.514   8.725  71.481  1.00  0.00    -0.087 C  
HETATM    5  C   UNL     1      -7.277   7.214  71.682  1.00  0.00    -0.073 C  
HETATM    6  N   UNL     1      -6.812   6.518  70.471  1.00  0.00    -0.061 NA 
HETATM    7  C   UNL     1      -5.527   7.116  70.061  1.00  0.00    -0.023 C  
HETATM    8  C   UNL     1      -5.594   8.629  69.754  1.00  0.00    -0.029 C  
ENDROOT
BRANCH   6   9
HETATM    9  C   UNL     1      -7.787   6.537  69.340  1.00  0.00    -0.106 C  
HETATM   10  C   UNL     1      -9.296   6.908  69.574  1.00  0.00    -0.147 C  
HETATM   11  C   UNL     1      -9.936   6.126  70.730  1.00  0.00    -0.229 A  
HETATM   12  C   UNL     1     -10.164   6.847  68.244  1.00  0.00    -0.201 C  
HETATM   13  O   UNL     1      -9.273   8.300  70.001  1.00  0.00    -0.150 OA 
HETATM   14  C   UNL     1     -10.981   6.691  71.486  1.00  0.00    -0.287 A  
HETATM   15  C   UNL     1      -9.639   7.676  67.039  1.00  0.00    -0.228 C  
HETATM   16  H   UNL     1     -10.185   8.525  70.143  1.00  0.00     0.000 HD 
HETATM   17  C   UNL     1      -8.595   6.991  66.154  1.00  0.00    -0.148 C  
HETATM   18  C   UNL     1     -11.496   6.045  72.617  1.00  0.00    -0.297 A  
HETATM   19  C   UNL     1      -8.964   5.568  65.763  1.00  0.00    -0.158 C  
HETATM   20  C   UNL     1     -10.982   4.815  73.011  1.00  0.00    -0.346 A  
HETATM   21  C   UNL     1      -9.492   4.727  66.919  1.00  0.00    -0.165 C  
HETATM   22  C   UNL     1      -9.995   4.206  72.245  1.00  0.00    -0.240 A  
HETATM   23  C   UNL     1      -9.488   4.847  71.110  1.00  0.00    -0.216 A  
HETATM   24  C   UNL     1     -10.562   5.448  67.731  1.00  0.00    -0.172 C  
ENDBRANCH   6   9
TORSDOF 1
ENDMDL
MODEL      146
REMARK 921   NORMALIZED FREE ENERGY PREDICTED BY IDOCK:   -0.66 KCAL/MOL
REMARK 922        TOTAL FREE ENERGY PREDICTED BY IDOCK:   -1.09 KCAL/MOL
REMARK 923 INTER-LIGAND FREE ENERGY PREDICTED BY IDOCK:   -0.93 KCAL/MOL
REMARK 924 INTRA-LIGAND FREE ENERGY PREDICTED BY IDOCK:   -0.16 KCAL/MOL
REMARK 927      BINDING AFFINITY PREDICTED BY RF-SCORE:    0.00 PKD
ROOT
HETATM    1  C   UNL     1     -11.889  16.585  72.089  1.00  0.00    -0.283 C  
HETATM    2  N   UNL     1     -12.475  15.190  71.895  1.00  0.00    -0.325 N  
HETATM    3  C   UNL     1     -13.239  14.799  73.157  1.00  0.00    -0.436 C  
HETATM    4  C   UNL     1     -13.456  15.238  70.684  1.00  0.00    -0.208 C  
HETATM    5  C   UNL     1     -13.747  13.839  70.102  1.00  0.00     1.761 C  
HETATM    6  N   UNL     1     -12.537  13.077  69.750  1.00  0.00     0.089 NA 
HETATM    7  C   UNL     1     -11.738  12.889  70.977  1.00  0.00     0.840 C  
HETATM    8  C   UNL     1     -11.301  14.203  71.663  1.00  0.00     1.216 C  
ENDROOT
BRANCH   6   9
HETATM    9  C   UNL     1     -11.711  13.702  68.673  1.00  0.00    -0.354 C  
HETATM   10  C   UNL     1     -11.370  12.921  67.354  1.00  0.00    -0.309 C  
HETATM   11  C   UNL     1     -10.811  11.515  67.614  1.00  0.00    -0.277 A  
HETATM   12  C   UNL     1     -10.465  13.760  66.352  1.00  0.00    -0.284 C  
HETATM   13  O   UNL     1     -12.655  12.722  66.698  1.00  0.00    -0.230 OA 
HETATM   14  C   UNL     1     -11.022  10.477  66.687  1.00  0.00    -0.102 A  
HETATM   15  C   UNL     1     -10.991  15.169  65.962  1.00  0.00    -0.332 C  
HETATM   16  H   UNL     1     -12.449  12.250  65.900  1.00  0.00     0.000 HD 
HETATM   17  C   UNL     1     -10.638  16.309  66.921  1.00  0.00    -0.270 C  
HETATM   18  C   UNL     1     -10.626   9.161  66.960  1.00  0.00    -0.266 A  
HETATM   19  C   UNL     1      -9.175  16.328  67.335  1.00  0.00    -0.217 C  
HETATM   20  C   UNL     1     -10.001   8.858  68.165  1.00  0.00    -0.208 A  
HETATM   21  C   UNL     1      -8.622  14.961  67.716  1.00  0.00    -0.171 C  
HETATM   22  C   UNL     1      -9.723   9.876  69.069  1.00  0.00    -0.195 A  
HETATM   23  C   UNL     1     -10.111  11.192  68.791  1.00  0.00    -0.211 A  
HETATM   24  C   UNL     1      -8.967  13.881  66.697  1.00  0.00    -0.156 C  
ENDBRANCH   6   9
TORSDOF 1
ENDMDL
MODEL      147
REMARK 921   NORMALIZED FREE ENERGY PREDICTED BY IDOCK:   -0.41 KCAL/MOL
REMARK 922        TOTAL FREE ENERGY PREDICTED BY IDOCK:   -0.83 KCAL/MOL
REMARK 923 INTER-LIGAND FREE ENERGY PREDICTED BY IDOCK:   -0.55 KCAL/MOL
REMARK 924 INTRA-LIGAND FREE ENERGY PREDICTED BY IDOCK:   -0.28 KCAL/MOL
REMARK 927      BINDING AFFINITY PREDICTED BY RF-SCORE:    0.00 PKD
ROOT
HETATM    1  C   UNL     1      -6.397   8.109  68.227  1.00  0.00    -0.051 C  
HETATM    2  N   UNL     1      -6.559   8.948  66.962  1.00  0.00    -0.061 N  
HETATM    3  C   UNL     1      -5.323   8.758  66.087  1.00  0.00    -0.034 C  
HETATM    4  C   UNL     1      -7.822   8.443  66.200  1.00  0.00    -0.101 C  
HETATM    5  C   UNL     1      -8.354   9.477  65.186  1.00  0.00    -0.142 C  
HETATM    6  N   UNL     1      -8.604  10.807  65.767  1.00  0.00    -0.181 NA 
HETATM    7  C   UNL     1      -7.329  11.324  66.299  1.00  0.00     0.000 C  
HETATM    8  C   UNL     1      -6.681  10.436  67.385  1.00  0.00    -0.072 C  
ENDROOT
BRANCH   6   9
HETATM    9  C   UNL     1      -9.662  10.825  66.821  1.00  0.00    -0.187 C  
HETATM   10  C   UNL     1     -10.994  11.633  66.621  1.00  0.00    -0.299 C  
HETATM   11  C   UNL     1     -10.759  13.082  66.171  1.00  0.00    -0.288 A  
HETATM   12  C   UNL     1     -11.973  11.535  67.870  1.00  0.00    -0.145 C  
HETATM   13  O   UNL     1     -11.664  10.975  65.507  1.00  0.00     0.265 OA 
HETATM   14  C   UNL     1     -11.708  13.748  65.373  1.00  0.00    -0.346 A  
HETATM   15  C   UNL     1     -12.339  10.104  68.350  1.00  0.00     2.009 C  
HETATM   16  H   UNL     1     -12.469  11.464  65.386  1.00  0.00     0.000 HD 
HETATM   17  C   UNL     1     -11.354   9.448  69.322  1.00  0.00     0.118 C  
HETATM   18  C   UNL     1     -11.458  15.025  64.853  1.00  0.00    -0.399 A  
HETATM   19  C   UNL     1     -10.929  10.354  70.467  1.00  0.00    -0.270 C  
HETATM   20  C   UNL     1     -10.255  15.666  65.128  1.00  0.00    -0.297 A  
HETATM   21  C   UNL     1     -10.572  11.770  70.033  1.00  0.00     0.894 C  
HETATM   22  C   UNL     1      -9.329  15.057  65.966  1.00  0.00    -0.304 A  
HETATM   23  C   UNL     1      -9.583  13.786  66.493  1.00  0.00    -0.295 A  
HETATM   24  C   UNL     1     -11.615  12.384  69.108  1.00  0.00    -0.369 C  
ENDBRANCH   6   9
TORSDOF 1
ENDMDL
MODEL      148
REMARK 921   NORMALIZED FREE ENERGY PREDICTED BY IDOCK:   -0.36 KCAL/MOL
REMARK 922        TOTAL FREE ENERGY PREDICTED BY IDOCK:   -0.77 KCAL/MOL
REMARK 923 INTER-LIGAND FREE ENERGY PREDICTED BY IDOCK:   -0.64 KCAL/MOL
REMARK 924 INTRA-LIGAND FREE ENERGY PREDICTED BY IDOCK:   -0.13 KCAL/MOL
REMARK 927      BINDING AFFINITY PREDICTED BY RF-SCORE:    0.00 PKD
ROOT
HETATM    1  C   UNL     1      -8.341  14.251  69.971  1.00  0.00     1.207 C  
HETATM    2  N   UNL     1      -7.213  13.487  69.284  1.00  0.00     0.022 N  
HETATM    3  C   UNL     1      -6.139  14.483  68.853  1.00  0.00    -0.086 C  
HETATM    4  C   UNL     1      -6.611  12.479  70.309  1.00  0.00     0.504 C  
HETATM    5  C   UNL     1      -5.807  11.352  69.628  1.00  0.00    -0.087 C  
HETATM    6  N   UNL     1      -6.556  10.633  68.584  1.00  0.00    -0.055 NA 
HETATM    7  C   UNL     1      -6.933  11.603  67.537  1.00  0.00    -0.104 C  
HETATM    8  C   UNL     1      -7.804  12.777  68.036  1.00  0.00    -0.150 C  
ENDROOT
BRANCH   6   9
HETATM    9  C   UNL     1      -7.760   9.904  69.085  1.00  0.00    -0.098 C  
HETATM   10  C   UNL     1      -7.944   8.366  68.829  1.00  0.00    -0.120 C  
HETATM   11  C   UNL     1      -7.737   7.971  67.360  1.00  0.00    -0.102 A  
HETATM   12  C   UNL     1      -9.300   7.794  69.428  1.00  0.00    -0.152 C  
HETATM   13  O   UNL     1      -6.857   7.735  69.565  1.00  0.00    -0.045 OA 
HETATM   14  C   UNL     1      -7.251   6.694  67.021  1.00  0.00    -0.081 A  
HETATM   15  C   UNL     1      -9.560   8.072  70.935  1.00  0.00    -0.179 C  
HETATM   16  H   UNL     1      -6.968   6.804  69.410  1.00  0.00     0.000 HD 
HETATM   17  C   UNL     1     -10.211   9.416  71.269  1.00  0.00    -0.340 C  
HETATM   18  C   UNL     1      -6.942   6.356  65.697  1.00  0.00    -0.057 A  
HETATM   19  C   UNL     1     -11.416   9.745  70.400  1.00  0.00    -0.347 C  
HETATM   20  C   UNL     1      -7.124   7.288  64.681  1.00  0.00    -0.057 A  
HETATM   21  C   UNL     1     -11.199   9.477  68.916  1.00  0.00     0.037 C  
HETATM   22  C   UNL     1      -7.663   8.533  64.979  1.00  0.00    -0.102 A  
HETATM   23  C   UNL     1      -7.980   8.866  66.301  1.00  0.00    -0.103 A  
HETATM   24  C   UNL     1     -10.595   8.103  68.648  1.00  0.00    -0.144 C  
ENDBRANCH   6   9
TORSDOF 1
ENDMDL
MODEL      149
REMARK 921   NORMALIZED FREE ENERGY PREDICTED BY IDOCK:   -0.32 KCAL/MOL
REMARK 922        TOTAL FREE ENERGY PREDICTED BY IDOCK:   -0.73 KCAL/MOL
REMARK 923 INTER-LIGAND FREE ENERGY PREDICTED BY IDOCK:   -2.85 KCAL/MOL
REMARK 924 INTRA-LIGAND FREE ENERGY PREDICTED BY IDOCK:    2.12 KCAL/MOL
REMARK 927      BINDING AFFINITY PREDICTED BY RF-SCORE:    0.00 PKD
ROOT
HETATM    1  C   UNL     1     -11.206  17.741  68.569  1.00  0.00     0.617 C  
HETATM    2  N   UNL     1      -9.891  17.672  67.798  1.00  0.00    -0.282 N  
HETATM    3  C   UNL     1      -9.234  19.049  67.825  1.00  0.00    -0.298 C  
HETATM    4  C   UNL     1      -8.965  16.636  68.505  1.00  0.00    -0.235 C  
HETATM    5  C   UNL     1      -7.828  16.137  67.589  1.00  0.00    -0.147 C  
HETATM    6  N   UNL     1      -8.293  15.608  66.297  1.00  0.00    -0.188 NA 
HETATM    7  C   UNL     1      -8.995  16.691  65.581  1.00  0.00     0.303 C  
HETATM    8  C   UNL     1     -10.213  17.271  66.333  1.00  0.00    -0.331 C  
ENDROOT
BRANCH   6   9
HETATM    9  C   UNL     1      -9.164  14.398  66.408  1.00  0.00    -0.213 C  
HETATM   10  C   UNL     1      -9.186  13.530  67.716  1.00  0.00    -0.213 C  
HETATM   11  C   UNL     1      -7.783  13.142  68.205  1.00  0.00    -0.141 A  
HETATM   12  C   UNL     1     -10.163  12.281  67.616  1.00  0.00    -0.208 C  
HETATM   13  O   UNL     1      -9.732  14.413  68.738  1.00  0.00    -0.218 OA 
HETATM   14  C   UNL     1      -7.531  12.942  69.576  1.00  0.00     0.596 A  
HETATM   15  C   UNL     1     -11.631  12.583  67.207  1.00  0.00    -0.434 C  
HETATM   16  H   UNL     1      -9.745  13.888  69.529  1.00  0.00     0.000 HD 
HETATM   17  C   UNL     1     -11.907  12.669  65.704  1.00  0.00    -0.488 C  
HETATM   18  C   UNL     1      -6.236  12.706  70.054  1.00  0.00    -0.060 A  
HETATM   19  C   UNL     1     -11.306  11.522  64.906  1.00  0.00    -0.189 C  
HETATM   20  C   UNL     1      -5.165  12.656  69.169  1.00  0.00    -0.068 A  
HETATM   21  C   UNL     1      -9.868  11.191  65.286  1.00  0.00    -0.296 C  
HETATM   22  C   UNL     1      -5.395  12.787  67.804  1.00  0.00    -0.115 A  
HETATM   23  C   UNL     1      -6.691  13.012  67.327  1.00  0.00    -0.020 A  
HETATM   24  C   UNL     1      -9.671  11.072  66.793  1.00  0.00    -0.222 C  
ENDBRANCH   6   9
TORSDOF 1
ENDMDL
MODEL      150
REMARK 921   NORMALIZED FREE ENERGY PREDICTED BY IDOCK:   -0.32 KCAL/MOL
REMARK 922        TOTAL FREE ENERGY PREDICTED BY IDOCK:   -0.73 KCAL/MOL
REMARK 923 INTER-LIGAND FREE ENERGY PREDICTED BY IDOCK:   -1.65 KCAL/MOL
REMARK 924 INTRA-LIGAND FREE ENERGY PREDICTED BY IDOCK:    0.92 KCAL/MOL
REMARK 927      BINDING AFFINITY PREDICTED BY RF-SCORE:    0.00 PKD
ROOT
HETATM    1  C   UNL     1      -5.759  14.095  69.798  1.00  0.00    -0.106 C  
HETATM    2  N   UNL     1      -6.632  13.869  68.567  1.00  0.00    -0.090 N  
HETATM    3  C   UNL     1      -6.734  15.179  67.791  1.00  0.00    -0.165 C  
HETATM    4  C   UNL     1      -5.949  12.786  67.677  1.00  0.00    -0.150 C  
HETATM    5  C   UNL     1      -6.928  12.141  66.674  1.00  0.00     0.252 C  
HETATM    6  N   UNL     1      -8.147  11.598  67.296  1.00  0.00    -0.152 NA 
HETATM    7  C   UNL     1      -8.859  12.707  67.959  1.00  0.00    -0.195 C  
HETATM    8  C   UNL     1      -8.040  13.432  69.051  1.00  0.00     0.276 C  
ENDROOT
BRANCH   6   9
HETATM    9  C   UNL     1      -7.898  10.481  68.257  1.00  0.00    -0.111 C  
HETATM   10  C   UNL     1      -6.819   9.379  67.961  1.00  0.00    -0.074 C  
HETATM   11  C   UNL     1      -6.951   8.768  66.559  1.00  0.00    -0.079 A  
HETATM   12  C   UNL     1      -6.730   8.275  69.101  1.00  0.00    -0.047 C  
HETATM   13  O   UNL     1      -5.549  10.093  67.964  1.00  0.00    -0.039 OA 
HETATM   14  C   UNL     1      -5.819   8.279  65.880  1.00  0.00    -0.041 A  
HETATM   15  C   UNL     1      -6.512   8.794  70.549  1.00  0.00    -0.040 C  
HETATM   16  H   UNL     1      -4.896   9.427  67.785  1.00  0.00     0.000 HD 
HETATM   17  C   UNL     1      -7.773   9.199  71.316  1.00  0.00    -0.065 C  
HETATM   18  C   UNL     1      -5.899   7.828  64.556  1.00  0.00    -0.041 A  
HETATM   19  C   UNL     1      -8.898   8.178  71.227  1.00  0.00    -0.176 C  
HETATM   20  C   UNL     1      -7.117   7.849  63.885  1.00  0.00    -0.080 A  
HETATM   21  C   UNL     1      -9.134   7.641  69.821  1.00  0.00    -0.147 C  
HETATM   22  C   UNL     1      -8.262   8.267  64.554  1.00  0.00    -0.138 A  
HETATM   23  C   UNL     1      -8.182   8.707  65.880  1.00  0.00    -0.123 A  
HETATM   24  C   UNL     1      -7.845   7.209  69.131  1.00  0.00    -0.118 C  
ENDBRANCH   6   9
TORSDOF 1
ENDMDL
MODEL      151
REMARK 921   NORMALIZED FREE ENERGY PREDICTED BY IDOCK:   -0.04 KCAL/MOL
REMARK 922        TOTAL FREE ENERGY PREDICTED BY IDOCK:   -0.43 KCAL/MOL
REMARK 923 INTER-LIGAND FREE ENERGY PREDICTED BY IDOCK:   -1.57 KCAL/MOL
REMARK 924 INTRA-LIGAND FREE ENERGY PREDICTED BY IDOCK:    1.14 KCAL/MOL
REMARK 927      BINDING AFFINITY PREDICTED BY RF-SCORE:    0.00 PKD
ROOT
HETATM    1  C   UNL     1     -11.308  11.833  70.379  1.00  0.00     0.368 C  
HETATM    2  N   UNL     1     -11.540  10.336  70.200  1.00  0.00    -0.280 N  
HETATM    3  C   UNL     1     -12.951   9.998  70.675  1.00  0.00    -0.184 C  
HETATM    4  C   UNL     1     -11.404   9.999  68.684  1.00  0.00    -0.055 C  
HETATM    5  C   UNL     1     -11.154   8.497  68.431  1.00  0.00     0.367 C  
HETATM    6  N   UNL     1     -10.012   7.949  69.181  1.00  0.00    -0.179 NA 
HETATM    7  C   UNL     1     -10.284   8.117  70.622  1.00  0.00    -0.196 C  
HETATM    8  C   UNL     1     -10.498   9.581  71.067  1.00  0.00    -0.306 C  
ENDROOT
BRANCH   6   9
HETATM    9  C   UNL     1      -8.695   8.554  68.820  1.00  0.00    -0.139 C  
HETATM   10  C   UNL     1      -7.357   7.749  68.989  1.00  0.00    -0.089 C  
HETATM   11  C   UNL     1      -7.211   7.108  70.376  1.00  0.00    -0.070 A  
HETATM   12  C   UNL     1      -6.072   8.583  68.566  1.00  0.00    -0.046 C  
HETATM   13  O   UNL     1      -7.469   6.641  68.050  1.00  0.00    -0.093 OA 
HETATM   14  C   UNL     1      -6.484   5.913  70.542  1.00  0.00    -0.036 A  
HETATM   15  C   UNL     1      -6.090   9.204  67.142  1.00  0.00    -0.057 C  
HETATM   16  H   UNL     1      -6.660   6.154  68.152  1.00  0.00     0.000 HD 
HETATM   17  C   UNL     1      -6.775  10.567  67.010  1.00  0.00    -0.082 C  
HETATM   18  C   UNL     1      -6.440   5.249  71.775  1.00  0.00    -0.039 A  
HETATM   19  C   UNL     1      -6.353  11.568  68.076  1.00  0.00    -0.050 C  
HETATM   20  C   UNL     1      -7.116   5.772  72.872  1.00  0.00    -0.085 A  
HETATM   21  C   UNL     1      -6.316  10.991  69.485  1.00  0.00    -0.095 C  
HETATM   22  C   UNL     1      -7.787   6.983  72.751  1.00  0.00    -0.104 A  
HETATM   23  C   UNL     1      -7.822   7.651  71.522  1.00  0.00    -0.086 A  
HETATM   24  C   UNL     1      -5.579   9.658  69.556  1.00  0.00    -0.034 C  
ENDBRANCH   6   9
TORSDOF 1
ENDMDL
MODEL      152
REMARK 921   NORMALIZED FREE ENERGY PREDICTED BY IDOCK:    0.15 KCAL/MOL
REMARK 922        TOTAL FREE ENERGY PREDICTED BY IDOCK:   -0.23 KCAL/MOL
REMARK 923 INTER-LIGAND FREE ENERGY PREDICTED BY IDOCK:   -0.63 KCAL/MOL
REMARK 924 INTRA-LIGAND FREE ENERGY PREDICTED BY IDOCK:    0.39 KCAL/MOL
REMARK 927      BINDING AFFINITY PREDICTED BY RF-SCORE:    0.00 PKD
ROOT
HETATM    1  C   UNL     1      -7.240   9.741  72.574  1.00  0.00     2.051 C  
HETATM    2  N   UNL     1      -6.363   9.554  71.339  1.00  0.00    -0.027 N  
HETATM    3  C   UNL     1      -5.136  10.452  71.469  1.00  0.00    -0.082 C  
HETATM    4  C   UNL     1      -5.916   8.062  71.280  1.00  0.00    -0.034 C  
HETATM    5  C   UNL     1      -5.433   7.644  69.875  1.00  0.00    -0.023 C  
HETATM    6  N   UNL     1      -6.401   7.931  68.803  1.00  0.00    -0.043 NA 
HETATM    7  C   UNL     1      -6.638   9.387  68.775  1.00  0.00    -0.052 C  
HETATM    8  C   UNL     1      -7.191   9.971  70.094  1.00  0.00    -0.161 C  
ENDROOT
BRANCH   6   9
HETATM    9  C   UNL     1      -7.691   7.188  68.928  1.00  0.00    -0.113 C  
HETATM   10  C   UNL     1      -8.423   6.612  67.663  1.00  0.00    -0.121 C  
HETATM   11  C   UNL     1      -8.586   7.645  66.539  1.00  0.00    -0.142 A  
HETATM   12  C   UNL     1      -9.787   5.876  68.016  1.00  0.00    -0.144 C  
HETATM   13  O   UNL     1      -7.518   5.598  67.141  1.00  0.00    -0.082 OA 
HETATM   14  C   UNL     1      -8.618   7.240  65.192  1.00  0.00     0.044 A  
HETATM   15  C   UNL     1      -9.708   4.753  69.087  1.00  0.00    -0.258 C  
HETATM   16  H   UNL     1      -7.960   5.249  66.376  1.00  0.00     0.000 HD 
HETATM   17  C   UNL     1      -9.805   5.206  70.546  1.00  0.00    -0.285 C  
HETATM   18  C   UNL     1      -8.646   8.174  64.148  1.00  0.00     0.173 A  
HETATM   19  C   UNL     1     -10.942   6.182  70.809  1.00  0.00    -0.365 C  
HETATM   20  C   UNL     1      -8.650   9.536  64.432  1.00  0.00    -0.213 A  
HETATM   21  C   UNL     1     -11.054   7.293  69.773  1.00  0.00    -0.203 C  
HETATM   22  C   UNL     1      -8.683   9.961  65.754  1.00  0.00    -0.157 A  
HETATM   23  C   UNL     1      -8.666   9.027  66.796  1.00  0.00    -0.134 A  
HETATM   24  C   UNL     1     -11.000   6.771  68.342  1.00  0.00    -0.257 C  
ENDBRANCH   6   9
TORSDOF 1
ENDMDL
MODEL      153
REMARK 921   NORMALIZED FREE ENERGY PREDICTED BY IDOCK:    0.34 KCAL/MOL
REMARK 922        TOTAL FREE ENERGY PREDICTED BY IDOCK:   -0.04 KCAL/MOL
REMARK 923 INTER-LIGAND FREE ENERGY PREDICTED BY IDOCK:   -0.25 KCAL/MOL
REMARK 924 INTRA-LIGAND FREE ENERGY PREDICTED BY IDOCK:    0.22 KCAL/MOL
REMARK 927      BINDING AFFINITY PREDICTED BY RF-SCORE:    0.00 PKD
ROOT
HETATM    1  C   UNL     1     -11.219   6.174  66.891  1.00  0.00    -0.071 C  
HETATM    2  N   UNL     1     -10.152   7.232  67.155  1.00  0.00    -0.211 N  
HETATM    3  C   UNL     1      -9.462   7.573  65.837  1.00  0.00     0.161 C  
HETATM    4  C   UNL     1     -10.855   8.503  67.722  1.00  0.00     0.005 C  
HETATM    5  C   UNL     1      -9.876   9.446  68.451  1.00  0.00    -0.160 C  
HETATM    6  N   UNL     1      -9.087   8.786  69.505  1.00  0.00    -0.144 NA 
HETATM    7  C   UNL     1      -8.287   7.715  68.879  1.00  0.00    -0.129 C  
HETATM    8  C   UNL     1      -9.120   6.637  68.150  1.00  0.00    -0.119 C  
ENDROOT
BRANCH   6   9
HETATM    9  C   UNL     1      -9.904   8.244  70.632  1.00  0.00    -0.182 C  
HETATM   10  C   UNL     1      -9.453   8.430  72.125  1.00  0.00    -0.290 C  
HETATM   11  C   UNL     1      -7.993   8.024  72.369  1.00  0.00    -0.168 A  
HETATM   12  C   UNL     1     -10.453   7.761  73.164  1.00  0.00    -0.413 C  
HETATM   13  O   UNL     1      -9.508   9.868  72.352  1.00  0.00     1.947 OA 
HETATM   14  C   UNL     1      -7.233   8.650  73.375  1.00  0.00     0.040 A  
HETATM   15  C   UNL     1     -11.946   8.175  73.050  1.00  0.00     0.148 C  
HETATM   16  H   UNL     1      -9.235   9.981  73.255  1.00  0.00     0.000 HD 
HETATM   17  C   UNL     1     -12.787   7.392  72.039  1.00  0.00    -0.217 C  
HETATM   18  C   UNL     1      -5.867   8.380  73.534  1.00  0.00    -0.091 A  
HETATM   19  C   UNL     1     -12.606   5.884  72.132  1.00  0.00     0.306 C  
HETATM   20  C   UNL     1      -5.235   7.470  72.694  1.00  0.00    -0.037 A  
HETATM   21  C   UNL     1     -11.154   5.442  72.253  1.00  0.00    -0.259 C  
HETATM   22  C   UNL     1      -5.977   6.791  71.735  1.00  0.00    -0.038 A  
HETATM   23  C   UNL     1      -7.342   7.054  71.584  1.00  0.00    -0.083 A  
HETATM   24  C   UNL     1     -10.386   6.227  73.310  1.00  0.00    -0.248 C  
ENDBRANCH   6   9
TORSDOF 1
ENDMDL
MODEL      154
REMARK 921   NORMALIZED FREE ENERGY PREDICTED BY IDOCK:    0.56 KCAL/MOL
REMARK 922        TOTAL FREE ENERGY PREDICTED BY IDOCK:    0.20 KCAL/MOL
REMARK 923 INTER-LIGAND FREE ENERGY PREDICTED BY IDOCK:    0.54 KCAL/MOL
REMARK 924 INTRA-LIGAND FREE ENERGY PREDICTED BY IDOCK:   -0.34 KCAL/MOL
REMARK 927      BINDING AFFINITY PREDICTED BY RF-SCORE:    0.00 PKD
ROOT
HETATM    1  C   UNL     1     -11.080   5.661  71.028  1.00  0.00    -0.131 C  
HETATM    2  N   UNL     1     -11.364   6.479  69.772  1.00  0.00    -0.388 N  
HETATM    3  C   UNL     1     -12.875   6.605  69.600  1.00  0.00     2.960 C  
HETATM    4  C   UNL     1     -10.740   7.896  69.961  1.00  0.00    -0.244 C  
HETATM    5  C   UNL     1     -10.549   8.642  68.624  1.00  0.00    -0.129 C  
HETATM    6  N   UNL     1      -9.790   7.878  67.619  1.00  0.00    -0.156 NA 
HETATM    7  C   UNL     1     -10.529   6.634  67.331  1.00  0.00    -0.260 C  
HETATM    8  C   UNL     1     -10.757   5.725  68.559  1.00  0.00    -0.217 C  
ENDROOT
BRANCH   6   9
HETATM    9  C   UNL     1      -8.382   7.575  68.016  1.00  0.00    -0.124 C  
HETATM   10  C   UNL     1      -7.167   8.238  67.273  1.00  0.00    -0.084 C  
HETATM   11  C   UNL     1      -7.258   8.119  65.745  1.00  0.00    -0.068 A  
HETATM   12  C   UNL     1      -5.759   7.764  67.838  1.00  0.00    -0.037 C  
HETATM   13  O   UNL     1      -7.284   9.660  67.567  1.00  0.00    -0.088 OA 
HETATM   14  C   UNL     1      -6.688   9.101  64.914  1.00  0.00    -0.073 A  
HETATM   15  C   UNL     1      -5.541   7.923  69.368  1.00  0.00    -0.026 C  
HETATM   16  H   UNL     1      -6.549  10.061  67.118  1.00  0.00     0.000 HD 
HETATM   17  C   UNL     1      -6.055   6.779  70.245  1.00  0.00    -0.024 C  
HETATM   18  C   UNL     1      -6.863   9.074  63.524  1.00  0.00    -0.089 A  
HETATM   19  C   UNL     1      -5.661   5.398  69.742  1.00  0.00    -0.012 C  
HETATM   20  C   UNL     1      -7.605   8.056  62.935  1.00  0.00    -0.127 A  
HETATM   21  C   UNL     1      -5.854   5.209  68.243  1.00  0.00    -0.017 C  
HETATM   22  C   UNL     1      -8.124   7.039  63.727  1.00  0.00     0.007 A  
HETATM   23  C   UNL     1      -7.941   7.062  65.114  1.00  0.00    -0.128 A  
HETATM   24  C   UNL     1      -5.277   6.358  67.425  1.00  0.00    -0.005 C  
ENDBRANCH   6   9
TORSDOF 1
ENDMDL
MODEL      155
REMARK 921   NORMALIZED FREE ENERGY PREDICTED BY IDOCK:    0.63 KCAL/MOL
REMARK 922        TOTAL FREE ENERGY PREDICTED BY IDOCK:    0.27 KCAL/MOL
REMARK 923 INTER-LIGAND FREE ENERGY PREDICTED BY IDOCK:    0.62 KCAL/MOL
REMARK 924 INTRA-LIGAND FREE ENERGY PREDICTED BY IDOCK:   -0.34 KCAL/MOL
REMARK 927      BINDING AFFINITY PREDICTED BY RF-SCORE:    0.00 PKD
ROOT
HETATM    1  C   UNL     1     -11.927  15.357  63.597  1.00  0.00     0.725 C  
HETATM    2  N   UNL     1     -11.967  13.869  63.935  1.00  0.00    -0.391 N  
HETATM    3  C   UNL     1     -12.319  13.089  62.672  1.00  0.00     1.267 C  
HETATM    4  C   UNL     1     -10.553  13.444  64.436  1.00  0.00    -0.407 C  
HETATM    5  C   UNL     1     -10.579  12.123  65.232  1.00  0.00    -0.281 C  
HETATM    6  N   UNL     1     -11.539  12.120  66.349  1.00  0.00    -0.477 NA 
HETATM    7  C   UNL     1     -12.891  12.330  65.794  1.00  0.00     1.446 C  
HETATM    8  C   UNL     1     -13.064  13.651  65.012  1.00  0.00    -0.000 C  
ENDROOT
BRANCH   6   9
HETATM    9  C   UNL     1     -11.244  13.125  67.414  1.00  0.00    -0.287 C  
HETATM   10  C   UNL     1     -10.303  12.776  68.622  1.00  0.00    -0.179 C  
HETATM   11  C   UNL     1     -10.677  11.458  69.315  1.00  0.00    -0.195 A  
HETATM   12  C   UNL     1     -10.139  13.978  69.649  1.00  0.00     0.510 C  
HETATM   13  O   UNL     1      -8.995  12.551  68.021  1.00  0.00    -0.179 OA 
HETATM   14  C   UNL     1      -9.692  10.674  69.945  1.00  0.00     0.240 A  
HETATM   15  C   UNL     1      -9.682  15.338  69.052  1.00  0.00    -0.234 C  
HETATM   16  H   UNL     1      -8.426  12.340  68.752  1.00  0.00     0.000 HD 
HETATM   17  C   UNL     1     -10.789  16.232  68.488  1.00  0.00    -0.330 C  
HETATM   18  C   UNL     1      -9.990   9.413  70.477  1.00  0.00    -0.328 A  
HETATM   19  C   UNL     1     -11.988  16.376  69.412  1.00  0.00     0.261 C  
HETATM   20  C   UNL     1     -11.285   8.913  70.398  1.00  0.00    -0.259 A  
HETATM   21  C   UNL     1     -12.459  15.063  70.023  1.00  0.00    -0.317 C  
HETATM   22  C   UNL     1     -12.290   9.693  69.838  1.00  0.00     0.431 A  
HETATM   23  C   UNL     1     -11.992  10.957  69.316  1.00  0.00    -0.382 A  
HETATM   24  C   UNL     1     -11.316  14.243  70.610  1.00  0.00    -0.021 C  
ENDBRANCH   6   9
TORSDOF 1
ENDMDL
MODEL      156
REMARK 921   NORMALIZED FREE ENERGY PREDICTED BY IDOCK:    0.75 KCAL/MOL
REMARK 922        TOTAL FREE ENERGY PREDICTED BY IDOCK:    0.41 KCAL/MOL
REMARK 923 INTER-LIGAND FREE ENERGY PREDICTED BY IDOCK:   -0.10 KCAL/MOL
REMARK 924 INTRA-LIGAND FREE ENERGY PREDICTED BY IDOCK:    0.50 KCAL/MOL
REMARK 927      BINDING AFFINITY PREDICTED BY RF-SCORE:    0.00 PKD
ROOT
HETATM    1  C   UNL     1      -7.248  15.078  71.249  1.00  0.00     1.852 C  
HETATM    2  N   UNL     1      -6.557  14.261  70.161  1.00  0.00    -0.117 N  
HETATM    3  C   UNL     1      -5.180  13.838  70.665  1.00  0.00    -0.117 C  
HETATM    4  C   UNL     1      -7.422  12.996  69.878  1.00  0.00     1.250 C  
HETATM    5  C   UNL     1      -7.096  12.349  68.515  1.00  0.00    -0.100 C  
HETATM    6  N   UNL     1      -7.171  13.283  67.380  1.00  0.00    -0.146 NA 
HETATM    7  C   UNL     1      -6.187  14.361  67.605  1.00  0.00    -0.079 C  
HETATM    8  C   UNL     1      -6.404  15.163  68.907  1.00  0.00    -0.090 C  
ENDROOT
BRANCH   6   9
HETATM    9  C   UNL     1      -8.531  13.852  67.142  1.00  0.00    -0.180 C  
HETATM   10  C   UNL     1      -9.802  12.930  67.097  1.00  0.00    -0.225 C  
HETATM   11  C   UNL     1      -9.634  11.718  66.169  1.00  0.00    -0.250 A  
HETATM   12  C   UNL     1     -11.143  13.733  66.813  1.00  0.00    -0.316 C  
HETATM   13  O   UNL     1      -9.912  12.385  68.444  1.00  0.00    -0.220 OA 
HETATM   14  C   UNL     1     -10.312  10.513  66.432  1.00  0.00    -0.283 A  
HETATM   15  C   UNL     1     -11.444  14.931  67.756  1.00  0.00    -0.353 C  
HETATM   16  H   UNL     1     -10.680  11.827  68.417  1.00  0.00     0.000 HD 
HETATM   17  C   UNL     1     -10.798  16.265  67.377  1.00  0.00    -0.242 C  
HETATM   18  C   UNL     1     -10.080   9.362  65.668  1.00  0.00    -0.074 A  
HETATM   19  C   UNL     1     -10.960  16.627  65.908  1.00  0.00     0.060 C  
HETATM   20  C   UNL     1      -9.170   9.395  64.618  1.00  0.00    -0.185 A  
HETATM   21  C   UNL     1     -10.681  15.473  64.953  1.00  0.00    -0.415 C  
HETATM   22  C   UNL     1      -8.535  10.589  64.297  1.00  0.00    -0.128 A  
HETATM   23  C   UNL     1      -8.775  11.741  65.054  1.00  0.00     0.580 A  
HETATM   24  C   UNL     1     -11.392  14.188  65.360  1.00  0.00    -0.322 C  
ENDBRANCH   6   9
TORSDOF 1
ENDMDL
MODEL      157
REMARK 921   NORMALIZED FREE ENERGY PREDICTED BY IDOCK:    0.83 KCAL/MOL
REMARK 922        TOTAL FREE ENERGY PREDICTED BY IDOCK:    0.48 KCAL/MOL
REMARK 923 INTER-LIGAND FREE ENERGY PREDICTED BY IDOCK:   -0.59 KCAL/MOL
REMARK 924 INTRA-LIGAND FREE ENERGY PREDICTED BY IDOCK:    1.07 KCAL/MOL
REMARK 927      BINDING AFFINITY PREDICTED BY RF-SCORE:    0.00 PKD
ROOT
HETATM    1  C   UNL     1     -10.936  12.504  70.266  1.00  0.00     1.208 C  
HETATM    2  N   UNL     1     -11.077  11.767  68.937  1.00  0.00    -0.228 N  
HETATM    3  C   UNL     1     -12.117  12.489  68.085  1.00  0.00    -0.067 C  
HETATM    4  C   UNL     1      -9.697  11.797  68.214  1.00  0.00    -0.199 C  
HETATM    5  C   UNL     1      -9.580  10.719  67.117  1.00  0.00    -0.161 C  
HETATM    6  N   UNL     1      -9.881   9.356  67.587  1.00  0.00    -0.166 NA 
HETATM    7  C   UNL     1     -11.272   9.337  68.081  1.00  0.00     0.280 C  
HETATM    8  C   UNL     1     -11.554  10.321  69.238  1.00  0.00    -0.119 C  
ENDROOT
BRANCH   6   9
HETATM    9  C   UNL     1      -8.943   8.847  68.632  1.00  0.00    -0.137 C  
HETATM   10  C   UNL     1      -7.412   9.197  68.590  1.00  0.00    -0.080 C  
HETATM   11  C   UNL     1      -6.772   8.935  67.220  1.00  0.00    -0.066 A  
HETATM   12  C   UNL     1      -6.591   8.540  69.782  1.00  0.00    -0.039 C  
HETATM   13  O   UNL     1      -7.356  10.640  68.784  1.00  0.00    -0.085 OA 
HETATM   14  C   UNL     1      -5.678   9.704  66.780  1.00  0.00    -0.051 A  
HETATM   15  C   UNL     1      -7.116   8.818  71.218  1.00  0.00    -0.096 C  
HETATM   16  H   UNL     1      -6.430  10.852  68.758  1.00  0.00     0.000 HD 
HETATM   17  C   UNL     1      -8.218   7.885  71.725  1.00  0.00    -0.139 C  
HETATM   18  C   UNL     1      -5.157   9.561  65.487  1.00  0.00    -0.032 A  
HETATM   19  C   UNL     1      -7.928   6.411  71.488  1.00  0.00    -0.105 C  
HETATM   20  C   UNL     1      -5.714   8.638  64.610  1.00  0.00    -0.063 A  
HETATM   21  C   UNL     1      -7.404   6.101  70.092  1.00  0.00    -0.082 C  
HETATM   22  C   UNL     1      -6.753   7.821  65.041  1.00  0.00    -0.051 A  
HETATM   23  C   UNL     1      -7.266   7.958  66.335  1.00  0.00    -0.082 A  
HETATM   24  C   UNL     1      -6.276   7.034  69.666  1.00  0.00    -0.034 C  
ENDBRANCH   6   9
TORSDOF 1
ENDMDL
MODEL      158
REMARK 921   NORMALIZED FREE ENERGY PREDICTED BY IDOCK:    1.14 KCAL/MOL
REMARK 922        TOTAL FREE ENERGY PREDICTED BY IDOCK:    0.81 KCAL/MOL
REMARK 923 INTER-LIGAND FREE ENERGY PREDICTED BY IDOCK:    1.20 KCAL/MOL
REMARK 924 INTRA-LIGAND FREE ENERGY PREDICTED BY IDOCK:   -0.39 KCAL/MOL
REMARK 927      BINDING AFFINITY PREDICTED BY RF-SCORE:    0.00 PKD
ROOT
HETATM    1  C   UNL     1     -13.969  15.702  70.708  1.00  0.00     0.490 C  
HETATM    2  N   UNL     1     -13.117  14.436  70.707  1.00  0.00    -0.337 N  
HETATM    3  C   UNL     1     -13.799  13.386  71.580  1.00  0.00    -0.030 C  
HETATM    4  C   UNL     1     -13.020  13.914  69.241  1.00  0.00     1.163 C  
HETATM    5  C   UNL     1     -11.839  12.943  69.035  1.00  0.00    -0.306 C  
HETATM    6  N   UNL     1     -10.541  13.484  69.472  1.00  0.00     0.175 NA 
HETATM    7  C   UNL     1     -10.627  13.777  70.916  1.00  0.00     2.763 C  
HETATM    8  C   UNL     1     -11.727  14.792  71.299  1.00  0.00    -0.303 C  
ENDROOT
BRANCH   6   9
HETATM    9  C   UNL     1     -10.094  14.691  68.714  1.00  0.00    -0.235 C  
HETATM   10  C   UNL     1      -9.093  14.569  67.510  1.00  0.00    -0.193 C  
HETATM   11  C   UNL     1      -7.846  13.739  67.844  1.00  0.00    -0.159 A  
HETATM   12  C   UNL     1      -8.734  15.973  66.857  1.00  0.00    -0.259 C  
HETATM   13  O   UNL     1      -9.818  13.808  66.501  1.00  0.00    -0.273 OA 
HETATM   14  C   UNL     1      -7.180  13.008  66.842  1.00  0.00     0.424 A  
HETATM   15  C   UNL     1      -9.933  16.853  66.408  1.00  0.00    -0.321 C  
HETATM   16  H   UNL     1      -9.212  13.734  65.772  1.00  0.00     0.000 HD 
HETATM   17  C   UNL     1     -10.560  17.739  67.488  1.00  0.00    -0.365 C  
HETATM   18  C   UNL     1      -6.115  12.152  67.147  1.00  0.00    -0.143 A  
HETATM   19  C   UNL     1      -9.541  18.518  68.306  1.00  0.00    -0.370 C  
HETATM   20  C   UNL     1      -5.686  12.015  68.463  1.00  0.00    -0.052 A  
HETATM   21  C   UNL     1      -8.346  17.688  68.757  1.00  0.00    -0.215 C  
HETATM   22  C   UNL     1      -6.284  12.774  69.462  1.00  0.00    -0.120 A  
HETATM   23  C   UNL     1      -7.342  13.637  69.154  1.00  0.00     0.047 A  
HETATM   24  C   UNL     1      -7.739  16.867  67.626  1.00  0.00    -0.179 C  
ENDBRANCH   6   9
TORSDOF 1
ENDMDL
MODEL      159
REMARK 921   NORMALIZED FREE ENERGY PREDICTED BY IDOCK:    1.83 KCAL/MOL
REMARK 922        TOTAL FREE ENERGY PREDICTED BY IDOCK:    1.55 KCAL/MOL
REMARK 923 INTER-LIGAND FREE ENERGY PREDICTED BY IDOCK:    1.58 KCAL/MOL
REMARK 924 INTRA-LIGAND FREE ENERGY PREDICTED BY IDOCK:   -0.03 KCAL/MOL
REMARK 927      BINDING AFFINITY PREDICTED BY RF-SCORE:    0.00 PKD
ROOT
HETATM    1  C   UNL     1      -7.041  14.552  71.493  1.00  0.00     2.106 C  
HETATM    2  N   UNL     1      -6.642  14.540  70.020  1.00  0.00    -0.159 N  
HETATM    3  C   UNL     1      -5.239  15.125  69.888  1.00  0.00    -0.098 C  
HETATM    4  C   UNL     1      -6.641  13.061  69.527  1.00  0.00    -0.030 C  
HETATM    5  C   UNL     1      -6.715  12.950  67.989  1.00  0.00    -0.109 C  
HETATM    6  N   UNL     1      -7.841  13.687  67.393  1.00  0.00    -0.167 NA 
HETATM    7  C   UNL     1      -7.684  15.117  67.726  1.00  0.00    -0.149 C  
HETATM    8  C   UNL     1      -7.655  15.421  69.241  1.00  0.00    -0.216 C  
ENDROOT
BRANCH   6   9
HETATM    9  C   UNL     1      -9.187  13.193  67.810  1.00  0.00    -0.203 C  
HETATM   10  C   UNL     1      -9.665  11.739  67.456  1.00  0.00    -0.180 C  
HETATM   11  C   UNL     1      -9.478  11.389  65.973  1.00  0.00    -0.245 A  
HETATM   12  C   UNL     1     -11.133  11.424  67.976  1.00  0.00    -0.317 C  
HETATM   13  O   UNL     1      -8.760  10.863  68.187  1.00  0.00    -0.124 OA 
HETATM   14  C   UNL     1      -9.243  10.060  65.573  1.00  0.00    -0.247 A  
HETATM   15  C   UNL     1     -11.398  11.668  69.487  1.00  0.00    -0.328 C  
HETATM   16  H   UNL     1      -9.049   9.983  67.972  1.00  0.00     0.000 HD 
HETATM   17  C   UNL     1     -11.779  13.098  69.881  1.00  0.00    -0.327 C  
HETATM   18  C   UNL     1      -8.952   9.737  64.241  1.00  0.00    -0.276 A  
HETATM   19  C   UNL     1     -12.854  13.710  68.996  1.00  0.00     1.086 C  
HETATM   20  C   UNL     1      -8.898  10.738  63.278  1.00  0.00    -0.185 A  
HETATM   21  C   UNL     1     -12.631  13.482  67.506  1.00  0.00     0.420 C  
HETATM   22  C   UNL     1      -9.189  12.050  63.634  1.00  0.00     0.327 A  
HETATM   23  C   UNL     1      -9.490  12.369  64.963  1.00  0.00     0.182 A  
HETATM   24  C   UNL     1     -12.304  12.030  67.175  1.00  0.00     0.819 C  
ENDBRANCH   6   9
TORSDOF 1
ENDMDL
MODEL      160
REMARK 921   NORMALIZED FREE ENERGY PREDICTED BY IDOCK:    2.63 KCAL/MOL
REMARK 922        TOTAL FREE ENERGY PREDICTED BY IDOCK:    2.39 KCAL/MOL
REMARK 923 INTER-LIGAND FREE ENERGY PREDICTED BY IDOCK:   -1.92 KCAL/MOL
REMARK 924 INTRA-LIGAND FREE ENERGY PREDICTED BY IDOCK:    4.31 KCAL/MOL
REMARK 927      BINDING AFFINITY PREDICTED BY RF-SCORE:    0.00 PKD
ROOT
HETATM    1  C   UNL     1      -6.905  14.624  71.403  1.00  0.00     1.258 C  
HETATM    2  N   UNL     1      -6.658  14.737  69.901  1.00  0.00    -0.168 N  
HETATM    3  C   UNL     1      -5.158  14.881  69.661  1.00  0.00    -0.088 C  
HETATM    4  C   UNL     1      -7.173  13.430  69.223  1.00  0.00     0.117 C  
HETATM    5  C   UNL     1      -7.409  13.604  67.708  1.00  0.00    -0.166 C  
HETATM    6  N   UNL     1      -8.287  14.736  67.369  1.00  0.00    -0.186 NA 
HETATM    7  C   UNL     1      -7.653  15.974  67.862  1.00  0.00    -0.132 C  
HETATM    8  C   UNL     1      -7.398  15.999  69.386  1.00  0.00    -0.212 C  
ENDROOT
BRANCH   6   9
HETATM    9  C   UNL     1      -9.680  14.611  67.894  1.00  0.00    -0.216 C  
HETATM   10  C   UNL     1     -10.766  15.703  67.586  1.00  0.00    -0.302 C  
HETATM   11  C   UNL     1     -10.283  17.131  67.877  1.00  0.00    -0.330 A  
HETATM   12  C   UNL     1     -12.172  15.387  68.255  1.00  0.00     0.209 C  
HETATM   13  O   UNL     1     -10.960  15.637  66.144  1.00  0.00    -0.298 OA 
HETATM   14  C   UNL     1     -10.784  18.222  67.141  1.00  0.00    -0.334 A  
HETATM   15  C   UNL     1     -12.784  13.992  67.951  1.00  0.00     0.891 C  
HETATM   16  H   UNL     1     -11.616  16.297  65.957  1.00  0.00     0.000 HD 
HETATM   17  C   UNL     1     -12.320  12.843  68.850  1.00  0.00     0.153 C  
HETATM   18  C   UNL     1     -10.271  19.515  67.308  1.00  0.00    -0.547 A  
HETATM   19  C   UNL     1     -12.347  13.178  70.333  1.00  0.00    -0.351 C  
HETATM   20  C   UNL     1      -9.249  19.745  68.223  1.00  0.00    -0.388 A  
HETATM   21  C   UNL     1     -11.762  14.544  70.668  1.00  0.00    -0.330 C  
HETATM   22  C   UNL     1      -8.782  18.698  69.008  1.00  0.00    -0.102 A  
HETATM   23  C   UNL     1      -9.302  17.409  68.847  1.00  0.00    -0.183 A  
HETATM   24  C   UNL     1     -12.301  15.652  69.770  1.00  0.00    -0.216 C  
ENDBRANCH   6   9
TORSDOF 1
ENDMDL
MODEL      161
REMARK 921   NORMALIZED FREE ENERGY PREDICTED BY IDOCK:    2.84 KCAL/MOL
REMARK 922        TOTAL FREE ENERGY PREDICTED BY IDOCK:    2.61 KCAL/MOL
REMARK 923 INTER-LIGAND FREE ENERGY PREDICTED BY IDOCK:    3.01 KCAL/MOL
REMARK 924 INTRA-LIGAND FREE ENERGY PREDICTED BY IDOCK:   -0.40 KCAL/MOL
REMARK 927      BINDING AFFINITY PREDICTED BY RF-SCORE:    0.00 PKD
ROOT
HETATM    1  C   UNL     1      -8.600  20.062  70.791  1.00  0.00     1.903 C  
HETATM    2  N   UNL     1      -9.798  19.725  69.908  1.00  0.00     0.122 N  
HETATM    3  C   UNL     1     -10.854  20.813  70.080  1.00  0.00     1.739 C  
HETATM    4  C   UNL     1      -9.317  19.692  68.426  1.00  0.00    -0.351 C  
HETATM    5  C   UNL     1     -10.289  18.925  67.505  1.00  0.00    -0.426 C  
HETATM    6  N   UNL     1     -10.602  17.564  67.972  1.00  0.00    -0.389 NA 
HETATM    7  C   UNL     1     -11.238  17.667  69.299  1.00  0.00     1.197 C  
HETATM    8  C   UNL     1     -10.369  18.359  70.373  1.00  0.00     1.768 C  
ENDROOT
BRANCH   6   9
HETATM    9  C   UNL     1      -9.423  16.647  68.021  1.00  0.00    -0.224 C  
HETATM   10  C   UNL     1      -9.172  15.585  66.891  1.00  0.00    -0.236 C  
HETATM   11  C   UNL     1     -10.411  14.736  66.576  1.00  0.00    -0.291 A  
HETATM   12  C   UNL     1      -7.876  14.701  67.148  1.00  0.00    -0.155 C  
HETATM   13  O   UNL     1      -8.916  16.373  65.693  1.00  0.00    -0.427 OA 
HETATM   14  C   UNL     1     -10.614  14.215  65.285  1.00  0.00    -0.387 A  
HETATM   15  C   UNL     1      -6.551  15.473  67.395  1.00  0.00    -0.174 C  
HETATM   16  H   UNL     1      -8.764  15.730  65.009  1.00  0.00     0.000 HD 
HETATM   17  C   UNL     1      -6.290  15.919  68.836  1.00  0.00    -0.122 C  
HETATM   18  C   UNL     1     -11.795  13.540  64.946  1.00  0.00    -0.402 A  
HETATM   19  C   UNL     1      -6.526  14.825  69.866  1.00  0.00    -0.164 C  
HETATM   20  C   UNL     1     -12.794  13.365  65.897  1.00  0.00    -0.156 A  
HETATM   21  C   UNL     1      -7.814  14.040  69.650  1.00  0.00     0.555 C  
HETATM   22  C   UNL     1     -12.591  13.813  67.196  1.00  0.00     0.134 A  
HETATM   23  C   UNL     1     -11.408  14.478  67.536  1.00  0.00    -0.355 A  
HETATM   24  C   UNL     1      -7.990  13.584  68.206  1.00  0.00    -0.147 C  
ENDBRANCH   6   9
TORSDOF 1
ENDMDL
MODEL      162
REMARK 921   NORMALIZED FREE ENERGY PREDICTED BY IDOCK:    3.91 KCAL/MOL
REMARK 922        TOTAL FREE ENERGY PREDICTED BY IDOCK:    3.75 KCAL/MOL
REMARK 923 INTER-LIGAND FREE ENERGY PREDICTED BY IDOCK:   -2.58 KCAL/MOL
REMARK 924 INTRA-LIGAND FREE ENERGY PREDICTED BY IDOCK:    6.33 KCAL/MOL
REMARK 927      BINDING AFFINITY PREDICTED BY RF-SCORE:    0.00 PKD
ROOT
HETATM    1  C   UNL     1      -9.941  12.025  63.581  1.00  0.00    -0.363 C  
HETATM    2  N   UNL     1     -11.106  12.191  64.553  1.00  0.00    -0.311 N  
HETATM    3  C   UNL     1     -12.402  11.832  63.831  1.00  0.00    -0.288 C  
HETATM    4  C   UNL     1     -10.887  11.216  65.749  1.00  0.00    -0.151 C  
HETATM    5  C   UNL     1     -11.715  11.607  66.991  1.00  0.00    -0.092 C  
HETATM    6  N   UNL     1     -11.516  13.000  67.425  1.00  0.00    -0.312 NA 
HETATM    7  C   UNL     1     -11.928  13.889  66.321  1.00  0.00    -0.434 C  
HETATM    8  C   UNL     1     -11.148  13.676  65.004  1.00  0.00    -0.332 C  
ENDROOT
BRANCH   6   9
HETATM    9  C   UNL     1     -10.122  13.312  67.862  1.00  0.00    -0.235 C  
HETATM   10  C   UNL     1      -9.680  14.786  68.176  1.00  0.00    -0.217 C  
HETATM   11  C   UNL     1     -10.054  15.777  67.064  1.00  0.00    -0.261 A  
HETATM   12  C   UNL     1      -8.154  14.899  68.604  1.00  0.00    -0.151 C  
HETATM   13  O   UNL     1     -10.474  15.173  69.334  1.00  0.00    -0.236 OA 
HETATM   14  C   UNL     1     -10.325  17.125  67.366  1.00  0.00    -0.333 A  
HETATM   15  C   UNL     1      -7.698  13.993  69.781  1.00  0.00     0.601 C  
HETATM   16  H   UNL     1     -10.207  16.064  69.524  1.00  0.00     0.000 HD 
HETATM   17  C   UNL     1      -7.283  12.567  69.411  1.00  0.00     0.249 C  
HETATM   18  C   UNL     1     -10.784  18.015  66.386  1.00  0.00    -0.139 A  
HETATM   19  C   UNL     1      -6.338  12.495  68.221  1.00  0.00    -0.062 C  
HETATM   20  C   UNL     1     -10.972  17.577  65.080  1.00  0.00     0.458 A  
HETATM   21  C   UNL     1      -6.749  13.378  67.051  1.00  0.00     0.624 C  
HETATM   22  C   UNL     1     -10.650  16.268  64.742  1.00  0.00    -0.004 A  
HETATM   23  C   UNL     1     -10.182  15.382  65.719  1.00  0.00    -0.378 A  
HETATM   24  C   UNL     1      -7.102  14.798  67.480  1.00  0.00    -0.209 C  
ENDBRANCH   6   9
TORSDOF 1
ENDMDL
MODEL      163
REMARK 921   NORMALIZED FREE ENERGY PREDICTED BY IDOCK:    4.06 KCAL/MOL
REMARK 922        TOTAL FREE ENERGY PREDICTED BY IDOCK:    3.91 KCAL/MOL
REMARK 923 INTER-LIGAND FREE ENERGY PREDICTED BY IDOCK:    3.65 KCAL/MOL
REMARK 924 INTRA-LIGAND FREE ENERGY PREDICTED BY IDOCK:    0.26 KCAL/MOL
REMARK 927      BINDING AFFINITY PREDICTED BY RF-SCORE:    0.00 PKD
ROOT
HETATM    1  C   UNL     1     -11.141   3.568  69.278  1.00  0.00     5.816 C  
HETATM    2  N   UNL     1      -9.709   3.550  69.803  1.00  0.00    -0.129 N  
HETATM    3  C   UNL     1      -9.515   2.298  70.654  1.00  0.00    -0.119 C  
HETATM    4  C   UNL     1      -8.742   3.506  68.581  1.00  0.00    -0.100 C  
HETATM    5  C   UNL     1      -7.309   3.948  68.944  1.00  0.00    -0.054 C  
HETATM    6  N   UNL     1      -7.240   5.263  69.604  1.00  0.00    -0.059 NA 
HETATM    7  C   UNL     1      -8.012   5.189  70.859  1.00  0.00    -0.097 C  
HETATM    8  C   UNL     1      -9.501   4.817  70.674  1.00  0.00    -0.171 C  
ENDROOT
BRANCH   6   9
HETATM    9  C   UNL     1      -7.717   6.398  68.758  1.00  0.00    -0.101 C  
HETATM   10  C   UNL     1      -6.946   7.766  68.725  1.00  0.00    -0.067 C  
HETATM   11  C   UNL     1      -6.644   8.321  70.125  1.00  0.00    -0.036 A  
HETATM   12  C   UNL     1      -7.631   8.843  67.778  1.00  0.00    -0.093 C  
HETATM   13  O   UNL     1      -5.652   7.449  68.137  1.00  0.00    -0.024 OA 
HETATM   14  C   UNL     1      -5.507   9.120  70.350  1.00  0.00    -0.030 A  
HETATM   15  C   UNL     1      -7.903   8.402  66.314  1.00  0.00    -0.098 C  
HETATM   16  H   UNL     1      -5.185   8.277  68.117  1.00  0.00     0.000 HD 
HETATM   17  C   UNL     1      -9.211   7.645  66.070  1.00  0.00    -0.118 C  
HETATM   18  C   UNL     1      -5.149   9.535  71.639  1.00  0.00    -0.060 A  
HETATM   19  C   UNL     1     -10.424   8.299  66.714  1.00  0.00    -0.313 C  
HETATM   20  C   UNL     1      -5.928   9.167  72.731  1.00  0.00     0.056 A  
HETATM   21  C   UNL     1     -10.192   8.752  68.149  1.00  0.00    -0.250 C  
HETATM   22  C   UNL     1      -7.091   8.433  72.528  1.00  0.00    -0.107 A  
HETATM   23  C   UNL     1      -7.453   8.027  71.239  1.00  0.00    -0.072 A  
HETATM   24  C   UNL     1      -8.898   9.541  68.315  1.00  0.00    -0.124 C  
ENDBRANCH   6   9
TORSDOF 1
ENDMDL
MODEL      164
REMARK 921   NORMALIZED FREE ENERGY PREDICTED BY IDOCK:    4.51 KCAL/MOL
REMARK 922        TOTAL FREE ENERGY PREDICTED BY IDOCK:    4.38 KCAL/MOL
REMARK 923 INTER-LIGAND FREE ENERGY PREDICTED BY IDOCK:    3.91 KCAL/MOL
REMARK 924 INTRA-LIGAND FREE ENERGY PREDICTED BY IDOCK:    0.47 KCAL/MOL
REMARK 927      BINDING AFFINITY PREDICTED BY RF-SCORE:    0.00 PKD
ROOT
HETATM    1  C   UNL     1     -12.006  15.371  71.802  1.00  0.00    -0.403 C  
HETATM    2  N   UNL     1     -11.723  14.244  70.814  1.00  0.00    -0.257 N  
HETATM    3  C   UNL     1     -12.124  12.918  71.455  1.00  0.00     0.485 C  
HETATM    4  C   UNL     1     -12.582  14.488  69.536  1.00  0.00    -0.002 C  
HETATM    5  C   UNL     1     -12.056  13.710  68.311  1.00  0.00    -0.271 C  
HETATM    6  N   UNL     1     -10.632  13.947  68.023  1.00  0.00    -0.243 NA 
HETATM    7  C   UNL     1      -9.846  13.512  69.194  1.00  0.00     0.332 C  
HETATM    8  C   UNL     1     -10.201  14.242  70.509  1.00  0.00     1.474 C  
ENDROOT
BRANCH   6   9
HETATM    9  C   UNL     1     -10.306  15.360  67.664  1.00  0.00    -0.262 C  
HETATM   10  C   UNL     1     -11.146  16.140  66.589  1.00  0.00     0.052 C  
HETATM   11  C   UNL     1     -11.328  15.356  65.282  1.00  0.00    -0.243 A  
HETATM   12  C   UNL     1     -10.620  17.619  66.344  1.00  0.00    -0.208 C  
HETATM   13  O   UNL     1     -12.476  16.255  67.171  1.00  0.00     1.410 OA 
HETATM   14  C   UNL     1     -12.475  15.542  64.487  1.00  0.00     0.138 A  
HETATM   15  C   UNL     1     -10.481  18.520  67.602  1.00  0.00    -0.452 C  
HETATM   16  H   UNL     1     -12.984  16.727  66.521  1.00  0.00     0.000 HD 
HETATM   17  C   UNL     1      -9.168  18.394  68.379  1.00  0.00    -0.341 C  
HETATM   18  C   UNL     1     -12.717  14.752  63.356  1.00  0.00     1.402 A  
HETATM   19  C   UNL     1      -7.929  18.433  67.497  1.00  0.00    -0.241 C  
HETATM   20  C   UNL     1     -11.810  13.763  62.991  1.00  0.00     0.761 A  
HETATM   21  C   UNL     1      -8.033  17.567  66.248  1.00  0.00    -0.303 C  
HETATM   22  C   UNL     1     -10.638  13.602  63.721  1.00  0.00     0.685 A  
HETATM   23  C   UNL     1     -10.393  14.399  64.845  1.00  0.00    -0.419 A  
HETATM   24  C   UNL     1      -9.341  17.775  65.494  1.00  0.00     0.812 C  
ENDBRANCH   6   9
TORSDOF 1
ENDMDL
MODEL      165
REMARK 921   NORMALIZED FREE ENERGY PREDICTED BY IDOCK:    6.23 KCAL/MOL
REMARK 922        TOTAL FREE ENERGY PREDICTED BY IDOCK:    6.20 KCAL/MOL
REMARK 923 INTER-LIGAND FREE ENERGY PREDICTED BY IDOCK:   -0.71 KCAL/MOL
REMARK 924 INTRA-LIGAND FREE ENERGY PREDICTED BY IDOCK:    6.92 KCAL/MOL
REMARK 927      BINDING AFFINITY PREDICTED BY RF-SCORE:    0.00 PKD
ROOT
HETATM    1  C   UNL     1      -5.489   5.678  65.213  1.00  0.00    -0.013 C  
HETATM    2  N   UNL     1      -6.844   6.342  65.436  1.00  0.00    -0.047 N  
HETATM    3  C   UNL     1      -7.464   6.659  64.077  1.00  0.00    -0.093 C  
HETATM    4  C   UNL     1      -7.758   5.341  66.206  1.00  0.00    -0.088 C  
HETATM    5  C   UNL     1      -8.955   6.036  66.888  1.00  0.00    -0.117 C  
HETATM    6  N   UNL     1      -8.573   7.156  67.763  1.00  0.00    -0.126 NA 
HETATM    7  C   UNL     1      -7.883   8.169  66.940  1.00  0.00    -0.096 C  
HETATM    8  C   UNL     1      -6.612   7.656  66.228  1.00  0.00    -0.050 C  
ENDROOT
BRANCH   6   9
HETATM    9  C   UNL     1      -7.729   6.762  68.931  1.00  0.00    -0.110 C  
HETATM   10  C   UNL     1      -6.998   5.372  68.973  1.00  0.00    -0.056 C  
HETATM   11  C   UNL     1      -7.926   4.193  68.648  1.00  0.00    -0.072 A  
HETATM   12  C   UNL     1      -6.171   5.145  70.311  1.00  0.00    -0.022 C  
HETATM   13  O   UNL     1      -6.032   5.428  67.884  1.00  0.00    -0.017 OA 
HETATM   14  C   UNL     1      -7.420   3.029  68.039  1.00  0.00    -0.053 A  
HETATM   15  C   UNL     1      -5.142   6.249  70.683  1.00  0.00    -0.014 C  
HETATM   16  H   UNL     1      -5.590   4.588  67.909  1.00  0.00     0.000 HD 
HETATM   17  C   UNL     1      -5.692   7.448  71.460  1.00  0.00    -0.036 C  
HETATM   18  C   UNL     1      -8.268   1.993  67.625  1.00  0.00    -0.074 A  
HETATM   19  C   UNL     1      -6.579   7.060  72.634  1.00  0.00    -0.060 C  
HETATM   20  C   UNL     1      -9.641   2.097  67.821  1.00  0.00    -0.021 A  
HETATM   21  C   UNL     1      -7.595   5.974  72.308  1.00  0.00    -0.100 C  
HETATM   22  C   UNL     1     -10.159   3.207  68.478  1.00  0.00     0.819 A  
HETATM   23  C   UNL     1      -9.310   4.236  68.899  1.00  0.00    -0.222 A  
HETATM   24  C   UNL     1      -6.976   4.788  71.578  1.00  0.00    -0.044 C  
ENDBRANCH   6   9
TORSDOF 1
ENDMDL
MODEL      166
REMARK 921   NORMALIZED FREE ENERGY PREDICTED BY IDOCK:    6.31 KCAL/MOL
REMARK 922        TOTAL FREE ENERGY PREDICTED BY IDOCK:    6.28 KCAL/MOL
REMARK 923 INTER-LIGAND FREE ENERGY PREDICTED BY IDOCK:   -2.36 KCAL/MOL
REMARK 924 INTRA-LIGAND FREE ENERGY PREDICTED BY IDOCK:    8.64 KCAL/MOL
REMARK 927      BINDING AFFINITY PREDICTED BY RF-SCORE:    0.00 PKD
ROOT
HETATM    1  C   UNL     1      -9.871  11.811  64.527  1.00  0.00    -0.202 C  
HETATM    2  N   UNL     1      -8.760  10.790  64.307  1.00  0.00    -0.126 N  
HETATM    3  C   UNL     1      -8.165  11.005  62.917  1.00  0.00     0.041 C  
HETATM    4  C   UNL     1      -7.661  11.024  65.387  1.00  0.00     0.241 C  
HETATM    5  C   UNL     1      -6.738   9.801  65.568  1.00  0.00    -0.090 C  
HETATM    6  N   UNL     1      -7.459   8.545  65.836  1.00  0.00    -0.076 NA 
HETATM    7  C   UNL     1      -8.343   8.268  64.687  1.00  0.00    -0.105 C  
HETATM    8  C   UNL     1      -9.384   9.372  64.399  1.00  0.00     0.050 C  
ENDROOT
BRANCH   6   9
HETATM    9  C   UNL     1      -8.237   8.546  67.111  1.00  0.00    -0.108 C  
HETATM   10  C   UNL     1      -8.738   9.887  67.757  1.00  0.00    -0.129 C  
HETATM   11  C   UNL     1      -7.632  10.944  67.884  1.00  0.00    -0.095 A  
HETATM   12  C   UNL     1      -9.527   9.664  69.119  1.00  0.00    -0.172 C  
HETATM   13  O   UNL     1      -9.693  10.426  66.799  1.00  0.00    -0.170 OA 
HETATM   14  C   UNL     1      -7.942  12.317  67.832  1.00  0.00    -0.152 A  
HETATM   15  C   UNL     1     -10.720   8.671  69.071  1.00  0.00    -0.122 C  
HETATM   16  H   UNL     1      -9.996  11.237  67.190  1.00  0.00     0.000 HD 
HETATM   17  C   UNL     1     -10.373   7.192  69.260  1.00  0.00    -0.209 C  
HETATM   18  C   UNL     1      -6.937  13.293  67.826  1.00  0.00    -0.154 A  
HETATM   19  C   UNL     1      -9.444   6.927  70.435  1.00  0.00    -0.169 C  
HETATM   20  C   UNL     1      -5.600  12.917  67.880  1.00  0.00    -0.119 A  
HETATM   21  C   UNL     1      -8.265   7.889  70.518  1.00  0.00    -0.118 C  
HETATM   22  C   UNL     1      -5.269  11.572  67.998  1.00  0.00    -0.044 A  
HETATM   23  C   UNL     1      -6.274  10.598  68.014  1.00  0.00    -0.053 A  
HETATM   24  C   UNL     1      -8.684   9.347  70.372  1.00  0.00    -0.278 C  
ENDBRANCH   6   9
TORSDOF 1
ENDMDL
MODEL      167
REMARK 921   NORMALIZED FREE ENERGY PREDICTED BY IDOCK:    6.52 KCAL/MOL
REMARK 922        TOTAL FREE ENERGY PREDICTED BY IDOCK:    6.51 KCAL/MOL
REMARK 923 INTER-LIGAND FREE ENERGY PREDICTED BY IDOCK:    6.76 KCAL/MOL
REMARK 924 INTRA-LIGAND FREE ENERGY PREDICTED BY IDOCK:   -0.25 KCAL/MOL
REMARK 927      BINDING AFFINITY PREDICTED BY RF-SCORE:    0.00 PKD
ROOT
HETATM    1  C   UNL     1     -11.110   8.062  72.967  1.00  0.00    -0.233 C  
HETATM    2  N   UNL     1      -9.836   8.347  72.177  1.00  0.00    -0.272 N  
HETATM    3  C   UNL     1      -9.582   9.852  72.183  1.00  0.00     3.506 C  
HETATM    4  C   UNL     1      -8.652   7.614  72.878  1.00  0.00    -0.143 C  
HETATM    5  C   UNL     1      -7.433   7.435  71.950  1.00  0.00    -0.080 C  
HETATM    6  N   UNL     1      -7.752   6.783  70.669  1.00  0.00    -0.095 NA 
HETATM    7  C   UNL     1      -8.732   7.624  69.955  1.00  0.00    -0.139 C  
HETATM    8  C   UNL     1     -10.054   7.856  70.721  1.00  0.00    -0.192 C  
ENDROOT
BRANCH   6   9
HETATM    9  C   UNL     1      -8.255   5.383  70.802  1.00  0.00    -0.115 C  
HETATM   10  C   UNL     1      -7.470   4.173  70.180  1.00  0.00    -0.046 C  
HETATM   11  C   UNL     1      -7.090   4.394  68.710  1.00  0.00    -0.052 A  
HETATM   12  C   UNL     1      -8.189   2.776  70.420  1.00  0.00    -0.068 C  
HETATM   13  O   UNL     1      -6.211   4.132  70.913  1.00  0.00    -0.017 OA 
HETATM   14  C   UNL     1      -5.933   3.801  68.170  1.00  0.00    -0.027 A  
HETATM   15  C   UNL     1      -8.540   2.424  71.893  1.00  0.00    -0.089 C  
HETATM   16  H   UNL     1      -5.736   3.401  70.537  1.00  0.00     0.000 HD 
HETATM   17  C   UNL     1      -9.868   2.974  72.418  1.00  0.00    -0.228 C  
HETATM   18  C   UNL     1      -5.504   4.086  66.867  1.00  0.00    -0.013 A  
HETATM   19  C   UNL     1     -11.039   2.751  71.472  1.00  0.00     2.210 C  
HETATM   20  C   UNL     1      -6.231   4.965  66.072  1.00  0.00    -0.031 A  
HETATM   21  C   UNL     1     -10.728   3.078  70.017  1.00  0.00     3.183 C  
HETATM   22  C   UNL     1      -7.412   5.514  66.557  1.00  0.00    -0.087 A  
HETATM   23  C   UNL     1      -7.844   5.220  67.855  1.00  0.00    -0.092 A  
HETATM   24  C   UNL     1      -9.417   2.462  69.542  1.00  0.00    -0.119 C  
ENDBRANCH   6   9
TORSDOF 1
ENDMDL
MODEL      168
REMARK 921   NORMALIZED FREE ENERGY PREDICTED BY IDOCK:    6.84 KCAL/MOL
REMARK 922        TOTAL FREE ENERGY PREDICTED BY IDOCK:    6.85 KCAL/MOL
REMARK 923 INTER-LIGAND FREE ENERGY PREDICTED BY IDOCK:   -1.24 KCAL/MOL
REMARK 924 INTRA-LIGAND FREE ENERGY PREDICTED BY IDOCK:    8.08 KCAL/MOL
REMARK 927      BINDING AFFINITY PREDICTED BY RF-SCORE:    0.00 PKD
ROOT
HETATM    1  C   UNL     1      -6.174   5.115  64.094  1.00  0.00    -0.022 C  
HETATM    2  N   UNL     1      -6.851   6.471  63.917  1.00  0.00    -0.044 N  
HETATM    3  C   UNL     1      -7.205   6.654  62.444  1.00  0.00    -0.047 C  
HETATM    4  C   UNL     1      -8.154   6.481  64.773  1.00  0.00    -0.112 C  
HETATM    5  C   UNL     1      -8.669   7.909  65.050  1.00  0.00     0.104 C  
HETATM    6  N   UNL     1      -7.660   8.801  65.645  1.00  0.00    -0.085 NA 
HETATM    7  C   UNL     1      -6.531   8.913  64.701  1.00  0.00    -0.066 C  
HETATM    8  C   UNL     1      -5.848   7.570  64.358  1.00  0.00    -0.037 C  
ENDROOT
BRANCH   6   9
HETATM    9  C   UNL     1      -7.180   8.370  66.993  1.00  0.00    -0.080 C  
HETATM   10  C   UNL     1      -7.308   6.877  67.462  1.00  0.00    -0.096 C  
HETATM   11  C   UNL     1      -8.717   6.301  67.263  1.00  0.00    -0.105 A  
HETATM   12  C   UNL     1      -6.755   6.639  68.934  1.00  0.00    -0.056 C  
HETATM   13  O   UNL     1      -6.442   6.129  66.560  1.00  0.00    -0.043 OA 
HETATM   14  C   UNL     1      -8.902   4.927  67.020  1.00  0.00    -0.106 A  
HETATM   15  C   UNL     1      -5.303   7.115  69.211  1.00  0.00    -0.015 C  
HETATM   16  H   UNL     1      -6.519   5.226  66.844  1.00  0.00     0.000 HD 
HETATM   17  C   UNL     1      -5.139   8.586  69.601  1.00  0.00    -0.030 C  
HETATM   18  C   UNL     1     -10.166   4.403  66.717  1.00  0.00    -0.099 A  
HETATM   19  C   UNL     1      -6.116   9.048  70.671  1.00  0.00    -0.040 C  
HETATM   20  C   UNL     1     -11.272   5.242  66.659  1.00  0.00     0.537 A  
HETATM   21  C   UNL     1      -7.550   8.592  70.436  1.00  0.00    -0.075 C  
HETATM   22  C   UNL     1     -11.127   6.591  66.958  1.00  0.00    -0.411 A  
HETATM   23  C   UNL     1      -9.867   7.112  67.270  1.00  0.00    -0.217 A  
HETATM   24  C   UNL     1      -7.649   7.108  70.100  1.00  0.00    -0.091 C  
ENDBRANCH   6   9
TORSDOF 1
ENDMDL
MODEL      169
REMARK 921   NORMALIZED FREE ENERGY PREDICTED BY IDOCK:    7.32 KCAL/MOL
REMARK 922        TOTAL FREE ENERGY PREDICTED BY IDOCK:    7.35 KCAL/MOL
REMARK 923 INTER-LIGAND FREE ENERGY PREDICTED BY IDOCK:   -2.63 KCAL/MOL
REMARK 924 INTRA-LIGAND FREE ENERGY PREDICTED BY IDOCK:    9.99 KCAL/MOL
REMARK 927      BINDING AFFINITY PREDICTED BY RF-SCORE:    0.00 PKD
ROOT
HETATM    1  C   UNL     1      -7.325   6.916  67.214  1.00  0.00    -0.091 C  
HETATM    2  N   UNL     1      -8.672   6.201  67.268  1.00  0.00    -0.109 N  
HETATM    3  C   UNL     1      -9.520   6.665  66.087  1.00  0.00    -0.009 C  
HETATM    4  C   UNL     1      -8.415   4.667  67.156  1.00  0.00    -0.105 C  
HETATM    5  C   UNL     1      -9.610   3.829  67.655  1.00  0.00    -0.147 C  
HETATM    6  N   UNL     1     -10.053   4.176  69.016  1.00  0.00     0.101 NA 
HETATM    7  C   UNL     1     -10.473   5.591  69.018  1.00  0.00    -0.226 C  
HETATM    8  C   UNL     1      -9.368   6.586  68.600  1.00  0.00    -0.125 C  
ENDROOT
BRANCH   6   9
HETATM    9  C   UNL     1      -9.029   3.928  70.075  1.00  0.00    -0.100 C  
HETATM   10  C   UNL     1      -9.092   4.673  71.457  1.00  0.00    -0.135 C  
HETATM   11  C   UNL     1      -9.260   6.192  71.316  1.00  0.00    -0.157 A  
HETATM   12  C   UNL     1      -7.898   4.280  72.430  1.00  0.00    -0.087 C  
HETATM   13  O   UNL     1     -10.319   4.195  72.080  1.00  0.00    -0.162 OA 
HETATM   14  C   UNL     1      -9.933   6.935  72.305  1.00  0.00    -0.176 A  
HETATM   15  C   UNL     1      -7.700   2.763  72.701  1.00  0.00    -0.054 C  
HETATM   16  H   UNL     1     -10.358   4.645  72.915  1.00  0.00     0.000 HD 
HETATM   17  C   UNL     1      -6.854   2.001  71.678  1.00  0.00    -0.026 C  
HETATM   18  C   UNL     1     -10.201   8.300  72.138  1.00  0.00    -0.355 A  
HETATM   19  C   UNL     1      -5.554   2.702  71.316  1.00  0.00    -0.009 C  
HETATM   20  C   UNL     1      -9.794   8.953  70.980  1.00  0.00    -0.321 A  
HETATM   21  C   UNL     1      -5.709   4.194  71.050  1.00  0.00    -0.013 C  
HETATM   22  C   UNL     1      -9.072   8.258  70.017  1.00  0.00    -0.150 A  
HETATM   23  C   UNL     1      -8.796   6.897  70.189  1.00  0.00    -0.145 A  
HETATM   24  C   UNL     1      -6.519   4.902  72.130  1.00  0.00    -0.035 C  
ENDBRANCH   6   9
TORSDOF 1
ENDMDL
MODEL      170
REMARK 921   NORMALIZED FREE ENERGY PREDICTED BY IDOCK:    8.89 KCAL/MOL
REMARK 922        TOTAL FREE ENERGY PREDICTED BY IDOCK:    9.01 KCAL/MOL
REMARK 923 INTER-LIGAND FREE ENERGY PREDICTED BY IDOCK:    1.55 KCAL/MOL
REMARK 924 INTRA-LIGAND FREE ENERGY PREDICTED BY IDOCK:    7.46 KCAL/MOL
REMARK 927      BINDING AFFINITY PREDICTED BY RF-SCORE:    0.00 PKD
ROOT
HETATM    1  C   UNL     1      -5.284  12.923  68.804  1.00  0.00    -0.067 C  
HETATM    2  N   UNL     1      -6.304  13.864  68.170  1.00  0.00    -0.111 N  
HETATM    3  C   UNL     1      -5.583  15.124  67.701  1.00  0.00    -0.013 C  
HETATM    4  C   UNL     1      -6.940  13.139  66.945  1.00  0.00     0.668 C  
HETATM    5  C   UNL     1      -8.279  13.772  66.512  1.00  0.00     0.609 C  
HETATM    6  N   UNL     1      -9.261  13.890  67.603  1.00  0.00    -0.192 NA 
HETATM    7  C   UNL     1      -8.683  14.752  68.652  1.00  0.00    -0.178 C  
HETATM    8  C   UNL     1      -7.357  14.230  69.249  1.00  0.00    -0.053 C  
ENDROOT
BRANCH   6   9
HETATM    9  C   UNL     1      -9.700  12.583  68.177  1.00  0.00    -0.222 C  
HETATM   10  C   UNL     1      -8.851  11.278  67.969  1.00  0.00    -0.148 C  
HETATM   11  C   UNL     1      -8.465  11.038  66.503  1.00  0.00    -0.161 A  
HETATM   12  C   UNL     1      -9.506   9.996  68.643  1.00  0.00    -0.156 C  
HETATM   13  O   UNL     1      -7.601  11.533  68.672  1.00  0.00    -0.121 OA 
HETATM   14  C   UNL     1      -7.275  10.361  66.176  1.00  0.00    -0.131 A  
HETATM   15  C   UNL     1      -9.858  10.114  70.152  1.00  0.00    -0.108 C  
HETATM   16  H   UNL     1      -7.088  10.744  68.546  1.00  0.00     0.000 HD 
HETATM   17  C   UNL     1     -11.217  10.737  70.480  1.00  0.00    -0.188 C  
HETATM   18  C   UNL     1      -6.845  10.238  64.848  1.00  0.00    -0.100 A  
HETATM   19  C   UNL     1     -12.365  10.169  69.658  1.00  0.00     0.157 C  
HETATM   20  C   UNL     1      -7.603  10.782  63.817  1.00  0.00     0.304 A  
HETATM   21  C   UNL     1     -12.052  10.031  68.174  1.00  0.00     1.849 C  
HETATM   22  C   UNL     1      -8.814  11.399  64.107  1.00  0.00     0.306 A  
HETATM   23  C   UNL     1      -9.247  11.513  65.433  1.00  0.00    -0.123 A  
HETATM   24  C   UNL     1     -10.708   9.360  67.915  1.00  0.00    -0.269 C  
ENDBRANCH   6   9
TORSDOF 1
ENDMDL
MODEL      171
REMARK 921   NORMALIZED FREE ENERGY PREDICTED BY IDOCK:    9.68 KCAL/MOL
REMARK 922        TOTAL FREE ENERGY PREDICTED BY IDOCK:    9.85 KCAL/MOL
REMARK 923 INTER-LIGAND FREE ENERGY PREDICTED BY IDOCK:    1.48 KCAL/MOL
REMARK 924 INTRA-LIGAND FREE ENERGY PREDICTED BY IDOCK:    8.38 KCAL/MOL
REMARK 927      BINDING AFFINITY PREDICTED BY RF-SCORE:    0.00 PKD
ROOT
HETATM    1  C   UNL     1      -6.068   9.452  68.667  1.00  0.00    -0.044 C  
HETATM    2  N   UNL     1      -6.707   9.554  67.285  1.00  0.00    -0.071 N  
HETATM    3  C   UNL     1      -5.677   9.142  66.237  1.00  0.00    -0.053 C  
HETATM    4  C   UNL     1      -7.923   8.579  67.236  1.00  0.00    -0.102 C  
HETATM    5  C   UNL     1      -8.909   8.919  66.100  1.00  0.00    -0.161 C  
HETATM    6  N   UNL     1      -9.375  10.316  66.114  1.00  0.00    -0.163 NA 
HETATM    7  C   UNL     1      -8.200  11.195  65.958  1.00  0.00    -0.094 C  
HETATM    8  C   UNL     1      -7.128  11.031  67.058  1.00  0.00    -0.118 C  
ENDROOT
BRANCH   6   9
HETATM    9  C   UNL     1     -10.155  10.689  67.332  1.00  0.00    -0.194 C  
HETATM   10  C   UNL     1     -10.398  12.194  67.712  1.00  0.00    -0.206 C  
HETATM   11  C   UNL     1      -9.112  13.032  67.707  1.00  0.00    -0.200 A  
HETATM   12  C   UNL     1     -11.233  12.368  69.054  1.00  0.00    -0.320 C  
HETATM   13  O   UNL     1     -11.220  12.721  66.632  1.00  0.00    -0.277 OA 
HETATM   14  C   UNL     1      -9.152  14.406  67.403  1.00  0.00    -0.202 A  
HETATM   15  C   UNL     1     -12.594  11.622  69.122  1.00  0.00     0.454 C  
HETATM   16  H   UNL     1     -11.367  13.631  66.861  1.00  0.00     0.000 HD 
HETATM   17  C   UNL     1     -12.539  10.163  69.580  1.00  0.00     0.533 C  
HETATM   18  C   UNL     1      -7.979  15.161  67.275  1.00  0.00    -0.234 A  
HETATM   19  C   UNL     1     -11.693   9.944  70.825  1.00  0.00    -0.424 C  
HETATM   20  C   UNL     1      -6.739  14.558  67.457  1.00  0.00    -0.141 A  
HETATM   21  C   UNL     1     -10.353  10.668  70.796  1.00  0.00     1.146 C  
HETATM   22  C   UNL     1      -6.674  13.218  67.821  1.00  0.00    -0.154 A  
HETATM   23  C   UNL     1      -7.847  12.467  67.958  1.00  0.00    -0.147 A  
HETATM   24  C   UNL     1     -10.482  12.129  70.380  1.00  0.00     2.648 C  
ENDBRANCH   6   9
TORSDOF 1
ENDMDL
MODEL      172
REMARK 921   NORMALIZED FREE ENERGY PREDICTED BY IDOCK:   11.73 KCAL/MOL
REMARK 922        TOTAL FREE ENERGY PREDICTED BY IDOCK:   12.02 KCAL/MOL
REMARK 923 INTER-LIGAND FREE ENERGY PREDICTED BY IDOCK:    1.78 KCAL/MOL
REMARK 924 INTRA-LIGAND FREE ENERGY PREDICTED BY IDOCK:   10.24 KCAL/MOL
REMARK 927      BINDING AFFINITY PREDICTED BY RF-SCORE:    0.00 PKD
ROOT
HETATM    1  C   UNL     1     -11.080   5.661  71.028  1.00  0.00    -0.131 C  
HETATM    2  N   UNL     1     -11.364   6.479  69.772  1.00  0.00    -0.388 N  
HETATM    3  C   UNL     1     -12.875   6.605  69.600  1.00  0.00     2.960 C  
HETATM    4  C   UNL     1     -10.740   7.896  69.961  1.00  0.00    -0.244 C  
HETATM    5  C   UNL     1     -10.549   8.642  68.624  1.00  0.00    -0.129 C  
HETATM    6  N   UNL     1      -9.790   7.878  67.619  1.00  0.00    -0.156 NA 
HETATM    7  C   UNL     1     -10.529   6.634  67.331  1.00  0.00    -0.260 C  
HETATM    8  C   UNL     1     -10.757   5.725  68.559  1.00  0.00    -0.217 C  
ENDROOT
BRANCH   6   9
HETATM    9  C   UNL     1      -8.382   7.575  68.016  1.00  0.00    -0.124 C  
HETATM   10  C   UNL     1      -7.596   6.377  67.372  1.00  0.00    -0.100 C  
HETATM   11  C   UNL     1      -8.382   5.059  67.395  1.00  0.00    -0.106 A  
HETATM   12  C   UNL     1      -6.123   6.219  67.949  1.00  0.00    -0.024 C  
HETATM   13  O   UNL     1      -7.463   6.735  65.966  1.00  0.00    -0.077 OA 
HETATM   14  C   UNL     1      -8.185   4.088  66.394  1.00  0.00    -0.101 A  
HETATM   15  C   UNL     1      -5.220   7.482  67.892  1.00  0.00    -0.026 C  
HETATM   16  H   UNL     1      -6.988   6.011  65.576  1.00  0.00     0.000 HD 
HETATM   17  C   UNL     1      -5.359   8.462  69.060  1.00  0.00    -0.035 C  
HETATM   18  C   UNL     1      -8.976   2.934  66.330  1.00  0.00    -0.153 A  
HETATM   19  C   UNL     1      -5.338   7.792  70.426  1.00  0.00    -0.023 C  
HETATM   20  C   UNL     1      -9.976   2.722  67.272  1.00  0.00     0.874 A  
HETATM   21  C   UNL     1      -6.207   6.544  70.515  1.00  0.00    -0.039 C  
HETATM   22  C   UNL     1     -10.149   3.633  68.307  1.00  0.00     0.477 A  
HETATM   23  C   UNL     1      -9.351   4.780  68.377  1.00  0.00    -0.177 A  
HETATM   24  C   UNL     1      -5.985   5.587  69.349  1.00  0.00    -0.020 C  
ENDBRANCH   6   9
TORSDOF 1
ENDMDL
MODEL      173
REMARK 921   NORMALIZED FREE ENERGY PREDICTED BY IDOCK:   13.11 KCAL/MOL
REMARK 922        TOTAL FREE ENERGY PREDICTED BY IDOCK:   13.48 KCAL/MOL
REMARK 923 INTER-LIGAND FREE ENERGY PREDICTED BY IDOCK:   11.12 KCAL/MOL
REMARK 924 INTRA-LIGAND FREE ENERGY PREDICTED BY IDOCK:    2.36 KCAL/MOL
REMARK 927      BINDING AFFINITY PREDICTED BY RF-SCORE:    0.00 PKD
ROOT
HETATM    1  C   UNL     1      -5.717  15.905  69.133  1.00  0.00    -0.116 C  
HETATM    2  N   UNL     1      -6.100  15.495  67.714  1.00  0.00    -0.148 N  
HETATM    3  C   UNL     1      -5.298  16.338  66.727  1.00  0.00     0.370 C  
HETATM    4  C   UNL     1      -5.742  13.989  67.528  1.00  0.00     0.143 C  
HETATM    5  C   UNL     1      -6.486  13.346  66.339  1.00  0.00     3.202 C  
HETATM    6  N   UNL     1      -7.947  13.522  66.386  1.00  0.00     0.897 NA 
HETATM    7  C   UNL     1      -8.238  14.969  66.360  1.00  0.00     0.317 C  
HETATM    8  C   UNL     1      -7.617  15.767  67.528  1.00  0.00    -0.168 C  
ENDROOT
BRANCH   6   9
HETATM    9  C   UNL     1      -8.606  12.873  67.559  1.00  0.00    -0.188 C  
HETATM   10  C   UNL     1      -7.851  11.800  68.423  1.00  0.00    -0.141 C  
HETATM   11  C   UNL     1      -7.204  10.693  67.579  1.00  0.00    -0.090 A  
HETATM   12  C   UNL     1      -8.738  11.222  69.609  1.00  0.00     0.833 C  
HETATM   13  O   UNL     1      -6.748  12.527  69.036  1.00  0.00    -0.094 OA 
HETATM   14  C   UNL     1      -6.038  10.041  68.022  1.00  0.00    -0.049 A  
HETATM   15  C   UNL     1      -9.370  12.266  70.570  1.00  0.00     6.259 C  
HETATM   16  H   UNL     1      -6.291  11.878  69.559  1.00  0.00     0.000 HD 
HETATM   17  C   UNL     1     -10.707  12.866  70.128  1.00  0.00     1.347 C  
HETATM   18  C   UNL     1      -5.366   9.115  67.213  1.00  0.00    -0.037 A  
HETATM   19  C   UNL     1     -11.714  11.831  69.650  1.00  0.00    -0.413 C  
HETATM   20  C   UNL     1      -5.853   8.814  65.946  1.00  0.00    -0.051 A  
HETATM   21  C   UNL     1     -11.127  10.785  68.711  1.00  0.00    -0.312 C  
HETATM   22  C   UNL     1      -7.038   9.395  65.511  1.00  0.00    -0.087 A  
HETATM   23  C   UNL     1      -7.714  10.312  66.323  1.00  0.00    -0.116 A  
HETATM   24  C   UNL     1      -9.823  10.192  69.232  1.00  0.00    -0.235 C  
ENDBRANCH   6   9
TORSDOF 1
ENDMDL
MODEL      174
REMARK 921   NORMALIZED FREE ENERGY PREDICTED BY IDOCK:   13.76 KCAL/MOL
REMARK 922        TOTAL FREE ENERGY PREDICTED BY IDOCK:   14.17 KCAL/MOL
REMARK 923 INTER-LIGAND FREE ENERGY PREDICTED BY IDOCK:    6.98 KCAL/MOL
REMARK 924 INTRA-LIGAND FREE ENERGY PREDICTED BY IDOCK:    7.19 KCAL/MOL
REMARK 927      BINDING AFFINITY PREDICTED BY RF-SCORE:    0.00 PKD
ROOT
HETATM    1  C   UNL     1      -9.479  17.573  68.349  1.00  0.00    -0.292 C  
HETATM    2  N   UNL     1      -7.995  17.564  67.992  1.00  0.00    -0.227 N  
HETATM    3  C   UNL     1      -7.437  18.971  68.183  1.00  0.00    -0.275 C  
HETATM    4  C   UNL     1      -7.267  16.577  68.955  1.00  0.00    -0.219 C  
HETATM    5  C   UNL     1      -5.893  16.130  68.417  1.00  0.00    -0.107 C  
HETATM    6  N   UNL     1      -5.940  15.572  67.055  1.00  0.00    -0.192 NA 
HETATM    7  C   UNL     1      -6.452  16.617  66.147  1.00  0.00     0.686 C  
HETATM    8  C   UNL     1      -7.861  17.141  66.504  1.00  0.00    -0.290 C  
ENDROOT
BRANCH   6   9
HETATM    9  C   UNL     1      -6.750  14.323  66.932  1.00  0.00     1.256 C  
HETATM   10  C   UNL     1      -7.791  13.917  68.035  1.00  0.00    -0.154 C  
HETATM   11  C   UNL     1      -7.210  13.959  69.456  1.00  0.00     0.147 A  
HETATM   12  C   UNL     1      -8.528  12.545  67.719  1.00  0.00    -0.171 C  
HETATM   13  O   UNL     1      -8.804  14.962  67.991  1.00  0.00    -0.160 OA 
HETATM   14  C   UNL     1      -8.034  14.245  70.560  1.00  0.00     1.990 A  
HETATM   15  C   UNL     1      -9.221  12.438  66.333  1.00  0.00    -0.192 C  
HETATM   16  H   UNL     1      -9.434  14.717  68.659  1.00  0.00     0.000 HD 
HETATM   17  C   UNL     1      -8.331  11.999  65.167  1.00  0.00     1.348 C  
HETATM   18  C   UNL     1      -7.503  14.405  71.847  1.00  0.00     3.987 A  
HETATM   19  C   UNL     1      -7.466  10.787  65.481  1.00  0.00     0.007 C  
HETATM   20  C   UNL     1      -6.135  14.274  72.057  1.00  0.00     0.330 A  
HETATM   21  C   UNL     1      -6.777  10.855  66.838  1.00  0.00    -0.106 C  
HETATM   22  C   UNL     1      -5.307  13.929  70.995  1.00  0.00    -0.162 A  
HETATM   23  C   UNL     1      -5.840  13.759  69.713  1.00  0.00    -0.115 A  
HETATM   24  C   UNL     1      -7.728  11.249  67.962  1.00  0.00    -0.108 C  
ENDBRANCH   6   9
TORSDOF 1
ENDMDL
MODEL      175
REMARK 921   NORMALIZED FREE ENERGY PREDICTED BY IDOCK:   13.83 KCAL/MOL
REMARK 922        TOTAL FREE ENERGY PREDICTED BY IDOCK:   14.24 KCAL/MOL
REMARK 923 INTER-LIGAND FREE ENERGY PREDICTED BY IDOCK:    2.71 KCAL/MOL
REMARK 924 INTRA-LIGAND FREE ENERGY PREDICTED BY IDOCK:   11.53 KCAL/MOL
REMARK 927      BINDING AFFINITY PREDICTED BY RF-SCORE:    0.00 PKD
ROOT
HETATM    1  C   UNL     1     -10.129  10.603  68.719  1.00  0.00    -0.191 C  
HETATM    2  N   UNL     1     -10.416  10.909  67.252  1.00  0.00    -0.219 N  
HETATM    3  C   UNL     1     -10.587   9.592  66.501  1.00  0.00    -0.062 C  
HETATM    4  C   UNL     1     -11.739  11.730  67.175  1.00  0.00    -0.188 C  
HETATM    5  C   UNL     1     -11.890  12.485  65.839  1.00  0.00    -0.430 C  
HETATM    6  N   UNL     1     -10.738  13.340  65.505  1.00  0.00    -0.283 NA 
HETATM    7  C   UNL     1      -9.544  12.480  65.395  1.00  0.00     0.000 C  
HETATM    8  C   UNL     1      -9.204  11.690  66.678  1.00  0.00    -0.191 C  
ENDROOT
BRANCH   6   9
HETATM    9  C   UNL     1     -10.500  14.453  66.472  1.00  0.00    -0.289 C  
HETATM   10  C   UNL     1      -9.070  15.075  66.660  1.00  0.00    -0.280 C  
HETATM   11  C   UNL     1      -7.979  14.018  66.885  1.00  0.00     0.178 A  
HETATM   12  C   UNL     1      -9.033  16.230  67.750  1.00  0.00    -0.193 C  
HETATM   13  O   UNL     1      -8.764  15.693  65.377  1.00  0.00     0.145 OA 
HETATM   14  C   UNL     1      -6.655  14.254  66.469  1.00  0.00     2.939 A  
HETATM   15  C   UNL     1     -10.048  17.391  67.560  1.00  0.00    -0.322 C  
HETATM   16  H   UNL     1      -7.899  16.069  65.490  1.00  0.00     0.000 HD 
HETATM   17  C   UNL     1     -11.448  17.163  68.137  1.00  0.00     0.396 C  
HETATM   18  C   UNL     1      -5.673  13.259  66.556  1.00  0.00     2.544 A  
HETATM   19  C   UNL     1     -11.442  16.622  69.558  1.00  0.00     0.168 C  
HETATM   20  C   UNL     1      -5.993  12.008  67.071  1.00  0.00    -0.135 A  
HETATM   21  C   UNL     1     -10.452  15.487  69.784  1.00  0.00    -0.308 C  
HETATM   22  C   UNL     1      -7.276  11.770  67.549  1.00  0.00    -0.123 A  
HETATM   23  C   UNL     1      -8.254  12.768  67.470  1.00  0.00    -0.179 A  
HETATM   24  C   UNL     1      -9.066  15.797  69.230  1.00  0.00    -0.263 C  
ENDBRANCH   6   9
TORSDOF 1
ENDMDL
MODEL      176
REMARK 921   NORMALIZED FREE ENERGY PREDICTED BY IDOCK:   18.40 KCAL/MOL
REMARK 922        TOTAL FREE ENERGY PREDICTED BY IDOCK:   19.08 KCAL/MOL
REMARK 923 INTER-LIGAND FREE ENERGY PREDICTED BY IDOCK:    8.42 KCAL/MOL
REMARK 924 INTRA-LIGAND FREE ENERGY PREDICTED BY IDOCK:   10.66 KCAL/MOL
REMARK 927      BINDING AFFINITY PREDICTED BY RF-SCORE:    0.00 PKD
ROOT
HETATM    1  C   UNL     1     -10.741   5.521  66.054  1.00  0.00     0.071 C  
HETATM    2  N   UNL     1     -10.239   6.908  65.664  1.00  0.00     1.224 N  
HETATM    3  C   UNL     1     -10.345   7.060  64.149  1.00  0.00     7.628 C  
HETATM    4  C   UNL     1     -11.146   7.969  66.360  1.00  0.00     1.749 C  
HETATM    5  C   UNL     1     -10.483   9.360  66.430  1.00  0.00    -0.095 C  
HETATM    6  N   UNL     1      -9.145   9.351  67.043  1.00  0.00    -0.133 NA 
HETATM    7  C   UNL     1      -8.271   8.485  66.228  1.00  0.00    -0.109 C  
HETATM    8  C   UNL     1      -8.755   7.024  66.103  1.00  0.00    -0.145 C  
ENDROOT
BRANCH   6   9
HETATM    9  C   UNL     1      -9.128   8.921  68.473  1.00  0.00    -0.137 C  
HETATM   10  C   UNL     1      -7.830   8.326  69.128  1.00  0.00    -0.106 C  
HETATM   11  C   UNL     1      -7.195   7.204  68.295  1.00  0.00    -0.091 A  
HETATM   12  C   UNL     1      -8.035   7.914  70.650  1.00  0.00    -0.096 C  
HETATM   13  O   UNL     1      -6.871   9.423  69.112  1.00  0.00    -0.049 OA 
HETATM   14  C   UNL     1      -5.806   6.980  68.334  1.00  0.00    -0.022 A  
HETATM   15  C   UNL     1      -8.597   9.014  71.593  1.00  0.00    -0.048 C  
HETATM   16  H   UNL     1      -6.086   9.064  69.508  1.00  0.00     0.000 HD 
HETATM   17  C   UNL     1     -10.121   9.152  71.632  1.00  0.00    -0.346 C  
HETATM   18  C   UNL     1      -5.192   6.042  67.493  1.00  0.00    -0.005 A  
HETATM   19  C   UNL     1     -10.852   7.826  71.783  1.00  0.00    -0.277 C  
HETATM   20  C   UNL     1      -5.959   5.302  66.600  1.00  0.00    -0.023 A  
HETATM   21  C   UNL     1     -10.321   6.722  70.878  1.00  0.00    -0.222 C  
HETATM   22  C   UNL     1      -7.340   5.457  66.588  1.00  0.00    -0.086 A  
HETATM   23  C   UNL     1      -7.952   6.387  67.435  1.00  0.00    -0.116 A  
HETATM   24  C   UNL     1      -8.802   6.604  70.922  1.00  0.00    -0.146 C  
ENDBRANCH   6   9
TORSDOF 1
ENDMDL
MODEL      177
REMARK 921   NORMALIZED FREE ENERGY PREDICTED BY IDOCK:   21.84 KCAL/MOL
REMARK 922        TOTAL FREE ENERGY PREDICTED BY IDOCK:   22.73 KCAL/MOL
REMARK 923 INTER-LIGAND FREE ENERGY PREDICTED BY IDOCK:   14.27 KCAL/MOL
REMARK 924 INTRA-LIGAND FREE ENERGY PREDICTED BY IDOCK:    8.46 KCAL/MOL
REMARK 927      BINDING AFFINITY PREDICTED BY RF-SCORE:    0.00 PKD
ROOT
HETATM    1  C   UNL     1      -6.355  14.543  67.173  1.00  0.00     0.672 C  
HETATM    2  N   UNL     1      -7.777  14.908  66.756  1.00  0.00     0.111 N  
HETATM    3  C   UNL     1      -8.011  16.386  67.055  1.00  0.00    -0.205 C  
HETATM    4  C   UNL     1      -7.915  14.656  65.223  1.00  0.00     6.254 C  
HETATM    5  C   UNL     1      -9.386  14.537  64.773  1.00  0.00     1.717 C  
HETATM    6  N   UNL     1     -10.160  13.537  65.527  1.00  0.00    -0.289 NA 
HETATM    7  C   UNL     1     -10.162  13.933  66.949  1.00  0.00    -0.257 C  
HETATM    8  C   UNL     1      -8.759  14.040  67.586  1.00  0.00    -0.189 C  
ENDROOT
BRANCH   6   9
HETATM    9  C   UNL     1      -9.667  12.136  65.371  1.00  0.00    -0.162 C  
HETATM   10  C   UNL     1     -10.093  11.007  66.376  1.00  0.00    -0.229 C  
HETATM   11  C   UNL     1      -9.903  11.407  67.846  1.00  0.00    -0.188 A  
HETATM   12  C   UNL     1      -9.441   9.597  66.040  1.00  0.00    -0.284 C  
HETATM   13  O   UNL     1     -11.530  10.864  66.187  1.00  0.00     0.002 OA 
HETATM   14  C   UNL     1     -10.738  10.877  68.848  1.00  0.00    -0.252 A  
HETATM   15  C   UNL     1      -9.650   9.067  64.595  1.00  0.00     0.586 C  
HETATM   16  H   UNL     1     -11.788  10.182  66.795  1.00  0.00     0.000 HD 
HETATM   17  C   UNL     1      -8.649   9.557  63.546  1.00  0.00    -0.221 C  
HETATM   18  C   UNL     1     -10.661  11.319  70.175  1.00  0.00     0.616 A  
HETATM   19  C   UNL     1      -7.199   9.464  63.995  1.00  0.00    -0.102 C  
HETATM   20  C   UNL     1      -9.738  12.296  70.530  1.00  0.00     5.478 A  
HETATM   21  C   UNL     1      -6.957   9.969  65.412  1.00  0.00    -0.127 C  
HETATM   22  C   UNL     1      -8.858  12.790  69.574  1.00  0.00     1.622 A  
HETATM   23  C   UNL     1      -8.930  12.340  68.251  1.00  0.00    -0.182 A  
HETATM   24  C   UNL     1      -7.957   9.405  66.416  1.00  0.00    -0.108 C  
ENDBRANCH   6   9
TORSDOF 1
ENDMDL
MODEL      178
REMARK 921   NORMALIZED FREE ENERGY PREDICTED BY IDOCK:   21.87 KCAL/MOL
REMARK 922        TOTAL FREE ENERGY PREDICTED BY IDOCK:   22.75 KCAL/MOL
REMARK 923 INTER-LIGAND FREE ENERGY PREDICTED BY IDOCK:   14.68 KCAL/MOL
REMARK 924 INTRA-LIGAND FREE ENERGY PREDICTED BY IDOCK:    8.07 KCAL/MOL
REMARK 927      BINDING AFFINITY PREDICTED BY RF-SCORE:    0.00 PKD
ROOT
HETATM    1  C   UNL     1     -11.225  14.672  65.833  1.00  0.00    -0.336 C  
HETATM    2  N   UNL     1     -10.370  14.605  67.095  1.00  0.00    -0.263 N  
HETATM    3  C   UNL     1     -10.282  16.003  67.702  1.00  0.00    -0.262 C  
HETATM    4  C   UNL     1     -11.063  13.640  68.104  1.00  0.00    -0.256 C  
HETATM    5  C   UNL     1     -10.098  13.131  69.195  1.00  0.00     0.299 C  
HETATM    6  N   UNL     1      -8.869  12.519  68.664  1.00  0.00    -0.030 NA 
HETATM    7  C   UNL     1      -8.149  13.539  67.877  1.00  0.00    -0.165 C  
HETATM    8  C   UNL     1      -8.953  14.117  66.691  1.00  0.00    -0.169 C  
ENDROOT
BRANCH   6   9
HETATM    9  C   UNL     1      -9.100  11.289  67.847  1.00  0.00    -0.150 C  
HETATM   10  C   UNL     1     -10.491  11.010  67.175  1.00  0.00    -0.232 C  
HETATM   11  C   UNL     1     -11.670  11.153  68.147  1.00  0.00    -0.304 A  
HETATM   12  C   UNL     1     -10.529   9.640  66.370  1.00  0.00    -0.181 C  
HETATM   13  O   UNL     1     -10.651  12.079  66.197  1.00  0.00    -0.247 OA 
HETATM   14  C   UNL     1     -12.937  11.556  67.685  1.00  0.00     4.506 A  
HETATM   15  C   UNL     1      -9.420   9.437  65.300  1.00  0.00    -0.296 C  
HETATM   16  H   UNL     1     -11.493  11.910  65.790  1.00  0.00     0.000 HD 
HETATM   17  C   UNL     1      -8.090   8.875  65.807  1.00  0.00    -0.107 C  
HETATM   18  C   UNL     1     -13.993  11.808  68.571  1.00  0.00    10.097 A  
HETATM   19  C   UNL     1      -8.245   7.668  66.720  1.00  0.00    -0.124 C  
HETATM   20  C   UNL     1     -13.805  11.654  69.939  1.00  0.00     4.080 A  
HETATM   21  C   UNL     1      -9.330   7.828  67.777  1.00  0.00    -0.155 C  
HETATM   22  C   UNL     1     -12.583  11.195  70.417  1.00  0.00    -0.328 A  
HETATM   23  C   UNL     1     -11.533  10.934  69.531  1.00  0.00    -0.372 A  
HETATM   24  C   UNL     1     -10.642   8.344  67.200  1.00  0.00    -0.326 C  
ENDBRANCH   6   9
TORSDOF 1
ENDMDL
MODEL      179
REMARK 921   NORMALIZED FREE ENERGY PREDICTED BY IDOCK:   22.03 KCAL/MOL
REMARK 922        TOTAL FREE ENERGY PREDICTED BY IDOCK:   22.93 KCAL/MOL
REMARK 923 INTER-LIGAND FREE ENERGY PREDICTED BY IDOCK:   23.12 KCAL/MOL
REMARK 924 INTRA-LIGAND FREE ENERGY PREDICTED BY IDOCK:   -0.20 KCAL/MOL
REMARK 927      BINDING AFFINITY PREDICTED BY RF-SCORE:    0.00 PKD
ROOT
HETATM    1  C   UNL     1      -9.457  10.528  69.678  1.00  0.00     0.005 C  
HETATM    2  N   UNL     1     -10.306  11.721  69.250  1.00  0.00     0.024 N  
HETATM    3  C   UNL     1     -11.757  11.457  69.643  1.00  0.00    -0.345 C  
HETATM    4  C   UNL     1      -9.783  12.985  69.999  1.00  0.00     2.895 C  
HETATM    5  C   UNL     1     -10.229  14.299  69.325  1.00  0.00    -0.015 C  
HETATM    6  N   UNL     1      -9.893  14.378  67.893  1.00  0.00    -0.220 NA 
HETATM    7  C   UNL     1     -10.577  13.269  67.198  1.00  0.00    -0.258 C  
HETATM    8  C   UNL     1     -10.195  11.862  67.709  1.00  0.00    -0.200 C  
ENDROOT
BRANCH   6   9
HETATM    9  C   UNL     1      -8.427  14.356  67.606  1.00  0.00    -0.185 C  
HETATM   10  C   UNL     1      -7.518  15.597  67.926  1.00  0.00    -0.133 C  
HETATM   11  C   UNL     1      -8.083  16.915  67.377  1.00  0.00    -0.193 A  
HETATM   12  C   UNL     1      -5.997  15.372  67.525  1.00  0.00    -0.073 C  
HETATM   13  O   UNL     1      -7.559  15.722  69.377  1.00  0.00    -0.214 OA 
HETATM   14  C   UNL     1      -7.818  18.135  68.028  1.00  0.00    -0.266 A  
HETATM   15  C   UNL     1      -5.311  14.103  68.102  1.00  0.00    -0.120 C  
HETATM   16  H   UNL     1      -7.009  16.472  69.571  1.00  0.00     0.000 HD 
HETATM   17  C   UNL     1      -5.506  12.811  67.306  1.00  0.00     0.031 C  
HETATM   18  C   UNL     1      -8.421  19.330  67.614  1.00  0.00    -0.327 A  
HETATM   19  C   UNL     1      -5.268  12.972  65.812  1.00  0.00     5.036 C  
HETATM   20  C   UNL     1      -9.294  19.331  66.532  1.00  0.00    -0.396 A  
HETATM   21  C   UNL     1      -5.919  14.211  65.213  1.00  0.00    13.776 C  
HETATM   22  C   UNL     1      -9.522  18.152  65.833  1.00  0.00     0.112 A  
HETATM   23  C   UNL     1      -8.912  16.961  66.241  1.00  0.00    -0.305 A  
HETATM   24  C   UNL     1      -5.647  15.471  66.026  1.00  0.00     4.498 C  
ENDBRANCH   6   9
TORSDOF 1
ENDMDL
MODEL      180
REMARK 921   NORMALIZED FREE ENERGY PREDICTED BY IDOCK:   22.40 KCAL/MOL
REMARK 922        TOTAL FREE ENERGY PREDICTED BY IDOCK:   23.31 KCAL/MOL
REMARK 923 INTER-LIGAND FREE ENERGY PREDICTED BY IDOCK:   23.29 KCAL/MOL
REMARK 924 INTRA-LIGAND FREE ENERGY PREDICTED BY IDOCK:    0.03 KCAL/MOL
REMARK 927      BINDING AFFINITY PREDICTED BY RF-SCORE:    0.00 PKD
ROOT
HETATM    1  C   UNL     1     -11.417  15.490  71.423  1.00  0.00    -0.414 C  
HETATM    2  N   UNL     1     -10.304  14.447  71.463  1.00  0.00     2.426 N  
HETATM    3  C   UNL     1      -9.570  14.564  72.796  1.00  0.00     7.414 C  
HETATM    4  C   UNL     1     -10.954  13.035  71.347  1.00  0.00     4.537 C  
HETATM    5  C   UNL     1      -9.944  11.953  70.912  1.00  0.00     6.501 C  
HETATM    6  N   UNL     1      -9.213  12.282  69.678  1.00  0.00     1.582 NA 
HETATM    7  C   UNL     1      -8.455  13.527  69.910  1.00  0.00     2.189 C  
HETATM    8  C   UNL     1      -9.325  14.743  70.296  1.00  0.00     0.967 C  
ENDROOT
BRANCH   6   9
HETATM    9  C   UNL     1     -10.080  12.410  68.468  1.00  0.00    -0.185 C  
HETATM   10  C   UNL     1     -10.936  11.199  67.949  1.00  0.00    -0.253 C  
HETATM   11  C   UNL     1     -10.123   9.904  67.807  1.00  0.00    -0.221 A  
HETATM   12  C   UNL     1     -11.768  11.543  66.640  1.00  0.00     0.048 C  
HETATM   13  O   UNL     1     -11.901  10.947  69.010  1.00  0.00    -0.332 OA 
HETATM   14  C   UNL     1     -10.739   8.649  67.971  1.00  0.00    -0.137 A  
HETATM   15  C   UNL     1     -12.687  12.793  66.714  1.00  0.00     1.111 C  
HETATM   16  H   UNL     1     -12.419  10.215  68.697  1.00  0.00     0.000 HD 
HETATM   17  C   UNL     1     -12.023  14.137  66.405  1.00  0.00    -0.457 C  
HETATM   18  C   UNL     1      -9.995   7.463  67.964  1.00  0.00    -0.195 A  
HETATM   19  C   UNL     1     -11.165  14.119  65.148  1.00  0.00    -0.337 C  
HETATM   20  C   UNL     1      -8.617   7.507  67.784  1.00  0.00    -0.120 A  
HETATM   21  C   UNL     1     -10.256  12.902  65.037  1.00  0.00    -0.289 C  
HETATM   22  C   UNL     1      -7.993   8.727  67.556  1.00  0.00    -0.102 A  
HETATM   23  C   UNL     1      -8.739   9.911  67.553  1.00  0.00    -0.121 A  
HETATM   24  C   UNL     1     -10.989  11.593  65.309  1.00  0.00    -0.327 C  
ENDBRANCH   6   9
TORSDOF 1
ENDMDL
MODEL      181
REMARK 921   NORMALIZED FREE ENERGY PREDICTED BY IDOCK:   22.98 KCAL/MOL
REMARK 922        TOTAL FREE ENERGY PREDICTED BY IDOCK:   23.93 KCAL/MOL
REMARK 923 INTER-LIGAND FREE ENERGY PREDICTED BY IDOCK:   19.73 KCAL/MOL
REMARK 924 INTRA-LIGAND FREE ENERGY PREDICTED BY IDOCK:    4.20 KCAL/MOL
REMARK 927      BINDING AFFINITY PREDICTED BY RF-SCORE:    0.00 PKD
ROOT
HETATM    1  C   UNL     1      -9.810   8.860  69.105  1.00  0.00    -0.180 C  
HETATM    2  N   UNL     1     -10.469  10.207  69.389  1.00  0.00    -0.217 N  
HETATM    3  C   UNL     1     -11.114  10.154  70.771  1.00  0.00    -0.298 C  
HETATM    4  C   UNL     1      -9.363  11.306  69.369  1.00  0.00     0.393 C  
HETATM    5  C   UNL     1      -9.941  12.723  69.178  1.00  0.00     0.411 C  
HETATM    6  N   UNL     1     -10.816  12.856  68.001  1.00  0.00    -0.233 NA 
HETATM    7  C   UNL     1     -11.955  11.933  68.167  1.00  0.00    -0.152 C  
HETATM    8  C   UNL     1     -11.558  10.446  68.309  1.00  0.00    -0.021 C  
ENDROOT
BRANCH   6   9
HETATM    9  C   UNL     1     -10.128  12.617  66.697  1.00  0.00    -0.241 C  
HETATM   10  C   UNL     1      -8.604  12.240  66.639  1.00  0.00    -0.099 C  
HETATM   11  C   UNL     1      -7.719  13.182  67.467  1.00  0.00    -0.168 A  
HETATM   12  C   UNL     1      -8.067  12.050  65.155  1.00  0.00     1.762 C  
HETATM   13  O   UNL     1      -8.518  10.940  67.289  1.00  0.00    -0.124 OA 
HETATM   14  C   UNL     1      -6.524  12.717  68.049  1.00  0.00    -0.093 A  
HETATM   15  C   UNL     1      -8.851  11.050  64.260  1.00  0.00     0.016 C  
HETATM   16  H   UNL     1      -7.597  10.712  67.254  1.00  0.00     0.000 HD 
HETATM   17  C   UNL     1     -10.075  11.612  63.534  1.00  0.00    -0.455 C  
HETATM   18  C   UNL     1      -5.765  13.524  68.906  1.00  0.00    -0.074 A  
HETATM   19  C   UNL     1      -9.815  12.938  62.834  1.00  0.00     2.901 C  
HETATM   20  C   UNL     1      -6.182  14.819  69.193  1.00  0.00    -0.105 A  
HETATM   21  C   UNL     1      -9.041  13.941  63.679  1.00  0.00     7.074 C  
HETATM   22  C   UNL     1      -7.323  15.325  68.581  1.00  0.00    -0.120 A  
HETATM   23  C   UNL     1      -8.075  14.520  67.717  1.00  0.00    -0.166 A  
HETATM   24  C   UNL     1      -7.807  13.330  64.335  1.00  0.00     9.920 C  
ENDBRANCH   6   9
TORSDOF 1
ENDMDL
MODEL      182
REMARK 921   NORMALIZED FREE ENERGY PREDICTED BY IDOCK:   23.01 KCAL/MOL
REMARK 922        TOTAL FREE ENERGY PREDICTED BY IDOCK:   23.96 KCAL/MOL
REMARK 923 INTER-LIGAND FREE ENERGY PREDICTED BY IDOCK:    9.88 KCAL/MOL
REMARK 924 INTRA-LIGAND FREE ENERGY PREDICTED BY IDOCK:   14.09 KCAL/MOL
REMARK 927      BINDING AFFINITY PREDICTED BY RF-SCORE:    0.00 PKD
ROOT
HETATM    1  C   UNL     1      -8.806  11.775  66.749  1.00  0.00    -0.191 C  
HETATM    2  N   UNL     1      -9.797  12.436  67.702  1.00  0.00    -0.194 N  
HETATM    3  C   UNL     1     -11.074  11.602  67.737  1.00  0.00    -0.249 C  
HETATM    4  C   UNL     1      -9.157  12.473  69.123  1.00  0.00     0.701 C  
HETATM    5  C   UNL     1      -9.833  13.505  70.050  1.00  0.00     2.180 C  
HETATM    6  N   UNL     1      -9.898  14.862  69.484  1.00  0.00    -0.117 NA 
HETATM    7  C   UNL     1     -10.686  14.804  68.237  1.00  0.00    -0.242 C  
HETATM    8  C   UNL     1     -10.111  13.857  67.160  1.00  0.00    -0.252 C  
ENDROOT
BRANCH   6   9
HETATM    9  C   UNL     1      -8.563  15.486  69.235  1.00  0.00    -0.263 C  
HETATM   10  C   UNL     1      -7.385  14.662  68.603  1.00  0.00    -0.125 C  
HETATM   11  C   UNL     1      -7.148  13.316  69.302  1.00  0.00     0.074 A  
HETATM   12  C   UNL     1      -6.050  15.509  68.444  1.00  0.00    -0.105 C  
HETATM   13  O   UNL     1      -7.841  14.336  67.259  1.00  0.00    -0.225 OA 
HETATM   14  C   UNL     1      -6.636  12.217  68.588  1.00  0.00    -0.077 A  
HETATM   15  C   UNL     1      -6.173  16.854  67.674  1.00  0.00    -0.171 C  
HETATM   16  H   UNL     1      -7.129  13.837  66.876  1.00  0.00     0.000 HD 
HETATM   17  C   UNL     1      -6.608  18.066  68.502  1.00  0.00    -0.217 C  
HETATM   18  C   UNL     1      -6.525  10.950  69.175  1.00  0.00    -0.063 A  
HETATM   19  C   UNL     1      -5.852  18.213  69.814  1.00  0.00    -0.241 C  
HETATM   20  C   UNL     1      -6.917  10.758  70.496  1.00  0.00     0.483 A  
HETATM   21  C   UNL     1      -5.705  16.912  70.592  1.00  0.00     0.057 C  
HETATM   22  C   UNL     1      -7.366  11.841  71.243  1.00  0.00     5.806 A  
HETATM   23  C   UNL     1      -7.467  13.108  70.657  1.00  0.00     3.416 A  
HETATM   24  C   UNL     1      -5.222  15.757  69.722  1.00  0.00    -0.111 C  
ENDBRANCH   6   9
TORSDOF 1
ENDMDL
MODEL      183
REMARK 921   NORMALIZED FREE ENERGY PREDICTED BY IDOCK:   24.09 KCAL/MOL
REMARK 922        TOTAL FREE ENERGY PREDICTED BY IDOCK:   25.11 KCAL/MOL
REMARK 923 INTER-LIGAND FREE ENERGY PREDICTED BY IDOCK:   12.84 KCAL/MOL
REMARK 924 INTRA-LIGAND FREE ENERGY PREDICTED BY IDOCK:   12.27 KCAL/MOL
REMARK 927      BINDING AFFINITY PREDICTED BY RF-SCORE:    0.00 PKD
ROOT
HETATM    1  C   UNL     1     -11.091  14.777  65.691  1.00  0.00    -0.342 C  
HETATM    2  N   UNL     1      -9.821  15.055  66.490  1.00  0.00    -0.248 N  
HETATM    3  C   UNL     1     -10.097  16.196  67.466  1.00  0.00    -0.256 C  
HETATM    4  C   UNL     1      -9.452  13.765  67.283  1.00  0.00    -0.236 C  
HETATM    5  C   UNL     1      -7.980  13.756  67.745  1.00  0.00    -0.169 C  
HETATM    6  N   UNL     1      -7.013  13.981  66.658  1.00  0.00     0.978 NA 
HETATM    7  C   UNL     1      -7.284  15.307  66.069  1.00  0.00     3.368 C  
HETATM    8  C   UNL     1      -8.708  15.473  65.493  1.00  0.00     1.147 C  
ENDROOT
BRANCH   6   9
HETATM    9  C   UNL     1      -7.021  12.924  65.602  1.00  0.00     5.287 C  
HETATM   10  C   UNL     1      -8.361  12.253  65.133  1.00  0.00     1.857 C  
HETATM   11  C   UNL     1      -9.226  11.755  66.299  1.00  0.00    -0.227 A  
HETATM   12  C   UNL     1      -8.142  11.141  64.019  1.00  0.00     0.592 C  
HETATM   13  O   UNL     1      -9.117  13.332  64.511  1.00  0.00     0.531 OA 
HETATM   14  C   UNL     1     -10.629  11.713  66.186  1.00  0.00    -0.306 A  
HETATM   15  C   UNL     1      -7.346  11.575  62.757  1.00  0.00     1.013 C  
HETATM   16  H   UNL     1      -9.928  12.927  64.227  1.00  0.00     0.000 HD 
HETATM   17  C   UNL     1      -5.822  11.490  62.860  1.00  0.00     1.077 C  
HETATM   18  C   UNL     1     -11.441  11.376  67.276  1.00  0.00    -0.301 A  
HETATM   19  C   UNL     1      -5.321  10.175  63.440  1.00  0.00    -0.117 C  
HETATM   20  C   UNL     1     -10.865  11.066  68.503  1.00  0.00    -0.254 A  
HETATM   21  C   UNL     1      -6.085   9.714  64.674  1.00  0.00    -0.087 C  
HETATM   22  C   UNL     1      -9.481  11.037  68.625  1.00  0.00    -0.197 A  
HETATM   23  C   UNL     1      -8.671  11.364  67.532  1.00  0.00    -0.140 A  
HETATM   24  C   UNL     1      -7.596   9.777  64.489  1.00  0.00    -0.134 C  
ENDBRANCH   6   9
TORSDOF 1
ENDMDL
MODEL      184
REMARK 921   NORMALIZED FREE ENERGY PREDICTED BY IDOCK:   26.06 KCAL/MOL
REMARK 922        TOTAL FREE ENERGY PREDICTED BY IDOCK:   27.19 KCAL/MOL
REMARK 923 INTER-LIGAND FREE ENERGY PREDICTED BY IDOCK:   16.02 KCAL/MOL
REMARK 924 INTRA-LIGAND FREE ENERGY PREDICTED BY IDOCK:   11.18 KCAL/MOL
REMARK 927      BINDING AFFINITY PREDICTED BY RF-SCORE:    0.00 PKD
ROOT
HETATM    1  C   UNL     1     -11.795  14.862  66.185  1.00  0.00    -0.112 C  
HETATM    2  N   UNL     1     -11.136  15.451  67.429  1.00  0.00    -0.324 N  
HETATM    3  C   UNL     1     -11.278  16.970  67.386  1.00  0.00     0.194 C  
HETATM    4  C   UNL     1     -11.874  14.892  68.683  1.00  0.00    -0.300 C  
HETATM    5  C   UNL     1     -11.038  15.030  69.973  1.00  0.00    -0.263 C  
HETATM    6  N   UNL     1      -9.689  14.448  69.872  1.00  0.00     0.566 NA 
HETATM    7  C   UNL     1      -8.964  15.152  68.797  1.00  0.00    -0.197 C  
HETATM    8  C   UNL     1      -9.634  15.062  67.408  1.00  0.00    -0.205 C  
ENDROOT
BRANCH   6   9
HETATM    9  C   UNL     1      -9.674  12.972  69.641  1.00  0.00     1.616 C  
HETATM   10  C   UNL     1      -8.451  12.271  68.949  1.00  0.00     0.242 C  
HETATM   11  C   UNL     1      -8.027  12.952  67.641  1.00  0.00    -0.167 A  
HETATM   12  C   UNL     1      -8.648  10.702  68.783  1.00  0.00    -0.150 C  
HETATM   13  O   UNL     1      -7.342  12.462  69.874  1.00  0.00     0.021 OA 
HETATM   14  C   UNL     1      -6.686  12.914  67.214  1.00  0.00    -0.056 A  
HETATM   15  C   UNL     1      -8.999   9.910  70.073  1.00  0.00    -0.206 C  
HETATM   16  H   UNL     1      -6.602  12.038  69.455  1.00  0.00     0.000 HD 
HETATM   17  C   UNL     1     -10.482   9.856  70.447  1.00  0.00    -0.347 C  
HETATM   18  C   UNL     1      -6.257  13.629  66.088  1.00  0.00     5.178 A  
HETATM   19  C   UNL     1     -11.394   9.504  69.282  1.00  0.00     0.058 C  
HETATM   20  C   UNL     1      -7.163  14.392  65.360  1.00  0.00     9.434 A  
HETATM   21  C   UNL     1     -11.074  10.256  67.997  1.00  0.00    -0.336 C  
HETATM   22  C   UNL     1      -8.505  14.394  65.722  1.00  0.00     1.771 A  
HETATM   23  C   UNL     1      -8.935  13.672  66.841  1.00  0.00    -0.229 A  
HETATM   24  C   UNL     1      -9.588  10.231  67.655  1.00  0.00    -0.173 C  
ENDBRANCH   6   9
TORSDOF 1
ENDMDL
MODEL      185
REMARK 921   NORMALIZED FREE ENERGY PREDICTED BY IDOCK:   27.27 KCAL/MOL
REMARK 922        TOTAL FREE ENERGY PREDICTED BY IDOCK:   28.47 KCAL/MOL
REMARK 923 INTER-LIGAND FREE ENERGY PREDICTED BY IDOCK:   28.57 KCAL/MOL
REMARK 924 INTRA-LIGAND FREE ENERGY PREDICTED BY IDOCK:   -0.10 KCAL/MOL
REMARK 927      BINDING AFFINITY PREDICTED BY RF-SCORE:    0.00 PKD
ROOT
HETATM    1  C   UNL     1      -7.052  19.685  71.664  1.00  0.00     1.580 C  
HETATM    2  N   UNL     1      -8.283  20.157  70.896  1.00  0.00     1.466 N  
HETATM    3  C   UNL     1      -9.195  20.919  71.854  1.00  0.00     2.776 C  
HETATM    4  C   UNL     1      -7.811  21.109  69.756  1.00  0.00     3.910 C  
HETATM    5  C   UNL     1      -8.871  21.278  68.648  1.00  0.00     2.019 C  
HETATM    6  N   UNL     1      -9.351  20.005  68.085  1.00  0.00    -0.295 NA 
HETATM    7  C   UNL     1      -9.969  19.224  69.174  1.00  0.00    -0.307 C  
HETATM    8  C   UNL     1      -9.020  18.905  70.351  1.00  0.00     2.419 C  
ENDROOT
BRANCH   6   9
HETATM    9  C   UNL     1      -8.296  19.204  67.394  1.00  0.00    -0.281 C  
HETATM   10  C   UNL     1      -8.487  18.713  65.914  1.00  0.00     0.150 C  
HETATM   11  C   UNL     1      -9.833  18.013  65.680  1.00  0.00     0.324 A  
HETATM   12  C   UNL     1      -7.256  17.862  65.378  1.00  0.00     0.452 C  
HETATM   13  O   UNL     1      -8.533  19.935  65.122  1.00  0.00    -0.047 OA 
HETATM   14  C   UNL     1     -10.457  18.061  64.419  1.00  0.00     4.286 A  
HETATM   15  C   UNL     1      -5.856  18.523  65.496  1.00  0.00    -0.256 C  
HETATM   16  H   UNL     1      -8.648  19.638  64.227  1.00  0.00     0.000 HD 
HETATM   17  C   UNL     1      -5.139  18.348  66.837  1.00  0.00    -0.140 C  
HETATM   18  C   UNL     1     -11.739  17.532  64.217  1.00  0.00     3.501 A  
HETATM   19  C   UNL     1      -5.151  16.917  67.355  1.00  0.00    -0.150 C  
HETATM   20  C   UNL     1     -12.420  16.936  65.272  1.00  0.00     4.425 A  
HETATM   21  C   UNL     1      -6.508  16.234  67.247  1.00  0.00    -0.223 C  
HETATM   22  C   UNL     1     -11.801  16.819  66.511  1.00  0.00     1.908 A  
HETATM   23  C   UNL     1     -10.517  17.338  66.709  1.00  0.00    -0.261 A  
HETATM   24  C   UNL     1      -7.146  16.405  65.873  1.00  0.00     1.315 C  
ENDBRANCH   6   9
TORSDOF 1
ENDMDL
MODEL      186
REMARK 921   NORMALIZED FREE ENERGY PREDICTED BY IDOCK:   31.05 KCAL/MOL
REMARK 922        TOTAL FREE ENERGY PREDICTED BY IDOCK:   32.47 KCAL/MOL
REMARK 923 INTER-LIGAND FREE ENERGY PREDICTED BY IDOCK:   26.62 KCAL/MOL
REMARK 924 INTRA-LIGAND FREE ENERGY PREDICTED BY IDOCK:    5.85 KCAL/MOL
REMARK 927      BINDING AFFINITY PREDICTED BY RF-SCORE:    0.00 PKD
ROOT
HETATM    1  C   UNL     1     -14.214  16.572  71.399  1.00  0.00     4.003 C  
HETATM    2  N   UNL     1     -12.755  16.361  71.793  1.00  0.00     0.187 N  
HETATM    3  C   UNL     1     -12.644  16.419  73.314  1.00  0.00    -0.349 C  
HETATM    4  C   UNL     1     -12.312  14.953  71.290  1.00  0.00    -0.322 C  
HETATM    5  C   UNL     1     -10.778  14.809  71.207  1.00  0.00     0.686 C  
HETATM    6  N   UNL     1     -10.123  15.863  70.416  1.00  0.00     0.108 NA 
HETATM    7  C   UNL     1     -10.412  17.163  71.052  1.00  0.00     1.978 C  
HETATM    8  C   UNL     1     -11.916  17.503  71.160  1.00  0.00     4.329 C  
ENDROOT
BRANCH   6   9
HETATM    9  C   UNL     1     -10.518  15.882  68.975  1.00  0.00    -0.234 C  
HETATM   10  C   UNL     1     -10.024  17.021  68.012  1.00  0.00    -0.283 C  
HETATM   11  C   UNL     1     -10.255  18.429  68.577  1.00  0.00    -0.394 A  
HETATM   12  C   UNL     1     -10.575  16.862  66.529  1.00  0.00    -0.185 C  
HETATM   13  O   UNL     1      -8.579  16.851  67.947  1.00  0.00    -0.201 OA 
HETATM   14  C   UNL     1      -9.394  19.490  68.234  1.00  0.00    -0.420 A  
HETATM   15  C   UNL     1     -10.316  15.494  65.840  1.00  0.00    -0.365 C  
HETATM   16  H   UNL     1      -8.281  17.540  67.365  1.00  0.00     0.000 HD 
HETATM   17  C   UNL     1     -11.338  14.392  66.126  1.00  0.00    -0.350 C  
HETATM   18  C   UNL     1      -9.515  20.751  68.831  1.00  0.00     0.901 A  
HETATM   19  C   UNL     1     -12.783  14.848  65.989  1.00  0.00     0.519 C  
HETATM   20  C   UNL     1     -10.506  20.981  69.779  1.00  0.00     1.089 A  
HETATM   21  C   UNL     1     -13.072  16.191  66.647  1.00  0.00     4.931 C  
HETATM   22  C   UNL     1     -11.409  19.970  70.088  1.00  0.00     3.911 A  
HETATM   23  C   UNL     1     -11.293  18.714  69.484  1.00  0.00     3.434 A  
HETATM   24  C   UNL     1     -12.045  17.257  66.283  1.00  0.00     3.646 C  
ENDBRANCH   6   9
TORSDOF 1
ENDMDL
MODEL      187
REMARK 921   NORMALIZED FREE ENERGY PREDICTED BY IDOCK:   38.61 KCAL/MOL
REMARK 922        TOTAL FREE ENERGY PREDICTED BY IDOCK:   40.47 KCAL/MOL
REMARK 923 INTER-LIGAND FREE ENERGY PREDICTED BY IDOCK:   -2.78 KCAL/MOL
REMARK 924 INTRA-LIGAND FREE ENERGY PREDICTED BY IDOCK:   43.25 KCAL/MOL
REMARK 927      BINDING AFFINITY PREDICTED BY RF-SCORE:    0.00 PKD
ROOT
HETATM    1  C   UNL     1      -8.399   7.300  66.359  1.00  0.00    -0.124 C  
HETATM    2  N   UNL     1      -9.246   8.420  66.957  1.00  0.00    -0.145 N  
HETATM    3  C   UNL     1      -9.682   9.357  65.834  1.00  0.00    -0.285 C  
HETATM    4  C   UNL     1     -10.503   7.779  67.620  1.00  0.00    -0.239 C  
HETATM    5  C   UNL     1     -11.180   8.721  68.638  1.00  0.00     0.453 C  
HETATM    6  N   UNL     1     -10.265   9.239  69.669  1.00  0.00    -0.198 NA 
HETATM    7  C   UNL     1      -9.200  10.007  68.996  1.00  0.00    -0.178 C  
HETATM    8  C   UNL     1      -8.370   9.193  67.978  1.00  0.00    -0.120 C  
ENDROOT
BRANCH   6   9
HETATM    9  C   UNL     1      -9.679   8.186  70.553  1.00  0.00    -0.174 C  
HETATM   10  C   UNL     1      -8.308   7.503  70.204  1.00  0.00    -0.134 C  
HETATM   11  C   UNL     1      -8.242   6.989  68.759  1.00  0.00    -0.122 A  
HETATM   12  C   UNL     1      -7.877   6.398  71.263  1.00  0.00    -0.104 C  
HETATM   13  O   UNL     1      -7.327   8.576  70.289  1.00  0.00    -0.048 OA 
HETATM   14  C   UNL     1      -7.014   6.932  68.073  1.00  0.00    -0.083 A  
HETATM   15  C   UNL     1      -7.834   6.848  72.750  1.00  0.00    -0.099 C  
HETATM   16  H   UNL     1      -6.498   8.163  70.078  1.00  0.00     0.000 HD 
HETATM   17  C   UNL     1      -9.159   6.779  73.513  1.00  0.00    -0.158 C  
HETATM   18  C   UNL     1      -6.948   6.581  66.719  1.00  0.00    -0.067 A  
HETATM   19  C   UNL     1      -9.906   5.467  73.323  1.00  0.00    -0.176 C  
HETATM   20  C   UNL     1      -8.111   6.271  66.022  1.00  0.00    -0.119 A  
HETATM   21  C   UNL     1      -9.961   4.991  71.877  1.00  0.00    -0.245 C  
HETATM   22  C   UNL     1      -9.329   6.258  66.692  1.00  0.00    -0.167 A  
HETATM   23  C   UNL     1      -9.392   6.598  68.047  1.00  0.00    -0.113 A  
HETATM   24  C   UNL     1      -8.602   5.039  71.189  1.00  0.00    -0.131 C  
ENDBRANCH   6   9
TORSDOF 1
ENDMDL
MODEL      188
REMARK 921   NORMALIZED FREE ENERGY PREDICTED BY IDOCK:   39.02 KCAL/MOL
REMARK 922        TOTAL FREE ENERGY PREDICTED BY IDOCK:   40.91 KCAL/MOL
REMARK 923 INTER-LIGAND FREE ENERGY PREDICTED BY IDOCK:    6.13 KCAL/MOL
REMARK 924 INTRA-LIGAND FREE ENERGY PREDICTED BY IDOCK:   34.78 KCAL/MOL
REMARK 927      BINDING AFFINITY PREDICTED BY RF-SCORE:    0.00 PKD
ROOT
HETATM    1  C   UNL     1     -10.522   8.698  72.583  1.00  0.00    -0.035 C  
HETATM    2  N   UNL     1      -9.259   8.900  71.750  1.00  0.00    -0.257 N  
HETATM    3  C   UNL     1      -8.858  10.371  71.817  1.00  0.00     5.750 C  
HETATM    4  C   UNL     1      -8.126   8.020  72.359  1.00  0.00    -0.131 C  
HETATM    5  C   UNL     1      -6.970   7.774  71.368  1.00  0.00    -0.053 C  
HETATM    6  N   UNL     1      -7.403   7.224  70.073  1.00  0.00    -0.081 NA 
HETATM    7  C   UNL     1      -8.324   8.192  69.447  1.00  0.00    -0.123 C  
HETATM    8  C   UNL     1      -9.584   8.510  70.283  1.00  0.00    -0.167 C  
ENDROOT
BRANCH   6   9
HETATM    9  C   UNL     1      -8.037   5.874  70.162  1.00  0.00    -0.110 C  
HETATM   10  C   UNL     1      -9.509   5.700  70.680  1.00  0.00    -0.164 C  
HETATM   11  C   UNL     1      -9.771   6.427  72.006  1.00  0.00    -0.160 A  
HETATM   12  C   UNL     1      -9.980   4.182  70.714  1.00  0.00    -0.192 C  
HETATM   13  O   UNL     1     -10.334   6.376  69.688  1.00  0.00    -0.182 OA 
HETATM   14  C   UNL     1     -11.053   6.919  72.314  1.00  0.00    -0.284 A  
HETATM   15  C   UNL     1      -9.832   3.383  69.389  1.00  0.00     0.159 C  
HETATM   16  H   UNL     1     -11.224   6.271  70.001  1.00  0.00     0.000 HD 
HETATM   17  C   UNL     1      -8.463   2.746  69.137  1.00  0.00    -0.098 C  
HETATM   18  C   UNL     1     -11.285   7.688  73.462  1.00  0.00     0.324 A  
HETATM   19  C   UNL     1      -7.910   1.992  70.337  1.00  0.00    -0.047 C  
HETATM   20  C   UNL     1     -10.239   7.973  74.332  1.00  0.00     2.644 A  
HETATM   21  C   UNL     1      -8.046   2.742  71.655  1.00  0.00    -0.057 C  
HETATM   22  C   UNL     1      -8.978   7.445  74.085  1.00  0.00    -0.270 A  
HETATM   23  C   UNL     1      -8.749   6.669  72.944  1.00  0.00    -0.129 A  
HETATM   24  C   UNL     1      -9.445   3.309  71.868  1.00  0.00    -0.210 C  
ENDBRANCH   6   9
TORSDOF 1
ENDMDL
MODEL      189
REMARK 921   NORMALIZED FREE ENERGY PREDICTED BY IDOCK:   40.05 KCAL/MOL
REMARK 922        TOTAL FREE ENERGY PREDICTED BY IDOCK:   42.00 KCAL/MOL
REMARK 923 INTER-LIGAND FREE ENERGY PREDICTED BY IDOCK:   42.03 KCAL/MOL
REMARK 924 INTRA-LIGAND FREE ENERGY PREDICTED BY IDOCK:   -0.03 KCAL/MOL
REMARK 927      BINDING AFFINITY PREDICTED BY RF-SCORE:    0.00 PKD
ROOT
HETATM    1  C   UNL     1      -7.065  19.544  71.887  1.00  0.00     2.079 C  
HETATM    2  N   UNL     1      -8.542  19.689  72.240  1.00  0.00     3.708 N  
HETATM    3  C   UNL     1      -8.713  20.911  73.138  1.00  0.00     5.895 C  
HETATM    4  C   UNL     1      -9.342  19.897  70.918  1.00  0.00     1.926 C  
HETATM    5  C   UNL     1     -10.846  19.594  71.082  1.00  0.00     3.873 C  
HETATM    6  N   UNL     1     -11.127  18.264  71.647  1.00  0.00     2.638 NA 
HETATM    7  C   UNL     1     -10.512  18.192  72.987  1.00  0.00     4.485 C  
HETATM    8  C   UNL     1      -8.983  18.411  73.001  1.00  0.00    11.549 C  
ENDROOT
BRANCH   6   9
HETATM    9  C   UNL     1     -10.667  17.126  70.794  1.00  0.00     1.112 C  
HETATM   10  C   UNL     1     -11.637  15.951  70.415  1.00  0.00    -0.371 C  
HETATM   11  C   UNL     1     -12.370  15.359  71.627  1.00  0.00    -0.444 A  
HETATM   12  C   UNL     1     -10.942  14.837  69.519  1.00  0.00    -0.287 C  
HETATM   13  O   UNL     1     -12.668  16.571  69.593  1.00  0.00    -0.047 OA 
HETATM   14  C   UNL     1     -13.651  14.793  71.485  1.00  0.00    -0.495 A  
HETATM   15  C   UNL     1     -10.243  15.330  68.222  1.00  0.00    -0.226 C  
HETATM   16  H   UNL     1     -13.255  15.860  69.363  1.00  0.00     0.000 HD 
HETATM   17  C   UNL     1      -8.802  15.821  68.379  1.00  0.00    -0.185 C  
HETATM   18  C   UNL     1     -14.384  14.357  72.596  1.00  0.00     0.045 A  
HETATM   19  C   UNL     1      -7.922  14.885  69.194  1.00  0.00    -0.165 C  
HETATM   20  C   UNL     1     -13.847  14.470  73.874  1.00  0.00     3.509 A  
HETATM   21  C   UNL     1      -8.579  14.374  70.470  1.00  0.00     2.363 C  
HETATM   22  C   UNL     1     -12.558  14.965  74.035  1.00  0.00    -0.440 A  
HETATM   23  C   UNL     1     -11.823  15.391  72.923  1.00  0.00    -0.547 A  
HETATM   24  C   UNL     1      -9.993  13.854  70.237  1.00  0.00     2.050 C  
ENDBRANCH   6   9
TORSDOF 1
ENDMDL
MODEL      190
REMARK 921   NORMALIZED FREE ENERGY PREDICTED BY IDOCK:   54.95 KCAL/MOL
REMARK 922        TOTAL FREE ENERGY PREDICTED BY IDOCK:   57.77 KCAL/MOL
REMARK 923 INTER-LIGAND FREE ENERGY PREDICTED BY IDOCK:   41.28 KCAL/MOL
REMARK 924 INTRA-LIGAND FREE ENERGY PREDICTED BY IDOCK:   16.49 KCAL/MOL
REMARK 927      BINDING AFFINITY PREDICTED BY RF-SCORE:    0.00 PKD
ROOT
HETATM    1  C   UNL     1     -11.156   5.275  64.831  1.00  0.00     1.595 C  
HETATM    2  N   UNL     1     -11.367   5.125  66.335  1.00  0.00     0.567 N  
HETATM    3  C   UNL     1     -12.672   4.370  66.574  1.00  0.00    13.176 C  
HETATM    4  C   UNL     1     -10.175   4.305  66.915  1.00  0.00     0.074 C  
HETATM    5  C   UNL     1     -10.023   4.480  68.441  1.00  0.00    -0.033 C  
HETATM    6  N   UNL     1      -9.936   5.884  68.873  1.00  0.00    -0.146 NA 
HETATM    7  C   UNL     1     -11.180   6.568  68.471  1.00  0.00    -0.197 C  
HETATM    8  C   UNL     1     -11.460   6.546  66.952  1.00  0.00     0.378 C  
ENDROOT
BRANCH   6   9
HETATM    9  C   UNL     1      -8.741   6.613  68.351  1.00  0.00    -0.122 C  
HETATM   10  C   UNL     1      -8.825   8.129  67.949  1.00  0.00    -0.131 C  
HETATM   11  C   UNL     1     -10.006   8.441  67.018  1.00  0.00    -0.323 A  
HETATM   12  C   UNL     1      -7.449   8.704  67.399  1.00  0.00    -0.089 C  
HETATM   13  O   UNL     1      -9.108   8.828  69.195  1.00  0.00    -0.140 OA 
HETATM   14  C   UNL     1     -10.622   9.706  67.040  1.00  0.00    -0.267 A  
HETATM   15  C   UNL     1      -6.206   8.510  68.312  1.00  0.00    -0.051 C  
HETATM   16  H   UNL     1      -9.159   9.745  68.952  1.00  0.00     0.000 HD 
HETATM   17  C   UNL     1      -5.474   7.172  68.178  1.00  0.00    -0.021 C  
HETATM   18  C   UNL     1     -11.773   9.972  66.287  1.00  0.00     2.765 A  
HETATM   19  C   UNL     1      -5.207   6.764  66.737  1.00  0.00    -0.017 C  
HETATM   20  C   UNL     1     -12.328   8.978  65.489  1.00  0.00    13.348 A  
HETATM   21  C   UNL     1      -6.402   6.949  65.810  1.00  0.00    -0.046 C  
HETATM   22  C   UNL     1     -11.702   7.740  65.400  1.00  0.00     9.970 A  
HETATM   23  C   UNL     1     -10.547   7.479  66.144  1.00  0.00     1.058 A  
HETATM   24  C   UNL     1      -7.055   8.318  65.958  1.00  0.00    -0.069 C  
ENDBRANCH   6   9
TORSDOF 1
ENDMDL
