MODEL        1
REMARK 921   NORMALIZED FREE ENERGY PREDICTED BY IDOCK:   -5.56 KCAL/MOL
REMARK 922        TOTAL FREE ENERGY PREDICTED BY IDOCK:   -7.59 KCAL/MOL
REMARK 923 INTER-LIGAND FREE ENERGY PREDICTED BY IDOCK:   -7.19 KCAL/MOL
REMARK 924 INTRA-LIGAND FREE ENERGY PREDICTED BY IDOCK:   -0.41 KCAL/MOL
REMARK 927      BINDING AFFINITY PREDICTED BY RF-SCORE:    0.00 PKD
ROOT
HETATM    1  C   UNL     1     -13.471  13.728  72.232  1.00  0.00    -0.638 C  
HETATM    2  C   UNL     1     -12.548  13.300  71.101  1.00  0.00    -0.412 C  
ENDROOT
BRANCH   2   3
HETATM    3  C   UNL     1     -12.490  11.778  70.981  1.00  0.00    -0.411 C  
BRANCH   3   4
HETATM    4  C   UNL     1     -11.741  11.337  69.722  1.00  0.00    -0.422 C  
BRANCH   4   5
HETATM    5  C   UNL     1     -11.481  12.525  68.795  1.00  0.00    -0.353 C  
BRANCH   5   6
HETATM    6  C   UNL     1     -11.567  12.117  67.324  1.00  0.00    -0.404 C  
BRANCH   6   7
HETATM    7  C   UNL     1     -11.520  13.315  66.405  1.00  0.00    -0.364 A  
HETATM    8  C   UNL     1     -12.336  13.448  65.273  1.00  0.00    -0.469 A  
HETATM    9  C   UNL     1     -12.283  14.590  64.473  1.00  0.00    -0.483 A  
HETATM   10  O   UNL     1     -13.220  12.485  64.874  1.00  0.00    -0.787 OA 
HETATM   11  H   UNL     1     -13.772  12.576  64.108  1.00  0.00     0.000 HD 
HETATM   12  C   UNL     1     -11.384  15.602  64.787  1.00  0.00    -0.343 A  
HETATM   13  C   UNL     1     -10.542  15.486  65.884  1.00  0.00    -0.350 A  
HETATM   14  O   UNL     1     -11.293  16.733  64.030  1.00  0.00    -1.471 OA 
HETATM   15  H   UNL     1     -10.678  17.424  64.245  1.00  0.00     0.000 HD 
HETATM   16  C   UNL     1     -10.610  14.348  66.691  1.00  0.00    -0.282 A  
ENDBRANCH   6   7
ENDBRANCH   5   6
ENDBRANCH   4   5
ENDBRANCH   3   4
ENDBRANCH   2   3
TORSDOF 5
ENDMDL
MODEL        2
REMARK 921   NORMALIZED FREE ENERGY PREDICTED BY IDOCK:   -5.38 KCAL/MOL
REMARK 922        TOTAL FREE ENERGY PREDICTED BY IDOCK:   -7.36 KCAL/MOL
REMARK 923 INTER-LIGAND FREE ENERGY PREDICTED BY IDOCK:   -7.04 KCAL/MOL
REMARK 924 INTRA-LIGAND FREE ENERGY PREDICTED BY IDOCK:   -0.32 KCAL/MOL
REMARK 927      BINDING AFFINITY PREDICTED BY RF-SCORE:    0.00 PKD
ROOT
HETATM    1  C   UNL     1     -13.050   9.791  71.809  1.00  0.00    -0.528 C  
HETATM    2  C   UNL     1     -11.573   9.780  71.447  1.00  0.00    -0.452 C  
ENDROOT
BRANCH   2   3
HETATM    3  C   UNL     1     -11.341  10.358  70.052  1.00  0.00    -0.384 C  
BRANCH   3   4
HETATM    4  C   UNL     1     -11.985  11.736  69.894  1.00  0.00    -0.405 C  
BRANCH   4   5
HETATM    5  C   UNL     1     -11.258  12.562  68.832  1.00  0.00    -0.330 C  
BRANCH   5   6
HETATM    6  C   UNL     1     -11.610  12.095  67.420  1.00  0.00    -0.410 C  
BRANCH   6   7
HETATM    7  C   UNL     1     -11.590  13.236  66.430  1.00  0.00    -0.387 A  
HETATM    8  C   UNL     1     -12.296  13.215  65.219  1.00  0.00    -0.481 A  
HETATM    9  C   UNL     1     -12.277  14.307  64.351  1.00  0.00    -0.471 A  
HETATM   10  O   UNL     1     -13.035  12.143  64.805  1.00  0.00    -0.598 OA 
HETATM   11  H   UNL     1     -13.514  12.130  63.985  1.00  0.00     0.000 HD 
HETATM   12  C   UNL     1     -11.519  15.426  64.679  1.00  0.00    -0.337 A  
HETATM   13  C   UNL     1     -10.785  15.463  65.856  1.00  0.00    -0.343 A  
HETATM   14  O   UNL     1     -11.464  16.513  63.858  1.00  0.00    -1.608 OA 
HETATM   15  H   UNL     1     -10.947  17.277  64.082  1.00  0.00     0.000 HD 
HETATM   16  C   UNL     1     -10.821  14.374  66.729  1.00  0.00    -0.301 A  
ENDBRANCH   6   7
ENDBRANCH   5   6
ENDBRANCH   4   5
ENDBRANCH   3   4
ENDBRANCH   2   3
TORSDOF 5
ENDMDL
MODEL        3
REMARK 921   NORMALIZED FREE ENERGY PREDICTED BY IDOCK:   -5.38 KCAL/MOL
REMARK 922        TOTAL FREE ENERGY PREDICTED BY IDOCK:   -7.35 KCAL/MOL
REMARK 923 INTER-LIGAND FREE ENERGY PREDICTED BY IDOCK:   -6.79 KCAL/MOL
REMARK 924 INTRA-LIGAND FREE ENERGY PREDICTED BY IDOCK:   -0.57 KCAL/MOL
REMARK 927      BINDING AFFINITY PREDICTED BY RF-SCORE:    0.00 PKD
ROOT
HETATM    1  C   UNL     1      -9.429  20.058  66.887  1.00  0.00    -0.529 C  
HETATM    2  C   UNL     1      -9.022  19.216  68.087  1.00  0.00    -0.365 C  
ENDROOT
BRANCH   2   3
HETATM    3  C   UNL     1     -10.235  18.543  68.727  1.00  0.00    -0.326 C  
BRANCH   3   4
HETATM    4  C   UNL     1     -10.647  17.279  67.971  1.00  0.00    -0.394 C  
BRANCH   4   5
HETATM    5  C   UNL     1      -9.429  16.414  67.645  1.00  0.00    -0.225 C  
BRANCH   5   6
HETATM    6  C   UNL     1      -9.336  16.118  66.148  1.00  0.00    -0.372 C  
BRANCH   6   7
HETATM    7  C   UNL     1     -10.415  15.162  65.696  1.00  0.00    -0.378 A  
HETATM    8  C   UNL     1     -11.317  15.453  64.663  1.00  0.00    -0.355 A  
HETATM    9  C   UNL     1     -12.275  14.524  64.256  1.00  0.00    -0.441 A  
HETATM   10  O   UNL     1     -11.329  16.647  63.998  1.00  0.00    -1.486 OA 
HETATM   11  H   UNL     1     -11.939  16.843  63.298  1.00  0.00     0.000 HD 
HETATM   12  C   UNL     1     -12.356  13.298  64.906  1.00  0.00    -0.425 A  
HETATM   13  C   UNL     1     -11.497  12.994  65.951  1.00  0.00    -0.374 A  
HETATM   14  O   UNL     1     -13.281  12.363  64.546  1.00  0.00    -0.834 OA 
HETATM   15  H   UNL     1     -13.337  11.525  64.990  1.00  0.00     0.000 HD 
HETATM   16  C   UNL     1     -10.529  13.920  66.345  1.00  0.00    -0.284 A  
ENDBRANCH   6   7
ENDBRANCH   5   6
ENDBRANCH   4   5
ENDBRANCH   3   4
ENDBRANCH   2   3
TORSDOF 5
ENDMDL
MODEL        4
REMARK 921   NORMALIZED FREE ENERGY PREDICTED BY IDOCK:   -5.32 KCAL/MOL
REMARK 922        TOTAL FREE ENERGY PREDICTED BY IDOCK:   -7.27 KCAL/MOL
REMARK 923 INTER-LIGAND FREE ENERGY PREDICTED BY IDOCK:   -7.01 KCAL/MOL
REMARK 924 INTRA-LIGAND FREE ENERGY PREDICTED BY IDOCK:   -0.26 KCAL/MOL
REMARK 927      BINDING AFFINITY PREDICTED BY RF-SCORE:    0.00 PKD
ROOT
HETATM    1  C   UNL     1     -12.469  15.901  74.128  1.00  0.00    -0.776 C  
HETATM    2  C   UNL     1     -13.039  15.481  72.782  1.00  0.00    -0.579 C  
ENDROOT
BRANCH   2   3
HETATM    3  C   UNL     1     -11.940  15.365  71.727  1.00  0.00    -0.473 C  
BRANCH   3   4
HETATM    4  C   UNL     1     -12.464  14.754  70.427  1.00  0.00    -0.405 C  
BRANCH   4   5
HETATM    5  C   UNL     1     -11.721  15.322  69.216  1.00  0.00    -0.359 C  
BRANCH   5   6
HETATM    6  C   UNL     1     -10.902  14.244  68.506  1.00  0.00    -0.264 C  
BRANCH   6   7
HETATM    7  C   UNL     1     -11.294  14.108  67.053  1.00  0.00    -0.346 A  
HETATM    8  C   UNL     1     -11.898  12.959  66.524  1.00  0.00    -0.407 A  
HETATM    9  C   UNL     1     -12.275  12.892  65.183  1.00  0.00    -0.519 A  
HETATM   10  O   UNL     1     -12.150  11.840  67.267  1.00  0.00    -0.595 OA 
HETATM   11  H   UNL     1     -12.559  11.062  66.908  1.00  0.00     0.000 HD 
HETATM   12  C   UNL     1     -12.021  13.973  64.348  1.00  0.00    -0.454 A  
HETATM   13  C   UNL     1     -11.398  15.113  64.835  1.00  0.00    -0.402 A  
HETATM   14  O   UNL     1     -12.366  13.950  63.028  1.00  0.00    -1.101 OA 
HETATM   15  H   UNL     1     -12.192  14.689  62.458  1.00  0.00     0.000 HD 
HETATM   16  C   UNL     1     -11.036  15.181  66.183  1.00  0.00    -0.331 A  
ENDBRANCH   6   7
ENDBRANCH   5   6
ENDBRANCH   4   5
ENDBRANCH   3   4
ENDBRANCH   2   3
TORSDOF 5
ENDMDL
MODEL        5
REMARK 921   NORMALIZED FREE ENERGY PREDICTED BY IDOCK:   -5.27 KCAL/MOL
REMARK 922        TOTAL FREE ENERGY PREDICTED BY IDOCK:   -7.22 KCAL/MOL
REMARK 923 INTER-LIGAND FREE ENERGY PREDICTED BY IDOCK:   -6.91 KCAL/MOL
REMARK 924 INTRA-LIGAND FREE ENERGY PREDICTED BY IDOCK:   -0.31 KCAL/MOL
REMARK 927      BINDING AFFINITY PREDICTED BY RF-SCORE:    0.00 PKD
ROOT
HETATM    1  C   UNL     1     -12.556  15.736  73.767  1.00  0.00    -0.733 C  
HETATM    2  C   UNL     1     -13.176  14.688  72.855  1.00  0.00    -0.609 C  
ENDROOT
BRANCH   2   3
HETATM    3  C   UNL     1     -13.542  15.283  71.496  1.00  0.00    -0.593 C  
BRANCH   3   4
HETATM    4  C   UNL     1     -12.310  15.479  70.612  1.00  0.00    -0.462 C  
BRANCH   4   5
HETATM    5  C   UNL     1     -12.187  14.352  69.585  1.00  0.00    -0.353 C  
BRANCH   5   6
HETATM    6  C   UNL     1     -10.968  14.547  68.683  1.00  0.00    -0.263 C  
BRANCH   6   7
HETATM    7  C   UNL     1     -11.342  14.511  67.220  1.00  0.00    -0.363 A  
HETATM    8  C   UNL     1     -10.810  15.394  66.269  1.00  0.00    -0.301 A  
HETATM    9  C   UNL     1     -11.157  15.300  64.921  1.00  0.00    -0.435 A  
HETATM   10  O   UNL     1      -9.936  16.394  66.588  1.00  0.00    -0.250 OA 
HETATM   11  H   UNL     1      -9.576  16.992  65.944  1.00  0.00     0.000 HD 
HETATM   12  C   UNL     1     -12.070  14.333  64.517  1.00  0.00    -0.480 A  
HETATM   13  C   UNL     1     -12.635  13.465  65.439  1.00  0.00    -0.528 A  
HETATM   14  O   UNL     1     -12.443  14.209  63.211  1.00  0.00    -1.146 OA 
HETATM   15  H   UNL     1     -13.067  13.548  62.935  1.00  0.00     0.000 HD 
HETATM   16  C   UNL     1     -12.273  13.552  66.785  1.00  0.00    -0.392 A  
ENDBRANCH   6   7
ENDBRANCH   5   6
ENDBRANCH   4   5
ENDBRANCH   3   4
ENDBRANCH   2   3
TORSDOF 5
ENDMDL
MODEL        6
REMARK 921   NORMALIZED FREE ENERGY PREDICTED BY IDOCK:   -5.26 KCAL/MOL
REMARK 922        TOTAL FREE ENERGY PREDICTED BY IDOCK:   -7.21 KCAL/MOL
REMARK 923 INTER-LIGAND FREE ENERGY PREDICTED BY IDOCK:   -6.78 KCAL/MOL
REMARK 924 INTRA-LIGAND FREE ENERGY PREDICTED BY IDOCK:   -0.42 KCAL/MOL
REMARK 927      BINDING AFFINITY PREDICTED BY RF-SCORE:    0.00 PKD
ROOT
HETATM    1  C   UNL     1     -13.517  13.939  72.422  1.00  0.00    -0.661 C  
HETATM    2  C   UNL     1     -13.274  12.498  72.002  1.00  0.00    -0.524 C  
ENDROOT
BRANCH   2   3
HETATM    3  C   UNL     1     -12.377  12.424  70.768  1.00  0.00    -0.377 C  
BRANCH   3   4
HETATM    4  C   UNL     1     -12.080  10.979  70.368  1.00  0.00    -0.463 C  
BRANCH   4   5
HETATM    5  C   UNL     1     -11.776  10.876  68.872  1.00  0.00    -0.376 C  
BRANCH   5   6
HETATM    6  C   UNL     1     -10.937  12.060  68.388  1.00  0.00    -0.276 C  
BRANCH   6   7
HETATM    7  C   UNL     1     -11.393  12.556  67.037  1.00  0.00    -0.386 A  
HETATM    8  C   UNL     1     -12.120  13.740  66.857  1.00  0.00    -0.413 A  
HETATM    9  C   UNL     1     -12.489  14.178  65.585  1.00  0.00    -0.490 A  
HETATM   10  O   UNL     1     -12.519  14.535  67.895  1.00  0.00    -0.599 OA 
HETATM   11  H   UNL     1     -13.012  15.337  67.773  1.00  0.00     0.000 HD 
HETATM   12  C   UNL     1     -12.155  13.409  64.476  1.00  0.00    -0.409 A  
HETATM   13  C   UNL     1     -11.462  12.217  64.624  1.00  0.00    -0.388 A  
HETATM   14  O   UNL     1     -12.501  13.794  63.214  1.00  0.00    -1.065 OA 
HETATM   15  H   UNL     1     -12.273  13.269  62.456  1.00  0.00     0.000 HD 
HETATM   16  C   UNL     1     -11.081  11.791  65.898  1.00  0.00    -0.355 A  
ENDBRANCH   6   7
ENDBRANCH   5   6
ENDBRANCH   4   5
ENDBRANCH   3   4
ENDBRANCH   2   3
TORSDOF 5
ENDMDL
MODEL        7
REMARK 921   NORMALIZED FREE ENERGY PREDICTED BY IDOCK:   -5.23 KCAL/MOL
REMARK 922        TOTAL FREE ENERGY PREDICTED BY IDOCK:   -7.17 KCAL/MOL
REMARK 923 INTER-LIGAND FREE ENERGY PREDICTED BY IDOCK:   -6.76 KCAL/MOL
REMARK 924 INTRA-LIGAND FREE ENERGY PREDICTED BY IDOCK:   -0.40 KCAL/MOL
REMARK 927      BINDING AFFINITY PREDICTED BY RF-SCORE:    0.00 PKD
ROOT
HETATM    1  C   UNL     1     -12.700  15.754  73.726  1.00  0.00    -0.736 C  
HETATM    2  C   UNL     1     -13.825  15.386  72.770  1.00  0.00    -0.576 C  
ENDROOT
BRANCH   2   3
HETATM    3  C   UNL     1     -13.679  13.949  72.271  1.00  0.00    -0.660 C  
BRANCH   3   4
HETATM    4  C   UNL     1     -12.489  13.796  71.323  1.00  0.00    -0.428 C  
BRANCH   4   5
HETATM    5  C   UNL     1     -12.431  12.383  70.740  1.00  0.00    -0.356 C  
BRANCH   5   6
HETATM    6  C   UNL     1     -13.182  11.383  71.619  1.00  0.00    -0.413 C  
BRANCH   6   7
HETATM    7  C   UNL     1     -12.645   9.981  71.458  1.00  0.00    -0.525 A  
HETATM    8  C   UNL     1     -13.185   8.870  72.121  1.00  0.00    -0.429 A  
HETATM    9  C   UNL     1     -12.679   7.587  71.914  1.00  0.00    -0.318 A  
HETATM   10  O   UNL     1     -14.221   8.962  73.007  1.00  0.00    -1.106 OA 
HETATM   11  H   UNL     1     -14.587   8.209  73.455  1.00  0.00     0.000 HD 
HETATM   12  C   UNL     1     -11.599   7.409  71.057  1.00  0.00    -0.288 A  
HETATM   13  C   UNL     1     -11.024   8.493  70.410  1.00  0.00    -0.254 A  
HETATM   14  O   UNL     1     -11.066   6.174  70.830  1.00  0.00    -0.285 OA 
HETATM   15  H   UNL     1     -10.329   6.053  70.244  1.00  0.00     0.000 HD 
HETATM   16  C   UNL     1     -11.544   9.774  70.608  1.00  0.00    -0.389 A  
ENDBRANCH   6   7
ENDBRANCH   5   6
ENDBRANCH   4   5
ENDBRANCH   3   4
ENDBRANCH   2   3
TORSDOF 5
ENDMDL
MODEL        8
REMARK 921   NORMALIZED FREE ENERGY PREDICTED BY IDOCK:   -5.18 KCAL/MOL
REMARK 922        TOTAL FREE ENERGY PREDICTED BY IDOCK:   -7.10 KCAL/MOL
REMARK 923 INTER-LIGAND FREE ENERGY PREDICTED BY IDOCK:   -6.86 KCAL/MOL
REMARK 924 INTRA-LIGAND FREE ENERGY PREDICTED BY IDOCK:   -0.24 KCAL/MOL
REMARK 927      BINDING AFFINITY PREDICTED BY RF-SCORE:    0.00 PKD
ROOT
HETATM    1  C   UNL     1     -12.284  12.208  63.590  1.00  0.00    -0.663 C  
HETATM    2  C   UNL     1     -11.566  13.242  64.444  1.00  0.00    -0.423 C  
ENDROOT
BRANCH   2   3
HETATM    3  C   UNL     1     -12.371  13.582  65.697  1.00  0.00    -0.522 C  
BRANCH   3   4
HETATM    4  C   UNL     1     -11.721  13.016  66.960  1.00  0.00    -0.441 C  
BRANCH   4   5
HETATM    5  C   UNL     1     -12.003  13.910  68.168  1.00  0.00    -0.385 C  
BRANCH   5   6
HETATM    6  C   UNL     1     -11.644  13.210  69.479  1.00  0.00    -0.347 C  
BRANCH   6   7
HETATM    7  C   UNL     1     -12.165  13.965  70.679  1.00  0.00    -0.443 A  
HETATM    8  C   UNL     1     -12.970  13.379  71.666  1.00  0.00    -0.355 A  
HETATM    9  C   UNL     1     -13.398  14.106  72.777  1.00  0.00    -0.618 A  
HETATM   10  O   UNL     1     -13.391  12.080  71.610  1.00  0.00    -0.337 OA 
HETATM   11  H   UNL     1     -13.935  11.683  72.279  1.00  0.00     0.000 HD 
HETATM   12  C   UNL     1     -13.046  15.445  72.893  1.00  0.00    -0.492 A  
HETATM   13  C   UNL     1     -12.276  16.061  71.918  1.00  0.00    -0.560 A  
HETATM   14  O   UNL     1     -13.448  16.197  73.958  1.00  0.00    -0.889 OA 
HETATM   15  H   UNL     1     -13.207  17.112  74.037  1.00  0.00     0.000 HD 
HETATM   16  C   UNL     1     -11.836  15.325  70.815  1.00  0.00    -0.381 A  
ENDBRANCH   6   7
ENDBRANCH   5   6
ENDBRANCH   4   5
ENDBRANCH   3   4
ENDBRANCH   2   3
TORSDOF 5
ENDMDL
MODEL        9
REMARK 921   NORMALIZED FREE ENERGY PREDICTED BY IDOCK:   -5.11 KCAL/MOL
REMARK 922        TOTAL FREE ENERGY PREDICTED BY IDOCK:   -7.02 KCAL/MOL
REMARK 923 INTER-LIGAND FREE ENERGY PREDICTED BY IDOCK:   -6.64 KCAL/MOL
REMARK 924 INTRA-LIGAND FREE ENERGY PREDICTED BY IDOCK:   -0.37 KCAL/MOL
REMARK 927      BINDING AFFINITY PREDICTED BY RF-SCORE:    0.00 PKD
ROOT
HETATM    1  C   UNL     1     -12.462  12.474  64.654  1.00  0.00    -0.539 C  
HETATM    2  C   UNL     1     -11.185  12.250  65.451  1.00  0.00    -0.372 C  
ENDROOT
BRANCH   2   3
HETATM    3  C   UNL     1     -11.284  12.876  66.841  1.00  0.00    -0.331 C  
BRANCH   3   4
HETATM    4  C   UNL     1     -11.826  11.885  67.872  1.00  0.00    -0.308 C  
BRANCH   4   5
HETATM    5  C   UNL     1     -11.794  12.486  69.278  1.00  0.00    -0.360 C  
BRANCH   5   6
HETATM    6  C   UNL     1     -12.018  13.998  69.246  1.00  0.00    -0.396 C  
BRANCH   6   7
HETATM    7  C   UNL     1     -12.229  14.564  70.631  1.00  0.00    -0.401 A  
HETATM    8  C   UNL     1     -11.777  15.832  71.021  1.00  0.00    -0.422 A  
HETATM    9  C   UNL     1     -12.027  16.328  72.300  1.00  0.00    -0.605 A  
HETATM   10  O   UNL     1     -11.067  16.657  70.194  1.00  0.00    -0.451 OA 
HETATM   11  H   UNL     1     -10.761  17.516  70.458  1.00  0.00     0.000 HD 
HETATM   12  C   UNL     1     -12.711  15.538  73.217  1.00  0.00    -0.509 A  
HETATM   13  C   UNL     1     -13.144  14.267  72.870  1.00  0.00    -0.589 A  
HETATM   14  O   UNL     1     -12.971  15.978  74.481  1.00  0.00    -0.920 OA 
HETATM   15  H   UNL     1     -13.439  15.439  75.107  1.00  0.00     0.000 HD 
HETATM   16  C   UNL     1     -12.906  13.781  71.582  1.00  0.00    -0.438 A  
ENDBRANCH   6   7
ENDBRANCH   5   6
ENDBRANCH   4   5
ENDBRANCH   3   4
ENDBRANCH   2   3
TORSDOF 5
ENDMDL
MODEL       10
REMARK 921   NORMALIZED FREE ENERGY PREDICTED BY IDOCK:   -5.08 KCAL/MOL
REMARK 922        TOTAL FREE ENERGY PREDICTED BY IDOCK:   -6.97 KCAL/MOL
REMARK 923 INTER-LIGAND FREE ENERGY PREDICTED BY IDOCK:   -6.38 KCAL/MOL
REMARK 924 INTRA-LIGAND FREE ENERGY PREDICTED BY IDOCK:   -0.60 KCAL/MOL
REMARK 927      BINDING AFFINITY PREDICTED BY RF-SCORE:    0.00 PKD
ROOT
HETATM    1  C   UNL     1      -9.181  10.962  62.637  1.00  0.00    -0.357 C  
HETATM    2  C   UNL     1      -9.831  11.047  64.009  1.00  0.00    -0.365 C  
ENDROOT
BRANCH   2   3
HETATM    3  C   UNL     1      -8.854  10.640  65.110  1.00  0.00    -0.207 C  
BRANCH   3   4
HETATM    4  C   UNL     1      -9.380  11.006  66.499  1.00  0.00    -0.200 C  
BRANCH   4   5
HETATM    5  C   UNL     1     -10.889  10.776  66.591  1.00  0.00    -0.228 C  
BRANCH   5   6
HETATM    6  C   UNL     1     -11.606  11.990  67.182  1.00  0.00    -0.387 C  
BRANCH   6   7
HETATM    7  C   UNL     1     -11.588  13.168  66.236  1.00  0.00    -0.399 A  
HETATM    8  C   UNL     1     -12.386  13.242  65.086  1.00  0.00    -0.466 A  
HETATM    9  C   UNL     1     -12.362  14.367  64.260  1.00  0.00    -0.402 A  
HETATM   10  O   UNL     1     -13.223  12.237  64.693  1.00  0.00    -0.763 OA 
HETATM   11  H   UNL     1     -13.764  12.288  63.914  1.00  0.00     0.000 HD 
HETATM   12  C   UNL     1     -11.510  15.421  64.567  1.00  0.00    -0.311 A  
HETATM   13  C   UNL     1     -10.686  15.363  65.682  1.00  0.00    -0.381 A  
HETATM   14  O   UNL     1     -11.448  16.537  63.785  1.00  0.00    -1.615 OA 
HETATM   15  H   UNL     1     -10.866  17.257  63.995  1.00  0.00     0.000 HD 
HETATM   16  C   UNL     1     -10.725  14.242  66.514  1.00  0.00    -0.297 A  
ENDBRANCH   6   7
ENDBRANCH   5   6
ENDBRANCH   4   5
ENDBRANCH   3   4
ENDBRANCH   2   3
TORSDOF 5
ENDMDL
MODEL       11
REMARK 921   NORMALIZED FREE ENERGY PREDICTED BY IDOCK:   -5.08 KCAL/MOL
REMARK 922        TOTAL FREE ENERGY PREDICTED BY IDOCK:   -6.97 KCAL/MOL
REMARK 923 INTER-LIGAND FREE ENERGY PREDICTED BY IDOCK:   -6.70 KCAL/MOL
REMARK 924 INTRA-LIGAND FREE ENERGY PREDICTED BY IDOCK:   -0.27 KCAL/MOL
REMARK 927      BINDING AFFINITY PREDICTED BY RF-SCORE:    0.00 PKD
ROOT
HETATM    1  C   UNL     1     -11.666   8.984  71.220  1.00  0.00    -0.382 C  
HETATM    2  C   UNL     1     -12.637  10.062  71.676  1.00  0.00    -0.524 C  
ENDROOT
BRANCH   2   3
HETATM    3  C   UNL     1     -12.497  11.326  70.831  1.00  0.00    -0.493 C  
BRANCH   3   4
HETATM    4  C   UNL     1     -11.844  11.036  69.479  1.00  0.00    -0.404 C  
BRANCH   4   5
HETATM    5  C   UNL     1     -11.740  12.308  68.636  1.00  0.00    -0.377 C  
BRANCH   5   6
HETATM    6  C   UNL     1     -11.215  12.008  67.231  1.00  0.00    -0.371 C  
BRANCH   6   7
HETATM    7  C   UNL     1     -11.248  13.232  66.347  1.00  0.00    -0.325 A  
HETATM    8  C   UNL     1     -10.296  14.258  66.419  1.00  0.00    -0.286 A  
HETATM    9  C   UNL     1     -10.345  15.353  65.556  1.00  0.00    -0.412 A  
HETATM   10  O   UNL     1      -9.274  14.264  67.326  1.00  0.00    -0.197 OA 
HETATM   11  H   UNL     1      -8.629  14.959  67.374  1.00  0.00     0.000 HD 
HETATM   12  C   UNL     1     -11.375  15.444  64.627  1.00  0.00    -0.355 A  
HETATM   13  C   UNL     1     -12.349  14.459  64.552  1.00  0.00    -0.440 A  
HETATM   14  O   UNL     1     -11.468  16.500  63.769  1.00  0.00    -1.615 OA 
HETATM   15  H   UNL     1     -12.171  16.562  63.134  1.00  0.00     0.000 HD 
HETATM   16  C   UNL     1     -12.286  13.357  65.407  1.00  0.00    -0.522 A  
ENDBRANCH   6   7
ENDBRANCH   5   6
ENDBRANCH   4   5
ENDBRANCH   3   4
ENDBRANCH   2   3
TORSDOF 5
ENDMDL
MODEL       12
REMARK 921   NORMALIZED FREE ENERGY PREDICTED BY IDOCK:   -5.07 KCAL/MOL
REMARK 922        TOTAL FREE ENERGY PREDICTED BY IDOCK:   -6.95 KCAL/MOL
REMARK 923 INTER-LIGAND FREE ENERGY PREDICTED BY IDOCK:   -6.49 KCAL/MOL
REMARK 924 INTRA-LIGAND FREE ENERGY PREDICTED BY IDOCK:   -0.46 KCAL/MOL
REMARK 927      BINDING AFFINITY PREDICTED BY RF-SCORE:    0.00 PKD
ROOT
HETATM    1  C   UNL     1     -11.541  15.671  71.214  1.00  0.00    -0.485 C  
HETATM    2  C   UNL     1     -12.057  16.071  72.587  1.00  0.00    -0.640 C  
ENDROOT
BRANCH   2   3
HETATM    3  C   UNL     1     -12.953  14.986  73.180  1.00  0.00    -0.631 C  
BRANCH   3   4
HETATM    4  C   UNL     1     -13.738  14.245  72.097  1.00  0.00    -0.569 C  
BRANCH   4   5
HETATM    5  C   UNL     1     -13.655  12.731  72.299  1.00  0.00    -0.563 C  
BRANCH   5   6
HETATM    6  C   UNL     1     -12.720  12.080  71.279  1.00  0.00    -0.382 C  
BRANCH   6   7
HETATM    7  C   UNL     1     -12.604  10.590  71.495  1.00  0.00    -0.529 A  
HETATM    8  C   UNL     1     -11.497   9.837  71.078  1.00  0.00    -0.383 A  
HETATM    9  C   UNL     1     -11.417   8.467  71.332  1.00  0.00    -0.344 A  
HETATM   10  O   UNL     1     -10.440  10.377  70.401  1.00  0.00    -0.432 OA 
HETATM   11  H   UNL     1      -9.691   9.866  70.119  1.00  0.00     0.000 HD 
HETATM   12  C   UNL     1     -12.468   7.831  71.983  1.00  0.00    -0.286 A  
HETATM   13  C   UNL     1     -13.589   8.544  72.380  1.00  0.00    -0.327 A  
HETATM   14  O   UNL     1     -12.436   6.493  72.245  1.00  0.00    -0.530 OA 
HETATM   15  H   UNL     1     -13.153   6.058  72.690  1.00  0.00     0.000 HD 
HETATM   16  C   UNL     1     -13.657   9.918  72.139  1.00  0.00    -0.392 A  
ENDBRANCH   6   7
ENDBRANCH   5   6
ENDBRANCH   4   5
ENDBRANCH   3   4
ENDBRANCH   2   3
TORSDOF 5
ENDMDL
MODEL       13
REMARK 921   NORMALIZED FREE ENERGY PREDICTED BY IDOCK:   -5.05 KCAL/MOL
REMARK 922        TOTAL FREE ENERGY PREDICTED BY IDOCK:   -6.93 KCAL/MOL
REMARK 923 INTER-LIGAND FREE ENERGY PREDICTED BY IDOCK:   -6.45 KCAL/MOL
REMARK 924 INTRA-LIGAND FREE ENERGY PREDICTED BY IDOCK:   -0.48 KCAL/MOL
REMARK 927      BINDING AFFINITY PREDICTED BY RF-SCORE:    0.00 PKD
ROOT
HETATM    1  C   UNL     1     -13.643  15.147  71.320  1.00  0.00    -0.559 C  
HETATM    2  C   UNL     1     -12.427  15.442  70.455  1.00  0.00    -0.468 C  
ENDROOT
BRANCH   2   3
HETATM    3  C   UNL     1     -12.086  14.254  69.557  1.00  0.00    -0.376 C  
BRANCH   3   4
HETATM    4  C   UNL     1     -10.807  14.498  68.755  1.00  0.00    -0.256 C  
BRANCH   4   5
HETATM    5  C   UNL     1     -11.133  14.918  67.320  1.00  0.00    -0.336 C  
BRANCH   5   6
HETATM    6  C   UNL     1     -12.280  14.089  66.741  1.00  0.00    -0.439 C  
BRANCH   6   7
HETATM    7  C   UNL     1     -11.817  13.204  65.608  1.00  0.00    -0.430 A  
HETATM    8  C   UNL     1     -12.000  13.526  64.256  1.00  0.00    -0.432 A  
HETATM    9  C   UNL     1     -11.523  12.695  63.243  1.00  0.00    -0.368 A  
HETATM   10  O   UNL     1     -12.651  14.653  63.840  1.00  0.00    -0.931 OA 
HETATM   11  H   UNL     1     -12.775  14.871  62.924  1.00  0.00     0.000 HD 
HETATM   12  C   UNL     1     -10.880  11.509  63.579  1.00  0.00    -0.398 A  
HETATM   13  C   UNL     1     -10.711  11.148  64.908  1.00  0.00    -0.318 A  
HETATM   14  O   UNL     1     -10.404  10.661  62.623  1.00  0.00    -0.752 OA 
HETATM   15  H   UNL     1      -9.965   9.851  62.852  1.00  0.00     0.000 HD 
HETATM   16  C   UNL     1     -11.176  11.992  65.919  1.00  0.00    -0.385 A  
ENDBRANCH   6   7
ENDBRANCH   5   6
ENDBRANCH   4   5
ENDBRANCH   3   4
ENDBRANCH   2   3
TORSDOF 5
ENDMDL
MODEL       14
REMARK 921   NORMALIZED FREE ENERGY PREDICTED BY IDOCK:   -5.00 KCAL/MOL
REMARK 922        TOTAL FREE ENERGY PREDICTED BY IDOCK:   -6.86 KCAL/MOL
REMARK 923 INTER-LIGAND FREE ENERGY PREDICTED BY IDOCK:   -6.52 KCAL/MOL
REMARK 924 INTRA-LIGAND FREE ENERGY PREDICTED BY IDOCK:   -0.35 KCAL/MOL
REMARK 927      BINDING AFFINITY PREDICTED BY RF-SCORE:    0.00 PKD
ROOT
HETATM    1  C   UNL     1     -13.289   9.952  71.885  1.00  0.00    -0.524 C  
HETATM    2  C   UNL     1     -11.900   9.467  71.496  1.00  0.00    -0.478 C  
ENDROOT
BRANCH   2   3
HETATM    3  C   UNL     1     -11.226  10.440  70.530  1.00  0.00    -0.395 C  
BRANCH   3   4
HETATM    4  C   UNL     1     -12.156  11.588  70.139  1.00  0.00    -0.432 C  
BRANCH   4   5
HETATM    5  C   UNL     1     -11.450  12.571  69.204  1.00  0.00    -0.361 C  
BRANCH   5   6
HETATM    6  C   UNL     1     -12.224  13.884  69.082  1.00  0.00    -0.305 C  
BRANCH   6   7
HETATM    7  C   UNL     1     -12.464  14.521  70.431  1.00  0.00    -0.407 A  
HETATM    8  C   UNL     1     -11.471  15.207  71.145  1.00  0.00    -0.343 A  
HETATM    9  C   UNL     1     -11.749  15.811  72.371  1.00  0.00    -0.577 A  
HETATM   10  O   UNL     1     -10.184  15.327  70.703  1.00  0.00    -0.455 OA 
HETATM   11  H   UNL     1      -9.512  15.792  71.186  1.00  0.00     0.000 HD 
HETATM   12  C   UNL     1     -13.025  15.705  72.911  1.00  0.00    -0.497 A  
HETATM   13  C   UNL     1     -14.020  15.007  72.242  1.00  0.00    -0.611 A  
HETATM   14  O   UNL     1     -13.340  16.273  74.110  1.00  0.00    -0.929 OA 
HETATM   15  H   UNL     1     -14.212  16.201  74.479  1.00  0.00     0.000 HD 
HETATM   16  C   UNL     1     -13.742  14.418  71.007  1.00  0.00    -0.201 A  
ENDBRANCH   6   7
ENDBRANCH   5   6
ENDBRANCH   4   5
ENDBRANCH   3   4
ENDBRANCH   2   3
TORSDOF 5
ENDMDL
MODEL       15
REMARK 921   NORMALIZED FREE ENERGY PREDICTED BY IDOCK:   -4.97 KCAL/MOL
REMARK 922        TOTAL FREE ENERGY PREDICTED BY IDOCK:   -6.83 KCAL/MOL
REMARK 923 INTER-LIGAND FREE ENERGY PREDICTED BY IDOCK:   -6.53 KCAL/MOL
REMARK 924 INTRA-LIGAND FREE ENERGY PREDICTED BY IDOCK:   -0.30 KCAL/MOL
REMARK 927      BINDING AFFINITY PREDICTED BY RF-SCORE:    0.00 PKD
ROOT
HETATM    1  C   UNL     1     -12.244   8.773  72.081  1.00  0.00    -0.448 C  
HETATM    2  C   UNL     1     -13.328   9.840  72.097  1.00  0.00    -0.527 C  
ENDROOT
BRANCH   2   3
HETATM    3  C   UNL     1     -12.905  11.070  71.296  1.00  0.00    -0.528 C  
BRANCH   3   4
HETATM    4  C   UNL     1     -11.628  10.814  70.495  1.00  0.00    -0.425 C  
BRANCH   4   5
HETATM    5  C   UNL     1     -11.900  10.890  68.991  1.00  0.00    -0.370 C  
BRANCH   5   6
HETATM    6  C   UNL     1     -10.786  11.637  68.257  1.00  0.00    -0.260 C  
BRANCH   6   7
HETATM    7  C   UNL     1     -11.284  12.274  66.982  1.00  0.00    -0.367 A  
HETATM    8  C   UNL     1     -12.041  13.454  66.957  1.00  0.00    -0.339 A  
HETATM    9  C   UNL     1     -12.449  14.027  65.752  1.00  0.00    -0.523 A  
HETATM   10  O   UNL     1     -12.433  14.112  68.088  1.00  0.00    -0.541 OA 
HETATM   11  H   UNL     1     -12.945  14.912  68.071  1.00  0.00     0.000 HD 
HETATM   12  C   UNL     1     -12.124  13.401  64.554  1.00  0.00    -0.409 A  
HETATM   13  C   UNL     1     -11.402  12.216  64.548  1.00  0.00    -0.393 A  
HETATM   14  O   UNL     1     -12.507  13.920  63.353  1.00  0.00    -1.068 OA 
HETATM   15  H   UNL     1     -12.286  13.493  62.535  1.00  0.00     0.000 HD 
HETATM   16  C   UNL     1     -10.982  11.655  65.756  1.00  0.00    -0.329 A  
ENDBRANCH   6   7
ENDBRANCH   5   6
ENDBRANCH   4   5
ENDBRANCH   3   4
ENDBRANCH   2   3
TORSDOF 5
ENDMDL
MODEL       16
REMARK 921   NORMALIZED FREE ENERGY PREDICTED BY IDOCK:   -4.96 KCAL/MOL
REMARK 922        TOTAL FREE ENERGY PREDICTED BY IDOCK:   -6.82 KCAL/MOL
REMARK 923 INTER-LIGAND FREE ENERGY PREDICTED BY IDOCK:   -6.02 KCAL/MOL
REMARK 924 INTRA-LIGAND FREE ENERGY PREDICTED BY IDOCK:   -0.79 KCAL/MOL
REMARK 927      BINDING AFFINITY PREDICTED BY RF-SCORE:    0.00 PKD
ROOT
HETATM    1  C   UNL     1      -9.319  10.991  65.696  1.00  0.00    -0.239 C  
HETATM    2  C   UNL     1     -10.021  10.634  64.394  1.00  0.00    -0.415 C  
ENDROOT
BRANCH   2   3
HETATM    3  C   UNL     1     -10.309  11.882  63.561  1.00  0.00    -0.495 C  
BRANCH   3   4
HETATM    4  C   UNL     1     -11.808  12.078  63.333  1.00  0.00    -0.542 C  
BRANCH   4   5
HETATM    5  C   UNL     1     -12.516  12.452  64.637  1.00  0.00    -0.500 C  
BRANCH   5   6
HETATM    6  C   UNL     1     -12.774  13.957  64.722  1.00  0.00    -0.248 C  
BRANCH   6   7
HETATM    7  C   UNL     1     -11.637  14.684  65.400  1.00  0.00    -0.345 A  
HETATM    8  C   UNL     1     -11.119  15.902  64.938  1.00  0.00    -0.389 A  
HETATM    9  C   UNL     1     -10.092  16.557  65.617  1.00  0.00    -0.278 A  
HETATM   10  O   UNL     1     -11.570  16.523  63.807  1.00  0.00    -1.617 OA 
HETATM   11  H   UNL     1     -11.220  17.348  63.494  1.00  0.00     0.000 HD 
HETATM   12  C   UNL     1      -9.549  15.975  66.758  1.00  0.00    -0.232 A  
HETATM   13  C   UNL     1     -10.020  14.756  67.222  1.00  0.00    -0.231 A  
HETATM   14  O   UNL     1      -8.539  16.575  67.450  1.00  0.00    -0.174 OA 
HETATM   15  H   UNL     1      -8.168  16.178  68.229  1.00  0.00     0.000 HD 
HETATM   16  C   UNL     1     -11.060  14.112  66.547  1.00  0.00    -0.318 A  
ENDBRANCH   6   7
ENDBRANCH   5   6
ENDBRANCH   4   5
ENDBRANCH   3   4
ENDBRANCH   2   3
TORSDOF 5
ENDMDL
MODEL       17
REMARK 921   NORMALIZED FREE ENERGY PREDICTED BY IDOCK:   -4.93 KCAL/MOL
REMARK 922        TOTAL FREE ENERGY PREDICTED BY IDOCK:   -6.78 KCAL/MOL
REMARK 923 INTER-LIGAND FREE ENERGY PREDICTED BY IDOCK:   -6.19 KCAL/MOL
REMARK 924 INTRA-LIGAND FREE ENERGY PREDICTED BY IDOCK:   -0.59 KCAL/MOL
REMARK 927      BINDING AFFINITY PREDICTED BY RF-SCORE:    0.00 PKD
ROOT
HETATM    1  C   UNL     1     -12.788  10.656  70.987  1.00  0.00    -0.496 C  
HETATM    2  C   UNL     1     -12.281  10.989  69.592  1.00  0.00    -0.370 C  
ENDROOT
BRANCH   2   3
HETATM    3  C   UNL     1     -11.221  12.089  69.637  1.00  0.00    -0.168 C  
BRANCH   3   4
HETATM    4  C   UNL     1     -11.819  13.465  69.341  1.00  0.00    -0.390 C  
BRANCH   4   5
HETATM    5  C   UNL     1     -11.234  14.051  68.055  1.00  0.00    -0.302 C  
BRANCH   5   6
HETATM    6  C   UNL     1     -12.255  14.036  66.917  1.00  0.00    -0.415 C  
BRANCH   6   7
HETATM    7  C   UNL     1     -11.778  13.213  65.745  1.00  0.00    -0.415 A  
HETATM    8  C   UNL     1     -11.914  13.623  64.411  1.00  0.00    -0.437 A  
HETATM    9  C   UNL     1     -11.426  12.845  63.361  1.00  0.00    -0.395 A  
HETATM   10  O   UNL     1     -12.529  14.788  64.049  1.00  0.00    -0.910 OA 
HETATM   11  H   UNL     1     -12.621  15.066  63.145  1.00  0.00     0.000 HD 
HETATM   12  C   UNL     1     -10.819  11.626  63.640  1.00  0.00    -0.432 A  
HETATM   13  C   UNL     1     -10.696  11.179  64.948  1.00  0.00    -0.318 A  
HETATM   14  O   UNL     1     -10.333  10.829  62.645  1.00  0.00    -0.761 OA 
HETATM   15  H   UNL     1      -9.918   9.996  62.836  1.00  0.00     0.000 HD 
HETATM   16  C   UNL     1     -11.173  11.969  65.996  1.00  0.00    -0.385 A  
ENDBRANCH   6   7
ENDBRANCH   5   6
ENDBRANCH   4   5
ENDBRANCH   3   4
ENDBRANCH   2   3
TORSDOF 5
ENDMDL
MODEL       18
REMARK 921   NORMALIZED FREE ENERGY PREDICTED BY IDOCK:   -4.93 KCAL/MOL
REMARK 922        TOTAL FREE ENERGY PREDICTED BY IDOCK:   -6.78 KCAL/MOL
REMARK 923 INTER-LIGAND FREE ENERGY PREDICTED BY IDOCK:   -6.22 KCAL/MOL
REMARK 924 INTRA-LIGAND FREE ENERGY PREDICTED BY IDOCK:   -0.55 KCAL/MOL
REMARK 927      BINDING AFFINITY PREDICTED BY RF-SCORE:    0.00 PKD
ROOT
HETATM    1  C   UNL     1      -8.390  10.495  69.101  1.00  0.00    -0.154 C  
HETATM    2  C   UNL     1      -9.343   9.317  68.974  1.00  0.00    -0.151 C  
ENDROOT
BRANCH   2   3
HETATM    3  C   UNL     1     -10.775   9.788  68.730  1.00  0.00    -0.243 C  
BRANCH   3   4
HETATM    4  C   UNL     1     -11.035  11.161  69.349  1.00  0.00    -0.298 C  
BRANCH   4   5
HETATM    5  C   UNL     1     -11.720  12.093  68.348  1.00  0.00    -0.388 C  
BRANCH   5   6
HETATM    6  C   UNL     1     -11.238  11.834  66.921  1.00  0.00    -0.387 C  
BRANCH   6   7
HETATM    7  C   UNL     1     -11.300  13.082  66.072  1.00  0.00    -0.343 A  
HETATM    8  C   UNL     1     -12.290  13.306  65.105  1.00  0.00    -0.466 A  
HETATM    9  C   UNL     1     -12.328  14.490  64.369  1.00  0.00    -0.437 A  
HETATM   10  O   UNL     1     -13.266  12.395  64.813  1.00  0.00    -0.784 OA 
HETATM   11  H   UNL     1     -13.936  12.547  64.158  1.00  0.00     0.000 HD 
HETATM   12  C   UNL     1     -11.349  15.455  64.578  1.00  0.00    -0.313 A  
HETATM   13  C   UNL     1     -10.340  15.249  65.507  1.00  0.00    -0.408 A  
HETATM   14  O   UNL     1     -11.343  16.625  63.877  1.00  0.00    -1.558 OA 
HETATM   15  H   UNL     1     -10.674  17.284  64.019  1.00  0.00     0.000 HD 
HETATM   16  C   UNL     1     -10.315  14.069  66.252  1.00  0.00    -0.294 A  
ENDBRANCH   6   7
ENDBRANCH   5   6
ENDBRANCH   4   5
ENDBRANCH   3   4
ENDBRANCH   2   3
TORSDOF 5
ENDMDL
MODEL       19
REMARK 921   NORMALIZED FREE ENERGY PREDICTED BY IDOCK:   -4.91 KCAL/MOL
REMARK 922        TOTAL FREE ENERGY PREDICTED BY IDOCK:   -6.75 KCAL/MOL
REMARK 923 INTER-LIGAND FREE ENERGY PREDICTED BY IDOCK:   -6.42 KCAL/MOL
REMARK 924 INTRA-LIGAND FREE ENERGY PREDICTED BY IDOCK:   -0.32 KCAL/MOL
REMARK 927      BINDING AFFINITY PREDICTED BY RF-SCORE:    0.00 PKD
ROOT
HETATM    1  C   UNL     1     -11.574   8.826  71.733  1.00  0.00    -0.416 C  
HETATM    2  C   UNL     1     -12.833   9.678  71.773  1.00  0.00    -0.514 C  
ENDROOT
BRANCH   2   3
HETATM    3  C   UNL     1     -12.605  11.035  71.109  1.00  0.00    -0.522 C  
BRANCH   3   4
HETATM    4  C   UNL     1     -11.546  10.956  70.009  1.00  0.00    -0.424 C  
BRANCH   4   5
HETATM    5  C   UNL     1     -11.599  12.192  69.108  1.00  0.00    -0.374 C  
BRANCH   5   6
HETATM    6  C   UNL     1     -10.487  12.170  68.060  1.00  0.00    -0.227 C  
BRANCH   6   7
HETATM    7  C   UNL     1     -10.957  12.710  66.730  1.00  0.00    -0.296 A  
HETATM    8  C   UNL     1     -10.270  12.497  65.527  1.00  0.00    -0.275 A  
HETATM    9  C   UNL     1     -10.762  12.985  64.316  1.00  0.00    -0.430 A  
HETATM   10  O   UNL     1      -9.089  11.815  65.454  1.00  0.00    -0.407 OA 
HETATM   11  H   UNL     1      -8.624  11.670  64.639  1.00  0.00     0.000 HD 
HETATM   12  C   UNL     1     -11.941  13.723  64.306  1.00  0.00    -0.443 A  
HETATM   13  C   UNL     1     -12.627  13.975  65.485  1.00  0.00    -0.543 A  
HETATM   14  O   UNL     1     -12.455  14.225  63.148  1.00  0.00    -1.102 OA 
HETATM   15  H   UNL     1     -13.260  14.729  63.141  1.00  0.00     0.000 HD 
HETATM   16  C   UNL     1     -12.139  13.471  66.692  1.00  0.00    -0.447 A  
ENDBRANCH   6   7
ENDBRANCH   5   6
ENDBRANCH   4   5
ENDBRANCH   3   4
ENDBRANCH   2   3
TORSDOF 5
ENDMDL
MODEL       20
REMARK 921   NORMALIZED FREE ENERGY PREDICTED BY IDOCK:   -4.89 KCAL/MOL
REMARK 922        TOTAL FREE ENERGY PREDICTED BY IDOCK:   -6.73 KCAL/MOL
REMARK 923 INTER-LIGAND FREE ENERGY PREDICTED BY IDOCK:   -5.97 KCAL/MOL
REMARK 924 INTRA-LIGAND FREE ENERGY PREDICTED BY IDOCK:   -0.76 KCAL/MOL
REMARK 927      BINDING AFFINITY PREDICTED BY RF-SCORE:    0.00 PKD
ROOT
HETATM    1  C   UNL     1      -9.874  20.019  66.533  1.00  0.00    -0.581 C  
HETATM    2  C   UNL     1      -8.628  19.207  66.852  1.00  0.00    -0.315 C  
ENDROOT
BRANCH   2   3
HETATM    3  C   UNL     1      -8.815  18.386  68.127  1.00  0.00    -0.319 C  
BRANCH   3   4
HETATM    4  C   UNL     1     -10.274  18.372  68.585  1.00  0.00    -0.370 C  
BRANCH   4   5
HETATM    5  C   UNL     1     -10.727  16.952  68.927  1.00  0.00    -0.321 C  
BRANCH   5   6
HETATM    6  C   UNL     1      -9.923  15.906  68.154  1.00  0.00    -0.222 C  
BRANCH   6   7
HETATM    7  C   UNL     1     -10.668  15.413  66.937  1.00  0.00    -0.314 A  
HETATM    8  C   UNL     1     -11.757  14.533  67.006  1.00  0.00    -0.393 A  
HETATM    9  C   UNL     1     -12.438  14.132  65.856  1.00  0.00    -0.479 A  
HETATM   10  O   UNL     1     -12.219  14.008  68.180  1.00  0.00    -0.516 OA 
HETATM   11  H   UNL     1     -12.957  13.412  68.227  1.00  0.00     0.000 HD 
HETATM   12  C   UNL     1     -12.011  14.590  64.615  1.00  0.00    -0.468 A  
HETATM   13  C   UNL     1     -10.917  15.438  64.512  1.00  0.00    -0.223 A  
HETATM   14  O   UNL     1     -12.641  14.219  63.464  1.00  0.00    -1.039 OA 
HETATM   15  H   UNL     1     -12.349  14.532  62.616  1.00  0.00     0.000 HD 
HETATM   16  C   UNL     1     -10.249  15.849  65.668  1.00  0.00    -0.406 A  
ENDBRANCH   6   7
ENDBRANCH   5   6
ENDBRANCH   4   5
ENDBRANCH   3   4
ENDBRANCH   2   3
TORSDOF 5
ENDMDL
MODEL       21
REMARK 921   NORMALIZED FREE ENERGY PREDICTED BY IDOCK:   -4.89 KCAL/MOL
REMARK 922        TOTAL FREE ENERGY PREDICTED BY IDOCK:   -6.72 KCAL/MOL
REMARK 923 INTER-LIGAND FREE ENERGY PREDICTED BY IDOCK:   -6.22 KCAL/MOL
REMARK 924 INTRA-LIGAND FREE ENERGY PREDICTED BY IDOCK:   -0.50 KCAL/MOL
REMARK 927      BINDING AFFINITY PREDICTED BY RF-SCORE:    0.00 PKD
ROOT
HETATM    1  C   UNL     1      -8.708  19.255  68.657  1.00  0.00    -0.402 C  
HETATM    2  C   UNL     1     -10.031  18.650  68.213  1.00  0.00    -0.424 C  
ENDROOT
BRANCH   2   3
HETATM    3  C   UNL     1     -10.688  19.496  67.124  1.00  0.00    -0.599 C  
BRANCH   3   4
HETATM    4  C   UNL     1     -10.635  18.807  65.760  1.00  0.00    -0.321 C  
BRANCH   4   5
HETATM    5  C   UNL     1     -10.246  17.335  65.905  1.00  0.00    -0.273 C  
BRANCH   5   6
HETATM    6  C   UNL     1     -11.020  16.452  64.926  1.00  0.00    -0.277 C  
BRANCH   6   7
HETATM    7  C   UNL     1     -11.328  15.096  65.516  1.00  0.00    -0.274 A  
HETATM    8  C   UNL     1     -11.986  14.081  64.808  1.00  0.00    -0.417 A  
HETATM    9  C   UNL     1     -12.217  12.831  65.382  1.00  0.00    -0.532 A  
HETATM   10  O   UNL     1     -12.445  14.240  63.531  1.00  0.00    -1.095 OA 
HETATM   11  H   UNL     1     -12.890  13.552  63.051  1.00  0.00     0.000 HD 
HETATM   12  C   UNL     1     -11.815  12.596  66.692  1.00  0.00    -0.380 A  
HETATM   13  C   UNL     1     -11.189  13.591  67.428  1.00  0.00    -0.317 A  
HETATM   14  O   UNL     1     -12.027  11.393  67.296  1.00  0.00    -0.580 OA 
HETATM   15  H   UNL     1     -11.753  11.232  68.191  1.00  0.00     0.000 HD 
HETATM   16  C   UNL     1     -10.945  14.836  66.843  1.00  0.00    -0.328 A  
ENDBRANCH   6   7
ENDBRANCH   5   6
ENDBRANCH   4   5
ENDBRANCH   3   4
ENDBRANCH   2   3
TORSDOF 5
ENDMDL
MODEL       22
REMARK 921   NORMALIZED FREE ENERGY PREDICTED BY IDOCK:   -4.86 KCAL/MOL
REMARK 922        TOTAL FREE ENERGY PREDICTED BY IDOCK:   -6.68 KCAL/MOL
REMARK 923 INTER-LIGAND FREE ENERGY PREDICTED BY IDOCK:   -6.04 KCAL/MOL
REMARK 924 INTRA-LIGAND FREE ENERGY PREDICTED BY IDOCK:   -0.64 KCAL/MOL
REMARK 927      BINDING AFFINITY PREDICTED BY RF-SCORE:    0.00 PKD
ROOT
HETATM    1  C   UNL     1      -9.915  11.599  63.322  1.00  0.00    -0.442 C  
HETATM    2  C   UNL     1     -11.229  11.551  64.086  1.00  0.00    -0.393 C  
ENDROOT
BRANCH   2   3
HETATM    3  C   UNL     1     -12.228  12.565  63.531  1.00  0.00    -0.652 C  
BRANCH   3   4
HETATM    4  C   UNL     1     -12.063  13.939  64.182  1.00  0.00    -0.464 C  
BRANCH   4   5
HETATM    5  C   UNL     1     -12.695  13.965  65.575  1.00  0.00    -0.536 C  
BRANCH   5   6
HETATM    6  C   UNL     1     -11.672  14.337  66.647  1.00  0.00    -0.417 C  
BRANCH   6   7
HETATM    7  C   UNL     1     -11.807  13.471  67.877  1.00  0.00    -0.397 A  
HETATM    8  C   UNL     1     -12.126  13.979  69.144  1.00  0.00    -0.337 A  
HETATM    9  C   UNL     1     -12.276  13.136  70.245  1.00  0.00    -0.376 A  
HETATM   10  O   UNL     1     -12.304  15.312  69.390  1.00  0.00    -0.548 OA 
HETATM   11  H   UNL     1     -12.520  15.656  70.248  1.00  0.00     0.000 HD 
HETATM   12  C   UNL     1     -12.076  11.769  70.091  1.00  0.00    -0.317 A  
HETATM   13  C   UNL     1     -11.730  11.240  68.856  1.00  0.00    -0.409 A  
HETATM   14  O   UNL     1     -12.204  10.908  71.140  1.00  0.00    -0.352 OA 
HETATM   15  H   UNL     1     -12.068   9.974  71.035  1.00  0.00     0.000 HD 
HETATM   16  C   UNL     1     -11.596  12.087  67.753  1.00  0.00    -0.400 A  
ENDBRANCH   6   7
ENDBRANCH   5   6
ENDBRANCH   4   5
ENDBRANCH   3   4
ENDBRANCH   2   3
TORSDOF 5
ENDMDL
MODEL       23
REMARK 921   NORMALIZED FREE ENERGY PREDICTED BY IDOCK:   -4.82 KCAL/MOL
REMARK 922        TOTAL FREE ENERGY PREDICTED BY IDOCK:   -6.64 KCAL/MOL
REMARK 923 INTER-LIGAND FREE ENERGY PREDICTED BY IDOCK:   -6.27 KCAL/MOL
REMARK 924 INTRA-LIGAND FREE ENERGY PREDICTED BY IDOCK:   -0.37 KCAL/MOL
REMARK 927      BINDING AFFINITY PREDICTED BY RF-SCORE:    0.00 PKD
ROOT
HETATM    1  C   UNL     1     -12.224  15.735  72.478  1.00  0.00    -0.570 C  
HETATM    2  C   UNL     1     -13.091  14.510  72.722  1.00  0.00    -0.589 C  
ENDROOT
BRANCH   2   3
HETATM    3  C   UNL     1     -12.984  13.517  71.566  1.00  0.00    -0.440 C  
BRANCH   3   4
HETATM    4  C   UNL     1     -12.442  14.179  70.298  1.00  0.00    -0.416 C  
BRANCH   4   5
HETATM    5  C   UNL     1     -11.797  13.145  69.374  1.00  0.00    -0.383 C  
BRANCH   5   6
HETATM    6  C   UNL     1     -10.736  13.781  68.476  1.00  0.00    -0.274 C  
BRANCH   6   7
HETATM    7  C   UNL     1     -11.126  13.725  67.018  1.00  0.00    -0.313 A  
HETATM    8  C   UNL     1     -10.201  13.819  65.970  1.00  0.00    -0.308 A  
HETATM    9  C   UNL     1     -10.604  13.726  64.638  1.00  0.00    -0.443 A  
HETATM   10  O   UNL     1      -8.863  14.010  66.172  1.00  0.00    -0.453 OA 
HETATM   11  H   UNL     1      -8.236  14.073  65.461  1.00  0.00     0.000 HD 
HETATM   12  C   UNL     1     -11.953  13.569  64.342  1.00  0.00    -0.422 A  
HETATM   13  C   UNL     1     -12.896  13.503  65.357  1.00  0.00    -0.420 A  
HETATM   14  O   UNL     1     -12.394  13.481  63.055  1.00  0.00    -0.970 OA 
HETATM   15  H   UNL     1     -13.315  13.373  62.853  1.00  0.00     0.000 HD 
HETATM   16  C   UNL     1     -12.486  13.580  66.690  1.00  0.00    -0.263 A  
ENDBRANCH   6   7
ENDBRANCH   5   6
ENDBRANCH   4   5
ENDBRANCH   3   4
ENDBRANCH   2   3
TORSDOF 5
ENDMDL
MODEL       24
REMARK 921   NORMALIZED FREE ENERGY PREDICTED BY IDOCK:   -4.81 KCAL/MOL
REMARK 922        TOTAL FREE ENERGY PREDICTED BY IDOCK:   -6.62 KCAL/MOL
REMARK 923 INTER-LIGAND FREE ENERGY PREDICTED BY IDOCK:   -6.14 KCAL/MOL
REMARK 924 INTRA-LIGAND FREE ENERGY PREDICTED BY IDOCK:   -0.47 KCAL/MOL
REMARK 927      BINDING AFFINITY PREDICTED BY RF-SCORE:    0.00 PKD
ROOT
HETATM    1  C   UNL     1     -10.383  11.761  63.651  1.00  0.00    -0.476 C  
HETATM    2  C   UNL     1     -11.794  12.324  63.717  1.00  0.00    -0.587 C  
ENDROOT
BRANCH   2   3
HETATM    3  C   UNL     1     -12.257  12.490  65.164  1.00  0.00    -0.509 C  
BRANCH   3   4
HETATM    4  C   UNL     1     -12.663  13.933  65.468  1.00  0.00    -0.536 C  
BRANCH   4   5
HETATM    5  C   UNL     1     -12.042  14.411  66.781  1.00  0.00    -0.393 C  
BRANCH   5   6
HETATM    6  C   UNL     1     -10.596  14.866  66.584  1.00  0.00    -0.305 C  
BRANCH   6   7
HETATM    7  C   UNL     1     -10.458  16.366  66.699  1.00  0.00    -0.274 A  
HETATM    8  C   UNL     1     -10.698  17.244  65.633  1.00  0.00    -0.120 A  
HETATM    9  C   UNL     1     -10.593  18.626  65.796  1.00  0.00    -0.290 A  
HETATM   10  O   UNL     1     -11.038  16.820  64.380  1.00  0.00    -1.176 OA 
HETATM   11  H   UNL     1     -11.201  17.415  63.658  1.00  0.00     0.000 HD 
HETATM   12  C   UNL     1     -10.215  19.141  67.031  1.00  0.00    -0.393 A  
HETATM   13  C   UNL     1      -9.942  18.295  68.096  1.00  0.00    -0.377 A  
HETATM   14  O   UNL     1     -10.092  20.483  67.234  1.00  0.00    -0.421 OA 
HETATM   15  H   UNL     1      -9.834  20.835  68.078  1.00  0.00     0.000 HD 
HETATM   16  C   UNL     1     -10.064  16.913  67.933  1.00  0.00    -0.288 A  
ENDBRANCH   6   7
ENDBRANCH   5   6
ENDBRANCH   4   5
ENDBRANCH   3   4
ENDBRANCH   2   3
TORSDOF 5
ENDMDL
MODEL       25
REMARK 921   NORMALIZED FREE ENERGY PREDICTED BY IDOCK:   -4.80 KCAL/MOL
REMARK 922        TOTAL FREE ENERGY PREDICTED BY IDOCK:   -6.61 KCAL/MOL
REMARK 923 INTER-LIGAND FREE ENERGY PREDICTED BY IDOCK:   -6.29 KCAL/MOL
REMARK 924 INTRA-LIGAND FREE ENERGY PREDICTED BY IDOCK:   -0.32 KCAL/MOL
REMARK 927      BINDING AFFINITY PREDICTED BY RF-SCORE:    0.00 PKD
ROOT
HETATM    1  C   UNL     1     -12.367   8.755  72.342  1.00  0.00    -0.414 C  
HETATM    2  C   UNL     1     -12.943  10.105  71.943  1.00  0.00    -0.549 C  
ENDROOT
BRANCH   2   3
HETATM    3  C   UNL     1     -12.715  10.387  70.459  1.00  0.00    -0.355 C  
BRANCH   3   4
HETATM    4  C   UNL     1     -12.029  11.735  70.236  1.00  0.00    -0.429 C  
BRANCH   4   5
HETATM    5  C   UNL     1     -11.171  11.710  68.970  1.00  0.00    -0.323 C  
BRANCH   5   6
HETATM    6  C   UNL     1     -11.716  12.662  67.905  1.00  0.00    -0.412 C  
BRANCH   6   7
HETATM    7  C   UNL     1     -11.411  12.175  66.508  1.00  0.00    -0.405 A  
HETATM    8  C   UNL     1     -12.105  12.615  65.372  1.00  0.00    -0.462 A  
HETATM    9  C   UNL     1     -11.764  12.165  64.096  1.00  0.00    -0.478 A  
HETATM   10  O   UNL     1     -13.149  13.494  65.430  1.00  0.00    -0.663 OA 
HETATM   11  H   UNL     1     -13.619  13.792  64.661  1.00  0.00     0.000 HD 
HETATM   12  C   UNL     1     -10.736  11.240  63.951  1.00  0.00    -0.384 A  
HETATM   13  C   UNL     1     -10.051  10.764  65.059  1.00  0.00    -0.377 A  
HETATM   14  O   UNL     1     -10.374  10.766  62.725  1.00  0.00    -0.752 OA 
HETATM   15  H   UNL     1      -9.672  10.135  62.625  1.00  0.00     0.000 HD 
HETATM   16  C   UNL     1     -10.386  11.229  66.333  1.00  0.00    -0.291 A  
ENDBRANCH   6   7
ENDBRANCH   5   6
ENDBRANCH   4   5
ENDBRANCH   3   4
ENDBRANCH   2   3
TORSDOF 5
ENDMDL
MODEL       26
REMARK 921   NORMALIZED FREE ENERGY PREDICTED BY IDOCK:   -4.78 KCAL/MOL
REMARK 922        TOTAL FREE ENERGY PREDICTED BY IDOCK:   -6.59 KCAL/MOL
REMARK 923 INTER-LIGAND FREE ENERGY PREDICTED BY IDOCK:   -6.04 KCAL/MOL
REMARK 924 INTRA-LIGAND FREE ENERGY PREDICTED BY IDOCK:   -0.55 KCAL/MOL
REMARK 927      BINDING AFFINITY PREDICTED BY RF-SCORE:    0.00 PKD
ROOT
HETATM    1  C   UNL     1     -12.537   9.869  71.601  1.00  0.00    -0.519 C  
HETATM    2  C   UNL     1     -11.190   9.809  70.899  1.00  0.00    -0.429 C  
ENDROOT
BRANCH   2   3
HETATM    3  C   UNL     1     -11.042  10.943  69.887  1.00  0.00    -0.311 C  
BRANCH   3   4
HETATM    4  C   UNL     1     -12.087  12.038  70.105  1.00  0.00    -0.377 C  
BRANCH   4   5
HETATM    5  C   UNL     1     -11.606  13.375  69.538  1.00  0.00    -0.352 C  
BRANCH   5   6
HETATM    6  C   UNL     1     -10.526  13.177  68.474  1.00  0.00    -0.262 C  
BRANCH   6   7
HETATM    7  C   UNL     1     -11.052  13.446  67.084  1.00  0.00    -0.303 A  
HETATM    8  C   UNL     1     -11.002  14.707  66.474  1.00  0.00    -0.318 A  
HETATM    9  C   UNL     1     -11.467  14.900  65.173  1.00  0.00    -0.357 A  
HETATM   10  O   UNL     1     -10.511  15.818  67.098  1.00  0.00    -0.296 OA 
HETATM   11  H   UNL     1     -10.476  16.672  66.685  1.00  0.00     0.000 HD 
HETATM   12  C   UNL     1     -12.018  13.829  64.478  1.00  0.00    -0.427 A  
HETATM   13  C   UNL     1     -12.108  12.576  65.067  1.00  0.00    -0.504 A  
HETATM   14  O   UNL     1     -12.491  13.973  63.208  1.00  0.00    -1.139 OA 
HETATM   15  H   UNL     1     -12.867  13.241  62.733  1.00  0.00     0.000 HD 
HETATM   16  C   UNL     1     -11.626  12.384  66.364  1.00  0.00    -0.442 A  
ENDBRANCH   6   7
ENDBRANCH   5   6
ENDBRANCH   4   5
ENDBRANCH   3   4
ENDBRANCH   2   3
TORSDOF 5
ENDMDL
MODEL       27
REMARK 921   NORMALIZED FREE ENERGY PREDICTED BY IDOCK:   -4.77 KCAL/MOL
REMARK 922        TOTAL FREE ENERGY PREDICTED BY IDOCK:   -6.57 KCAL/MOL
REMARK 923 INTER-LIGAND FREE ENERGY PREDICTED BY IDOCK:   -6.24 KCAL/MOL
REMARK 924 INTRA-LIGAND FREE ENERGY PREDICTED BY IDOCK:   -0.33 KCAL/MOL
REMARK 927      BINDING AFFINITY PREDICTED BY RF-SCORE:    0.00 PKD
ROOT
HETATM    1  C   UNL     1      -9.991   8.921  66.529  1.00  0.00    -0.358 C  
HETATM    2  C   UNL     1     -10.063  10.280  67.207  1.00  0.00    -0.249 C  
ENDROOT
BRANCH   2   3
HETATM    3  C   UNL     1     -11.364  10.439  67.992  1.00  0.00    -0.277 C  
BRANCH   3   4
HETATM    4  C   UNL     1     -11.113  10.499  69.499  1.00  0.00    -0.320 C  
BRANCH   4   5
HETATM    5  C   UNL     1     -12.124  11.419  70.186  1.00  0.00    -0.439 C  
BRANCH   5   6
HETATM    6  C   UNL     1     -11.908  12.881  69.794  1.00  0.00    -0.380 C  
BRANCH   6   7
HETATM    7  C   UNL     1     -12.245  13.821  70.927  1.00  0.00    -0.427 A  
HETATM    8  C   UNL     1     -11.495  14.968  71.223  1.00  0.00    -0.311 A  
HETATM    9  C   UNL     1     -11.866  15.828  72.257  1.00  0.00    -0.598 A  
HETATM   10  O   UNL     1     -10.364  15.316  70.540  1.00  0.00    -0.488 OA 
HETATM   11  H   UNL     1      -9.857  16.093  70.740  1.00  0.00     0.000 HD 
HETATM   12  C   UNL     1     -12.983  15.527  73.027  1.00  0.00    -0.499 A  
HETATM   13  C   UNL     1     -13.728  14.384  72.777  1.00  0.00    -0.466 A  
HETATM   14  O   UNL     1     -13.379  16.335  74.052  1.00  0.00    -0.948 OA 
HETATM   15  H   UNL     1     -14.142  16.130  74.579  1.00  0.00     0.000 HD 
HETATM   16  C   UNL     1     -13.362  13.535  71.731  1.00  0.00    -0.480 A  
ENDBRANCH   6   7
ENDBRANCH   5   6
ENDBRANCH   4   5
ENDBRANCH   3   4
ENDBRANCH   2   3
TORSDOF 5
ENDMDL
MODEL       28
REMARK 921   NORMALIZED FREE ENERGY PREDICTED BY IDOCK:   -4.76 KCAL/MOL
REMARK 922        TOTAL FREE ENERGY PREDICTED BY IDOCK:   -6.55 KCAL/MOL
REMARK 923 INTER-LIGAND FREE ENERGY PREDICTED BY IDOCK:   -6.28 KCAL/MOL
REMARK 924 INTRA-LIGAND FREE ENERGY PREDICTED BY IDOCK:   -0.27 KCAL/MOL
REMARK 927      BINDING AFFINITY PREDICTED BY RF-SCORE:    0.00 PKD
ROOT
HETATM    1  C   UNL     1     -10.134  19.382  67.748  1.00  0.00    -0.508 C  
HETATM    2  C   UNL     1     -10.273  18.124  68.591  1.00  0.00    -0.382 C  
ENDROOT
BRANCH   2   3
HETATM    3  C   UNL     1     -10.228  16.868  67.722  1.00  0.00    -0.308 C  
BRANCH   3   4
HETATM    4  C   UNL     1     -11.341  15.885  68.087  1.00  0.00    -0.311 C  
BRANCH   4   5
HETATM    5  C   UNL     1     -11.055  14.496  67.514  1.00  0.00    -0.316 C  
BRANCH   5   6
HETATM    6  C   UNL     1     -12.179  14.029  66.589  1.00  0.00    -0.463 C  
BRANCH   6   7
HETATM    7  C   UNL     1     -11.675  13.080  65.527  1.00  0.00    -0.408 A  
HETATM    8  C   UNL     1     -11.870  13.290  64.155  1.00  0.00    -0.443 A  
HETATM    9  C   UNL     1     -11.354  12.405  63.207  1.00  0.00    -0.399 A  
HETATM   10  O   UNL     1     -12.570  14.351  63.655  1.00  0.00    -1.007 OA 
HETATM   11  H   UNL     1     -12.701  14.493  62.725  1.00  0.00     0.000 HD 
HETATM   12  C   UNL     1     -10.661  11.278  63.633  1.00  0.00    -0.388 A  
HETATM   13  C   UNL     1     -10.478  11.028  64.985  1.00  0.00    -0.344 A  
HETATM   14  O   UNL     1     -10.146  10.381  62.743  1.00  0.00    -0.650 OA 
HETATM   15  H   UNL     1      -9.672   9.612  63.034  1.00  0.00     0.000 HD 
HETATM   16  C   UNL     1     -10.982  11.925  65.929  1.00  0.00    -0.354 A  
ENDBRANCH   6   7
ENDBRANCH   5   6
ENDBRANCH   4   5
ENDBRANCH   3   4
ENDBRANCH   2   3
TORSDOF 5
ENDMDL
MODEL       29
REMARK 921   NORMALIZED FREE ENERGY PREDICTED BY IDOCK:   -4.75 KCAL/MOL
REMARK 922        TOTAL FREE ENERGY PREDICTED BY IDOCK:   -6.55 KCAL/MOL
REMARK 923 INTER-LIGAND FREE ENERGY PREDICTED BY IDOCK:   -6.07 KCAL/MOL
REMARK 924 INTRA-LIGAND FREE ENERGY PREDICTED BY IDOCK:   -0.48 KCAL/MOL
REMARK 927      BINDING AFFINITY PREDICTED BY RF-SCORE:    0.00 PKD
ROOT
HETATM    1  C   UNL     1     -11.875  12.841  63.471  1.00  0.00    -0.618 C  
HETATM    2  C   UNL     1     -12.447  12.662  64.869  1.00  0.00    -0.564 C  
ENDROOT
BRANCH   2   3
HETATM    3  C   UNL     1     -12.623  14.008  65.571  1.00  0.00    -0.543 C  
BRANCH   3   4
HETATM    4  C   UNL     1     -11.293  14.556  66.089  1.00  0.00    -0.348 C  
BRANCH   4   5
HETATM    5  C   UNL     1     -10.866  13.837  67.370  1.00  0.00    -0.285 C  
BRANCH   5   6
HETATM    6  C   UNL     1     -11.304  14.607  68.616  1.00  0.00    -0.305 C  
BRANCH   6   7
HETATM    7  C   UNL     1     -11.890  13.691  69.664  1.00  0.00    -0.396 A  
HETATM    8  C   UNL     1     -12.579  14.156  70.793  1.00  0.00    -0.362 A  
HETATM    9  C   UNL     1     -13.136  13.271  71.717  1.00  0.00    -0.472 A  
HETATM   10  O   UNL     1     -12.747  15.483  71.069  1.00  0.00    -0.412 OA 
HETATM   11  H   UNL     1     -13.215  15.798  71.834  1.00  0.00     0.000 HD 
HETATM   12  C   UNL     1     -12.978  11.902  71.531  1.00  0.00    -0.323 A  
HETATM   13  C   UNL     1     -12.275  11.413  70.440  1.00  0.00    -0.450 A  
HETATM   14  O   UNL     1     -13.498  11.000  72.412  1.00  0.00    -0.591 OA 
HETATM   15  H   UNL     1     -13.391  10.065  72.285  1.00  0.00     0.000 HD 
HETATM   16  C   UNL     1     -11.734  12.302  69.509  1.00  0.00    -0.398 A  
ENDBRANCH   6   7
ENDBRANCH   5   6
ENDBRANCH   4   5
ENDBRANCH   3   4
ENDBRANCH   2   3
TORSDOF 5
ENDMDL
MODEL       30
REMARK 921   NORMALIZED FREE ENERGY PREDICTED BY IDOCK:   -4.73 KCAL/MOL
REMARK 922        TOTAL FREE ENERGY PREDICTED BY IDOCK:   -6.51 KCAL/MOL
REMARK 923 INTER-LIGAND FREE ENERGY PREDICTED BY IDOCK:   -6.23 KCAL/MOL
REMARK 924 INTRA-LIGAND FREE ENERGY PREDICTED BY IDOCK:   -0.28 KCAL/MOL
REMARK 927      BINDING AFFINITY PREDICTED BY RF-SCORE:    0.00 PKD
ROOT
HETATM    1  C   UNL     1     -11.747   6.639  70.568  1.00  0.00    -0.453 C  
HETATM    2  C   UNL     1     -12.829   7.285  71.420  1.00  0.00    -0.425 C  
ENDROOT
BRANCH   2   3
HETATM    3  C   UNL     1     -12.321   8.567  72.078  1.00  0.00    -0.423 C  
BRANCH   3   4
HETATM    4  C   UNL     1     -13.385   9.665  72.077  1.00  0.00    -0.547 C  
BRANCH   4   5
HETATM    5  C   UNL     1     -12.842  10.953  71.454  1.00  0.00    -0.554 C  
BRANCH   5   6
HETATM    6  C   UNL     1     -13.410  12.193  72.145  1.00  0.00    -0.438 C  
BRANCH   6   7
HETATM    7  C   UNL     1     -12.794  13.464  71.612  1.00  0.00    -0.414 A  
HETATM    8  C   UNL     1     -12.774  14.668  72.330  1.00  0.00    -0.347 A  
HETATM    9  C   UNL     1     -12.161  15.809  71.812  1.00  0.00    -0.541 A  
HETATM   10  O   UNL     1     -13.347  14.811  73.562  1.00  0.00    -0.548 OA 
HETATM   11  H   UNL     1     -13.332  15.627  74.049  1.00  0.00     0.000 HD 
HETATM   12  C   UNL     1     -11.586  15.761  70.548  1.00  0.00    -0.375 A  
HETATM   13  C   UNL     1     -11.617  14.592  69.801  1.00  0.00    -0.341 A  
HETATM   14  O   UNL     1     -10.982  16.854  69.998  1.00  0.00    -0.407 OA 
HETATM   15  H   UNL     1     -10.589  16.820  69.135  1.00  0.00     0.000 HD 
HETATM   16  C   UNL     1     -12.217  13.448  70.330  1.00  0.00    -0.415 A  
ENDBRANCH   6   7
ENDBRANCH   5   6
ENDBRANCH   4   5
ENDBRANCH   3   4
ENDBRANCH   2   3
TORSDOF 5
ENDMDL
MODEL       31
REMARK 921   NORMALIZED FREE ENERGY PREDICTED BY IDOCK:   -4.72 KCAL/MOL
REMARK 922        TOTAL FREE ENERGY PREDICTED BY IDOCK:   -6.50 KCAL/MOL
REMARK 923 INTER-LIGAND FREE ENERGY PREDICTED BY IDOCK:   -6.06 KCAL/MOL
REMARK 924 INTRA-LIGAND FREE ENERGY PREDICTED BY IDOCK:   -0.44 KCAL/MOL
REMARK 927      BINDING AFFINITY PREDICTED BY RF-SCORE:    0.00 PKD
ROOT
HETATM    1  C   UNL     1      -5.582  20.011  67.735  1.00  0.00    -0.211 C  
HETATM    2  C   UNL     1      -6.971  20.629  67.762  1.00  0.00    -0.351 C  
ENDROOT
BRANCH   2   3
HETATM    3  C   UNL     1      -8.023  19.608  68.191  1.00  0.00    -0.353 C  
BRANCH   3   4
HETATM    4  C   UNL     1      -9.413  19.970  67.667  1.00  0.00    -0.498 C  
BRANCH   4   5
HETATM    5  C   UNL     1     -10.340  18.753  67.686  1.00  0.00    -0.476 C  
BRANCH   5   6
HETATM    6  C   UNL     1     -10.649  18.262  66.271  1.00  0.00    -0.320 C  
BRANCH   6   7
HETATM    7  C   UNL     1     -10.386  16.783  66.121  1.00  0.00    -0.338 A  
HETATM    8  C   UNL     1     -10.850  16.026  65.036  1.00  0.00    -0.404 A  
HETATM    9  C   UNL     1     -10.552  14.668  64.920  1.00  0.00    -0.446 A  
HETATM   10  O   UNL     1     -11.620  16.551  64.036  1.00  0.00    -1.490 OA 
HETATM   11  H   UNL     1     -11.935  16.038  63.302  1.00  0.00     0.000 HD 
HETATM   12  C   UNL     1      -9.805  14.047  65.914  1.00  0.00    -0.281 A  
HETATM   13  C   UNL     1      -9.356  14.763  67.014  1.00  0.00    -0.245 A  
HETATM   14  O   UNL     1      -9.495  12.720  65.846  1.00  0.00    -0.416 OA 
HETATM   15  H   UNL     1      -8.984  12.295  66.525  1.00  0.00     0.000 HD 
HETATM   16  C   UNL     1      -9.644  16.125  67.117  1.00  0.00    -0.235 A  
ENDBRANCH   6   7
ENDBRANCH   5   6
ENDBRANCH   4   5
ENDBRANCH   3   4
ENDBRANCH   2   3
TORSDOF 5
ENDMDL
MODEL       32
REMARK 921   NORMALIZED FREE ENERGY PREDICTED BY IDOCK:   -4.67 KCAL/MOL
REMARK 922        TOTAL FREE ENERGY PREDICTED BY IDOCK:   -6.45 KCAL/MOL
REMARK 923 INTER-LIGAND FREE ENERGY PREDICTED BY IDOCK:   -6.00 KCAL/MOL
REMARK 924 INTRA-LIGAND FREE ENERGY PREDICTED BY IDOCK:   -0.45 KCAL/MOL
REMARK 927      BINDING AFFINITY PREDICTED BY RF-SCORE:    0.00 PKD
ROOT
HETATM    1  C   UNL     1     -10.421  19.910  66.044  1.00  0.00    -0.580 C  
HETATM    2  C   UNL     1      -9.842  19.072  67.174  1.00  0.00    -0.383 C  
ENDROOT
BRANCH   2   3
HETATM    3  C   UNL     1      -9.823  17.589  66.809  1.00  0.00    -0.306 C  
BRANCH   3   4
HETATM    4  C   UNL     1     -10.596  16.745  67.825  1.00  0.00    -0.341 C  
BRANCH   4   5
HETATM    5  C   UNL     1     -10.687  15.288  67.370  1.00  0.00    -0.293 C  
BRANCH   5   6
HETATM    6  C   UNL     1      -9.913  15.056  66.071  1.00  0.00    -0.334 C  
BRANCH   6   7
HETATM    7  C   UNL     1     -10.594  14.041  65.185  1.00  0.00    -0.400 A  
HETATM    8  C   UNL     1     -10.180  12.705  65.087  1.00  0.00    -0.280 A  
HETATM    9  C   UNL     1     -10.863  11.793  64.282  1.00  0.00    -0.404 A  
HETATM   10  O   UNL     1      -9.096  12.210  65.754  1.00  0.00    -0.425 OA 
HETATM   11  H   UNL     1      -8.816  11.305  65.688  1.00  0.00     0.000 HD 
HETATM   12  C   UNL     1     -11.956  12.224  63.539  1.00  0.00    -0.533 A  
HETATM   13  C   UNL     1     -12.371  13.546  63.592  1.00  0.00    -0.377 A  
HETATM   14  O   UNL     1     -12.649  11.370  62.733  1.00  0.00    -0.952 OA 
HETATM   15  H   UNL     1     -13.396  11.663  62.225  1.00  0.00     0.000 HD 
HETATM   16  C   UNL     1     -11.694  14.452  64.412  1.00  0.00    -0.390 A  
ENDBRANCH   6   7
ENDBRANCH   5   6
ENDBRANCH   4   5
ENDBRANCH   3   4
ENDBRANCH   2   3
TORSDOF 5
ENDMDL
MODEL       33
REMARK 921   NORMALIZED FREE ENERGY PREDICTED BY IDOCK:   -4.63 KCAL/MOL
REMARK 922        TOTAL FREE ENERGY PREDICTED BY IDOCK:   -6.39 KCAL/MOL
REMARK 923 INTER-LIGAND FREE ENERGY PREDICTED BY IDOCK:   -5.97 KCAL/MOL
REMARK 924 INTRA-LIGAND FREE ENERGY PREDICTED BY IDOCK:   -0.43 KCAL/MOL
REMARK 927      BINDING AFFINITY PREDICTED BY RF-SCORE:    0.00 PKD
ROOT
HETATM    1  C   UNL     1      -9.839  10.515  63.868  1.00  0.00    -0.373 C  
HETATM    2  C   UNL     1     -10.018  10.530  65.378  1.00  0.00    -0.353 C  
ENDROOT
BRANCH   2   3
HETATM    3  C   UNL     1      -9.842   9.133  65.970  1.00  0.00    -0.342 C  
BRANCH   3   4
HETATM    4  C   UNL     1     -10.535   9.000  67.327  1.00  0.00    -0.343 C  
BRANCH   4   5
HETATM    5  C   UNL     1     -10.823  10.375  67.932  1.00  0.00    -0.331 C  
BRANCH   5   6
HETATM    6  C   UNL     1     -10.264  10.492  69.350  1.00  0.00    -0.245 C  
BRANCH   6   7
HETATM    7  C   UNL     1     -11.293  10.124  70.392  1.00  0.00    -0.401 A  
HETATM    8  C   UNL     1     -12.277  11.012  70.848  1.00  0.00    -0.367 A  
HETATM    9  C   UNL     1     -13.231  10.616  71.786  1.00  0.00    -0.526 A  
HETATM   10  O   UNL     1     -12.369  12.306  70.420  1.00  0.00    -0.302 OA 
HETATM   11  H   UNL     1     -13.036  12.908  70.729  1.00  0.00     0.000 HD 
HETATM   12  C   UNL     1     -13.186   9.325  72.301  1.00  0.00    -0.460 A  
HETATM   13  C   UNL     1     -12.206   8.434  71.891  1.00  0.00    -0.395 A  
HETATM   14  O   UNL     1     -14.093   8.897  73.225  1.00  0.00    -1.211 OA 
HETATM   15  H   UNL     1     -14.063   8.016  73.577  1.00  0.00     0.000 HD 
HETATM   16  C   UNL     1     -11.264   8.829  70.940  1.00  0.00    -0.320 A  
ENDBRANCH   6   7
ENDBRANCH   5   6
ENDBRANCH   4   5
ENDBRANCH   3   4
ENDBRANCH   2   3
TORSDOF 5
ENDMDL
MODEL       34
REMARK 921   NORMALIZED FREE ENERGY PREDICTED BY IDOCK:   -4.61 KCAL/MOL
REMARK 922        TOTAL FREE ENERGY PREDICTED BY IDOCK:   -6.36 KCAL/MOL
REMARK 923 INTER-LIGAND FREE ENERGY PREDICTED BY IDOCK:   -6.04 KCAL/MOL
REMARK 924 INTRA-LIGAND FREE ENERGY PREDICTED BY IDOCK:   -0.33 KCAL/MOL
REMARK 927      BINDING AFFINITY PREDICTED BY RF-SCORE:    0.00 PKD
ROOT
HETATM    1  C   UNL     1      -9.979   8.771  71.917  1.00  0.00    -0.401 C  
HETATM    2  C   UNL     1     -11.103   9.468  71.165  1.00  0.00    -0.450 C  
ENDROOT
BRANCH   2   3
HETATM    3  C   UNL     1     -10.598  10.087  69.864  1.00  0.00    -0.324 C  
BRANCH   3   4
HETATM    4  C   UNL     1     -10.244   9.020  68.827  1.00  0.00    -0.226 C  
BRANCH   4   5
HETATM    5  C   UNL     1     -10.654   9.464  67.422  1.00  0.00    -0.326 C  
BRANCH   5   6
HETATM    6  C   UNL     1      -9.834  10.666  66.953  1.00  0.00    -0.228 C  
BRANCH   6   7
HETATM    7  C   UNL     1     -10.602  11.521  65.972  1.00  0.00    -0.310 A  
HETATM    8  C   UNL     1     -11.657  12.363  66.348  1.00  0.00    -0.384 A  
HETATM    9  C   UNL     1     -12.314  13.163  65.413  1.00  0.00    -0.532 A  
HETATM   10  O   UNL     1     -12.115  12.457  67.632  1.00  0.00    -0.470 OA 
HETATM   11  H   UNL     1     -12.830  13.028  67.887  1.00  0.00     0.000 HD 
HETATM   12  C   UNL     1     -11.935  13.101  64.076  1.00  0.00    -0.460 A  
HETATM   13  C   UNL     1     -10.915  12.254  63.669  1.00  0.00    -0.532 A  
HETATM   14  O   UNL     1     -12.554  13.858  63.126  1.00  0.00    -1.057 OA 
HETATM   15  H   UNL     1     -12.295  13.816  62.213  1.00  0.00     0.000 HD 
HETATM   16  C   UNL     1     -10.249  11.468  64.612  1.00  0.00    -0.334 A  
ENDBRANCH   6   7
ENDBRANCH   5   6
ENDBRANCH   4   5
ENDBRANCH   3   4
ENDBRANCH   2   3
TORSDOF 5
ENDMDL
MODEL       35
REMARK 921   NORMALIZED FREE ENERGY PREDICTED BY IDOCK:   -4.61 KCAL/MOL
REMARK 922        TOTAL FREE ENERGY PREDICTED BY IDOCK:   -6.36 KCAL/MOL
REMARK 923 INTER-LIGAND FREE ENERGY PREDICTED BY IDOCK:   -6.08 KCAL/MOL
REMARK 924 INTRA-LIGAND FREE ENERGY PREDICTED BY IDOCK:   -0.28 KCAL/MOL
REMARK 927      BINDING AFFINITY PREDICTED BY RF-SCORE:    0.00 PKD
ROOT
HETATM    1  C   UNL     1     -11.854  12.294  63.510  1.00  0.00    -0.601 C  
HETATM    2  C   UNL     1     -10.641  12.479  64.409  1.00  0.00    -0.376 C  
ENDROOT
BRANCH   2   3
HETATM    3  C   UNL     1     -10.658  11.487  65.571  1.00  0.00    -0.334 C  
BRANCH   3   4
HETATM    4  C   UNL     1     -10.566  12.195  66.923  1.00  0.00    -0.257 C  
BRANCH   4   5
HETATM    5  C   UNL     1     -11.486  11.533  67.951  1.00  0.00    -0.372 C  
BRANCH   5   6
HETATM    6  C   UNL     1     -10.699  11.017  69.156  1.00  0.00    -0.274 C  
BRANCH   6   7
HETATM    7  C   UNL     1     -11.609  10.450  70.220  1.00  0.00    -0.410 A  
HETATM    8  C   UNL     1     -11.591   9.103  70.609  1.00  0.00    -0.235 A  
HETATM    9  C   UNL     1     -12.425   8.631  71.622  1.00  0.00    -0.382 A  
HETATM   10  O   UNL     1     -10.775   8.171  70.032  1.00  0.00    -0.240 OA 
HETATM   11  H   UNL     1     -10.762   7.259  70.296  1.00  0.00     0.000 HD 
HETATM   12  C   UNL     1     -13.314   9.506  72.237  1.00  0.00    -0.441 A  
HETATM   13  C   UNL     1     -13.376  10.837  71.853  1.00  0.00    -0.445 A  
HETATM   14  O   UNL     1     -14.153   9.087  73.227  1.00  0.00    -1.218 OA 
HETATM   15  H   UNL     1     -14.760   9.685  73.648  1.00  0.00     0.000 HD 
HETATM   16  C   UNL     1     -12.527  11.309  70.849  1.00  0.00    -0.493 A  
ENDBRANCH   6   7
ENDBRANCH   5   6
ENDBRANCH   4   5
ENDBRANCH   3   4
ENDBRANCH   2   3
TORSDOF 5
ENDMDL
MODEL       36
REMARK 921   NORMALIZED FREE ENERGY PREDICTED BY IDOCK:   -4.60 KCAL/MOL
REMARK 922        TOTAL FREE ENERGY PREDICTED BY IDOCK:   -6.36 KCAL/MOL
REMARK 923 INTER-LIGAND FREE ENERGY PREDICTED BY IDOCK:   -6.03 KCAL/MOL
REMARK 924 INTRA-LIGAND FREE ENERGY PREDICTED BY IDOCK:   -0.33 KCAL/MOL
REMARK 927      BINDING AFFINITY PREDICTED BY RF-SCORE:    0.00 PKD
ROOT
HETATM    1  C   UNL     1     -10.599  11.408  63.717  1.00  0.00    -0.464 C  
HETATM    2  C   UNL     1     -11.686  12.452  63.511  1.00  0.00    -0.592 C  
ENDROOT
BRANCH   2   3
HETATM    3  C   UNL     1     -12.476  12.689  64.796  1.00  0.00    -0.555 C  
BRANCH   3   4
HETATM    4  C   UNL     1     -11.554  12.921  65.994  1.00  0.00    -0.424 C  
BRANCH   4   5
HETATM    5  C   UNL     1     -12.133  13.981  66.934  1.00  0.00    -0.465 C  
BRANCH   5   6
HETATM    6  C   UNL     1     -11.060  14.552  67.861  1.00  0.00    -0.290 C  
BRANCH   6   7
HETATM    7  C   UNL     1     -11.531  14.610  69.295  1.00  0.00    -0.322 A  
HETATM    8  C   UNL     1     -11.489  15.777  70.071  1.00  0.00    -0.356 A  
HETATM    9  C   UNL     1     -11.968  15.792  71.381  1.00  0.00    -0.499 A  
HETATM   10  O   UNL     1     -10.979  16.959  69.613  1.00  0.00    -0.374 OA 
HETATM   11  H   UNL     1     -10.951  17.749  70.139  1.00  0.00     0.000 HD 
HETATM   12  C   UNL     1     -12.470  14.621  71.938  1.00  0.00    -0.341 A  
HETATM   13  C   UNL     1     -12.497  13.444  71.204  1.00  0.00    -0.414 A  
HETATM   14  O   UNL     1     -12.942  14.587  73.217  1.00  0.00    -0.524 OA 
HETATM   15  H   UNL     1     -13.285  13.788  73.597  1.00  0.00     0.000 HD 
HETATM   16  C   UNL     1     -12.030  13.438  69.888  1.00  0.00    -0.408 A  
ENDBRANCH   6   7
ENDBRANCH   5   6
ENDBRANCH   4   5
ENDBRANCH   3   4
ENDBRANCH   2   3
TORSDOF 5
ENDMDL
MODEL       37
REMARK 921   NORMALIZED FREE ENERGY PREDICTED BY IDOCK:   -4.60 KCAL/MOL
REMARK 922        TOTAL FREE ENERGY PREDICTED BY IDOCK:   -6.35 KCAL/MOL
REMARK 923 INTER-LIGAND FREE ENERGY PREDICTED BY IDOCK:   -5.93 KCAL/MOL
REMARK 924 INTRA-LIGAND FREE ENERGY PREDICTED BY IDOCK:   -0.43 KCAL/MOL
REMARK 927      BINDING AFFINITY PREDICTED BY RF-SCORE:    0.00 PKD
ROOT
HETATM    1  C   UNL     1     -12.956  12.047  71.746  1.00  0.00    -0.445 C  
HETATM    2  C   UNL     1     -13.698  13.259  72.288  1.00  0.00    -0.686 C  
ENDROOT
BRANCH   2   3
HETATM    3  C   UNL     1     -12.813  14.505  72.266  1.00  0.00    -0.427 C  
BRANCH   3   4
HETATM    4  C   UNL     1     -13.064  15.356  71.020  1.00  0.00    -0.565 C  
BRANCH   4   5
HETATM    5  C   UNL     1     -11.784  16.065  70.574  1.00  0.00    -0.350 C  
BRANCH   5   6
HETATM    6  C   UNL     1     -10.870  15.126  69.787  1.00  0.00    -0.298 C  
BRANCH   6   7
HETATM    7  C   UNL     1     -10.915  15.411  68.304  1.00  0.00    -0.288 A  
HETATM    8  C   UNL     1     -10.310  16.532  67.718  1.00  0.00    -0.291 A  
HETATM    9  C   UNL     1     -10.348  16.735  66.338  1.00  0.00    -0.309 A  
HETATM   10  O   UNL     1      -9.659  17.491  68.441  1.00  0.00    -0.279 OA 
HETATM   11  H   UNL     1      -9.249  18.250  68.043  1.00  0.00     0.000 HD 
HETATM   12  C   UNL     1     -11.023  15.826  65.532  1.00  0.00    -0.268 A  
HETATM   13  C   UNL     1     -11.657  14.724  66.087  1.00  0.00    -0.292 A  
HETATM   14  O   UNL     1     -11.092  15.988  64.180  1.00  0.00    -1.021 OA 
HETATM   15  H   UNL     1     -11.553  15.367  63.629  1.00  0.00     0.000 HD 
HETATM   16  C   UNL     1     -11.603  14.516  67.467  1.00  0.00    -0.403 A  
ENDBRANCH   6   7
ENDBRANCH   5   6
ENDBRANCH   4   5
ENDBRANCH   3   4
ENDBRANCH   2   3
TORSDOF 5
ENDMDL
MODEL       38
REMARK 921   NORMALIZED FREE ENERGY PREDICTED BY IDOCK:   -4.60 KCAL/MOL
REMARK 922        TOTAL FREE ENERGY PREDICTED BY IDOCK:   -6.35 KCAL/MOL
REMARK 923 INTER-LIGAND FREE ENERGY PREDICTED BY IDOCK:   -5.68 KCAL/MOL
REMARK 924 INTRA-LIGAND FREE ENERGY PREDICTED BY IDOCK:   -0.66 KCAL/MOL
REMARK 927      BINDING AFFINITY PREDICTED BY RF-SCORE:    0.00 PKD
ROOT
HETATM    1  C   UNL     1      -8.807  10.844  62.770  1.00  0.00    -0.304 C  
HETATM    2  C   UNL     1      -9.854  10.632  63.853  1.00  0.00    -0.398 C  
ENDROOT
BRANCH   2   3
HETATM    3  C   UNL     1      -9.409   9.565  64.851  1.00  0.00    -0.264 C  
BRANCH   3   4
HETATM    4  C   UNL     1      -9.817   9.920  66.281  1.00  0.00    -0.308 C  
BRANCH   4   5
HETATM    5  C   UNL     1     -11.147  10.675  66.300  1.00  0.00     0.084 C  
BRANCH   5   6
HETATM    6  C   UNL     1     -11.055  11.952  67.135  1.00  0.00    -0.347 C  
BRANCH   6   7
HETATM    7  C   UNL     1     -11.126  13.192  66.276  1.00  0.00    -0.308 A  
HETATM    8  C   UNL     1     -10.017  14.004  66.006  1.00  0.00    -0.315 A  
HETATM    9  C   UNL     1     -10.122  15.121  65.176  1.00  0.00    -0.331 A  
HETATM   10  O   UNL     1      -8.777  13.771  66.530  1.00  0.00    -0.441 OA 
HETATM   11  H   UNL     1      -8.025  14.322  66.347  1.00  0.00     0.000 HD 
HETATM   12  C   UNL     1     -11.357  15.452  64.631  1.00  0.00    -0.355 A  
HETATM   13  C   UNL     1     -12.480  14.684  64.904  1.00  0.00    -0.266 A  
HETATM   14  O   UNL     1     -11.509  16.538  63.820  1.00  0.00    -1.615 OA 
HETATM   15  H   UNL     1     -12.353  16.764  63.447  1.00  0.00     0.000 HD 
HETATM   16  C   UNL     1     -12.366  13.557  65.722  1.00  0.00    -0.516 A  
ENDBRANCH   6   7
ENDBRANCH   5   6
ENDBRANCH   4   5
ENDBRANCH   3   4
ENDBRANCH   2   3
TORSDOF 5
ENDMDL
MODEL       39
REMARK 921   NORMALIZED FREE ENERGY PREDICTED BY IDOCK:   -4.59 KCAL/MOL
REMARK 922        TOTAL FREE ENERGY PREDICTED BY IDOCK:   -6.34 KCAL/MOL
REMARK 923 INTER-LIGAND FREE ENERGY PREDICTED BY IDOCK:   -5.73 KCAL/MOL
REMARK 924 INTRA-LIGAND FREE ENERGY PREDICTED BY IDOCK:   -0.60 KCAL/MOL
REMARK 927      BINDING AFFINITY PREDICTED BY RF-SCORE:    0.00 PKD
ROOT
HETATM    1  C   UNL     1     -10.865  15.178  65.287  1.00  0.00    -0.414 C  
HETATM    2  C   UNL     1     -11.255  14.919  66.734  1.00  0.00    -0.338 C  
ENDROOT
BRANCH   2   3
HETATM    3  C   UNL     1     -10.238  15.527  67.699  1.00  0.00    -0.255 C  
BRANCH   3   4
HETATM    4  C   UNL     1     -10.920  16.293  68.833  1.00  0.00    -0.334 C  
BRANCH   4   5
HETATM    5  C   UNL     1     -10.810  15.529  70.154  1.00  0.00    -0.346 C  
BRANCH   5   6
HETATM    6  C   UNL     1     -12.189  15.175  70.712  1.00  0.00    -0.392 C  
BRANCH   6   7
HETATM    7  C   UNL     1     -12.386  13.681  70.817  1.00  0.00    -0.446 A  
HETATM    8  C   UNL     1     -13.066  13.068  71.878  1.00  0.00    -0.384 A  
HETATM    9  C   UNL     1     -13.255  11.686  71.914  1.00  0.00    -0.475 A  
HETATM   10  O   UNL     1     -13.576  13.763  72.938  1.00  0.00    -0.681 OA 
HETATM   11  H   UNL     1     -14.036  13.347  73.657  1.00  0.00     0.000 HD 
HETATM   12  C   UNL     1     -12.735  10.899  70.893  1.00  0.00    -0.370 A  
HETATM   13  C   UNL     1     -12.032  11.474  69.845  1.00  0.00    -0.426 A  
HETATM   14  O   UNL     1     -12.889   9.544  70.890  1.00  0.00    -0.492 OA 
HETATM   15  H   UNL     1     -12.534   9.006  70.193  1.00  0.00     0.000 HD 
HETATM   16  C   UNL     1     -11.859  12.860  69.805  1.00  0.00    -0.380 A  
ENDBRANCH   6   7
ENDBRANCH   5   6
ENDBRANCH   4   5
ENDBRANCH   3   4
ENDBRANCH   2   3
TORSDOF 5
ENDMDL
MODEL       40
REMARK 921   NORMALIZED FREE ENERGY PREDICTED BY IDOCK:   -4.57 KCAL/MOL
REMARK 922        TOTAL FREE ENERGY PREDICTED BY IDOCK:   -6.32 KCAL/MOL
REMARK 923 INTER-LIGAND FREE ENERGY PREDICTED BY IDOCK:   -5.65 KCAL/MOL
REMARK 924 INTRA-LIGAND FREE ENERGY PREDICTED BY IDOCK:   -0.67 KCAL/MOL
REMARK 927      BINDING AFFINITY PREDICTED BY RF-SCORE:    0.00 PKD
ROOT
HETATM    1  C   UNL     1      -9.911  10.373  65.306  1.00  0.00    -0.376 C  
HETATM    2  C   UNL     1      -9.656  10.587  63.822  1.00  0.00    -0.363 C  
ENDROOT
BRANCH   2   3
HETATM    3  C   UNL     1     -10.072  11.990  63.385  1.00  0.00    -0.437 C  
BRANCH   3   4
HETATM    4  C   UNL     1     -11.583  12.196  63.501  1.00  0.00    -0.562 C  
BRANCH   4   5
HETATM    5  C   UNL     1     -11.904  13.494  64.243  1.00  0.00    -0.471 C  
BRANCH   5   6
HETATM    6  C   UNL     1     -12.641  13.223  65.555  1.00  0.00    -0.505 C  
BRANCH   6   7
HETATM    7  C   UNL     1     -11.853  13.700  66.751  1.00  0.00    -0.452 A  
HETATM    8  C   UNL     1     -11.550  12.882  67.849  1.00  0.00    -0.345 A  
HETATM    9  C   UNL     1     -10.787  13.355  68.916  1.00  0.00    -0.253 A  
HETATM   10  O   UNL     1     -11.977  11.588  67.954  1.00  0.00    -0.618 OA 
HETATM   11  H   UNL     1     -11.772  11.034  68.697  1.00  0.00     0.000 HD 
HETATM   12  C   UNL     1     -10.344  14.673  68.906  1.00  0.00    -0.245 A  
HETATM   13  C   UNL     1     -10.653  15.515  67.849  1.00  0.00    -0.274 A  
HETATM   14  O   UNL     1      -9.602  15.181  69.931  1.00  0.00    -0.457 OA 
HETATM   15  H   UNL     1      -9.298  16.081  69.925  1.00  0.00     0.000 HD 
HETATM   16  C   UNL     1     -11.403  15.032  66.775  1.00  0.00    -0.293 A  
ENDBRANCH   6   7
ENDBRANCH   5   6
ENDBRANCH   4   5
ENDBRANCH   3   4
ENDBRANCH   2   3
TORSDOF 5
ENDMDL
MODEL       41
REMARK 921   NORMALIZED FREE ENERGY PREDICTED BY IDOCK:   -4.57 KCAL/MOL
REMARK 922        TOTAL FREE ENERGY PREDICTED BY IDOCK:   -6.31 KCAL/MOL
REMARK 923 INTER-LIGAND FREE ENERGY PREDICTED BY IDOCK:   -5.93 KCAL/MOL
REMARK 924 INTRA-LIGAND FREE ENERGY PREDICTED BY IDOCK:   -0.38 KCAL/MOL
REMARK 927      BINDING AFFINITY PREDICTED BY RF-SCORE:    0.00 PKD
ROOT
HETATM    1  C   UNL     1      -8.016   8.642  65.002  1.00  0.00    -0.131 C  
HETATM    2  C   UNL     1      -8.769   7.796  66.018  1.00  0.00    -0.184 C  
ENDROOT
BRANCH   2   3
HETATM    3  C   UNL     1      -9.529   8.671  67.012  1.00  0.00    -0.221 C  
BRANCH   3   4
HETATM    4  C   UNL     1     -10.346   9.754  66.306  1.00  0.00    -0.235 C  
BRANCH   4   5
HETATM    5  C   UNL     1     -10.238  11.089  67.044  1.00  0.00    -0.250 C  
BRANCH   5   6
HETATM    6  C   UNL     1     -11.579  11.824  67.071  1.00  0.00    -0.321 C  
BRANCH   6   7
HETATM    7  C   UNL     1     -11.573  13.035  66.168  1.00  0.00    -0.412 A  
HETATM    8  C   UNL     1     -12.345  13.127  65.001  1.00  0.00    -0.459 A  
HETATM    9  C   UNL     1     -12.336  14.281  64.216  1.00  0.00    -0.407 A  
HETATM   10  O   UNL     1     -13.142  12.112  64.552  1.00  0.00    -0.720 OA 
HETATM   11  H   UNL     1     -13.665  12.175  63.762  1.00  0.00     0.000 HD 
HETATM   12  C   UNL     1     -11.523  15.348  64.581  1.00  0.00    -0.337 A  
HETATM   13  C   UNL     1     -10.725  15.274  65.714  1.00  0.00    -0.357 A  
HETATM   14  O   UNL     1     -11.476  16.492  63.841  1.00  0.00    -1.608 OA 
HETATM   15  H   UNL     1     -10.921  17.221  64.090  1.00  0.00     0.000 HD 
HETATM   16  C   UNL     1     -10.750  14.124  66.505  1.00  0.00    -0.289 A  
ENDBRANCH   6   7
ENDBRANCH   5   6
ENDBRANCH   4   5
ENDBRANCH   3   4
ENDBRANCH   2   3
TORSDOF 5
ENDMDL
MODEL       42
REMARK 921   NORMALIZED FREE ENERGY PREDICTED BY IDOCK:   -4.57 KCAL/MOL
REMARK 922        TOTAL FREE ENERGY PREDICTED BY IDOCK:   -6.31 KCAL/MOL
REMARK 923 INTER-LIGAND FREE ENERGY PREDICTED BY IDOCK:   -5.93 KCAL/MOL
REMARK 924 INTRA-LIGAND FREE ENERGY PREDICTED BY IDOCK:   -0.38 KCAL/MOL
REMARK 927      BINDING AFFINITY PREDICTED BY RF-SCORE:    0.00 PKD
ROOT
HETATM    1  C   UNL     1     -10.678   9.723  70.706  1.00  0.00    -0.393 C  
HETATM    2  C   UNL     1     -11.818  10.727  70.614  1.00  0.00    -0.460 C  
ENDROOT
BRANCH   2   3
HETATM    3  C   UNL     1     -11.590  11.720  69.475  1.00  0.00    -0.398 C  
BRANCH   3   4
HETATM    4  C   UNL     1     -11.914  13.153  69.899  1.00  0.00    -0.387 C  
BRANCH   4   5
HETATM    5  C   UNL     1     -11.890  14.098  68.696  1.00  0.00    -0.383 C  
BRANCH   5   6
HETATM    6  C   UNL     1     -10.641  13.885  67.841  1.00  0.00    -0.248 C  
BRANCH   6   7
HETATM    7  C   UNL     1     -10.975  13.265  66.505  1.00  0.00    -0.299 A  
HETATM    8  C   UNL     1     -10.045  12.554  65.733  1.00  0.00    -0.262 A  
HETATM    9  C   UNL     1     -10.408  11.968  64.520  1.00  0.00    -0.334 A  
HETATM   10  O   UNL     1      -8.739  12.393  66.101  1.00  0.00    -0.414 OA 
HETATM   11  H   UNL     1      -8.109  11.911  65.578  1.00  0.00     0.000 HD 
HETATM   12  C   UNL     1     -11.710  12.116  64.054  1.00  0.00    -0.430 A  
HETATM   13  C   UNL     1     -12.644  12.838  64.781  1.00  0.00    -0.518 A  
HETATM   14  O   UNL     1     -12.108  11.566  62.871  1.00  0.00    -0.913 OA 
HETATM   15  H   UNL     1     -12.996  11.666  62.552  1.00  0.00     0.000 HD 
HETATM   16  C   UNL     1     -12.280  13.410  66.002  1.00  0.00    -0.491 A  
ENDBRANCH   6   7
ENDBRANCH   5   6
ENDBRANCH   4   5
ENDBRANCH   3   4
ENDBRANCH   2   3
TORSDOF 5
ENDMDL
MODEL       43
REMARK 921   NORMALIZED FREE ENERGY PREDICTED BY IDOCK:   -4.57 KCAL/MOL
REMARK 922        TOTAL FREE ENERGY PREDICTED BY IDOCK:   -6.31 KCAL/MOL
REMARK 923 INTER-LIGAND FREE ENERGY PREDICTED BY IDOCK:   -5.98 KCAL/MOL
REMARK 924 INTRA-LIGAND FREE ENERGY PREDICTED BY IDOCK:   -0.32 KCAL/MOL
REMARK 927      BINDING AFFINITY PREDICTED BY RF-SCORE:    0.00 PKD
ROOT
HETATM    1  C   UNL     1     -11.494   6.400  72.555  1.00  0.00    -0.283 C  
HETATM    2  C   UNL     1     -11.188   7.477  71.525  1.00  0.00    -0.271 C  
ENDROOT
BRANCH   2   3
HETATM    3  C   UNL     1     -11.811   8.814  71.921  1.00  0.00    -0.437 C  
BRANCH   3   4
HETATM    4  C   UNL     1     -11.285   9.962  71.058  1.00  0.00    -0.435 C  
BRANCH   4   5
HETATM    5  C   UNL     1     -12.435  10.720  70.393  1.00  0.00    -0.430 C  
BRANCH   5   6
HETATM    6  C   UNL     1     -11.980  12.081  69.867  1.00  0.00    -0.391 C  
BRANCH   6   7
HETATM    7  C   UNL     1     -12.532  13.217  70.695  1.00  0.00    -0.363 A  
HETATM    8  C   UNL     1     -12.436  14.563  70.316  1.00  0.00    -0.348 A  
HETATM    9  C   UNL     1     -12.993  15.576  71.095  1.00  0.00    -0.560 A  
HETATM   10  O   UNL     1     -11.796  14.973  69.180  1.00  0.00    -0.302 OA 
HETATM   11  H   UNL     1     -11.731  15.885  68.923  1.00  0.00     0.000 HD 
HETATM   12  C   UNL     1     -13.631  15.249  72.287  1.00  0.00    -0.481 A  
HETATM   13  C   UNL     1     -13.716  13.928  72.703  1.00  0.00    -0.582 A  
HETATM   14  O   UNL     1     -14.184  16.206  73.084  1.00  0.00    -0.580 OA 
HETATM   15  H   UNL     1     -14.619  15.983  73.898  1.00  0.00     0.000 HD 
HETATM   16  C   UNL     1     -13.170  12.915  71.911  1.00  0.00    -0.521 A  
ENDBRANCH   6   7
ENDBRANCH   5   6
ENDBRANCH   4   5
ENDBRANCH   3   4
ENDBRANCH   2   3
TORSDOF 5
ENDMDL
MODEL       44
REMARK 921   NORMALIZED FREE ENERGY PREDICTED BY IDOCK:   -4.57 KCAL/MOL
REMARK 922        TOTAL FREE ENERGY PREDICTED BY IDOCK:   -6.31 KCAL/MOL
REMARK 923 INTER-LIGAND FREE ENERGY PREDICTED BY IDOCK:   -5.47 KCAL/MOL
REMARK 924 INTRA-LIGAND FREE ENERGY PREDICTED BY IDOCK:   -0.83 KCAL/MOL
REMARK 927      BINDING AFFINITY PREDICTED BY RF-SCORE:    0.00 PKD
ROOT
HETATM    1  C   UNL     1     -10.305   7.043  67.975  1.00  0.00    -0.234 C  
HETATM    2  C   UNL     1     -11.136   6.136  68.870  1.00  0.00    -0.417 C  
ENDROOT
BRANCH   2   3
HETATM    3  C   UNL     1     -10.255   5.393  69.873  1.00  0.00    -0.351 C  
BRANCH   3   4
HETATM    4  C   UNL     1     -10.854   5.418  71.280  1.00  0.00    -0.201 C  
BRANCH   4   5
HETATM    5  C   UNL     1     -10.086   6.383  72.185  1.00  0.00    -0.195 C  
BRANCH   5   6
HETATM    6  C   UNL     1     -11.033   7.312  72.945  1.00  0.00    -0.381 C  
BRANCH   6   7
HETATM    7  C   UNL     1     -11.379   8.541  72.139  1.00  0.00    -0.442 A  
HETATM    8  C   UNL     1     -12.578   9.252  72.297  1.00  0.00    -0.332 A  
HETATM    9  C   UNL     1     -12.839  10.404  71.555  1.00  0.00    -0.569 A  
HETATM   10  O   UNL     1     -13.560   8.871  73.167  1.00  0.00    -0.997 OA 
HETATM   11  H   UNL     1     -14.372   9.353  73.274  1.00  0.00     0.000 HD 
HETATM   12  C   UNL     1     -11.907  10.839  70.620  1.00  0.00    -0.360 A  
HETATM   13  C   UNL     1     -10.726  10.141  70.420  1.00  0.00    -0.329 A  
HETATM   14  O   UNL     1     -12.124  11.956  69.867  1.00  0.00    -0.301 OA 
HETATM   15  H   UNL     1     -11.487  12.254  69.229  1.00  0.00     0.000 HD 
HETATM   16  C   UNL     1     -10.461   8.997  71.177  1.00  0.00    -0.363 A  
ENDBRANCH   6   7
ENDBRANCH   5   6
ENDBRANCH   4   5
ENDBRANCH   3   4
ENDBRANCH   2   3
TORSDOF 5
ENDMDL
MODEL       45
REMARK 921   NORMALIZED FREE ENERGY PREDICTED BY IDOCK:   -4.56 KCAL/MOL
REMARK 922        TOTAL FREE ENERGY PREDICTED BY IDOCK:   -6.30 KCAL/MOL
REMARK 923 INTER-LIGAND FREE ENERGY PREDICTED BY IDOCK:   -5.74 KCAL/MOL
REMARK 924 INTRA-LIGAND FREE ENERGY PREDICTED BY IDOCK:   -0.56 KCAL/MOL
REMARK 927      BINDING AFFINITY PREDICTED BY RF-SCORE:    0.00 PKD
ROOT
HETATM    1  C   UNL     1     -12.433  12.201  64.013  1.00  0.00    -0.541 C  
HETATM    2  C   UNL     1     -12.219  13.701  64.150  1.00  0.00    -0.450 C  
ENDROOT
BRANCH   2   3
HETATM    3  C   UNL     1     -12.410  14.157  65.596  1.00  0.00    -0.473 C  
BRANCH   3   4
HETATM    4  C   UNL     1     -11.258  15.046  66.067  1.00  0.00    -0.310 C  
BRANCH   4   5
HETATM    5  C   UNL     1     -10.722  14.576  67.420  1.00  0.00    -0.282 C  
BRANCH   5   6
HETATM    6  C   UNL     1     -10.959  13.080  67.628  1.00  0.00    -0.277 C  
BRANCH   6   7
HETATM    7  C   UNL     1     -11.656  12.799  68.938  1.00  0.00    -0.362 A  
HETATM    8  C   UNL     1     -12.021  11.511  69.354  1.00  0.00    -0.325 A  
HETATM    9  C   UNL     1     -12.631  11.295  70.590  1.00  0.00    -0.377 A  
HETATM   10  O   UNL     1     -11.815  10.395  68.592  1.00  0.00    -0.646 OA 
HETATM   11  H   UNL     1     -12.062   9.523  68.875  1.00  0.00     0.000 HD 
HETATM   12  C   UNL     1     -12.910  12.381  71.412  1.00  0.00    -0.260 A  
HETATM   13  C   UNL     1     -12.589  13.670  71.015  1.00  0.00    -0.441 A  
HETATM   14  O   UNL     1     -13.512  12.218  72.625  1.00  0.00    -0.597 OA 
HETATM   15  H   UNL     1     -13.703  12.959  73.187  1.00  0.00     0.000 HD 
HETATM   16  C   UNL     1     -11.963  13.879  69.784  1.00  0.00    -0.398 A  
ENDBRANCH   6   7
ENDBRANCH   5   6
ENDBRANCH   4   5
ENDBRANCH   3   4
ENDBRANCH   2   3
TORSDOF 5
ENDMDL
MODEL       46
REMARK 921   NORMALIZED FREE ENERGY PREDICTED BY IDOCK:   -4.54 KCAL/MOL
REMARK 922        TOTAL FREE ENERGY PREDICTED BY IDOCK:   -6.27 KCAL/MOL
REMARK 923 INTER-LIGAND FREE ENERGY PREDICTED BY IDOCK:   -6.16 KCAL/MOL
REMARK 924 INTRA-LIGAND FREE ENERGY PREDICTED BY IDOCK:   -0.11 KCAL/MOL
REMARK 927      BINDING AFFINITY PREDICTED BY RF-SCORE:    0.00 PKD
ROOT
HETATM    1  C   UNL     1     -12.639  15.053  71.429  1.00  0.00    -0.406 C  
HETATM    2  C   UNL     1     -11.995  14.572  70.137  1.00  0.00    -0.377 C  
ENDROOT
BRANCH   2   3
HETATM    3  C   UNL     1     -10.825  15.467  69.736  1.00  0.00    -0.301 C  
BRANCH   3   4
HETATM    4  C   UNL     1     -10.958  15.964  68.296  1.00  0.00    -0.329 C  
BRANCH   4   5
HETATM    5  C   UNL     1      -9.583  16.197  67.667  1.00  0.00    -0.222 C  
BRANCH   5   6
HETATM    6  C   UNL     1      -9.658  16.199  66.140  1.00  0.00    -0.359 C  
BRANCH   6   7
HETATM    7  C   UNL     1     -10.581  15.122  65.621  1.00  0.00    -0.370 A  
HETATM    8  C   UNL     1     -11.524  15.340  64.608  1.00  0.00    -0.354 A  
HETATM    9  C   UNL     1     -12.332  14.306  64.135  1.00  0.00    -0.361 A  
HETATM   10  O   UNL     1     -11.723  16.560  64.024  1.00  0.00    -1.405 OA 
HETATM   11  H   UNL     1     -12.362  16.708  63.337  1.00  0.00     0.000 HD 
HETATM   12  C   UNL     1     -12.220  13.040  64.700  1.00  0.00    -0.421 A  
HETATM   13  C   UNL     1     -11.317  12.801  65.725  1.00  0.00    -0.357 A  
HETATM   14  O   UNL     1     -12.993  12.001  64.275  1.00  0.00    -0.600 OA 
HETATM   15  H   UNL     1     -12.917  11.136  64.661  1.00  0.00     0.000 HD 
HETATM   16  C   UNL     1     -10.500  13.837  66.184  1.00  0.00    -0.297 A  
ENDBRANCH   6   7
ENDBRANCH   5   6
ENDBRANCH   4   5
ENDBRANCH   3   4
ENDBRANCH   2   3
TORSDOF 5
ENDMDL
MODEL       47
REMARK 921   NORMALIZED FREE ENERGY PREDICTED BY IDOCK:   -4.53 KCAL/MOL
REMARK 922        TOTAL FREE ENERGY PREDICTED BY IDOCK:   -6.26 KCAL/MOL
REMARK 923 INTER-LIGAND FREE ENERGY PREDICTED BY IDOCK:   -5.88 KCAL/MOL
REMARK 924 INTRA-LIGAND FREE ENERGY PREDICTED BY IDOCK:   -0.38 KCAL/MOL
REMARK 927      BINDING AFFINITY PREDICTED BY RF-SCORE:    0.00 PKD
ROOT
HETATM    1  C   UNL     1     -11.478   6.469  70.629  1.00  0.00    -0.433 C  
HETATM    2  C   UNL     1     -12.694   7.183  71.200  1.00  0.00    -0.363 C  
ENDROOT
BRANCH   2   3
HETATM    3  C   UNL     1     -12.280   8.343  72.104  1.00  0.00    -0.434 C  
BRANCH   3   4
HETATM    4  C   UNL     1     -13.416   9.349  72.293  1.00  0.00    -0.539 C  
BRANCH   4   5
HETATM    5  C   UNL     1     -13.154  10.628  71.497  1.00  0.00    -0.527 C  
BRANCH   5   6
HETATM    6  C   UNL     1     -11.850  10.537  70.704  1.00  0.00    -0.458 C  
BRANCH   6   7
HETATM    7  C   UNL     1     -11.788  11.572  69.606  1.00  0.00    -0.421 A  
HETATM    8  C   UNL     1     -11.503  11.259  68.269  1.00  0.00    -0.308 A  
HETATM    9  C   UNL     1     -11.492  12.243  67.281  1.00  0.00    -0.426 A  
HETATM   10  O   UNL     1     -11.214   9.992  67.846  1.00  0.00    -0.468 OA 
HETATM   11  H   UNL     1     -11.021   9.780  66.941  1.00  0.00     0.000 HD 
HETATM   12  C   UNL     1     -11.738  13.566  67.633  1.00  0.00    -0.363 A  
HETATM   13  C   UNL     1     -11.994  13.911  68.952  1.00  0.00    -0.393 A  
HETATM   14  O   UNL     1     -11.730  14.562  66.702  1.00  0.00    -0.372 OA 
HETATM   15  H   UNL     1     -11.899  15.465  66.942  1.00  0.00     0.000 HD 
HETATM   16  C   UNL     1     -12.020  12.919  69.935  1.00  0.00    -0.377 A  
ENDBRANCH   6   7
ENDBRANCH   5   6
ENDBRANCH   4   5
ENDBRANCH   3   4
ENDBRANCH   2   3
TORSDOF 5
ENDMDL
MODEL       48
REMARK 921   NORMALIZED FREE ENERGY PREDICTED BY IDOCK:   -4.53 KCAL/MOL
REMARK 922        TOTAL FREE ENERGY PREDICTED BY IDOCK:   -6.26 KCAL/MOL
REMARK 923 INTER-LIGAND FREE ENERGY PREDICTED BY IDOCK:   -5.74 KCAL/MOL
REMARK 924 INTRA-LIGAND FREE ENERGY PREDICTED BY IDOCK:   -0.52 KCAL/MOL
REMARK 927      BINDING AFFINITY PREDICTED BY RF-SCORE:    0.00 PKD
ROOT
HETATM    1  C   UNL     1      -6.799  13.855  68.698  1.00  0.00    -0.101 C  
HETATM    2  C   UNL     1      -7.330  14.543  67.449  1.00  0.00    -0.183 C  
ENDROOT
BRANCH   2   3
HETATM    3  C   UNL     1      -7.988  15.879  67.791  1.00  0.00    -0.154 C  
BRANCH   3   4
HETATM    4  C   UNL     1      -9.201  15.697  68.704  1.00  0.00    -0.205 C  
BRANCH   4   5
HETATM    5  C   UNL     1     -10.473  16.221  68.035  1.00  0.00    -0.293 C  
BRANCH   5   6
HETATM    6  C   UNL     1     -10.337  16.243  66.513  1.00  0.00    -0.310 C  
BRANCH   6   7
HETATM    7  C   UNL     1     -11.151  15.150  65.861  1.00  0.00    -0.319 A  
HETATM    8  C   UNL     1     -11.693  15.260  64.572  1.00  0.00    -0.305 A  
HETATM    9  C   UNL     1     -12.407  14.209  63.996  1.00  0.00    -0.315 A  
HETATM   10  O   UNL     1     -11.569  16.384  63.805  1.00  0.00    -1.605 OA 
HETATM   11  H   UNL     1     -11.936  16.457  62.932  1.00  0.00     0.000 HD 
HETATM   12  C   UNL     1     -12.611  13.043  64.724  1.00  0.00    -0.397 A  
HETATM   13  C   UNL     1     -12.113  12.916  66.012  1.00  0.00    -0.484 A  
HETATM   14  O   UNL     1     -13.310  11.993  64.204  1.00  0.00    -0.725 OA 
HETATM   15  H   UNL     1     -13.449  11.196  64.701  1.00  0.00     0.000 HD 
HETATM   16  C   UNL     1     -11.384  13.965  66.579  1.00  0.00    -0.340 A  
ENDBRANCH   6   7
ENDBRANCH   5   6
ENDBRANCH   4   5
ENDBRANCH   3   4
ENDBRANCH   2   3
TORSDOF 5
ENDMDL
MODEL       49
REMARK 921   NORMALIZED FREE ENERGY PREDICTED BY IDOCK:   -4.53 KCAL/MOL
REMARK 922        TOTAL FREE ENERGY PREDICTED BY IDOCK:   -6.26 KCAL/MOL
REMARK 923 INTER-LIGAND FREE ENERGY PREDICTED BY IDOCK:   -5.83 KCAL/MOL
REMARK 924 INTRA-LIGAND FREE ENERGY PREDICTED BY IDOCK:   -0.43 KCAL/MOL
REMARK 927      BINDING AFFINITY PREDICTED BY RF-SCORE:    0.00 PKD
ROOT
HETATM    1  C   UNL     1     -13.100  12.049  71.764  1.00  0.00    -0.460 C  
HETATM    2  C   UNL     1     -13.970  13.151  72.348  1.00  0.00    -0.497 C  
ENDROOT
BRANCH   2   3
HETATM    3  C   UNL     1     -13.192  14.460  72.479  1.00  0.00    -0.558 C  
BRANCH   3   4
HETATM    4  C   UNL     1     -13.310  15.319  71.219  1.00  0.00    -0.586 C  
BRANCH   4   5
HETATM    5  C   UNL     1     -11.932  15.614  70.626  1.00  0.00    -0.438 C  
BRANCH   5   6
HETATM    6  C   UNL     1     -11.343  14.384  69.935  1.00  0.00    -0.273 C  
BRANCH   6   7
HETATM    7  C   UNL     1     -11.237  14.576  68.441  1.00  0.00    -0.290 A  
HETATM    8  C   UNL     1     -11.670  13.622  67.510  1.00  0.00    -0.371 A  
HETATM    9  C   UNL     1     -11.585  13.858  66.138  1.00  0.00    -0.371 A  
HETATM   10  O   UNL     1     -12.190  12.411  67.871  1.00  0.00    -0.379 OA 
HETATM   11  H   UNL     1     -12.483  11.764  67.241  1.00  0.00     0.000 HD 
HETATM   12  C   UNL     1     -11.034  15.051  65.684  1.00  0.00    -0.354 A  
HETATM   13  C   UNL     1     -10.570  16.002  66.580  1.00  0.00    -0.297 A  
HETATM   14  O   UNL     1     -10.924  15.322  64.352  1.00  0.00    -0.657 OA 
HETATM   15  H   UNL     1     -10.548  16.137  64.041  1.00  0.00     0.000 HD 
HETATM   16  C   UNL     1     -10.671  15.767  67.953  1.00  0.00    -0.302 A  
ENDBRANCH   6   7
ENDBRANCH   5   6
ENDBRANCH   4   5
ENDBRANCH   3   4
ENDBRANCH   2   3
TORSDOF 5
ENDMDL
MODEL       50
REMARK 921   NORMALIZED FREE ENERGY PREDICTED BY IDOCK:   -4.52 KCAL/MOL
REMARK 922        TOTAL FREE ENERGY PREDICTED BY IDOCK:   -6.25 KCAL/MOL
REMARK 923 INTER-LIGAND FREE ENERGY PREDICTED BY IDOCK:   -5.89 KCAL/MOL
REMARK 924 INTRA-LIGAND FREE ENERGY PREDICTED BY IDOCK:   -0.36 KCAL/MOL
REMARK 927      BINDING AFFINITY PREDICTED BY RF-SCORE:    0.00 PKD
ROOT
HETATM    1  C   UNL     1     -11.916   9.554  71.823  1.00  0.00    -0.443 C  
HETATM    2  C   UNL     1     -10.876   9.322  70.738  1.00  0.00    -0.349 C  
ENDROOT
BRANCH   2   3
HETATM    3  C   UNL     1     -11.263  10.031  69.441  1.00  0.00    -0.235 C  
BRANCH   3   4
HETATM    4  C   UNL     1     -10.492   9.479  68.241  1.00  0.00    -0.265 C  
BRANCH   4   5
HETATM    5  C   UNL     1      -9.868  10.611  67.422  1.00  0.00    -0.198 C  
BRANCH   5   6
HETATM    6  C   UNL     1     -10.166  10.454  65.931  1.00  0.00    -0.302 C  
BRANCH   6   7
HETATM    7  C   UNL     1     -10.775  11.705  65.346  1.00  0.00    -0.341 A  
HETATM    8  C   UNL     1     -11.040  11.865  63.978  1.00  0.00    -0.391 A  
HETATM    9  C   UNL     1     -11.638  13.025  63.487  1.00  0.00    -0.468 A  
HETATM   10  O   UNL     1     -10.732  10.916  63.044  1.00  0.00    -0.762 OA 
HETATM   11  H   UNL     1     -10.912  11.024  62.118  1.00  0.00     0.000 HD 
HETATM   12  C   UNL     1     -11.949  14.057  64.365  1.00  0.00    -0.454 A  
HETATM   13  C   UNL     1     -11.672  13.941  65.719  1.00  0.00    -0.369 A  
HETATM   14  O   UNL     1     -12.527  15.212  63.929  1.00  0.00    -0.991 OA 
HETATM   15  H   UNL     1     -12.741  15.917  64.529  1.00  0.00     0.000 HD 
HETATM   16  C   UNL     1     -11.088  12.770  66.209  1.00  0.00    -0.321 A  
ENDBRANCH   6   7
ENDBRANCH   5   6
ENDBRANCH   4   5
ENDBRANCH   3   4
ENDBRANCH   2   3
TORSDOF 5
ENDMDL
MODEL       51
REMARK 921   NORMALIZED FREE ENERGY PREDICTED BY IDOCK:   -4.52 KCAL/MOL
REMARK 922        TOTAL FREE ENERGY PREDICTED BY IDOCK:   -6.25 KCAL/MOL
REMARK 923 INTER-LIGAND FREE ENERGY PREDICTED BY IDOCK:   -5.57 KCAL/MOL
REMARK 924 INTRA-LIGAND FREE ENERGY PREDICTED BY IDOCK:   -0.68 KCAL/MOL
REMARK 927      BINDING AFFINITY PREDICTED BY RF-SCORE:    0.00 PKD
ROOT
HETATM    1  C   UNL     1     -10.365  11.409  63.686  1.00  0.00    -0.463 C  
HETATM    2  C   UNL     1     -11.683  12.154  63.542  1.00  0.00    -0.579 C  
ENDROOT
BRANCH   2   3
HETATM    3  C   UNL     1     -12.246  12.550  64.906  1.00  0.00    -0.534 C  
BRANCH   3   4
HETATM    4  C   UNL     1     -12.458  14.061  65.015  1.00  0.00    -0.446 C  
BRANCH   4   5
HETATM    5  C   UNL     1     -11.126  14.790  65.194  1.00  0.00    -0.389 C  
BRANCH   5   6
HETATM    6  C   UNL     1     -10.317  14.204  66.351  1.00  0.00    -0.287 C  
BRANCH   6   7
HETATM    7  C   UNL     1     -10.739  14.783  67.681  1.00  0.00    -0.270 A  
HETATM    8  C   UNL     1     -11.478  14.067  68.632  1.00  0.00    -0.302 A  
HETATM    9  C   UNL     1     -11.814  14.631  69.863  1.00  0.00    -0.372 A  
HETATM   10  O   UNL     1     -11.921  12.790  68.425  1.00  0.00    -0.319 OA 
HETATM   11  H   UNL     1     -12.421  12.305  69.070  1.00  0.00     0.000 HD 
HETATM   12  C   UNL     1     -11.435  15.940  70.139  1.00  0.00    -0.361 A  
HETATM   13  C   UNL     1     -10.729  16.684  69.206  1.00  0.00    -0.337 A  
HETATM   14  O   UNL     1     -11.748  16.535  71.326  1.00  0.00    -0.637 OA 
HETATM   15  H   UNL     1     -11.489  17.429  71.515  1.00  0.00     0.000 HD 
HETATM   16  C   UNL     1     -10.381  16.109  67.982  1.00  0.00    -0.271 A  
ENDBRANCH   6   7
ENDBRANCH   5   6
ENDBRANCH   4   5
ENDBRANCH   3   4
ENDBRANCH   2   3
TORSDOF 5
ENDMDL
MODEL       52
REMARK 921   NORMALIZED FREE ENERGY PREDICTED BY IDOCK:   -4.51 KCAL/MOL
REMARK 922        TOTAL FREE ENERGY PREDICTED BY IDOCK:   -6.24 KCAL/MOL
REMARK 923 INTER-LIGAND FREE ENERGY PREDICTED BY IDOCK:   -5.65 KCAL/MOL
REMARK 924 INTRA-LIGAND FREE ENERGY PREDICTED BY IDOCK:   -0.59 KCAL/MOL
REMARK 927      BINDING AFFINITY PREDICTED BY RF-SCORE:    0.00 PKD
ROOT
HETATM    1  C   UNL     1      -9.955  10.393  65.240  1.00  0.00    -0.376 C  
HETATM    2  C   UNL     1      -9.677  10.673  63.771  1.00  0.00    -0.382 C  
ENDROOT
BRANCH   2   3
HETATM    3  C   UNL     1     -10.323  11.985  63.327  1.00  0.00    -0.398 C  
BRANCH   3   4
HETATM    4  C   UNL     1     -11.830  11.991  63.584  1.00  0.00    -0.602 C  
BRANCH   4   5
HETATM    5  C   UNL     1     -12.261  13.282  64.282  1.00  0.00    -0.454 C  
BRANCH   5   6
HETATM    6  C   UNL     1     -12.012  13.213  65.789  1.00  0.00    -0.473 C  
BRANCH   6   7
HETATM    7  C   UNL     1     -11.452  14.509  66.326  1.00  0.00    -0.358 A  
HETATM    8  C   UNL     1     -11.624  14.931  67.652  1.00  0.00    -0.339 A  
HETATM    9  C   UNL     1     -11.057  16.119  68.112  1.00  0.00    -0.332 A  
HETATM   10  O   UNL     1     -12.350  14.226  68.570  1.00  0.00    -0.572 OA 
HETATM   11  H   UNL     1     -12.466  14.512  69.468  1.00  0.00     0.000 HD 
HETATM   12  C   UNL     1     -10.333  16.916  67.233  1.00  0.00    -0.309 A  
HETATM   13  C   UNL     1     -10.171  16.540  65.907  1.00  0.00    -0.368 A  
HETATM   14  O   UNL     1      -9.767  18.090  67.637  1.00  0.00    -0.278 OA 
HETATM   15  H   UNL     1      -9.273  18.634  67.036  1.00  0.00     0.000 HD 
HETATM   16  C   UNL     1     -10.727  15.342  65.455  1.00  0.00    -0.407 A  
ENDBRANCH   6   7
ENDBRANCH   5   6
ENDBRANCH   4   5
ENDBRANCH   3   4
ENDBRANCH   2   3
TORSDOF 5
ENDMDL
MODEL       53
REMARK 921   NORMALIZED FREE ENERGY PREDICTED BY IDOCK:   -4.51 KCAL/MOL
REMARK 922        TOTAL FREE ENERGY PREDICTED BY IDOCK:   -6.23 KCAL/MOL
REMARK 923 INTER-LIGAND FREE ENERGY PREDICTED BY IDOCK:   -5.89 KCAL/MOL
REMARK 924 INTRA-LIGAND FREE ENERGY PREDICTED BY IDOCK:   -0.34 KCAL/MOL
REMARK 927      BINDING AFFINITY PREDICTED BY RF-SCORE:    0.00 PKD
ROOT
HETATM    1  C   UNL     1     -10.354   5.540  69.371  1.00  0.00    -0.348 C  
HETATM    2  C   UNL     1     -10.882   6.821  68.741  1.00  0.00    -0.280 C  
ENDROOT
BRANCH   2   3
HETATM    3  C   UNL     1     -10.850   6.741  67.216  1.00  0.00    -0.443 C  
BRANCH   3   4
HETATM    4  C   UNL     1     -10.176   7.966  66.597  1.00  0.00    -0.303 C  
BRANCH   4   5
HETATM    5  C   UNL     1     -10.870   9.255  67.041  1.00  0.00    -0.077 C  
BRANCH   5   6
HETATM    6  C   UNL     1     -10.018  10.486  66.732  1.00  0.00    -0.252 C  
BRANCH   6   7
HETATM    7  C   UNL     1     -10.729  11.445  65.807  1.00  0.00    -0.309 A  
HETATM    8  C   UNL     1     -11.719  12.338  66.240  1.00  0.00    -0.366 A  
HETATM    9  C   UNL     1     -12.324  13.232  65.356  1.00  0.00    -0.528 A  
HETATM   10  O   UNL     1     -12.159  12.394  67.532  1.00  0.00    -0.491 OA 
HETATM   11  H   UNL     1     -12.830  13.000  67.826  1.00  0.00     0.000 HD 
HETATM   12  C   UNL     1     -11.961  13.215  64.014  1.00  0.00    -0.460 A  
HETATM   13  C   UNL     1     -11.006  12.322  63.551  1.00  0.00    -0.521 A  
HETATM   14  O   UNL     1     -12.531  14.065  63.113  1.00  0.00    -1.137 OA 
HETATM   15  H   UNL     1     -12.283  14.055  62.196  1.00  0.00     0.000 HD 
HETATM   16  C   UNL     1     -10.392  11.441  64.443  1.00  0.00    -0.375 A  
ENDBRANCH   6   7
ENDBRANCH   5   6
ENDBRANCH   4   5
ENDBRANCH   3   4
ENDBRANCH   2   3
TORSDOF 5
ENDMDL
MODEL       54
REMARK 921   NORMALIZED FREE ENERGY PREDICTED BY IDOCK:   -4.50 KCAL/MOL
REMARK 922        TOTAL FREE ENERGY PREDICTED BY IDOCK:   -6.22 KCAL/MOL
REMARK 923 INTER-LIGAND FREE ENERGY PREDICTED BY IDOCK:   -5.46 KCAL/MOL
REMARK 924 INTRA-LIGAND FREE ENERGY PREDICTED BY IDOCK:   -0.77 KCAL/MOL
REMARK 927      BINDING AFFINITY PREDICTED BY RF-SCORE:    0.00 PKD
ROOT
HETATM    1  C   UNL     1      -9.920   7.837  69.184  1.00  0.00    -0.182 C  
HETATM    2  C   UNL     1     -10.356   7.741  70.638  1.00  0.00    -0.202 C  
ENDROOT
BRANCH   2   3
HETATM    3  C   UNL     1     -11.569   6.826  70.792  1.00  0.00    -0.418 C  
BRANCH   3   4
HETATM    4  C   UNL     1     -12.581   7.388  71.792  1.00  0.00    -0.367 C  
BRANCH   4   5
HETATM    5  C   UNL     1     -12.193   8.803  72.226  1.00  0.00    -0.429 C  
BRANCH   5   6
HETATM    6  C   UNL     1     -13.319   9.801  71.956  1.00  0.00    -0.547 C  
BRANCH   6   7
HETATM    7  C   UNL     1     -12.824  11.018  71.212  1.00  0.00    -0.528 A  
HETATM    8  C   UNL     1     -13.042  12.331  71.654  1.00  0.00    -0.306 A  
HETATM    9  C   UNL     1     -12.534  13.424  70.952  1.00  0.00    -0.439 A  
HETATM   10  O   UNL     1     -13.759  12.629  72.778  1.00  0.00    -0.680 OA 
HETATM   11  H   UNL     1     -13.907  13.518  73.077  1.00  0.00     0.000 HD 
HETATM   12  C   UNL     1     -11.824  13.211  69.777  1.00  0.00    -0.316 A  
HETATM   13  C   UNL     1     -11.617  11.925  69.298  1.00  0.00    -0.376 A  
HETATM   14  O   UNL     1     -11.315  14.250  69.054  1.00  0.00    -0.243 OA 
HETATM   15  H   UNL     1     -10.829  14.104  68.251  1.00  0.00     0.000 HD 
HETATM   16  C   UNL     1     -12.114  10.833  70.013  1.00  0.00    -0.423 A  
ENDBRANCH   6   7
ENDBRANCH   5   6
ENDBRANCH   4   5
ENDBRANCH   3   4
ENDBRANCH   2   3
TORSDOF 5
ENDMDL
MODEL       55
REMARK 921   NORMALIZED FREE ENERGY PREDICTED BY IDOCK:   -4.50 KCAL/MOL
REMARK 922        TOTAL FREE ENERGY PREDICTED BY IDOCK:   -6.22 KCAL/MOL
REMARK 923 INTER-LIGAND FREE ENERGY PREDICTED BY IDOCK:   -5.53 KCAL/MOL
REMARK 924 INTRA-LIGAND FREE ENERGY PREDICTED BY IDOCK:   -0.69 KCAL/MOL
REMARK 927      BINDING AFFINITY PREDICTED BY RF-SCORE:    0.00 PKD
ROOT
HETATM    1  C   UNL     1      -8.612  17.152  68.677  1.00  0.00    -0.260 C  
HETATM    2  C   UNL     1      -9.362  17.218  67.356  1.00  0.00    -0.236 C  
ENDROOT
BRANCH   2   3
HETATM    3  C   UNL     1     -10.782  16.674  67.498  1.00  0.00    -0.278 C  
BRANCH   3   4
HETATM    4  C   UNL     1     -10.842  15.168  67.235  1.00  0.00    -0.316 C  
BRANCH   4   5
HETATM    5  C   UNL     1     -11.946  14.510  68.065  1.00  0.00    -0.305 C  
BRANCH   5   6
HETATM    6  C   UNL     1     -11.377  13.810  69.299  1.00  0.00    -0.325 C  
BRANCH   6   7
HETATM    7  C   UNL     1     -11.935  14.387  70.579  1.00  0.00    -0.395 A  
HETATM    8  C   UNL     1     -12.801  13.682  71.427  1.00  0.00    -0.360 A  
HETATM    9  C   UNL     1     -13.263  14.242  72.618  1.00  0.00    -0.601 A  
HETATM   10  O   UNL     1     -13.252  12.422  71.151  1.00  0.00    -0.125 OA 
HETATM   11  H   UNL     1     -13.838  11.944  71.725  1.00  0.00     0.000 HD 
HETATM   12  C   UNL     1     -12.883  15.536  72.956  1.00  0.00    -0.472 A  
HETATM   13  C   UNL     1     -12.051  16.269  72.122  1.00  0.00    -0.530 A  
HETATM   14  O   UNL     1     -13.316  16.127  74.106  1.00  0.00    -0.908 OA 
HETATM   15  H   UNL     1     -13.056  17.010  74.338  1.00  0.00     0.000 HD 
HETATM   16  C   UNL     1     -11.578  15.698  70.939  1.00  0.00    -0.424 A  
ENDBRANCH   6   7
ENDBRANCH   5   6
ENDBRANCH   4   5
ENDBRANCH   3   4
ENDBRANCH   2   3
TORSDOF 5
ENDMDL
MODEL       56
REMARK 921   NORMALIZED FREE ENERGY PREDICTED BY IDOCK:   -4.49 KCAL/MOL
REMARK 922        TOTAL FREE ENERGY PREDICTED BY IDOCK:   -6.21 KCAL/MOL
REMARK 923 INTER-LIGAND FREE ENERGY PREDICTED BY IDOCK:   -5.88 KCAL/MOL
REMARK 924 INTRA-LIGAND FREE ENERGY PREDICTED BY IDOCK:   -0.33 KCAL/MOL
REMARK 927      BINDING AFFINITY PREDICTED BY RF-SCORE:    0.00 PKD
ROOT
HETATM    1  C   UNL     1     -10.363   5.177  69.305  1.00  0.00    -0.248 C  
HETATM    2  C   UNL     1     -11.105   6.381  68.746  1.00  0.00    -0.404 C  
ENDROOT
BRANCH   2   3
HETATM    3  C   UNL     1     -10.901   6.506  67.238  1.00  0.00    -0.463 C  
BRANCH   3   4
HETATM    4  C   UNL     1      -9.948   7.650  66.887  1.00  0.00    -0.325 C  
BRANCH   4   5
HETATM    5  C   UNL     1     -10.652   9.003  66.998  1.00  0.00    -0.270 C  
BRANCH   5   6
HETATM    6  C   UNL     1      -9.734  10.149  66.575  1.00  0.00    -0.252 C  
BRANCH   6   7
HETATM    7  C   UNL     1     -10.437  11.125  65.661  1.00  0.00    -0.308 A  
HETATM    8  C   UNL     1     -10.502  10.965  64.270  1.00  0.00    -0.335 A  
HETATM    9  C   UNL     1     -11.195  11.873  63.468  1.00  0.00    -0.501 A  
HETATM   10  O   UNL     1      -9.899   9.932  63.609  1.00  0.00    -0.490 OA 
HETATM   11  H   UNL     1      -9.944   9.823  62.667  1.00  0.00     0.000 HD 
HETATM   12  C   UNL     1     -11.806  12.974  64.057  1.00  0.00    -0.445 A  
HETATM   13  C   UNL     1     -11.733  13.175  65.427  1.00  0.00    -0.383 A  
HETATM   14  O   UNL     1     -12.487  13.891  63.312  1.00  0.00    -1.113 OA 
HETATM   15  H   UNL     1     -12.905  14.643  63.714  1.00  0.00     0.000 HD 
HETATM   16  C   UNL     1     -11.052  12.255  66.227  1.00  0.00    -0.342 A  
ENDBRANCH   6   7
ENDBRANCH   5   6
ENDBRANCH   4   5
ENDBRANCH   3   4
ENDBRANCH   2   3
TORSDOF 5
ENDMDL
MODEL       57
REMARK 921   NORMALIZED FREE ENERGY PREDICTED BY IDOCK:   -4.49 KCAL/MOL
REMARK 922        TOTAL FREE ENERGY PREDICTED BY IDOCK:   -6.21 KCAL/MOL
REMARK 923 INTER-LIGAND FREE ENERGY PREDICTED BY IDOCK:   -5.76 KCAL/MOL
REMARK 924 INTRA-LIGAND FREE ENERGY PREDICTED BY IDOCK:   -0.45 KCAL/MOL
REMARK 927      BINDING AFFINITY PREDICTED BY RF-SCORE:    0.00 PKD
ROOT
HETATM    1  C   UNL     1     -11.397  14.538  67.542  1.00  0.00    -0.355 C  
HETATM    2  C   UNL     1     -11.722  13.651  68.734  1.00  0.00    -0.383 C  
ENDROOT
BRANCH   2   3
HETATM    3  C   UNL     1     -11.772  14.459  70.029  1.00  0.00    -0.360 C  
BRANCH   3   4
HETATM    4  C   UNL     1     -12.495  13.701  71.143  1.00  0.00    -0.442 C  
BRANCH   4   5
HETATM    5  C   UNL     1     -12.814  12.268  70.713  1.00  0.00    -0.101 C  
BRANCH   5   6
HETATM    6  C   UNL     1     -13.032  11.356  71.921  1.00  0.00    -0.466 C  
BRANCH   6   7
HETATM    7  C   UNL     1     -12.624   9.932  71.629  1.00  0.00    -0.519 A  
HETATM    8  C   UNL     1     -13.213   8.821  72.251  1.00  0.00    -0.412 A  
HETATM    9  C   UNL     1     -12.829   7.521  71.923  1.00  0.00    -0.306 A  
HETATM   10  O   UNL     1     -14.181   8.930  73.209  1.00  0.00    -1.197 OA 
HETATM   11  H   UNL     1     -14.580   8.177  73.630  1.00  0.00     0.000 HD 
HETATM   12  C   UNL     1     -11.823   7.322  70.984  1.00  0.00    -0.318 A  
HETATM   13  C   UNL     1     -11.202   8.402  70.374  1.00  0.00    -0.220 A  
HETATM   14  O   UNL     1     -11.411   6.069  70.638  1.00  0.00    -0.311 OA 
HETATM   15  H   UNL     1     -10.724   5.933  69.997  1.00  0.00     0.000 HD 
HETATM   16  C   UNL     1     -11.601   9.702  70.694  1.00  0.00    -0.371 A  
ENDBRANCH   6   7
ENDBRANCH   5   6
ENDBRANCH   4   5
ENDBRANCH   3   4
ENDBRANCH   2   3
TORSDOF 5
ENDMDL
MODEL       58
REMARK 921   NORMALIZED FREE ENERGY PREDICTED BY IDOCK:   -4.49 KCAL/MOL
REMARK 922        TOTAL FREE ENERGY PREDICTED BY IDOCK:   -6.20 KCAL/MOL
REMARK 923 INTER-LIGAND FREE ENERGY PREDICTED BY IDOCK:   -5.78 KCAL/MOL
REMARK 924 INTRA-LIGAND FREE ENERGY PREDICTED BY IDOCK:   -0.43 KCAL/MOL
REMARK 927      BINDING AFFINITY PREDICTED BY RF-SCORE:    0.00 PKD
ROOT
HETATM    1  C   UNL     1     -10.303   7.447  67.049  1.00  0.00    -0.384 C  
HETATM    2  C   UNL     1      -9.719   8.785  66.623  1.00  0.00    -0.309 C  
ENDROOT
BRANCH   2   3
HETATM    3  C   UNL     1      -9.058   9.500  67.799  1.00  0.00    -0.133 C  
BRANCH   3   4
HETATM    4  C   UNL     1      -9.602  10.918  67.980  1.00  0.00    -0.170 C  
BRANCH   4   5
HETATM    5  C   UNL     1     -10.880  11.122  67.165  1.00  0.00    -0.326 C  
BRANCH   5   6
HETATM    6  C   UNL     1     -11.653  12.355  67.635  1.00  0.00    -0.421 C  
BRANCH   6   7
HETATM    7  C   UNL     1     -11.619  13.463  66.608  1.00  0.00    -0.399 A  
HETATM    8  C   UNL     1     -10.847  14.623  66.754  1.00  0.00    -0.312 A  
HETATM    9  C   UNL     1     -10.819  15.604  65.763  1.00  0.00    -0.312 A  
HETATM   10  O   UNL     1     -10.084  14.877  67.860  1.00  0.00    -0.225 OA 
HETATM   11  H   UNL     1      -9.560  15.663  67.958  1.00  0.00     0.000 HD 
HETATM   12  C   UNL     1     -11.596  15.442  64.621  1.00  0.00    -0.311 A  
HETATM   13  C   UNL     1     -12.394  14.319  64.462  1.00  0.00    -0.432 A  
HETATM   14  O   UNL     1     -11.606  16.378  63.629  1.00  0.00    -1.514 OA 
HETATM   15  H   UNL     1     -12.136  16.268  62.850  1.00  0.00     0.000 HD 
HETATM   16  C   UNL     1     -12.405  13.332  65.450  1.00  0.00    -0.528 A  
ENDBRANCH   6   7
ENDBRANCH   5   6
ENDBRANCH   4   5
ENDBRANCH   3   4
ENDBRANCH   2   3
TORSDOF 5
ENDMDL
MODEL       59
REMARK 921   NORMALIZED FREE ENERGY PREDICTED BY IDOCK:   -4.47 KCAL/MOL
REMARK 922        TOTAL FREE ENERGY PREDICTED BY IDOCK:   -6.18 KCAL/MOL
REMARK 923 INTER-LIGAND FREE ENERGY PREDICTED BY IDOCK:   -5.09 KCAL/MOL
REMARK 924 INTRA-LIGAND FREE ENERGY PREDICTED BY IDOCK:   -1.09 KCAL/MOL
REMARK 927      BINDING AFFINITY PREDICTED BY RF-SCORE:    0.00 PKD
ROOT
HETATM    1  C   UNL     1     -10.593  11.858  63.445  1.00  0.00    -0.485 C  
HETATM    2  C   UNL     1     -12.019  12.133  63.895  1.00  0.00    -0.581 C  
ENDROOT
BRANCH   2   3
HETATM    3  C   UNL     1     -12.210  13.605  64.258  1.00  0.00    -0.445 C  
BRANCH   3   4
HETATM    4  C   UNL     1     -12.709  13.776  65.693  1.00  0.00    -0.523 C  
BRANCH   4   5
HETATM    5  C   UNL     1     -11.658  14.471  66.560  1.00  0.00    -0.379 C  
BRANCH   5   6
HETATM    6  C   UNL     1     -11.347  13.663  67.820  1.00  0.00    -0.336 C  
BRANCH   6   7
HETATM    7  C   UNL     1     -10.656  12.360  67.496  1.00  0.00    -0.240 A  
HETATM    8  C   UNL     1     -11.210  11.104  67.780  1.00  0.00    -0.294 A  
HETATM    9  C   UNL     1     -10.551   9.926  67.429  1.00  0.00    -0.338 A  
HETATM   10  O   UNL     1     -12.410  10.945  68.415  1.00  0.00    -0.803 OA 
HETATM   11  H   UNL     1     -12.785  10.094  68.608  1.00  0.00     0.000 HD 
HETATM   12  C   UNL     1      -9.307   9.997  66.813  1.00  0.00    -0.160 A  
HETATM   13  C   UNL     1      -8.720  11.225  66.545  1.00  0.00    -0.178 A  
HETATM   14  O   UNL     1      -8.623   8.872  66.458  1.00  0.00    -0.119 OA 
HETATM   15  H   UNL     1      -7.774   8.920  66.037  1.00  0.00     0.000 HD 
HETATM   16  C   UNL     1      -9.391  12.402  66.884  1.00  0.00    -0.213 A  
ENDBRANCH   6   7
ENDBRANCH   5   6
ENDBRANCH   4   5
ENDBRANCH   3   4
ENDBRANCH   2   3
TORSDOF 5
ENDMDL
MODEL       60
REMARK 921   NORMALIZED FREE ENERGY PREDICTED BY IDOCK:   -4.47 KCAL/MOL
REMARK 922        TOTAL FREE ENERGY PREDICTED BY IDOCK:   -6.18 KCAL/MOL
REMARK 923 INTER-LIGAND FREE ENERGY PREDICTED BY IDOCK:   -5.59 KCAL/MOL
REMARK 924 INTRA-LIGAND FREE ENERGY PREDICTED BY IDOCK:   -0.58 KCAL/MOL
REMARK 927      BINDING AFFINITY PREDICTED BY RF-SCORE:    0.00 PKD
ROOT
HETATM    1  C   UNL     1      -8.081   7.808  66.612  1.00  0.00    -0.111 C  
HETATM    2  C   UNL     1      -9.252   6.898  66.948  1.00  0.00    -0.167 C  
ENDROOT
BRANCH   2   3
HETATM    3  C   UNL     1     -10.511   7.706  67.256  1.00  0.00    -0.396 C  
BRANCH   3   4
HETATM    4  C   UNL     1     -10.366   9.167  66.826  1.00  0.00    -0.308 C  
BRANCH   4   5
HETATM    5  C   UNL     1     -10.968  10.108  67.870  1.00  0.00    -0.335 C  
BRANCH   5   6
HETATM    6  C   UNL     1     -10.293   9.939  69.232  1.00  0.00    -0.235 C  
BRANCH   6   7
HETATM    7  C   UNL     1     -11.302   9.752  70.340  1.00  0.00    -0.362 A  
HETATM    8  C   UNL     1     -12.107  10.790  70.830  1.00  0.00    -0.370 A  
HETATM    9  C   UNL     1     -13.052  10.563  71.831  1.00  0.00    -0.567 A  
HETATM   10  O   UNL     1     -12.021  12.077  70.378  1.00  0.00    -0.403 OA 
HETATM   11  H   UNL     1     -12.567  12.780  70.710  1.00  0.00     0.000 HD 
HETATM   12  C   UNL     1     -13.178   9.289  72.373  1.00  0.00    -0.426 A  
HETATM   13  C   UNL     1     -12.375   8.248  71.929  1.00  0.00    -0.379 A  
HETATM   14  O   UNL     1     -14.083   9.022  73.358  1.00  0.00    -1.231 OA 
HETATM   15  H   UNL     1     -14.169   8.152  73.728  1.00  0.00     0.000 HD 
HETATM   16  C   UNL     1     -11.441   8.478  70.916  1.00  0.00    -0.302 A  
ENDBRANCH   6   7
ENDBRANCH   5   6
ENDBRANCH   4   5
ENDBRANCH   3   4
ENDBRANCH   2   3
TORSDOF 5
ENDMDL
MODEL       61
REMARK 921   NORMALIZED FREE ENERGY PREDICTED BY IDOCK:   -4.46 KCAL/MOL
REMARK 922        TOTAL FREE ENERGY PREDICTED BY IDOCK:   -6.17 KCAL/MOL
REMARK 923 INTER-LIGAND FREE ENERGY PREDICTED BY IDOCK:   -5.47 KCAL/MOL
REMARK 924 INTRA-LIGAND FREE ENERGY PREDICTED BY IDOCK:   -0.70 KCAL/MOL
REMARK 927      BINDING AFFINITY PREDICTED BY RF-SCORE:    0.00 PKD
ROOT
HETATM    1  C   UNL     1      -9.084   8.451  66.161  1.00  0.00    -0.238 C  
HETATM    2  C   UNL     1      -8.118   8.526  64.989  1.00  0.00    -0.148 C  
ENDROOT
BRANCH   2   3
HETATM    3  C   UNL     1      -8.029   9.947  64.435  1.00  0.00    -0.146 C  
BRANCH   3   4
HETATM    4  C   UNL     1      -8.812  10.098  63.131  1.00  0.00    -0.232 C  
BRANCH   4   5
HETATM    5  C   UNL     1      -9.464  11.478  63.039  1.00  0.00    -0.346 C  
BRANCH   5   6
HETATM    6  C   UNL     1     -10.967  11.407  63.308  1.00  0.00    -0.250 C  
BRANCH   6   7
HETATM    7  C   UNL     1     -11.361  12.222  64.517  1.00  0.00    -0.385 A  
HETATM    8  C   UNL     1     -12.119  13.398  64.438  1.00  0.00    -0.416 A  
HETATM    9  C   UNL     1     -12.490  14.099  65.586  1.00  0.00    -0.490 A  
HETATM   10  O   UNL     1     -12.536  13.938  63.254  1.00  0.00    -1.113 OA 
HETATM   11  H   UNL     1     -13.050  14.735  63.201  1.00  0.00     0.000 HD 
HETATM   12  C   UNL     1     -12.075  13.638  66.830  1.00  0.00    -0.386 A  
HETATM   13  C   UNL     1     -11.299  12.494  66.938  1.00  0.00    -0.383 A  
HETATM   14  O   UNL     1     -12.408  14.295  67.978  1.00  0.00    -0.582 OA 
HETATM   15  H   UNL     1     -12.125  13.980  68.829  1.00  0.00     0.000 HD 
HETATM   16  C   UNL     1     -10.944  11.787  65.787  1.00  0.00    -0.353 A  
ENDBRANCH   6   7
ENDBRANCH   5   6
ENDBRANCH   4   5
ENDBRANCH   3   4
ENDBRANCH   2   3
TORSDOF 5
ENDMDL
MODEL       62
REMARK 921   NORMALIZED FREE ENERGY PREDICTED BY IDOCK:   -4.46 KCAL/MOL
REMARK 922        TOTAL FREE ENERGY PREDICTED BY IDOCK:   -6.17 KCAL/MOL
REMARK 923 INTER-LIGAND FREE ENERGY PREDICTED BY IDOCK:   -5.48 KCAL/MOL
REMARK 924 INTRA-LIGAND FREE ENERGY PREDICTED BY IDOCK:   -0.69 KCAL/MOL
REMARK 927      BINDING AFFINITY PREDICTED BY RF-SCORE:    0.00 PKD
ROOT
HETATM    1  C   UNL     1     -12.199  11.863  63.508  1.00  0.00    -0.591 C  
HETATM    2  C   UNL     1     -11.931  13.350  63.682  1.00  0.00    -0.504 C  
ENDROOT
BRANCH   2   3
HETATM    3  C   UNL     1     -10.636  13.591  64.456  1.00  0.00    -0.439 C  
BRANCH   3   4
HETATM    4  C   UNL     1     -10.662  14.925  65.203  1.00  0.00    -0.429 C  
BRANCH   4   5
HETATM    5  C   UNL     1     -10.503  14.712  66.709  1.00  0.00    -0.277 C  
BRANCH   5   6
HETATM    6  C   UNL     1     -11.853  14.486  67.389  1.00  0.00    -0.416 C  
BRANCH   6   7
HETATM    7  C   UNL     1     -11.865  13.213  68.203  1.00  0.00    -0.386 A  
HETATM    8  C   UNL     1     -12.111  13.185  69.583  1.00  0.00    -0.255 A  
HETATM    9  C   UNL     1     -12.148  11.982  70.287  1.00  0.00    -0.395 A  
HETATM   10  O   UNL     1     -12.321  14.313  70.326  1.00  0.00    -0.319 OA 
HETATM   11  H   UNL     1     -12.488  14.293  71.260  1.00  0.00     0.000 HD 
HETATM   12  C   UNL     1     -11.907  10.789  69.614  1.00  0.00    -0.320 A  
HETATM   13  C   UNL     1     -11.631  10.788  68.255  1.00  0.00    -0.297 A  
HETATM   14  O   UNL     1     -11.926   9.590  70.263  1.00  0.00    -0.450 OA 
HETATM   15  H   UNL     1     -11.762   8.775  69.803  1.00  0.00     0.000 HD 
HETATM   16  C   UNL     1     -11.611  11.994  67.551  1.00  0.00    -0.401 A  
ENDBRANCH   6   7
ENDBRANCH   5   6
ENDBRANCH   4   5
ENDBRANCH   3   4
ENDBRANCH   2   3
TORSDOF 5
ENDMDL
MODEL       63
REMARK 921   NORMALIZED FREE ENERGY PREDICTED BY IDOCK:   -4.45 KCAL/MOL
REMARK 922        TOTAL FREE ENERGY PREDICTED BY IDOCK:   -6.15 KCAL/MOL
REMARK 923 INTER-LIGAND FREE ENERGY PREDICTED BY IDOCK:   -4.99 KCAL/MOL
REMARK 924 INTRA-LIGAND FREE ENERGY PREDICTED BY IDOCK:   -1.16 KCAL/MOL
REMARK 927      BINDING AFFINITY PREDICTED BY RF-SCORE:    0.00 PKD
ROOT
HETATM    1  C   UNL     1     -11.951  14.599  64.571  1.00  0.00    -0.473 C  
HETATM    2  C   UNL     1     -12.089  13.107  64.314  1.00  0.00    -0.477 C  
ENDROOT
BRANCH   2   3
HETATM    3  C   UNL     1     -10.789  12.517  63.770  1.00  0.00    -0.489 C  
BRANCH   3   4
HETATM    4  C   UNL     1     -10.448  11.183  64.436  1.00  0.00    -0.418 C  
BRANCH   4   5
HETATM    5  C   UNL     1      -9.178  11.301  65.281  1.00  0.00    -0.191 C  
BRANCH   5   6
HETATM    6  C   UNL     1      -9.466  11.061  66.763  1.00  0.00    -0.203 C  
BRANCH   6   7
HETATM    7  C   UNL     1     -10.232  12.208  67.379  1.00  0.00    -0.211 A  
HETATM    8  C   UNL     1     -11.506  12.064  67.947  1.00  0.00    -0.330 A  
HETATM    9  C   UNL     1     -12.161  13.145  68.538  1.00  0.00    -0.217 A  
HETATM   10  O   UNL     1     -12.187  10.880  67.959  1.00  0.00    -0.695 OA 
HETATM   11  H   UNL     1     -13.050  10.783  68.345  1.00  0.00     0.000 HD 
HETATM   12  C   UNL     1     -11.553  14.395  68.536  1.00  0.00    -0.314 A  
HETATM   13  C   UNL     1     -10.307  14.575  67.954  1.00  0.00    -0.231 A  
HETATM   14  O   UNL     1     -12.159  15.482  69.094  1.00  0.00    -0.512 OA 
HETATM   15  H   UNL     1     -11.744  16.336  69.093  1.00  0.00     0.000 HD 
HETATM   16  C   UNL     1      -9.648  13.486  67.378  1.00  0.00    -0.227 A  
ENDBRANCH   6   7
ENDBRANCH   5   6
ENDBRANCH   4   5
ENDBRANCH   3   4
ENDBRANCH   2   3
TORSDOF 5
ENDMDL
MODEL       64
REMARK 921   NORMALIZED FREE ENERGY PREDICTED BY IDOCK:   -4.42 KCAL/MOL
REMARK 922        TOTAL FREE ENERGY PREDICTED BY IDOCK:   -6.12 KCAL/MOL
REMARK 923 INTER-LIGAND FREE ENERGY PREDICTED BY IDOCK:   -5.68 KCAL/MOL
REMARK 924 INTRA-LIGAND FREE ENERGY PREDICTED BY IDOCK:   -0.44 KCAL/MOL
REMARK 927      BINDING AFFINITY PREDICTED BY RF-SCORE:    0.00 PKD
ROOT
HETATM    1  C   UNL     1     -10.780   6.009  66.766  1.00  0.00    -0.374 C  
HETATM    2  C   UNL     1     -10.807   7.465  67.204  1.00  0.00    -0.340 C  
ENDROOT
BRANCH   2   3
HETATM    3  C   UNL     1      -9.580   8.219  66.695  1.00  0.00    -0.299 C  
BRANCH   3   4
HETATM    4  C   UNL     1      -9.671   9.717  66.991  1.00  0.00    -0.232 C  
BRANCH   4   5
HETATM    5  C   UNL     1     -10.935  10.042  67.788  1.00  0.00    -0.310 C  
BRANCH   5   6
HETATM    6  C   UNL     1     -10.599  10.684  69.134  1.00  0.00    -0.256 C  
BRANCH   6   7
HETATM    7  C   UNL     1     -11.500  10.182  70.237  1.00  0.00    -0.381 A  
HETATM    8  C   UNL     1     -11.371   8.912  70.817  1.00  0.00    -0.278 A  
HETATM    9  C   UNL     1     -12.204   8.504  71.859  1.00  0.00    -0.411 A  
HETATM   10  O   UNL     1     -10.442   7.997  70.407  1.00  0.00    -0.210 OA 
HETATM   11  H   UNL     1     -10.355   7.137  70.801  1.00  0.00     0.000 HD 
HETATM   12  C   UNL     1     -13.200   9.360  72.311  1.00  0.00    -0.446 A  
HETATM   13  C   UNL     1     -13.372  10.611  71.737  1.00  0.00    -0.437 A  
HETATM   14  O   UNL     1     -14.042   9.001  73.322  1.00  0.00    -1.218 OA 
HETATM   15  H   UNL     1     -14.723   9.586  73.632  1.00  0.00     0.000 HD 
HETATM   16  C   UNL     1     -12.525  11.022  70.705  1.00  0.00    -0.491 A  
ENDBRANCH   6   7
ENDBRANCH   5   6
ENDBRANCH   4   5
ENDBRANCH   3   4
ENDBRANCH   2   3
TORSDOF 5
ENDMDL
MODEL       65
REMARK 921   NORMALIZED FREE ENERGY PREDICTED BY IDOCK:   -4.42 KCAL/MOL
REMARK 922        TOTAL FREE ENERGY PREDICTED BY IDOCK:   -6.12 KCAL/MOL
REMARK 923 INTER-LIGAND FREE ENERGY PREDICTED BY IDOCK:   -5.38 KCAL/MOL
REMARK 924 INTRA-LIGAND FREE ENERGY PREDICTED BY IDOCK:   -0.74 KCAL/MOL
REMARK 927      BINDING AFFINITY PREDICTED BY RF-SCORE:    0.00 PKD
ROOT
HETATM    1  C   UNL     1     -10.490  10.838  66.137  1.00  0.00    -0.278 C  
HETATM    2  C   UNL     1     -10.746  11.351  64.728  1.00  0.00    -0.362 C  
ENDROOT
BRANCH   2   3
HETATM    3  C   UNL     1     -12.073  12.103  64.645  1.00  0.00    -0.389 C  
BRANCH   3   4
HETATM    4  C   UNL     1     -11.999  13.279  63.670  1.00  0.00    -0.547 C  
BRANCH   4   5
HETATM    5  C   UNL     1     -12.085  14.613  64.413  1.00  0.00    -0.481 C  
BRANCH   5   6
HETATM    6  C   UNL     1     -10.743  14.992  65.041  1.00  0.00    -0.448 C  
BRANCH   6   7
HETATM    7  C   UNL     1     -10.900  15.433  66.477  1.00  0.00    -0.298 A  
HETATM    8  C   UNL     1     -10.549  16.711  66.932  1.00  0.00    -0.229 A  
HETATM    9  C   UNL     1     -10.745  17.086  68.261  1.00  0.00    -0.372 A  
HETATM   10  O   UNL     1      -9.993  17.663  66.124  1.00  0.00    -0.398 OA 
HETATM   11  H   UNL     1      -9.756  18.529  66.433  1.00  0.00     0.000 HD 
HETATM   12  C   UNL     1     -11.271  16.164  69.160  1.00  0.00    -0.336 A  
HETATM   13  C   UNL     1     -11.600  14.882  68.746  1.00  0.00    -0.348 A  
HETATM   14  O   UNL     1     -11.473  16.483  70.470  1.00  0.00    -0.512 OA 
HETATM   15  H   UNL     1     -11.832  15.854  71.083  1.00  0.00     0.000 HD 
HETATM   16  C   UNL     1     -11.417  14.517  67.410  1.00  0.00    -0.385 A  
ENDBRANCH   6   7
ENDBRANCH   5   6
ENDBRANCH   4   5
ENDBRANCH   3   4
ENDBRANCH   2   3
TORSDOF 5
ENDMDL
MODEL       66
REMARK 921   NORMALIZED FREE ENERGY PREDICTED BY IDOCK:   -4.40 KCAL/MOL
REMARK 922        TOTAL FREE ENERGY PREDICTED BY IDOCK:   -6.10 KCAL/MOL
REMARK 923 INTER-LIGAND FREE ENERGY PREDICTED BY IDOCK:   -5.68 KCAL/MOL
REMARK 924 INTRA-LIGAND FREE ENERGY PREDICTED BY IDOCK:   -0.41 KCAL/MOL
REMARK 927      BINDING AFFINITY PREDICTED BY RF-SCORE:    0.00 PKD
ROOT
HETATM    1  C   UNL     1      -8.264  20.080  66.896  1.00  0.00    -0.368 C  
HETATM    2  C   UNL     1      -9.652  20.559  67.293  1.00  0.00    -0.580 C  
ENDROOT
BRANCH   2   3
HETATM    3  C   UNL     1     -10.678  19.433  67.181  1.00  0.00    -0.593 C  
BRANCH   3   4
HETATM    4  C   UNL     1     -10.416  18.546  65.963  1.00  0.00    -0.433 C  
BRANCH   4   5
HETATM    5  C   UNL     1     -10.010  17.135  66.391  1.00  0.00    -0.315 C  
BRANCH   5   6
HETATM    6  C   UNL     1     -10.499  16.814  67.803  1.00  0.00    -0.335 C  
BRANCH   6   7
HETATM    7  C   UNL     1     -10.887  15.362  67.947  1.00  0.00    -0.300 A  
HETATM    8  C   UNL     1     -10.701  14.629  69.128  1.00  0.00    -0.255 A  
HETATM    9  C   UNL     1     -11.108  13.299  69.226  1.00  0.00    -0.208 A  
HETATM   10  O   UNL     1     -10.112  15.153  70.244  1.00  0.00    -0.501 OA 
HETATM   11  H   UNL     1      -9.987  14.657  71.044  1.00  0.00     0.000 HD 
HETATM   12  C   UNL     1     -11.682  12.677  68.123  1.00  0.00    -0.347 A  
HETATM   13  C   UNL     1     -11.852  13.367  66.932  1.00  0.00    -0.453 A  
HETATM   14  O   UNL     1     -12.088  11.376  68.171  1.00  0.00    -0.623 OA 
HETATM   15  H   UNL     1     -12.480  10.952  67.417  1.00  0.00     0.000 HD 
HETATM   16  C   UNL     1     -11.457  14.704  66.843  1.00  0.00    -0.372 A  
ENDBRANCH   6   7
ENDBRANCH   5   6
ENDBRANCH   4   5
ENDBRANCH   3   4
ENDBRANCH   2   3
TORSDOF 5
ENDMDL
MODEL       67
REMARK 921   NORMALIZED FREE ENERGY PREDICTED BY IDOCK:   -4.40 KCAL/MOL
REMARK 922        TOTAL FREE ENERGY PREDICTED BY IDOCK:   -6.09 KCAL/MOL
REMARK 923 INTER-LIGAND FREE ENERGY PREDICTED BY IDOCK:   -5.99 KCAL/MOL
REMARK 924 INTRA-LIGAND FREE ENERGY PREDICTED BY IDOCK:   -0.10 KCAL/MOL
REMARK 927      BINDING AFFINITY PREDICTED BY RF-SCORE:    0.00 PKD
ROOT
HETATM    1  C   UNL     1     -12.117  16.168  72.679  1.00  0.00    -0.652 C  
HETATM    2  C   UNL     1     -12.492  15.839  71.242  1.00  0.00    -0.505 C  
ENDROOT
BRANCH   2   3
HETATM    3  C   UNL     1     -11.294  15.995  70.308  1.00  0.00    -0.391 C  
BRANCH   3   4
HETATM    4  C   UNL     1     -11.650  15.639  68.864  1.00  0.00    -0.392 C  
BRANCH   4   5
HETATM    5  C   UNL     1     -10.427  15.105  68.114  1.00  0.00    -0.245 C  
BRANCH   5   6
HETATM    6  C   UNL     1     -10.410  15.581  66.662  1.00  0.00    -0.287 C  
BRANCH   6   7
HETATM    7  C   UNL     1     -10.793  14.477  65.705  1.00  0.00    -0.329 A  
HETATM    8  C   UNL     1     -10.091  13.268  65.604  1.00  0.00    -0.272 A  
HETATM    9  C   UNL     1     -10.504  12.262  64.731  1.00  0.00    -0.328 A  
HETATM   10  O   UNL     1      -8.969  12.995  66.334  1.00  0.00    -0.422 OA 
HETATM   11  H   UNL     1      -8.493  12.176  66.266  1.00  0.00     0.000 HD 
HETATM   12  C   UNL     1     -11.616  12.472  63.923  1.00  0.00    -0.442 A  
HETATM   13  C   UNL     1     -12.313  13.670  63.979  1.00  0.00    -0.382 A  
HETATM   14  O   UNL     1     -12.051  11.520  63.050  1.00  0.00    -0.939 OA 
HETATM   15  H   UNL     1     -12.811  11.664  62.498  1.00  0.00     0.000 HD 
HETATM   16  C   UNL     1     -11.906  14.668  64.866  1.00  0.00    -0.403 A  
ENDBRANCH   6   7
ENDBRANCH   5   6
ENDBRANCH   4   5
ENDBRANCH   3   4
ENDBRANCH   2   3
TORSDOF 5
ENDMDL
MODEL       68
REMARK 921   NORMALIZED FREE ENERGY PREDICTED BY IDOCK:   -4.34 KCAL/MOL
REMARK 922        TOTAL FREE ENERGY PREDICTED BY IDOCK:   -6.01 KCAL/MOL
REMARK 923 INTER-LIGAND FREE ENERGY PREDICTED BY IDOCK:   -5.65 KCAL/MOL
REMARK 924 INTRA-LIGAND FREE ENERGY PREDICTED BY IDOCK:   -0.36 KCAL/MOL
REMARK 927      BINDING AFFINITY PREDICTED BY RF-SCORE:    0.00 PKD
ROOT
HETATM    1  C   UNL     1     -10.892   7.700  72.822  1.00  0.00    -0.416 C  
HETATM    2  C   UNL     1     -11.231   8.885  71.932  1.00  0.00    -0.447 C  
ENDROOT
BRANCH   2   3
HETATM    3  C   UNL     1     -12.711   9.252  72.038  1.00  0.00    -0.479 C  
BRANCH   3   4
HETATM    4  C   UNL     1     -12.957  10.723  71.701  1.00  0.00    -0.581 C  
BRANCH   4   5
HETATM    5  C   UNL     1     -12.462  11.051  70.291  1.00  0.00    -0.365 C  
BRANCH   5   6
HETATM    6  C   UNL     1     -11.977  12.497  70.190  1.00  0.00    -0.377 C  
BRANCH   6   7
HETATM    7  C   UNL     1     -11.532  12.844  68.789  1.00  0.00    -0.345 A  
HETATM    8  C   UNL     1     -11.803  14.076  68.178  1.00  0.00    -0.367 A  
HETATM    9  C   UNL     1     -11.340  14.365  66.895  1.00  0.00    -0.357 A  
HETATM   10  O   UNL     1     -12.533  15.062  68.781  1.00  0.00    -0.586 OA 
HETATM   11  H   UNL     1     -12.717  15.896  68.367  1.00  0.00     0.000 HD 
HETATM   12  C   UNL     1     -10.621  13.403  66.196  1.00  0.00    -0.292 A  
HETATM   13  C   UNL     1     -10.362  12.163  66.762  1.00  0.00    -0.237 A  
HETATM   14  O   UNL     1     -10.155  13.639  64.936  1.00  0.00    -0.543 OA 
HETATM   15  H   UNL     1      -9.663  12.982  64.459  1.00  0.00     0.000 HD 
HETATM   16  C   UNL     1     -10.814  11.884  68.054  1.00  0.00    -0.256 A  
ENDBRANCH   6   7
ENDBRANCH   5   6
ENDBRANCH   4   5
ENDBRANCH   3   4
ENDBRANCH   2   3
TORSDOF 5
ENDMDL
MODEL       69
REMARK 921   NORMALIZED FREE ENERGY PREDICTED BY IDOCK:   -4.31 KCAL/MOL
REMARK 922        TOTAL FREE ENERGY PREDICTED BY IDOCK:   -5.97 KCAL/MOL
REMARK 923 INTER-LIGAND FREE ENERGY PREDICTED BY IDOCK:   -5.50 KCAL/MOL
REMARK 924 INTRA-LIGAND FREE ENERGY PREDICTED BY IDOCK:   -0.48 KCAL/MOL
REMARK 927      BINDING AFFINITY PREDICTED BY RF-SCORE:    0.00 PKD
ROOT
HETATM    1  C   UNL     1      -8.437  16.829  68.680  1.00  0.00    -0.259 C  
HETATM    2  C   UNL     1      -9.900  17.239  68.743  1.00  0.00    -0.306 C  
ENDROOT
BRANCH   2   3
HETATM    3  C   UNL     1     -10.719  16.242  69.561  1.00  0.00    -0.323 C  
BRANCH   3   4
HETATM    4  C   UNL     1     -11.785  15.550  68.709  1.00  0.00    -0.372 C  
BRANCH   4   5
HETATM    5  C   UNL     1     -11.541  14.041  68.646  1.00  0.00    -0.360 C  
BRANCH   5   6
HETATM    6  C   UNL     1     -10.340  13.705  67.761  1.00  0.00    -0.241 C  
BRANCH   6   7
HETATM    7  C   UNL     1     -10.765  13.094  66.447  1.00  0.00    -0.293 A  
HETATM    8  C   UNL     1      -9.918  12.304  65.657  1.00  0.00    -0.251 A  
HETATM    9  C   UNL     1     -10.365  11.729  64.467  1.00  0.00    -0.340 A  
HETATM   10  O   UNL     1      -8.616  12.049  65.985  1.00  0.00    -0.393 OA 
HETATM   11  H   UNL     1      -8.043  11.513  65.450  1.00  0.00     0.000 HD 
HETATM   12  C   UNL     1     -11.667  11.969  64.040  1.00  0.00    -0.410 A  
HETATM   13  C   UNL     1     -12.519  12.771  64.786  1.00  0.00    -0.539 A  
HETATM   14  O   UNL     1     -12.145  11.435  62.880  1.00  0.00    -0.919 OA 
HETATM   15  H   UNL     1     -13.034  11.599  62.589  1.00  0.00     0.000 HD 
HETATM   16  C   UNL     1     -12.071  13.331  65.984  1.00  0.00    -0.491 A  
ENDBRANCH   6   7
ENDBRANCH   5   6
ENDBRANCH   4   5
ENDBRANCH   3   4
ENDBRANCH   2   3
TORSDOF 5
ENDMDL
MODEL       70
REMARK 921   NORMALIZED FREE ENERGY PREDICTED BY IDOCK:   -4.29 KCAL/MOL
REMARK 922        TOTAL FREE ENERGY PREDICTED BY IDOCK:   -5.95 KCAL/MOL
REMARK 923 INTER-LIGAND FREE ENERGY PREDICTED BY IDOCK:   -5.51 KCAL/MOL
REMARK 924 INTRA-LIGAND FREE ENERGY PREDICTED BY IDOCK:   -0.44 KCAL/MOL
REMARK 927      BINDING AFFINITY PREDICTED BY RF-SCORE:    0.00 PKD
ROOT
HETATM    1  C   UNL     1     -12.384  15.555  74.388  1.00  0.00    -0.798 C  
HETATM    2  C   UNL     1     -12.791  16.081  73.020  1.00  0.00    -0.587 C  
ENDROOT
BRANCH   2   3
HETATM    3  C   UNL     1     -13.790  15.145  72.343  1.00  0.00    -0.617 C  
BRANCH   3   4
HETATM    4  C   UNL     1     -13.404  14.858  70.891  1.00  0.00    -0.393 C  
BRANCH   4   5
HETATM    5  C   UNL     1     -12.328  13.774  70.815  1.00  0.00    -0.451 C  
BRANCH   5   6
HETATM    6  C   UNL     1     -12.066  13.345  69.371  1.00  0.00    -0.321 C  
BRANCH   6   7
HETATM    7  C   UNL     1     -11.245  14.367  68.622  1.00  0.00    -0.280 A  
HETATM    8  C   UNL     1     -11.452  14.679  67.271  1.00  0.00    -0.372 A  
HETATM    9  C   UNL     1     -10.692  15.657  66.629  1.00  0.00    -0.296 A  
HETATM   10  O   UNL     1     -12.391  14.056  66.497  1.00  0.00    -0.457 OA 
HETATM   11  H   UNL     1     -12.531  14.268  65.583  1.00  0.00     0.000 HD 
HETATM   12  C   UNL     1      -9.690  16.314  67.334  1.00  0.00    -0.234 A  
HETATM   13  C   UNL     1      -9.441  16.005  68.663  1.00  0.00    -0.224 A  
HETATM   14  O   UNL     1      -8.917  17.271  66.745  1.00  0.00    -0.231 OA 
HETATM   15  H   UNL     1      -8.233  17.720  67.226  1.00  0.00     0.000 HD 
HETATM   16  C   UNL     1     -10.215  15.037  69.306  1.00  0.00    -0.244 A  
ENDBRANCH   6   7
ENDBRANCH   5   6
ENDBRANCH   4   5
ENDBRANCH   3   4
ENDBRANCH   2   3
TORSDOF 5
ENDMDL
MODEL       71
REMARK 921   NORMALIZED FREE ENERGY PREDICTED BY IDOCK:   -4.28 KCAL/MOL
REMARK 922        TOTAL FREE ENERGY PREDICTED BY IDOCK:   -5.94 KCAL/MOL
REMARK 923 INTER-LIGAND FREE ENERGY PREDICTED BY IDOCK:   -5.66 KCAL/MOL
REMARK 924 INTRA-LIGAND FREE ENERGY PREDICTED BY IDOCK:   -0.29 KCAL/MOL
REMARK 927      BINDING AFFINITY PREDICTED BY RF-SCORE:    0.00 PKD
ROOT
HETATM    1  C   UNL     1     -10.596  18.100  65.975  1.00  0.00    -0.278 C  
HETATM    2  C   UNL     1     -10.312  16.854  66.799  1.00  0.00    -0.298 C  
ENDROOT
BRANCH   2   3
HETATM    3  C   UNL     1     -10.294  15.603  65.921  1.00  0.00    -0.368 C  
BRANCH   3   4
HETATM    4  C   UNL     1     -11.065  14.449  66.562  1.00  0.00    -0.331 C  
BRANCH   4   5
HETATM    5  C   UNL     1     -11.872  14.932  67.768  1.00  0.00    -0.277 C  
BRANCH   5   6
HETATM    6  C   UNL     1     -11.837  13.916  68.909  1.00  0.00    -0.393 C  
BRANCH   6   7
HETATM    7  C   UNL     1     -12.270  14.528  70.221  1.00  0.00    -0.391 A  
HETATM    8  C   UNL     1     -11.593  15.592  70.832  1.00  0.00    -0.389 A  
HETATM    9  C   UNL     1     -12.050  16.150  72.026  1.00  0.00    -0.572 A  
HETATM   10  O   UNL     1     -10.454  16.146  70.318  1.00  0.00    -0.218 OA 
HETATM   11  H   UNL     1      -9.996  16.867  70.732  1.00  0.00     0.000 HD 
HETATM   12  C   UNL     1     -13.182  15.622  72.637  1.00  0.00    -0.502 A  
HETATM   13  C   UNL     1     -13.855  14.549  72.071  1.00  0.00    -0.561 A  
HETATM   14  O   UNL     1     -13.661  16.130  73.809  1.00  0.00    -0.902 OA 
HETATM   15  H   UNL     1     -14.433  15.769  74.226  1.00  0.00     0.000 HD 
HETATM   16  C   UNL     1     -13.403  14.004  70.868  1.00  0.00    -0.176 A  
ENDBRANCH   6   7
ENDBRANCH   5   6
ENDBRANCH   4   5
ENDBRANCH   3   4
ENDBRANCH   2   3
TORSDOF 5
ENDMDL
MODEL       72
REMARK 921   NORMALIZED FREE ENERGY PREDICTED BY IDOCK:   -4.24 KCAL/MOL
REMARK 922        TOTAL FREE ENERGY PREDICTED BY IDOCK:   -5.89 KCAL/MOL
REMARK 923 INTER-LIGAND FREE ENERGY PREDICTED BY IDOCK:   -5.31 KCAL/MOL
REMARK 924 INTRA-LIGAND FREE ENERGY PREDICTED BY IDOCK:   -0.58 KCAL/MOL
REMARK 927      BINDING AFFINITY PREDICTED BY RF-SCORE:    0.00 PKD
ROOT
HETATM    1  C   UNL     1     -10.245  19.765  66.268  1.00  0.00    -0.615 C  
HETATM    2  C   UNL     1      -9.763  19.282  67.627  1.00  0.00    -0.412 C  
ENDROOT
BRANCH   2   3
HETATM    3  C   UNL     1      -8.272  18.952  67.601  1.00  0.00    -0.290 C  
BRANCH   3   4
HETATM    4  C   UNL     1      -7.885  18.177  66.341  1.00  0.00    -0.295 C  
BRANCH   4   5
HETATM    5  C   UNL     1      -7.750  16.682  66.637  1.00  0.00    -0.316 C  
BRANCH   5   6
HETATM    6  C   UNL     1      -9.037  16.111  67.233  1.00  0.00    -0.215 C  
BRANCH   6   7
HETATM    7  C   UNL     1      -9.924  15.501  66.174  1.00  0.00    -0.332 A  
HETATM    8  C   UNL     1      -9.806  14.171  65.746  1.00  0.00    -0.271 A  
HETATM    9  C   UNL     1     -10.672  13.639  64.790  1.00  0.00    -0.420 A  
HETATM   10  O   UNL     1      -8.851  13.317  66.220  1.00  0.00    -0.443 OA 
HETATM   11  H   UNL     1      -8.772  12.416  65.930  1.00  0.00     0.000 HD 
HETATM   12  C   UNL     1     -11.650  14.451  64.228  1.00  0.00    -0.262 A  
HETATM   13  C   UNL     1     -11.772  15.779  64.610  1.00  0.00    -0.147 A  
HETATM   14  O   UNL     1     -12.514  13.977  63.285  1.00  0.00    -1.139 OA 
HETATM   15  H   UNL     1     -13.182  14.531  62.902  1.00  0.00     0.000 HD 
HETATM   16  C   UNL     1     -10.913  16.303  65.579  1.00  0.00    -0.154 A  
ENDBRANCH   6   7
ENDBRANCH   5   6
ENDBRANCH   4   5
ENDBRANCH   3   4
ENDBRANCH   2   3
TORSDOF 5
ENDMDL
MODEL       73
REMARK 921   NORMALIZED FREE ENERGY PREDICTED BY IDOCK:   -4.22 KCAL/MOL
REMARK 922        TOTAL FREE ENERGY PREDICTED BY IDOCK:   -5.86 KCAL/MOL
REMARK 923 INTER-LIGAND FREE ENERGY PREDICTED BY IDOCK:   -5.36 KCAL/MOL
REMARK 924 INTRA-LIGAND FREE ENERGY PREDICTED BY IDOCK:   -0.50 KCAL/MOL
REMARK 927      BINDING AFFINITY PREDICTED BY RF-SCORE:    0.00 PKD
ROOT
HETATM    1  C   UNL     1      -7.605  15.678  69.029  1.00  0.00    -0.187 C  
HETATM    2  C   UNL     1      -8.293  16.685  68.120  1.00  0.00    -0.193 C  
ENDROOT
BRANCH   2   3
HETATM    3  C   UNL     1      -9.690  17.030  68.634  1.00  0.00    -0.282 C  
BRANCH   3   4
HETATM    4  C   UNL     1     -10.782  16.522  67.692  1.00  0.00    -0.311 C  
BRANCH   4   5
HETATM    5  C   UNL     1     -11.542  15.350  68.317  1.00  0.00    -0.361 C  
BRANCH   5   6
HETATM    6  C   UNL     1     -11.932  15.644  69.765  1.00  0.00    -0.371 C  
BRANCH   6   7
HETATM    7  C   UNL     1     -12.351  14.392  70.499  1.00  0.00    -0.413 A  
HETATM    8  C   UNL     1     -13.149  14.407  71.651  1.00  0.00    -0.350 A  
HETATM    9  C   UNL     1     -13.542  13.223  72.275  1.00  0.00    -0.703 A  
HETATM   10  O   UNL     1     -13.587  15.560  72.240  1.00  0.00    -0.442 OA 
HETATM   11  H   UNL     1     -14.128  15.570  73.021  1.00  0.00     0.000 HD 
HETATM   12  C   UNL     1     -13.109  12.005  71.762  1.00  0.00    -0.355 A  
HETATM   13  C   UNL     1     -12.294  11.960  70.641  1.00  0.00    -0.405 A  
HETATM   14  O   UNL     1     -13.462  10.823  72.343  1.00  0.00    -0.599 OA 
HETATM   15  H   UNL     1     -13.167   9.991  71.993  1.00  0.00     0.000 HD 
HETATM   16  C   UNL     1     -11.917  13.148  70.010  1.00  0.00    -0.391 A  
ENDBRANCH   6   7
ENDBRANCH   5   6
ENDBRANCH   4   5
ENDBRANCH   3   4
ENDBRANCH   2   3
TORSDOF 5
ENDMDL
MODEL       74
REMARK 921   NORMALIZED FREE ENERGY PREDICTED BY IDOCK:   -4.19 KCAL/MOL
REMARK 922        TOTAL FREE ENERGY PREDICTED BY IDOCK:   -5.82 KCAL/MOL
REMARK 923 INTER-LIGAND FREE ENERGY PREDICTED BY IDOCK:   -4.98 KCAL/MOL
REMARK 924 INTRA-LIGAND FREE ENERGY PREDICTED BY IDOCK:   -0.84 KCAL/MOL
REMARK 927      BINDING AFFINITY PREDICTED BY RF-SCORE:    0.00 PKD
ROOT
HETATM    1  C   UNL     1     -11.911  15.013  68.686  1.00  0.00    -0.278 C  
HETATM    2  C   UNL     1     -11.257  13.931  69.532  1.00  0.00    -0.237 C  
ENDROOT
BRANCH   2   3
HETATM    3  C   UNL     1     -11.826  12.552  69.203  1.00  0.00    -0.348 C  
BRANCH   3   4
HETATM    4  C   UNL     1     -10.797  11.668  68.498  1.00  0.00    -0.257 C  
BRANCH   4   5
HETATM    5  C   UNL     1      -9.482  12.419  68.286  1.00  0.00    -0.203 C  
BRANCH   5   6
HETATM    6  C   UNL     1      -8.906  12.159  66.894  1.00  0.00    -0.202 C  
BRANCH   6   7
HETATM    7  C   UNL     1      -9.872  12.556  65.803  1.00  0.00    -0.244 A  
HETATM    8  C   UNL     1     -10.414  11.644  64.887  1.00  0.00    -0.288 A  
HETATM    9  C   UNL     1     -11.332  12.050  63.918  1.00  0.00    -0.503 A  
HETATM   10  O   UNL     1     -10.085  10.318  64.873  1.00  0.00    -0.334 OA 
HETATM   11  H   UNL     1     -10.453   9.700  64.252  1.00  0.00     0.000 HD 
HETATM   12  C   UNL     1     -11.693  13.390  63.840  1.00  0.00    -0.404 A  
HETATM   13  C   UNL     1     -11.150  14.321  64.713  1.00  0.00    -0.398 A  
HETATM   14  O   UNL     1     -12.580  13.834  62.904  1.00  0.00    -0.944 OA 
HETATM   15  H   UNL     1     -12.827  14.750  62.851  1.00  0.00     0.000 HD 
HETATM   16  C   UNL     1     -10.244  13.907  65.692  1.00  0.00    -0.344 A  
ENDBRANCH   6   7
ENDBRANCH   5   6
ENDBRANCH   4   5
ENDBRANCH   3   4
ENDBRANCH   2   3
TORSDOF 5
ENDMDL
MODEL       75
REMARK 921   NORMALIZED FREE ENERGY PREDICTED BY IDOCK:   -4.18 KCAL/MOL
REMARK 922        TOTAL FREE ENERGY PREDICTED BY IDOCK:   -5.81 KCAL/MOL
REMARK 923 INTER-LIGAND FREE ENERGY PREDICTED BY IDOCK:   -5.30 KCAL/MOL
REMARK 924 INTRA-LIGAND FREE ENERGY PREDICTED BY IDOCK:   -0.51 KCAL/MOL
REMARK 927      BINDING AFFINITY PREDICTED BY RF-SCORE:    0.00 PKD
ROOT
HETATM    1  C   UNL     1      -9.086   4.356  67.824  1.00  0.00    -0.149 C  
HETATM    2  C   UNL     1     -10.208   5.292  67.403  1.00  0.00    -0.240 C  
ENDROOT
BRANCH   2   3
HETATM    3  C   UNL     1     -10.556   6.275  68.519  1.00  0.00    -0.315 C  
BRANCH   3   4
HETATM    4  C   UNL     1      -9.856   7.621  68.328  1.00  0.00    -0.181 C  
BRANCH   4   5
HETATM    5  C   UNL     1      -9.024   7.986  69.558  1.00  0.00    -0.148 C  
BRANCH   5   6
HETATM    6  C   UNL     1      -9.397   9.367  70.098  1.00  0.00    -0.276 C  
BRANCH   6   7
HETATM    7  C   UNL     1     -10.693   9.336  70.873  1.00  0.00    -0.371 A  
HETATM    8  C   UNL     1     -11.639  10.370  70.833  1.00  0.00    -0.337 A  
HETATM    9  C   UNL     1     -12.839  10.281  71.538  1.00  0.00    -0.557 A  
HETATM   10  O   UNL     1     -11.455  11.520  70.119  1.00  0.00    -0.449 OA 
HETATM   11  H   UNL     1     -12.096  12.220  70.091  1.00  0.00     0.000 HD 
HETATM   12  C   UNL     1     -13.090   9.159  72.320  1.00  0.00    -0.438 A  
HETATM   13  C   UNL     1     -12.160   8.133  72.404  1.00  0.00    -0.406 A  
HETATM   14  O   UNL     1     -14.246   9.032  73.032  1.00  0.00    -1.107 OA 
HETATM   15  H   UNL     1     -14.417   8.266  73.566  1.00  0.00     0.000 HD 
HETATM   16  C   UNL     1     -10.967   8.219  71.683  1.00  0.00    -0.327 A  
ENDBRANCH   6   7
ENDBRANCH   5   6
ENDBRANCH   4   5
ENDBRANCH   3   4
ENDBRANCH   2   3
TORSDOF 5
ENDMDL
MODEL       76
REMARK 921   NORMALIZED FREE ENERGY PREDICTED BY IDOCK:   -4.18 KCAL/MOL
REMARK 922        TOTAL FREE ENERGY PREDICTED BY IDOCK:   -5.81 KCAL/MOL
REMARK 923 INTER-LIGAND FREE ENERGY PREDICTED BY IDOCK:   -5.44 KCAL/MOL
REMARK 924 INTRA-LIGAND FREE ENERGY PREDICTED BY IDOCK:   -0.37 KCAL/MOL
REMARK 927      BINDING AFFINITY PREDICTED BY RF-SCORE:    0.00 PKD
ROOT
HETATM    1  C   UNL     1     -13.590  15.253  71.809  1.00  0.00    -0.581 C  
HETATM    2  C   UNL     1     -13.126  13.813  71.664  1.00  0.00    -0.456 C  
ENDROOT
BRANCH   2   3
HETATM    3  C   UNL     1     -12.136  13.664  70.509  1.00  0.00    -0.411 C  
BRANCH   3   4
HETATM    4  C   UNL     1     -12.060  14.934  69.660  1.00  0.00    -0.334 C  
BRANCH   4   5
HETATM    5  C   UNL     1     -10.629  15.469  69.601  1.00  0.00    -0.285 C  
BRANCH   5   6
HETATM    6  C   UNL     1     -10.174  15.694  68.159  1.00  0.00    -0.228 C  
BRANCH   6   7
HETATM    7  C   UNL     1      -9.841  17.144  67.895  1.00  0.00    -0.283 A  
HETATM    8  C   UNL     1      -9.107  17.574  66.782  1.00  0.00    -0.262 A  
HETATM    9  C   UNL     1      -8.855  18.928  66.560  1.00  0.00    -0.324 A  
HETATM   10  O   UNL     1      -8.588  16.715  65.854  1.00  0.00    -0.473 OA 
HETATM   11  H   UNL     1      -8.091  17.007  65.099  1.00  0.00     0.000 HD 
HETATM   12  C   UNL     1      -9.315  19.867  67.476  1.00  0.00    -0.353 A  
HETATM   13  C   UNL     1     -10.019  19.469  68.603  1.00  0.00    -0.538 A  
HETATM   14  O   UNL     1      -9.085  21.200  67.304  1.00  0.00    -0.559 OA 
HETATM   15  H   UNL     1      -9.400  21.841  67.930  1.00  0.00     0.000 HD 
HETATM   16  C   UNL     1     -10.282  18.114  68.813  1.00  0.00    -0.353 A  
ENDBRANCH   6   7
ENDBRANCH   5   6
ENDBRANCH   4   5
ENDBRANCH   3   4
ENDBRANCH   2   3
TORSDOF 5
ENDMDL
MODEL       77
REMARK 921   NORMALIZED FREE ENERGY PREDICTED BY IDOCK:   -4.17 KCAL/MOL
REMARK 922        TOTAL FREE ENERGY PREDICTED BY IDOCK:   -5.80 KCAL/MOL
REMARK 923 INTER-LIGAND FREE ENERGY PREDICTED BY IDOCK:   -5.35 KCAL/MOL
REMARK 924 INTRA-LIGAND FREE ENERGY PREDICTED BY IDOCK:   -0.45 KCAL/MOL
REMARK 927      BINDING AFFINITY PREDICTED BY RF-SCORE:    0.00 PKD
ROOT
HETATM    1  C   UNL     1      -6.887  16.204  67.236  1.00  0.00    -0.236 C  
HETATM    2  C   UNL     1      -8.295  16.599  66.819  1.00  0.00    -0.270 C  
ENDROOT
BRANCH   2   3
HETATM    3  C   UNL     1      -9.118  15.376  66.420  1.00  0.00    -0.350 C  
BRANCH   3   4
HETATM    4  C   UNL     1     -10.434  15.771  65.750  1.00  0.00    -0.384 C  
BRANCH   4   5
HETATM    5  C   UNL     1     -11.020  14.600  64.960  1.00  0.00    -0.415 C  
BRANCH   5   6
HETATM    6  C   UNL     1     -12.270  14.037  65.636  1.00  0.00    -0.462 C  
BRANCH   6   7
HETATM    7  C   UNL     1     -11.931  13.257  66.884  1.00  0.00    -0.430 A  
HETATM    8  C   UNL     1     -12.031  13.792  68.176  1.00  0.00    -0.358 A  
HETATM    9  C   UNL     1     -11.741  13.022  69.303  1.00  0.00    -0.375 A  
HETATM   10  O   UNL     1     -12.406  15.083  68.421  1.00  0.00    -0.576 OA 
HETATM   11  H   UNL     1     -12.475  15.445  69.297  1.00  0.00     0.000 HD 
HETATM   12  C   UNL     1     -11.315  11.709  69.141  1.00  0.00    -0.283 A  
HETATM   13  C   UNL     1     -11.178  11.161  67.874  1.00  0.00    -0.365 A  
HETATM   14  O   UNL     1     -11.014  10.921  70.213  1.00  0.00    -0.459 OA 
HETATM   15  H   UNL     1     -10.723  10.024  70.102  1.00  0.00     0.000 HD 
HETATM   16  C   UNL     1     -11.485  11.931  66.749  1.00  0.00    -0.384 A  
ENDBRANCH   6   7
ENDBRANCH   5   6
ENDBRANCH   4   5
ENDBRANCH   3   4
ENDBRANCH   2   3
TORSDOF 5
ENDMDL
MODEL       78
REMARK 921   NORMALIZED FREE ENERGY PREDICTED BY IDOCK:   -4.15 KCAL/MOL
REMARK 922        TOTAL FREE ENERGY PREDICTED BY IDOCK:   -5.76 KCAL/MOL
REMARK 923 INTER-LIGAND FREE ENERGY PREDICTED BY IDOCK:   -5.47 KCAL/MOL
REMARK 924 INTRA-LIGAND FREE ENERGY PREDICTED BY IDOCK:   -0.29 KCAL/MOL
REMARK 927      BINDING AFFINITY PREDICTED BY RF-SCORE:    0.00 PKD
ROOT
HETATM    1  C   UNL     1     -10.471   4.537  65.951  1.00  0.00    -0.262 C  
HETATM    2  C   UNL     1      -9.522   5.331  66.837  1.00  0.00    -0.138 C  
ENDROOT
BRANCH   2   3
HETATM    3  C   UNL     1     -10.019   6.761  67.037  1.00  0.00    -0.234 C  
BRANCH   3   4
HETATM    4  C   UNL     1      -9.087   7.782  66.383  1.00  0.00    -0.216 C  
BRANCH   4   5
HETATM    5  C   UNL     1      -9.644   9.200  66.523  1.00  0.00    -0.289 C  
BRANCH   5   6
HETATM    6  C   UNL     1      -9.648   9.935  65.183  1.00  0.00    -0.367 C  
BRANCH   6   7
HETATM    7  C   UNL     1     -10.617  11.095  65.182  1.00  0.00    -0.319 A  
HETATM    8  C   UNL     1     -11.189  11.617  64.013  1.00  0.00    -0.369 A  
HETATM    9  C   UNL     1     -12.107  12.666  64.064  1.00  0.00    -0.542 A  
HETATM   10  O   UNL     1     -10.889  11.151  62.764  1.00  0.00    -0.779 OA 
HETATM   11  H   UNL     1     -11.277  11.505  61.973  1.00  0.00     0.000 HD 
HETATM   12  C   UNL     1     -12.439  13.224  65.293  1.00  0.00    -0.489 A  
HETATM   13  C   UNL     1     -11.866  12.748  66.464  1.00  0.00    -0.471 A  
HETATM   14  O   UNL     1     -13.326  14.256  65.390  1.00  0.00    -0.649 OA 
HETATM   15  H   UNL     1     -13.553  14.637  66.229  1.00  0.00     0.000 HD 
HETATM   16  C   UNL     1     -10.960  11.687  66.409  1.00  0.00    -0.345 A  
ENDBRANCH   6   7
ENDBRANCH   5   6
ENDBRANCH   4   5
ENDBRANCH   3   4
ENDBRANCH   2   3
TORSDOF 5
ENDMDL
MODEL       79
REMARK 921   NORMALIZED FREE ENERGY PREDICTED BY IDOCK:   -4.14 KCAL/MOL
REMARK 922        TOTAL FREE ENERGY PREDICTED BY IDOCK:   -5.76 KCAL/MOL
REMARK 923 INTER-LIGAND FREE ENERGY PREDICTED BY IDOCK:   -4.82 KCAL/MOL
REMARK 924 INTRA-LIGAND FREE ENERGY PREDICTED BY IDOCK:   -0.94 KCAL/MOL
REMARK 927      BINDING AFFINITY PREDICTED BY RF-SCORE:    0.00 PKD
ROOT
HETATM    1  C   UNL     1     -10.465   6.927  68.281  1.00  0.00    -0.240 C  
HETATM    2  C   UNL     1     -11.282   6.304  69.402  1.00  0.00    -0.489 C  
ENDROOT
BRANCH   2   3
HETATM    3  C   UNL     1     -10.411   5.426  70.299  1.00  0.00    -0.357 C  
BRANCH   3   4
HETATM    4  C   UNL     1     -10.816   5.539  71.770  1.00  0.00    -0.277 C  
BRANCH   4   5
HETATM    5  C   UNL     1      -9.769   6.316  72.569  1.00  0.00    -0.163 C  
BRANCH   5   6
HETATM    6  C   UNL     1     -10.374   7.555  73.229  1.00  0.00    -0.412 C  
BRANCH   6   7
HETATM    7  C   UNL     1     -10.927   8.522  72.208  1.00  0.00    -0.426 A  
HETATM    8  C   UNL     1     -10.125   9.209  71.286  1.00  0.00    -0.318 A  
HETATM    9  C   UNL     1     -10.683  10.065  70.337  1.00  0.00    -0.369 A  
HETATM   10  O   UNL     1      -8.763   9.098  71.255  1.00  0.00    -0.270 OA 
HETATM   11  H   UNL     1      -8.220   9.563  70.630  1.00  0.00     0.000 HD 
HETATM   12  C   UNL     1     -12.059  10.264  70.324  1.00  0.00    -0.249 A  
HETATM   13  C   UNL     1     -12.876   9.621  71.243  1.00  0.00    -0.438 A  
HETATM   14  O   UNL     1     -12.649  11.097  69.419  1.00  0.00    -0.350 OA 
HETATM   15  H   UNL     1     -13.588  11.233  69.410  1.00  0.00     0.000 HD 
HETATM   16  C   UNL     1     -12.313   8.753  72.181  1.00  0.00    -0.458 A  
ENDBRANCH   6   7
ENDBRANCH   5   6
ENDBRANCH   4   5
ENDBRANCH   3   4
ENDBRANCH   2   3
TORSDOF 5
ENDMDL
MODEL       80
REMARK 921   NORMALIZED FREE ENERGY PREDICTED BY IDOCK:   -4.12 KCAL/MOL
REMARK 922        TOTAL FREE ENERGY PREDICTED BY IDOCK:   -5.73 KCAL/MOL
REMARK 923 INTER-LIGAND FREE ENERGY PREDICTED BY IDOCK:   -4.80 KCAL/MOL
REMARK 924 INTRA-LIGAND FREE ENERGY PREDICTED BY IDOCK:   -0.92 KCAL/MOL
REMARK 927      BINDING AFFINITY PREDICTED BY RF-SCORE:    0.00 PKD
ROOT
HETATM    1  C   UNL     1      -8.672  11.945  67.479  1.00  0.00    -0.163 C  
HETATM    2  C   UNL     1      -9.428  10.906  66.666  1.00  0.00    -0.204 C  
ENDROOT
BRANCH   2   3
HETATM    3  C   UNL     1      -9.181  11.088  65.169  1.00  0.00    -0.227 C  
BRANCH   3   4
HETATM    4  C   UNL     1     -10.444  10.822  64.349  1.00  0.00    -0.344 C  
BRANCH   4   5
HETATM    5  C   UNL     1     -10.831  12.051  63.525  1.00  0.00    -0.509 C  
BRANCH   5   6
HETATM    6  C   UNL     1     -12.051  12.759  64.113  1.00  0.00    -0.513 C  
BRANCH   6   7
HETATM    7  C   UNL     1     -11.659  13.790  65.145  1.00  0.00    -0.341 A  
HETATM    8  C   UNL     1     -11.831  13.602  66.524  1.00  0.00    -0.404 A  
HETATM    9  C   UNL     1     -11.420  14.568  67.442  1.00  0.00    -0.385 A  
HETATM   10  O   UNL     1     -12.408  12.484  67.057  1.00  0.00    -0.403 OA 
HETATM   11  H   UNL     1     -12.523  12.356  67.991  1.00  0.00     0.000 HD 
HETATM   12  C   UNL     1     -10.858  15.753  66.982  1.00  0.00    -0.273 A  
HETATM   13  C   UNL     1     -10.703  15.980  65.622  1.00  0.00    -0.341 A  
HETATM   14  O   UNL     1     -10.449  16.728  67.842  1.00  0.00    -0.309 OA 
HETATM   15  H   UNL     1     -10.064  17.537  67.528  1.00  0.00     0.000 HD 
HETATM   16  C   UNL     1     -11.100  15.003  64.707  1.00  0.00    -0.388 A  
ENDBRANCH   6   7
ENDBRANCH   5   6
ENDBRANCH   4   5
ENDBRANCH   3   4
ENDBRANCH   2   3
TORSDOF 5
ENDMDL
MODEL       81
REMARK 921   NORMALIZED FREE ENERGY PREDICTED BY IDOCK:   -4.12 KCAL/MOL
REMARK 922        TOTAL FREE ENERGY PREDICTED BY IDOCK:   -5.73 KCAL/MOL
REMARK 923 INTER-LIGAND FREE ENERGY PREDICTED BY IDOCK:   -5.24 KCAL/MOL
REMARK 924 INTRA-LIGAND FREE ENERGY PREDICTED BY IDOCK:   -0.48 KCAL/MOL
REMARK 927      BINDING AFFINITY PREDICTED BY RF-SCORE:    0.00 PKD
ROOT
HETATM    1  C   UNL     1      -7.360   9.794  70.425  1.00  0.00    -0.151 C  
HETATM    2  C   UNL     1      -7.239  10.848  69.335  1.00  0.00    -0.126 C  
ENDROOT
BRANCH   2   3
HETATM    3  C   UNL     1      -8.395  10.749  68.341  1.00  0.00    -0.132 C  
BRANCH   3   4
HETATM    4  C   UNL     1      -9.698  10.332  69.024  1.00  0.00    -0.213 C  
BRANCH   4   5
HETATM    5  C   UNL     1     -10.893  10.524  68.089  1.00  0.00    -0.300 C  
BRANCH   5   6
HETATM    6  C   UNL     1     -10.525  10.210  66.638  1.00  0.00    -0.254 C  
BRANCH   6   7
HETATM    7  C   UNL     1     -11.002  11.287  65.693  1.00  0.00    -0.201 A  
HETATM    8  C   UNL     1     -10.794  11.241  64.307  1.00  0.00    -0.328 A  
HETATM    9  C   UNL     1     -11.284  12.241  63.468  1.00  0.00    -0.535 A  
HETATM   10  O   UNL     1     -10.103  10.235  63.690  1.00  0.00    -0.455 OA 
HETATM   11  H   UNL     1      -9.963  10.204  62.752  1.00  0.00     0.000 HD 
HETATM   12  C   UNL     1     -11.966  13.320  64.018  1.00  0.00    -0.465 A  
HETATM   13  C   UNL     1     -12.162  13.409  65.388  1.00  0.00    -0.492 A  
HETATM   14  O   UNL     1     -12.457  14.324  63.237  1.00  0.00    -1.133 OA 
HETATM   15  H   UNL     1     -12.923  15.061  63.613  1.00  0.00     0.000 HD 
HETATM   16  C   UNL     1     -11.683  12.396  66.223  1.00  0.00    -0.457 A  
ENDBRANCH   6   7
ENDBRANCH   5   6
ENDBRANCH   4   5
ENDBRANCH   3   4
ENDBRANCH   2   3
TORSDOF 5
ENDMDL
MODEL       82
REMARK 921   NORMALIZED FREE ENERGY PREDICTED BY IDOCK:   -4.11 KCAL/MOL
REMARK 922        TOTAL FREE ENERGY PREDICTED BY IDOCK:   -5.72 KCAL/MOL
REMARK 923 INTER-LIGAND FREE ENERGY PREDICTED BY IDOCK:   -5.74 KCAL/MOL
REMARK 924 INTRA-LIGAND FREE ENERGY PREDICTED BY IDOCK:    0.02 KCAL/MOL
REMARK 927      BINDING AFFINITY PREDICTED BY RF-SCORE:    0.00 PKD
ROOT
HETATM    1  C   UNL     1     -11.280   6.314  69.345  1.00  0.00    -0.489 C  
HETATM    2  C   UNL     1     -10.326   6.657  68.212  1.00  0.00    -0.220 C  
ENDROOT
BRANCH   2   3
HETATM    3  C   UNL     1     -10.108   8.166  68.110  1.00  0.00    -0.237 C  
BRANCH   3   4
HETATM    4  C   UNL     1     -10.457   8.697  66.719  1.00  0.00    -0.298 C  
BRANCH   4   5
HETATM    5  C   UNL     1      -9.755  10.029  66.450  1.00  0.00    -0.266 C  
BRANCH   5   6
HETATM    6  C   UNL     1      -9.784  10.387  64.964  1.00  0.00    -0.362 C  
BRANCH   6   7
HETATM    7  C   UNL     1     -10.472  11.709  64.718  1.00  0.00    -0.346 A  
HETATM    8  C   UNL     1     -10.088  12.903  65.344  1.00  0.00    -0.251 A  
HETATM    9  C   UNL     1     -10.729  14.109  65.058  1.00  0.00    -0.429 A  
HETATM   10  O   UNL     1      -9.082  12.972  66.265  1.00  0.00    -0.435 OA 
HETATM   11  H   UNL     1      -8.821  13.781  66.689  1.00  0.00     0.000 HD 
HETATM   12  C   UNL     1     -11.789  14.121  64.159  1.00  0.00    -0.337 A  
HETATM   13  C   UNL     1     -12.211  12.950  63.546  1.00  0.00    -0.595 A  
HETATM   14  O   UNL     1     -12.451  15.274  63.855  1.00  0.00    -0.964 OA 
HETATM   15  H   UNL     1     -13.175  15.283  63.240  1.00  0.00     0.000 HD 
HETATM   16  C   UNL     1     -11.555  11.749  63.823  1.00  0.00    -0.508 A  
ENDBRANCH   6   7
ENDBRANCH   5   6
ENDBRANCH   4   5
ENDBRANCH   3   4
ENDBRANCH   2   3
TORSDOF 5
ENDMDL
MODEL       83
REMARK 921   NORMALIZED FREE ENERGY PREDICTED BY IDOCK:   -4.11 KCAL/MOL
REMARK 922        TOTAL FREE ENERGY PREDICTED BY IDOCK:   -5.72 KCAL/MOL
REMARK 923 INTER-LIGAND FREE ENERGY PREDICTED BY IDOCK:   -5.44 KCAL/MOL
REMARK 924 INTRA-LIGAND FREE ENERGY PREDICTED BY IDOCK:   -0.28 KCAL/MOL
REMARK 927      BINDING AFFINITY PREDICTED BY RF-SCORE:    0.00 PKD
ROOT
HETATM    1  C   UNL     1     -13.602  13.469  72.375  1.00  0.00    -0.709 C  
HETATM    2  C   UNL     1     -12.874  12.539  71.417  1.00  0.00    -0.359 C  
ENDROOT
BRANCH   2   3
HETATM    3  C   UNL     1     -13.081  11.076  71.802  1.00  0.00    -0.554 C  
BRANCH   3   4
HETATM    4  C   UNL     1     -12.003  10.173  71.201  1.00  0.00    -0.480 C  
BRANCH   4   5
HETATM    5  C   UNL     1     -11.781   8.933  72.069  1.00  0.00    -0.438 C  
BRANCH   5   6
HETATM    6  C   UNL     1     -12.533   7.721  71.517  1.00  0.00    -0.348 C  
BRANCH   6   7
HETATM    7  C   UNL     1     -11.617   6.538  71.310  1.00  0.00    -0.381 A  
HETATM    8  C   UNL     1     -11.132   6.151  70.053  1.00  0.00    -0.392 A  
HETATM    9  C   UNL     1     -10.259   5.073  69.914  1.00  0.00    -0.340 A  
HETATM   10  O   UNL     1     -11.479   6.786  68.893  1.00  0.00    -0.561 OA 
HETATM   11  H   UNL     1     -11.150   6.524  68.042  1.00  0.00     0.000 HD 
HETATM   12  C   UNL     1      -9.885   4.348  71.040  1.00  0.00    -0.190 A  
HETATM   13  C   UNL     1     -10.371   4.689  72.294  1.00  0.00    -0.251 A  
HETATM   14  O   UNL     1      -9.039   3.282  70.952  1.00  0.00    -0.090 OA 
HETATM   15  H   UNL     1      -8.783   2.788  71.721  1.00  0.00     0.000 HD 
HETATM   16  C   UNL     1     -11.233   5.779  72.430  1.00  0.00    -0.343 A  
ENDBRANCH   6   7
ENDBRANCH   5   6
ENDBRANCH   4   5
ENDBRANCH   3   4
ENDBRANCH   2   3
TORSDOF 5
ENDMDL
MODEL       84
REMARK 921   NORMALIZED FREE ENERGY PREDICTED BY IDOCK:   -4.08 KCAL/MOL
REMARK 922        TOTAL FREE ENERGY PREDICTED BY IDOCK:   -5.68 KCAL/MOL
REMARK 923 INTER-LIGAND FREE ENERGY PREDICTED BY IDOCK:   -5.12 KCAL/MOL
REMARK 924 INTRA-LIGAND FREE ENERGY PREDICTED BY IDOCK:   -0.56 KCAL/MOL
REMARK 927      BINDING AFFINITY PREDICTED BY RF-SCORE:    0.00 PKD
ROOT
HETATM    1  C   UNL     1     -13.140  11.727  71.842  1.00  0.00    -0.482 C  
HETATM    2  C   UNL     1     -12.582  10.323  71.660  1.00  0.00    -0.534 C  
ENDROOT
BRANCH   2   3
HETATM    3  C   UNL     1     -11.460  10.304  70.624  1.00  0.00    -0.435 C  
BRANCH   3   4
HETATM    4  C   UNL     1     -11.941  10.790  69.257  1.00  0.00    -0.334 C  
BRANCH   4   5
HETATM    5  C   UNL     1     -11.012  11.871  68.702  1.00  0.00    -0.271 C  
BRANCH   5   6
HETATM    6  C   UNL     1     -11.784  12.907  67.883  1.00  0.00    -0.405 C  
BRANCH   6   7
HETATM    7  C   UNL     1     -11.392  14.318  68.250  1.00  0.00    -0.314 A  
HETATM    8  C   UNL     1     -10.869  15.236  67.328  1.00  0.00    -0.318 A  
HETATM    9  C   UNL     1     -10.555  16.541  67.705  1.00  0.00    -0.321 A  
HETATM   10  O   UNL     1     -10.629  14.922  66.020  1.00  0.00    -0.292 OA 
HETATM   11  H   UNL     1     -10.275  15.544  65.395  1.00  0.00     0.000 HD 
HETATM   12  C   UNL     1     -10.734  16.932  69.027  1.00  0.00    -0.308 A  
HETATM   13  C   UNL     1     -11.221  16.038  69.969  1.00  0.00    -0.362 A  
HETATM   14  O   UNL     1     -10.433  18.196  69.442  1.00  0.00    -0.399 OA 
HETATM   15  H   UNL     1     -10.556  18.463  70.345  1.00  0.00     0.000 HD 
HETATM   16  C   UNL     1     -11.550  14.736  69.583  1.00  0.00    -0.342 A  
ENDBRANCH   6   7
ENDBRANCH   5   6
ENDBRANCH   4   5
ENDBRANCH   3   4
ENDBRANCH   2   3
TORSDOF 5
ENDMDL
MODEL       85
REMARK 921   NORMALIZED FREE ENERGY PREDICTED BY IDOCK:   -4.07 KCAL/MOL
REMARK 922        TOTAL FREE ENERGY PREDICTED BY IDOCK:   -5.67 KCAL/MOL
REMARK 923 INTER-LIGAND FREE ENERGY PREDICTED BY IDOCK:   -5.27 KCAL/MOL
REMARK 924 INTRA-LIGAND FREE ENERGY PREDICTED BY IDOCK:   -0.40 KCAL/MOL
REMARK 927      BINDING AFFINITY PREDICTED BY RF-SCORE:    0.00 PKD
ROOT
HETATM    1  C   UNL     1     -12.925  10.302  71.659  1.00  0.00    -0.570 C  
HETATM    2  C   UNL     1     -11.699  10.345  70.760  1.00  0.00    -0.464 C  
ENDROOT
BRANCH   2   3
HETATM    3  C   UNL     1     -11.700  11.595  69.882  1.00  0.00    -0.414 C  
BRANCH   3   4
HETATM    4  C   UNL     1     -12.369  12.779  70.581  1.00  0.00    -0.381 C  
BRANCH   4   5
HETATM    5  C   UNL     1     -12.045  14.092  69.866  1.00  0.00    -0.406 C  
BRANCH   5   6
HETATM    6  C   UNL     1     -10.803  13.957  68.984  1.00  0.00    -0.253 C  
BRANCH   6   7
HETATM    7  C   UNL     1     -10.608  15.167  68.101  1.00  0.00    -0.246 A  
HETATM    8  C   UNL     1     -10.360  15.082  66.724  1.00  0.00    -0.270 A  
HETATM    9  C   UNL     1     -10.222  16.229  65.941  1.00  0.00    -0.384 A  
HETATM   10  O   UNL     1     -10.232  13.894  66.062  1.00  0.00    -0.292 OA 
HETATM   11  H   UNL     1     -10.065  13.837  65.129  1.00  0.00     0.000 HD 
HETATM   12  C   UNL     1     -10.302  17.480  66.543  1.00  0.00    -0.325 A  
HETATM   13  C   UNL     1     -10.516  17.595  67.909  1.00  0.00    -0.392 A  
HETATM   14  O   UNL     1     -10.165  18.627  65.819  1.00  0.00    -0.552 OA 
HETATM   15  H   UNL     1     -10.220  19.481  66.230  1.00  0.00     0.000 HD 
HETATM   16  C   UNL     1     -10.670  16.444  68.686  1.00  0.00    -0.317 A  
ENDBRANCH   6   7
ENDBRANCH   5   6
ENDBRANCH   4   5
ENDBRANCH   3   4
ENDBRANCH   2   3
TORSDOF 5
ENDMDL
MODEL       86
REMARK 921   NORMALIZED FREE ENERGY PREDICTED BY IDOCK:   -4.07 KCAL/MOL
REMARK 922        TOTAL FREE ENERGY PREDICTED BY IDOCK:   -5.66 KCAL/MOL
REMARK 923 INTER-LIGAND FREE ENERGY PREDICTED BY IDOCK:   -5.01 KCAL/MOL
REMARK 924 INTRA-LIGAND FREE ENERGY PREDICTED BY IDOCK:   -0.65 KCAL/MOL
REMARK 927      BINDING AFFINITY PREDICTED BY RF-SCORE:    0.00 PKD
ROOT
HETATM    1  C   UNL     1     -10.619   6.159  66.630  1.00  0.00    -0.296 C  
HETATM    2  C   UNL     1     -10.694   7.489  67.363  1.00  0.00    -0.331 C  
ENDROOT
BRANCH   2   3
HETATM    3  C   UNL     1      -9.473   8.356  67.063  1.00  0.00    -0.225 C  
BRANCH   3   4
HETATM    4  C   UNL     1      -9.862   9.807  66.781  1.00  0.00    -0.265 C  
BRANCH   4   5
HETATM    5  C   UNL     1     -11.005  10.255  67.693  1.00  0.00    -0.356 C  
BRANCH   5   6
HETATM    6  C   UNL     1     -10.478  10.880  68.986  1.00  0.00    -0.244 C  
BRANCH   6   7
HETATM    7  C   UNL     1     -10.746  10.001  70.184  1.00  0.00    -0.361 A  
HETATM    8  C   UNL     1     -12.025   9.803  70.722  1.00  0.00    -0.299 A  
HETATM    9  C   UNL     1     -12.230   8.952  71.809  1.00  0.00    -0.429 A  
HETATM   10  O   UNL     1     -13.142  10.421  70.235  1.00  0.00    -0.515 OA 
HETATM   11  H   UNL     1     -14.009  10.287  70.599  1.00  0.00     0.000 HD 
HETATM   12  C   UNL     1     -11.141   8.312  72.389  1.00  0.00    -0.377 A  
HETATM   13  C   UNL     1      -9.859   8.512  71.897  1.00  0.00    -0.358 A  
HETATM   14  O   UNL     1     -11.293   7.478  73.457  1.00  0.00    -0.620 OA 
HETATM   15  H   UNL     1     -10.549   7.040  73.853  1.00  0.00     0.000 HD 
HETATM   16  C   UNL     1      -9.661   9.351  70.799  1.00  0.00    -0.332 A  
ENDBRANCH   6   7
ENDBRANCH   5   6
ENDBRANCH   4   5
ENDBRANCH   3   4
ENDBRANCH   2   3
TORSDOF 5
ENDMDL
MODEL       87
REMARK 921   NORMALIZED FREE ENERGY PREDICTED BY IDOCK:   -4.06 KCAL/MOL
REMARK 922        TOTAL FREE ENERGY PREDICTED BY IDOCK:   -5.65 KCAL/MOL
REMARK 923 INTER-LIGAND FREE ENERGY PREDICTED BY IDOCK:   -5.24 KCAL/MOL
REMARK 924 INTRA-LIGAND FREE ENERGY PREDICTED BY IDOCK:   -0.41 KCAL/MOL
REMARK 927      BINDING AFFINITY PREDICTED BY RF-SCORE:    0.00 PKD
ROOT
HETATM    1  C   UNL     1      -8.157   8.006  68.937  1.00  0.00    -0.124 C  
HETATM    2  C   UNL     1      -9.458   8.289  69.673  1.00  0.00    -0.163 C  
ENDROOT
BRANCH   2   3
HETATM    3  C   UNL     1     -10.379   9.183  68.845  1.00  0.00    -0.232 C  
BRANCH   3   4
HETATM    4  C   UNL     1     -11.178  10.145  69.725  1.00  0.00    -0.325 C  
BRANCH   4   5
HETATM    5  C   UNL     1     -11.884  11.205  68.878  1.00  0.00    -0.406 C  
BRANCH   5   6
HETATM    6  C   UNL     1     -10.889  12.201  68.282  1.00  0.00    -0.256 C  
BRANCH   6   7
HETATM    7  C   UNL     1     -11.282  12.619  66.885  1.00  0.00    -0.348 A  
HETATM    8  C   UNL     1     -10.867  11.937  65.733  1.00  0.00    -0.295 A  
HETATM    9  C   UNL     1     -11.285  12.339  64.464  1.00  0.00    -0.378 A  
HETATM   10  O   UNL     1     -10.035  10.854  65.767  1.00  0.00    -0.225 OA 
HETATM   11  H   UNL     1      -9.754  10.392  64.986  1.00  0.00     0.000 HD 
HETATM   12  C   UNL     1     -12.103  13.455  64.337  1.00  0.00    -0.416 A  
HETATM   13  C   UNL     1     -12.506  14.168  65.456  1.00  0.00    -0.495 A  
HETATM   14  O   UNL     1     -12.530  13.889  63.116  1.00  0.00    -1.121 OA 
HETATM   15  H   UNL     1     -13.090  14.651  63.029  1.00  0.00     0.000 HD 
HETATM   16  C   UNL     1     -12.098  13.753  66.726  1.00  0.00    -0.460 A  
ENDBRANCH   6   7
ENDBRANCH   5   6
ENDBRANCH   4   5
ENDBRANCH   3   4
ENDBRANCH   2   3
TORSDOF 5
ENDMDL
MODEL       88
REMARK 921   NORMALIZED FREE ENERGY PREDICTED BY IDOCK:   -4.06 KCAL/MOL
REMARK 922        TOTAL FREE ENERGY PREDICTED BY IDOCK:   -5.65 KCAL/MOL
REMARK 923 INTER-LIGAND FREE ENERGY PREDICTED BY IDOCK:   -4.83 KCAL/MOL
REMARK 924 INTRA-LIGAND FREE ENERGY PREDICTED BY IDOCK:   -0.82 KCAL/MOL
REMARK 927      BINDING AFFINITY PREDICTED BY RF-SCORE:    0.00 PKD
ROOT
HETATM    1  C   UNL     1      -6.298  16.633  67.053  1.00  0.00    -0.222 C  
HETATM    2  C   UNL     1      -6.962  15.838  68.167  1.00  0.00    -0.125 C  
ENDROOT
BRANCH   2   3
HETATM    3  C   UNL     1      -7.648  14.587  67.622  1.00  0.00    -0.198 C  
BRANCH   3   4
HETATM    4  C   UNL     1      -9.027  14.378  68.247  1.00  0.00    -0.187 C  
BRANCH   4   5
HETATM    5  C   UNL     1     -10.135  14.591  67.214  1.00  0.00    -0.247 C  
BRANCH   5   6
HETATM    6  C   UNL     1     -11.139  15.646  67.678  1.00  0.00    -0.305 C  
BRANCH   6   7
HETATM    7  C   UNL     1     -10.608  17.047  67.488  1.00  0.00    -0.310 A  
HETATM    8  C   UNL     1     -10.516  17.672  66.237  1.00  0.00    -0.292 A  
HETATM    9  C   UNL     1     -10.053  18.982  66.114  1.00  0.00    -0.462 A  
HETATM   10  O   UNL     1     -10.859  17.053  65.068  1.00  0.00    -0.678 OA 
HETATM   11  H   UNL     1     -10.797  17.476  64.220  1.00  0.00     0.000 HD 
HETATM   12  C   UNL     1      -9.647  19.672  67.250  1.00  0.00    -0.346 A  
HETATM   13  C   UNL     1      -9.698  19.070  68.499  1.00  0.00    -0.458 A  
HETATM   14  O   UNL     1      -9.180  20.951  67.177  1.00  0.00    -0.621 OA 
HETATM   15  H   UNL     1      -8.903  21.422  67.953  1.00  0.00     0.000 HD 
HETATM   16  C   UNL     1     -10.178  17.764  68.619  1.00  0.00    -0.377 A  
ENDBRANCH   6   7
ENDBRANCH   5   6
ENDBRANCH   4   5
ENDBRANCH   3   4
ENDBRANCH   2   3
TORSDOF 5
ENDMDL
MODEL       89
REMARK 921   NORMALIZED FREE ENERGY PREDICTED BY IDOCK:   -4.05 KCAL/MOL
REMARK 922        TOTAL FREE ENERGY PREDICTED BY IDOCK:   -5.64 KCAL/MOL
REMARK 923 INTER-LIGAND FREE ENERGY PREDICTED BY IDOCK:   -5.39 KCAL/MOL
REMARK 924 INTRA-LIGAND FREE ENERGY PREDICTED BY IDOCK:   -0.25 KCAL/MOL
REMARK 927      BINDING AFFINITY PREDICTED BY RF-SCORE:    0.00 PKD
ROOT
HETATM    1  C   UNL     1      -8.329   6.226  67.563  1.00  0.00    -0.113 C  
HETATM    2  C   UNL     1      -9.259   7.245  68.204  1.00  0.00    -0.132 C  
ENDROOT
BRANCH   2   3
HETATM    3  C   UNL     1      -9.826   8.209  67.164  1.00  0.00    -0.281 C  
BRANCH   3   4
HETATM    4  C   UNL     1      -9.701   9.665  67.612  1.00  0.00    -0.182 C  
BRANCH   4   5
HETATM    5  C   UNL     1     -10.189  10.618  66.519  1.00  0.00    -0.288 C  
BRANCH   5   6
HETATM    6  C   UNL     1     -11.264  11.570  67.044  1.00  0.00    -0.365 C  
BRANCH   6   7
HETATM    7  C   UNL     1     -11.315  12.853  66.249  1.00  0.00    -0.364 A  
HETATM    8  C   UNL     1     -10.434  13.923  66.458  1.00  0.00    -0.282 A  
HETATM    9  C   UNL     1     -10.495  15.075  65.674  1.00  0.00    -0.368 A  
HETATM   10  O   UNL     1      -9.473  13.918  67.430  1.00  0.00    -0.213 OA 
HETATM   11  H   UNL     1      -8.876  14.643  67.571  1.00  0.00     0.000 HD 
HETATM   12  C   UNL     1     -11.468  15.178  64.686  1.00  0.00    -0.362 A  
HETATM   13  C   UNL     1     -12.374  14.148  64.476  1.00  0.00    -0.419 A  
HETATM   14  O   UNL     1     -11.571  16.288  63.901  1.00  0.00    -1.489 OA 
HETATM   15  H   UNL     1     -12.235  16.358  63.226  1.00  0.00     0.000 HD 
HETATM   16  C   UNL     1     -12.298  12.989  65.253  1.00  0.00    -0.537 A  
ENDBRANCH   6   7
ENDBRANCH   5   6
ENDBRANCH   4   5
ENDBRANCH   3   4
ENDBRANCH   2   3
TORSDOF 5
ENDMDL
MODEL       90
REMARK 921   NORMALIZED FREE ENERGY PREDICTED BY IDOCK:   -4.03 KCAL/MOL
REMARK 922        TOTAL FREE ENERGY PREDICTED BY IDOCK:   -5.62 KCAL/MOL
REMARK 923 INTER-LIGAND FREE ENERGY PREDICTED BY IDOCK:   -5.32 KCAL/MOL
REMARK 924 INTRA-LIGAND FREE ENERGY PREDICTED BY IDOCK:   -0.29 KCAL/MOL
REMARK 927      BINDING AFFINITY PREDICTED BY RF-SCORE:    0.00 PKD
ROOT
HETATM    1  C   UNL     1     -13.040  15.820  71.823  1.00  0.00    -0.490 C  
HETATM    2  C   UNL     1     -12.338  14.566  72.321  1.00  0.00    -0.319 C  
ENDROOT
BRANCH   2   3
HETATM    3  C   UNL     1     -13.300  13.381  72.384  1.00  0.00    -0.629 C  
BRANCH   3   4
HETATM    4  C   UNL     1     -12.975  12.329  71.322  1.00  0.00    -0.299 C  
BRANCH   4   5
HETATM    5  C   UNL     1     -12.062  12.907  70.240  1.00  0.00    -0.377 C  
BRANCH   5   6
HETATM    6  C   UNL     1     -11.449  11.805  69.376  1.00  0.00    -0.371 C  
BRANCH   6   7
HETATM    7  C   UNL     1     -11.009  12.327  68.029  1.00  0.00    -0.265 A  
HETATM    8  C   UNL     1      -9.757  12.917  67.804  1.00  0.00    -0.214 A  
HETATM    9  C   UNL     1      -9.380  13.352  66.533  1.00  0.00    -0.225 A  
HETATM   10  O   UNL     1      -8.836  13.111  68.794  1.00  0.00    -0.375 OA 
HETATM   11  H   UNL     1      -7.988  13.510  68.642  1.00  0.00     0.000 HD 
HETATM   12  C   UNL     1     -10.273  13.226  65.476  1.00  0.00    -0.290 A  
HETATM   13  C   UNL     1     -11.530  12.673  65.673  1.00  0.00    -0.387 A  
HETATM   14  O   UNL     1      -9.950  13.644  64.218  1.00  0.00    -0.749 OA 
HETATM   15  H   UNL     1     -10.560  13.557  63.496  1.00  0.00     0.000 HD 
HETATM   16  C   UNL     1     -11.897  12.224  66.944  1.00  0.00    -0.334 A  
ENDBRANCH   6   7
ENDBRANCH   5   6
ENDBRANCH   4   5
ENDBRANCH   3   4
ENDBRANCH   2   3
TORSDOF 5
ENDMDL
MODEL       91
REMARK 921   NORMALIZED FREE ENERGY PREDICTED BY IDOCK:   -4.03 KCAL/MOL
REMARK 922        TOTAL FREE ENERGY PREDICTED BY IDOCK:   -5.61 KCAL/MOL
REMARK 923 INTER-LIGAND FREE ENERGY PREDICTED BY IDOCK:   -4.71 KCAL/MOL
REMARK 924 INTRA-LIGAND FREE ENERGY PREDICTED BY IDOCK:   -0.90 KCAL/MOL
REMARK 927      BINDING AFFINITY PREDICTED BY RF-SCORE:    0.00 PKD
ROOT
HETATM    1  C   UNL     1     -11.053  15.488  64.722  1.00  0.00    -0.421 C  
HETATM    2  C   UNL     1     -12.215  14.527  64.524  1.00  0.00    -0.483 C  
ENDROOT
BRANCH   2   3
HETATM    3  C   UNL     1     -11.743  13.075  64.548  1.00  0.00    -0.419 C  
BRANCH   3   4
HETATM    4  C   UNL     1     -11.999  12.417  65.905  1.00  0.00    -0.434 C  
BRANCH   4   5
HETATM    5  C   UNL     1     -10.684  12.117  66.625  1.00  0.00    -0.281 C  
BRANCH   5   6
HETATM    6  C   UNL     1     -10.775  12.445  68.116  1.00  0.00    -0.243 C  
BRANCH   6   7
HETATM    7  C   UNL     1     -10.633  13.926  68.375  1.00  0.00    -0.262 A  
HETATM    8  C   UNL     1     -11.592  14.681  69.065  1.00  0.00    -0.298 A  
HETATM    9  C   UNL     1     -11.401  16.041  69.313  1.00  0.00    -0.356 A  
HETATM   10  O   UNL     1     -12.762  14.152  69.531  1.00  0.00    -0.458 OA 
HETATM   11  H   UNL     1     -13.411  14.664  69.999  1.00  0.00     0.000 HD 
HETATM   12  C   UNL     1     -10.253  16.666  68.840  1.00  0.00    -0.284 A  
HETATM   13  C   UNL     1      -9.301  15.952  68.128  1.00  0.00    -0.198 A  
HETATM   14  O   UNL     1     -10.029  17.994  69.052  1.00  0.00    -0.357 OA 
HETATM   15  H   UNL     1      -9.245  18.422  68.729  1.00  0.00     0.000 HD 
HETATM   16  C   UNL     1      -9.489  14.588  67.896  1.00  0.00    -0.212 A  
ENDBRANCH   6   7
ENDBRANCH   5   6
ENDBRANCH   4   5
ENDBRANCH   3   4
ENDBRANCH   2   3
TORSDOF 5
ENDMDL
MODEL       92
REMARK 921   NORMALIZED FREE ENERGY PREDICTED BY IDOCK:   -4.03 KCAL/MOL
REMARK 922        TOTAL FREE ENERGY PREDICTED BY IDOCK:   -5.61 KCAL/MOL
REMARK 923 INTER-LIGAND FREE ENERGY PREDICTED BY IDOCK:   -5.24 KCAL/MOL
REMARK 924 INTRA-LIGAND FREE ENERGY PREDICTED BY IDOCK:   -0.37 KCAL/MOL
REMARK 927      BINDING AFFINITY PREDICTED BY RF-SCORE:    0.00 PKD
ROOT
HETATM    1  C   UNL     1      -8.493  19.667  67.257  1.00  0.00    -0.348 C  
HETATM    2  C   UNL     1      -9.915  19.426  66.774  1.00  0.00    -0.476 C  
ENDROOT
BRANCH   2   3
HETATM    3  C   UNL     1     -10.565  18.265  67.523  1.00  0.00    -0.432 C  
BRANCH   3   4
HETATM    4  C   UNL     1     -10.102  16.911  66.983  1.00  0.00    -0.289 C  
BRANCH   4   5
HETATM    5  C   UNL     1     -10.283  15.812  68.032  1.00  0.00    -0.229 C  
BRANCH   5   6
HETATM    6  C   UNL     1     -11.653  15.900  68.704  1.00  0.00    -0.383 C  
BRANCH   6   7
HETATM    7  C   UNL     1     -11.956  14.669  69.525  1.00  0.00    -0.361 A  
HETATM    8  C   UNL     1     -12.722  14.696  70.698  1.00  0.00    -0.357 A  
HETATM    9  C   UNL     1     -13.006  13.528  71.405  1.00  0.00    -0.421 A  
HETATM   10  O   UNL     1     -13.231  15.848  71.229  1.00  0.00    -0.548 OA 
HETATM   11  H   UNL     1     -13.751  15.867  72.024  1.00  0.00     0.000 HD 
HETATM   12  C   UNL     1     -12.495  12.316  70.955  1.00  0.00    -0.276 A  
HETATM   13  C   UNL     1     -11.708  12.261  69.813  1.00  0.00    -0.368 A  
HETATM   14  O   UNL     1     -12.740  11.150  71.617  1.00  0.00    -0.395 OA 
HETATM   15  H   UNL     1     -12.391  10.322  71.309  1.00  0.00     0.000 HD 
HETATM   16  C   UNL     1     -11.440  13.432  69.100  1.00  0.00    -0.351 A  
ENDBRANCH   6   7
ENDBRANCH   5   6
ENDBRANCH   4   5
ENDBRANCH   3   4
ENDBRANCH   2   3
TORSDOF 5
ENDMDL
MODEL       93
REMARK 921   NORMALIZED FREE ENERGY PREDICTED BY IDOCK:   -4.02 KCAL/MOL
REMARK 922        TOTAL FREE ENERGY PREDICTED BY IDOCK:   -5.59 KCAL/MOL
REMARK 923 INTER-LIGAND FREE ENERGY PREDICTED BY IDOCK:   -5.17 KCAL/MOL
REMARK 924 INTRA-LIGAND FREE ENERGY PREDICTED BY IDOCK:   -0.43 KCAL/MOL
REMARK 927      BINDING AFFINITY PREDICTED BY RF-SCORE:    0.00 PKD
ROOT
HETATM    1  C   UNL     1      -5.677  14.060  68.048  1.00  0.00    -0.132 C  
HETATM    2  C   UNL     1      -6.835  13.171  68.475  1.00  0.00    -0.099 C  
ENDROOT
BRANCH   2   3
HETATM    3  C   UNL     1      -7.870  13.037  67.360  1.00  0.00    -0.166 C  
BRANCH   3   4
HETATM    4  C   UNL     1      -8.022  11.587  66.897  1.00  0.00    -0.164 C  
BRANCH   4   5
HETATM    5  C   UNL     1      -9.155  10.888  67.650  1.00  0.00    -0.148 C  
BRANCH   5   6
HETATM    6  C   UNL     1     -10.176  10.280  66.688  1.00  0.00    -0.294 C  
BRANCH   6   7
HETATM    7  C   UNL     1     -10.835  11.333  65.829  1.00  0.00    -0.257 A  
HETATM    8  C   UNL     1     -11.748  12.272  66.330  1.00  0.00    -0.365 A  
HETATM    9  C   UNL     1     -12.305  13.250  65.507  1.00  0.00    -0.533 A  
HETATM   10  O   UNL     1     -12.156  12.292  67.634  1.00  0.00    -0.502 OA 
HETATM   11  H   UNL     1     -12.774  12.929  67.973  1.00  0.00     0.000 HD 
HETATM   12  C   UNL     1     -11.972  13.277  64.157  1.00  0.00    -0.447 A  
HETATM   13  C   UNL     1     -11.094  12.343  63.627  1.00  0.00    -0.535 A  
HETATM   14  O   UNL     1     -12.497  14.211  63.313  1.00  0.00    -1.146 OA 
HETATM   15  H   UNL     1     -12.270  14.230  62.392  1.00  0.00     0.000 HD 
HETATM   16  C   UNL     1     -10.527  11.375  64.458  1.00  0.00    -0.381 A  
ENDBRANCH   6   7
ENDBRANCH   5   6
ENDBRANCH   4   5
ENDBRANCH   3   4
ENDBRANCH   2   3
TORSDOF 5
ENDMDL
MODEL       94
REMARK 921   NORMALIZED FREE ENERGY PREDICTED BY IDOCK:   -3.97 KCAL/MOL
REMARK 922        TOTAL FREE ENERGY PREDICTED BY IDOCK:   -5.53 KCAL/MOL
REMARK 923 INTER-LIGAND FREE ENERGY PREDICTED BY IDOCK:   -5.10 KCAL/MOL
REMARK 924 INTRA-LIGAND FREE ENERGY PREDICTED BY IDOCK:   -0.44 KCAL/MOL
REMARK 927      BINDING AFFINITY PREDICTED BY RF-SCORE:    0.00 PKD
ROOT
HETATM    1  C   UNL     1     -10.973  16.404  64.848  1.00  0.00    -0.277 C  
HETATM    2  C   UNL     1     -10.397  15.326  65.754  1.00  0.00    -0.364 C  
ENDROOT
BRANCH   2   3
HETATM    3  C   UNL     1     -10.710  13.930  65.219  1.00  0.00    -0.352 C  
BRANCH   3   4
HETATM    4  C   UNL     1     -11.956  13.336  65.877  1.00  0.00    -0.466 C  
BRANCH   4   5
HETATM    5  C   UNL     1     -11.627  12.025  66.591  1.00  0.00    -0.389 C  
BRANCH   5   6
HETATM    6  C   UNL     1     -10.743  12.260  67.816  1.00  0.00    -0.246 C  
BRANCH   6   7
HETATM    7  C   UNL     1     -11.559  12.393  69.080  1.00  0.00    -0.369 A  
HETATM    8  C   UNL     1     -12.113  13.605  69.514  1.00  0.00    -0.314 A  
HETATM    9  C   UNL     1     -12.890  13.673  70.670  1.00  0.00    -0.224 A  
HETATM   10  O   UNL     1     -11.929  14.787  68.854  1.00  0.00    -0.409 OA 
HETATM   11  H   UNL     1     -12.305  15.609  69.148  1.00  0.00     0.000 HD 
HETATM   12  C   UNL     1     -13.096  12.523  71.423  1.00  0.00    -0.210 A  
HETATM   13  C   UNL     1     -12.536  11.314  71.035  1.00  0.00    -0.495 A  
HETATM   14  O   UNL     1     -13.843  12.543  72.564  1.00  0.00    -0.554 OA 
HETATM   15  H   UNL     1     -13.984  11.757  73.078  1.00  0.00     0.000 HD 
HETATM   16  C   UNL     1     -11.771  11.248  69.868  1.00  0.00    -0.430 A  
ENDBRANCH   6   7
ENDBRANCH   5   6
ENDBRANCH   4   5
ENDBRANCH   3   4
ENDBRANCH   2   3
TORSDOF 5
ENDMDL
MODEL       95
REMARK 921   NORMALIZED FREE ENERGY PREDICTED BY IDOCK:   -3.94 KCAL/MOL
REMARK 922        TOTAL FREE ENERGY PREDICTED BY IDOCK:   -5.50 KCAL/MOL
REMARK 923 INTER-LIGAND FREE ENERGY PREDICTED BY IDOCK:   -5.43 KCAL/MOL
REMARK 924 INTRA-LIGAND FREE ENERGY PREDICTED BY IDOCK:   -0.07 KCAL/MOL
REMARK 927      BINDING AFFINITY PREDICTED BY RF-SCORE:    0.00 PKD
ROOT
HETATM    1  C   UNL     1     -10.118  10.347  65.631  1.00  0.00    -0.337 C  
HETATM    2  C   UNL     1      -9.613  10.196  67.058  1.00  0.00    -0.209 C  
ENDROOT
BRANCH   2   3
HETATM    3  C   UNL     1     -10.765   9.940  68.028  1.00  0.00    -0.296 C  
BRANCH   3   4
HETATM    4  C   UNL     1     -10.285   9.896  69.480  1.00  0.00    -0.243 C  
BRANCH   4   5
HETATM    5  C   UNL     1     -11.230  10.678  70.393  1.00  0.00    -0.334 C  
BRANCH   5   6
HETATM    6  C   UNL     1     -11.989  11.758  69.622  1.00  0.00    -0.378 C  
BRANCH   6   7
HETATM    7  C   UNL     1     -12.475  12.861  70.532  1.00  0.00    -0.294 A  
HETATM    8  C   UNL     1     -13.199  12.624  71.709  1.00  0.00    -0.359 A  
HETATM    9  C   UNL     1     -13.596  13.673  72.538  1.00  0.00    -0.675 A  
HETATM   10  O   UNL     1     -13.567  11.373  72.119  1.00  0.00    -0.474 OA 
HETATM   11  H   UNL     1     -14.057  11.213  72.916  1.00  0.00     0.000 HD 
HETATM   12  C   UNL     1     -13.295  14.981  72.176  1.00  0.00    -0.387 A  
HETATM   13  C   UNL     1     -12.606  15.249  71.002  1.00  0.00    -0.469 A  
HETATM   14  O   UNL     1     -13.670  16.038  72.951  1.00  0.00    -0.565 OA 
HETATM   15  H   UNL     1     -13.464  16.931  72.704  1.00  0.00     0.000 HD 
HETATM   16  C   UNL     1     -12.196  14.194  70.183  1.00  0.00    -0.415 A  
ENDBRANCH   6   7
ENDBRANCH   5   6
ENDBRANCH   4   5
ENDBRANCH   3   4
ENDBRANCH   2   3
TORSDOF 5
ENDMDL
MODEL       96
REMARK 921   NORMALIZED FREE ENERGY PREDICTED BY IDOCK:   -3.94 KCAL/MOL
REMARK 922        TOTAL FREE ENERGY PREDICTED BY IDOCK:   -5.49 KCAL/MOL
REMARK 923 INTER-LIGAND FREE ENERGY PREDICTED BY IDOCK:   -5.20 KCAL/MOL
REMARK 924 INTRA-LIGAND FREE ENERGY PREDICTED BY IDOCK:   -0.29 KCAL/MOL
REMARK 927      BINDING AFFINITY PREDICTED BY RF-SCORE:    0.00 PKD
ROOT
HETATM    1  C   UNL     1      -9.551  15.018  68.716  1.00  0.00    -0.220 C  
HETATM    2  C   UNL     1     -10.922  15.317  69.303  1.00  0.00    -0.261 C  
ENDROOT
BRANCH   2   3
HETATM    3  C   UNL     1     -12.016  14.534  68.580  1.00  0.00    -0.320 C  
BRANCH   3   4
HETATM    4  C   UNL     1     -11.569  13.110  68.247  1.00  0.00    -0.370 C  
BRANCH   4   5
HETATM    5  C   UNL     1     -11.674  12.202  69.473  1.00  0.00    -0.402 C  
BRANCH   5   6
HETATM    6  C   UNL     1     -11.402  10.741  69.113  1.00  0.00    -0.348 C  
BRANCH   6   7
HETATM    7  C   UNL     1     -11.376   9.857  70.337  1.00  0.00    -0.376 A  
HETATM    8  C   UNL     1     -12.533   9.429  71.002  1.00  0.00    -0.239 A  
HETATM    9  C   UNL     1     -12.462   8.582  72.108  1.00  0.00    -0.437 A  
HETATM   10  O   UNL     1     -13.791   9.808  70.626  1.00  0.00    -0.491 OA 
HETATM   11  H   UNL     1     -14.576   9.518  71.077  1.00  0.00     0.000 HD 
HETATM   12  C   UNL     1     -11.218   8.179  72.579  1.00  0.00    -0.391 A  
HETATM   13  C   UNL     1     -10.053   8.609  71.960  1.00  0.00    -0.401 A  
HETATM   14  O   UNL     1     -11.099   7.357  73.661  1.00  0.00    -0.576 OA 
HETATM   15  H   UNL     1     -10.250   7.081  73.983  1.00  0.00     0.000 HD 
HETATM   16  C   UNL     1     -10.131   9.444  70.843  1.00  0.00    -0.366 A  
ENDBRANCH   6   7
ENDBRANCH   5   6
ENDBRANCH   4   5
ENDBRANCH   3   4
ENDBRANCH   2   3
TORSDOF 5
ENDMDL
MODEL       97
REMARK 921   NORMALIZED FREE ENERGY PREDICTED BY IDOCK:   -3.93 KCAL/MOL
REMARK 922        TOTAL FREE ENERGY PREDICTED BY IDOCK:   -5.49 KCAL/MOL
REMARK 923 INTER-LIGAND FREE ENERGY PREDICTED BY IDOCK:   -5.22 KCAL/MOL
REMARK 924 INTRA-LIGAND FREE ENERGY PREDICTED BY IDOCK:   -0.27 KCAL/MOL
REMARK 927      BINDING AFFINITY PREDICTED BY RF-SCORE:    0.00 PKD
ROOT
HETATM    1  C   UNL     1     -10.758  12.186  63.542  1.00  0.00    -0.509 C  
HETATM    2  C   UNL     1     -11.538  11.769  64.779  1.00  0.00    -0.241 C  
ENDROOT
BRANCH   2   3
HETATM    3  C   UNL     1     -12.388  12.921  65.312  1.00  0.00    -0.544 C  
BRANCH   3   4
HETATM    4  C   UNL     1     -11.795  13.522  66.587  1.00  0.00    -0.450 C  
BRANCH   4   5
HETATM    5  C   UNL     1     -11.084  14.843  66.292  1.00  0.00    -0.340 C  
BRANCH   5   6
HETATM    6  C   UNL     1     -10.541  15.485  67.568  1.00  0.00    -0.297 C  
BRANCH   6   7
HETATM    7  C   UNL     1     -10.105  16.913  67.338  1.00  0.00    -0.279 A  
HETATM    8  C   UNL     1      -8.956  17.258  66.612  1.00  0.00    -0.256 A  
HETATM    9  C   UNL     1      -8.613  18.592  66.393  1.00  0.00    -0.284 A  
HETATM   10  O   UNL     1      -8.103  16.332  66.082  1.00  0.00    -0.293 OA 
HETATM   11  H   UNL     1      -7.325  16.566  65.591  1.00  0.00     0.000 HD 
HETATM   12  C   UNL     1      -9.407  19.599  66.930  1.00  0.00    -0.355 A  
HETATM   13  C   UNL     1     -10.534  19.287  67.678  1.00  0.00    -0.557 A  
HETATM   14  O   UNL     1      -9.106  20.916  66.748  1.00  0.00    -0.594 OA 
HETATM   15  H   UNL     1      -9.649  21.604  67.115  1.00  0.00     0.000 HD 
HETATM   16  C   UNL     1     -10.883  17.950  67.881  1.00  0.00    -0.225 A  
ENDBRANCH   6   7
ENDBRANCH   5   6
ENDBRANCH   4   5
ENDBRANCH   3   4
ENDBRANCH   2   3
TORSDOF 5
ENDMDL
MODEL       98
REMARK 921   NORMALIZED FREE ENERGY PREDICTED BY IDOCK:   -3.93 KCAL/MOL
REMARK 922        TOTAL FREE ENERGY PREDICTED BY IDOCK:   -5.48 KCAL/MOL
REMARK 923 INTER-LIGAND FREE ENERGY PREDICTED BY IDOCK:   -4.86 KCAL/MOL
REMARK 924 INTRA-LIGAND FREE ENERGY PREDICTED BY IDOCK:   -0.62 KCAL/MOL
REMARK 927      BINDING AFFINITY PREDICTED BY RF-SCORE:    0.00 PKD
ROOT
HETATM    1  C   UNL     1     -12.341  13.856  64.948  1.00  0.00    -0.445 C  
HETATM    2  C   UNL     1     -12.871  12.563  64.347  1.00  0.00    -0.366 C  
ENDROOT
BRANCH   2   3
HETATM    3  C   UNL     1     -11.831  11.908  63.440  1.00  0.00    -0.512 C  
BRANCH   3   4
HETATM    4  C   UNL     1     -10.407  12.148  63.943  1.00  0.00    -0.441 C  
BRANCH   4   5
HETATM    5  C   UNL     1      -9.612  10.842  63.978  1.00  0.00    -0.339 C  
BRANCH   5   6
HETATM    6  C   UNL     1      -9.832  10.087  65.289  1.00  0.00    -0.388 C  
BRANCH   6   7
HETATM    7  C   UNL     1     -10.001  11.029  66.458  1.00  0.00    -0.253 A  
HETATM    8  C   UNL     1      -8.972  11.850  66.939  1.00  0.00    -0.196 A  
HETATM    9  C   UNL     1      -9.185  12.732  67.999  1.00  0.00    -0.208 A  
HETATM   10  O   UNL     1      -7.708  11.843  66.420  1.00  0.00    -0.379 OA 
HETATM   11  H   UNL     1      -7.011  12.399  66.745  1.00  0.00     0.000 HD 
HETATM   12  C   UNL     1     -10.433  12.776  68.609  1.00  0.00    -0.211 A  
HETATM   13  C   UNL     1     -11.462  11.954  68.175  1.00  0.00    -0.384 A  
HETATM   14  O   UNL     1     -10.685  13.617  69.653  1.00  0.00    -0.445 OA 
HETATM   15  H   UNL     1     -11.537  13.647  70.070  1.00  0.00     0.000 HD 
HETATM   16  C   UNL     1     -11.249  11.085  67.103  1.00  0.00    -0.290 A  
ENDBRANCH   6   7
ENDBRANCH   5   6
ENDBRANCH   4   5
ENDBRANCH   3   4
ENDBRANCH   2   3
TORSDOF 5
ENDMDL
MODEL       99
REMARK 921   NORMALIZED FREE ENERGY PREDICTED BY IDOCK:   -3.93 KCAL/MOL
REMARK 922        TOTAL FREE ENERGY PREDICTED BY IDOCK:   -5.48 KCAL/MOL
REMARK 923 INTER-LIGAND FREE ENERGY PREDICTED BY IDOCK:   -5.11 KCAL/MOL
REMARK 924 INTRA-LIGAND FREE ENERGY PREDICTED BY IDOCK:   -0.37 KCAL/MOL
REMARK 927      BINDING AFFINITY PREDICTED BY RF-SCORE:    0.00 PKD
ROOT
HETATM    1  C   UNL     1     -10.498  12.495  63.658  1.00  0.00    -0.418 C  
HETATM    2  C   UNL     1     -11.369  11.989  64.799  1.00  0.00    -0.369 C  
ENDROOT
BRANCH   2   3
HETATM    3  C   UNL     1     -10.963  12.624  66.127  1.00  0.00    -0.313 C  
BRANCH   3   4
HETATM    4  C   UNL     1     -11.909  13.758  66.526  1.00  0.00    -0.438 C  
BRANCH   4   5
HETATM    5  C   UNL     1     -11.306  15.121  66.182  1.00  0.00    -0.220 C  
BRANCH   5   6
HETATM    6  C   UNL     1     -10.270  15.554  67.219  1.00  0.00    -0.260 C  
BRANCH   6   7
HETATM    7  C   UNL     1     -10.137  17.056  67.288  1.00  0.00    -0.295 A  
HETATM    8  C   UNL     1     -10.396  17.799  68.449  1.00  0.00    -0.376 A  
HETATM    9  C   UNL     1     -10.225  19.183  68.475  1.00  0.00    -0.448 A  
HETATM   10  O   UNL     1     -10.833  17.233  69.613  1.00  0.00    -0.364 OA 
HETATM   11  H   UNL     1     -11.008  17.736  70.400  1.00  0.00     0.000 HD 
HETATM   12  C   UNL     1      -9.819  19.843  67.321  1.00  0.00    -0.403 A  
HETATM   13  C   UNL     1      -9.585  19.139  66.149  1.00  0.00    -0.318 A  
HETATM   14  O   UNL     1      -9.647  21.196  67.299  1.00  0.00    -0.660 OA 
HETATM   15  H   UNL     1      -9.369  21.647  66.510  1.00  0.00     0.000 HD 
HETATM   16  C   UNL     1      -9.741  17.752  66.132  1.00  0.00    -0.230 A  
ENDBRANCH   6   7
ENDBRANCH   5   6
ENDBRANCH   4   5
ENDBRANCH   3   4
ENDBRANCH   2   3
TORSDOF 5
ENDMDL
MODEL      100
REMARK 921   NORMALIZED FREE ENERGY PREDICTED BY IDOCK:   -3.92 KCAL/MOL
REMARK 922        TOTAL FREE ENERGY PREDICTED BY IDOCK:   -5.48 KCAL/MOL
REMARK 923 INTER-LIGAND FREE ENERGY PREDICTED BY IDOCK:   -5.14 KCAL/MOL
REMARK 924 INTRA-LIGAND FREE ENERGY PREDICTED BY IDOCK:   -0.34 KCAL/MOL
REMARK 927      BINDING AFFINITY PREDICTED BY RF-SCORE:    0.00 PKD
ROOT
HETATM    1  C   UNL     1     -12.894  11.544  71.406  1.00  0.00    -0.489 C  
HETATM    2  C   UNL     1     -13.555  12.785  71.987  1.00  0.00    -0.460 C  
ENDROOT
BRANCH   2   3
HETATM    3  C   UNL     1     -12.698  14.028  71.753  1.00  0.00    -0.406 C  
BRANCH   3   4
HETATM    4  C   UNL     1     -12.769  14.502  70.301  1.00  0.00    -0.325 C  
BRANCH   4   5
HETATM    5  C   UNL     1     -11.373  14.807  69.756  1.00  0.00    -0.319 C  
BRANCH   5   6
HETATM    6  C   UNL     1     -11.028  16.290  69.898  1.00  0.00    -0.365 C  
BRANCH   6   7
HETATM    7  C   UNL     1     -10.161  16.776  68.761  1.00  0.00    -0.299 A  
HETATM    8  C   UNL     1      -9.875  18.130  68.537  1.00  0.00    -0.382 A  
HETATM    9  C   UNL     1      -9.039  18.531  67.495  1.00  0.00    -0.289 A  
HETATM   10  O   UNL     1     -10.389  19.137  69.305  1.00  0.00    -0.527 OA 
HETATM   11  H   UNL     1     -10.195  20.054  69.153  1.00  0.00     0.000 HD 
HETATM   12  C   UNL     1      -8.503  17.572  66.643  1.00  0.00    -0.259 A  
HETATM   13  C   UNL     1      -8.793  16.227  66.821  1.00  0.00    -0.263 A  
HETATM   14  O   UNL     1      -7.687  17.917  65.606  1.00  0.00    -0.541 OA 
HETATM   15  H   UNL     1      -7.321  17.262  65.024  1.00  0.00     0.000 HD 
HETATM   16  C   UNL     1      -9.617  15.829  67.876  1.00  0.00    -0.214 A  
ENDBRANCH   6   7
ENDBRANCH   5   6
ENDBRANCH   4   5
ENDBRANCH   3   4
ENDBRANCH   2   3
TORSDOF 5
ENDMDL
MODEL      101
REMARK 921   NORMALIZED FREE ENERGY PREDICTED BY IDOCK:   -3.92 KCAL/MOL
REMARK 922        TOTAL FREE ENERGY PREDICTED BY IDOCK:   -5.47 KCAL/MOL
REMARK 923 INTER-LIGAND FREE ENERGY PREDICTED BY IDOCK:   -4.88 KCAL/MOL
REMARK 924 INTRA-LIGAND FREE ENERGY PREDICTED BY IDOCK:   -0.59 KCAL/MOL
REMARK 927      BINDING AFFINITY PREDICTED BY RF-SCORE:    0.00 PKD
ROOT
HETATM    1  C   UNL     1      -9.076   8.695  66.563  1.00  0.00    -0.206 C  
HETATM    2  C   UNL     1      -9.844   9.757  65.791  1.00  0.00    -0.360 C  
ENDROOT
BRANCH   2   3
HETATM    3  C   UNL     1      -9.211  10.015  64.425  1.00  0.00    -0.316 C  
BRANCH   3   4
HETATM    4  C   UNL     1      -9.958  11.100  63.649  1.00  0.00    -0.411 C  
BRANCH   4   5
HETATM    5  C   UNL     1     -11.160  11.613  64.444  1.00  0.00    -0.382 C  
BRANCH   5   6
HETATM    6  C   UNL     1     -11.279  13.135  64.360  1.00  0.00    -0.403 C  
BRANCH   6   7
HETATM    7  C   UNL     1     -11.359  13.768  65.729  1.00  0.00    -0.309 A  
HETATM    8  C   UNL     1     -11.096  15.124  65.966  1.00  0.00    -0.312 A  
HETATM    9  C   UNL     1     -11.219  15.674  67.242  1.00  0.00    -0.184 A  
HETATM   10  O   UNL     1     -10.702  15.989  64.984  1.00  0.00    -0.513 OA 
HETATM   11  H   UNL     1     -10.524  16.908  65.144  1.00  0.00     0.000 HD 
HETATM   12  C   UNL     1     -11.579  14.854  68.306  1.00  0.00    -0.334 A  
HETATM   13  C   UNL     1     -11.817  13.502  68.108  1.00  0.00    -0.400 A  
HETATM   14  O   UNL     1     -11.704  15.346  69.572  1.00  0.00    -0.304 OA 
HETATM   15  H   UNL     1     -11.950  14.787  70.298  1.00  0.00     0.000 HD 
HETATM   16  C   UNL     1     -11.709  12.960  66.825  1.00  0.00    -0.445 A  
ENDBRANCH   6   7
ENDBRANCH   5   6
ENDBRANCH   4   5
ENDBRANCH   3   4
ENDBRANCH   2   3
TORSDOF 5
ENDMDL
MODEL      102
REMARK 921   NORMALIZED FREE ENERGY PREDICTED BY IDOCK:   -3.91 KCAL/MOL
REMARK 922        TOTAL FREE ENERGY PREDICTED BY IDOCK:   -5.46 KCAL/MOL
REMARK 923 INTER-LIGAND FREE ENERGY PREDICTED BY IDOCK:   -5.00 KCAL/MOL
REMARK 924 INTRA-LIGAND FREE ENERGY PREDICTED BY IDOCK:   -0.46 KCAL/MOL
REMARK 927      BINDING AFFINITY PREDICTED BY RF-SCORE:    0.00 PKD
ROOT
HETATM    1  C   UNL     1     -10.022   7.680  67.800  1.00  0.00    -0.219 C  
HETATM    2  C   UNL     1     -10.501   9.084  67.462  1.00  0.00    -0.338 C  
ENDROOT
BRANCH   2   3
HETATM    3  C   UNL     1      -9.539   9.780  66.501  1.00  0.00    -0.249 C  
BRANCH   3   4
HETATM    4  C   UNL     1     -10.087  11.126  66.025  1.00  0.00    -0.292 C  
BRANCH   4   5
HETATM    5  C   UNL     1     -11.103  11.686  67.021  1.00  0.00    -0.359 C  
BRANCH   5   6
HETATM    6  C   UNL     1     -12.052  12.682  66.353  1.00  0.00    -0.330 C  
BRANCH   6   7
HETATM    7  C   UNL     1     -11.416  14.043  66.195  1.00  0.00    -0.350 A  
HETATM    8  C   UNL     1     -11.418  14.757  64.988  1.00  0.00    -0.389 A  
HETATM    9  C   UNL     1     -10.849  16.028  64.898  1.00  0.00    -0.391 A  
HETATM   10  O   UNL     1     -11.960  14.267  63.833  1.00  0.00    -0.667 OA 
HETATM   11  H   UNL     1     -11.961  14.751  63.016  1.00  0.00     0.000 HD 
HETATM   12  C   UNL     1     -10.243  16.585  66.018  1.00  0.00    -0.356 A  
HETATM   13  C   UNL     1     -10.199  15.890  67.218  1.00  0.00    -0.278 A  
HETATM   14  O   UNL     1      -9.668  17.821  65.975  1.00  0.00    -0.496 OA 
HETATM   15  H   UNL     1      -9.254  18.202  66.740  1.00  0.00     0.000 HD 
HETATM   16  C   UNL     1     -10.784  14.625  67.308  1.00  0.00    -0.290 A  
ENDBRANCH   6   7
ENDBRANCH   5   6
ENDBRANCH   4   5
ENDBRANCH   3   4
ENDBRANCH   2   3
TORSDOF 5
ENDMDL
MODEL      103
REMARK 921   NORMALIZED FREE ENERGY PREDICTED BY IDOCK:   -3.91 KCAL/MOL
REMARK 922        TOTAL FREE ENERGY PREDICTED BY IDOCK:   -5.46 KCAL/MOL
REMARK 923 INTER-LIGAND FREE ENERGY PREDICTED BY IDOCK:   -5.05 KCAL/MOL
REMARK 924 INTRA-LIGAND FREE ENERGY PREDICTED BY IDOCK:   -0.41 KCAL/MOL
REMARK 927      BINDING AFFINITY PREDICTED BY RF-SCORE:    0.00 PKD
ROOT
HETATM    1  C   UNL     1      -5.912  18.730  68.930  1.00  0.00    -0.228 C  
HETATM    2  C   UNL     1      -6.437  18.710  67.503  1.00  0.00    -0.197 C  
ENDROOT
BRANCH   2   3
HETATM    3  C   UNL     1      -7.776  17.980  67.417  1.00  0.00    -0.216 C  
BRANCH   3   4
HETATM    4  C   UNL     1      -8.763  18.710  66.505  1.00  0.00    -0.312 C  
BRANCH   4   5
HETATM    5  C   UNL     1     -10.047  17.898  66.325  1.00  0.00    -0.351 C  
BRANCH   5   6
HETATM    6  C   UNL     1     -10.047  16.649  67.207  1.00  0.00    -0.279 C  
BRANCH   6   7
HETATM    7  C   UNL     1     -10.849  15.527  66.591  1.00  0.00    -0.285 A  
HETATM    8  C   UNL     1     -11.570  14.592  67.346  1.00  0.00    -0.385 A  
HETATM    9  C   UNL     1     -12.327  13.594  66.733  1.00  0.00    -0.354 A  
HETATM   10  O   UNL     1     -11.578  14.585  68.713  1.00  0.00    -0.279 OA 
HETATM   11  H   UNL     1     -12.066  13.952  69.225  1.00  0.00     0.000 HD 
HETATM   12  C   UNL     1     -12.343  13.506  65.345  1.00  0.00    -0.478 A  
HETATM   13  C   UNL     1     -11.617  14.399  64.571  1.00  0.00    -0.393 A  
HETATM   14  O   UNL     1     -13.063  12.543  64.702  1.00  0.00    -0.845 OA 
HETATM   15  H   UNL     1     -13.075  12.483  63.755  1.00  0.00     0.000 HD 
HETATM   16  C   UNL     1     -10.873  15.406  65.190  1.00  0.00    -0.447 A  
ENDBRANCH   6   7
ENDBRANCH   5   6
ENDBRANCH   4   5
ENDBRANCH   3   4
ENDBRANCH   2   3
TORSDOF 5
ENDMDL
MODEL      104
REMARK 921   NORMALIZED FREE ENERGY PREDICTED BY IDOCK:   -3.91 KCAL/MOL
REMARK 922        TOTAL FREE ENERGY PREDICTED BY IDOCK:   -5.46 KCAL/MOL
REMARK 923 INTER-LIGAND FREE ENERGY PREDICTED BY IDOCK:   -5.08 KCAL/MOL
REMARK 924 INTRA-LIGAND FREE ENERGY PREDICTED BY IDOCK:   -0.38 KCAL/MOL
REMARK 927      BINDING AFFINITY PREDICTED BY RF-SCORE:    0.00 PKD
ROOT
HETATM    1  C   UNL     1     -13.133  10.128  71.773  1.00  0.00    -0.568 C  
HETATM    2  C   UNL     1     -11.978  10.220  70.788  1.00  0.00    -0.456 C  
ENDROOT
BRANCH   2   3
HETATM    3  C   UNL     1     -12.101  11.460  69.905  1.00  0.00    -0.404 C  
BRANCH   3   4
HETATM    4  C   UNL     1     -11.613  11.192  68.480  1.00  0.00    -0.385 C  
BRANCH   4   5
HETATM    5  C   UNL     1     -11.556  12.488  67.669  1.00  0.00    -0.416 C  
BRANCH   5   6
HETATM    6  C   UNL     1     -12.161  13.660  68.441  1.00  0.00    -0.312 C  
BRANCH   6   7
HETATM    7  C   UNL     1     -11.452  14.959  68.136  1.00  0.00    -0.348 A  
HETATM    8  C   UNL     1     -11.177  15.931  69.108  1.00  0.00    -0.334 A  
HETATM    9  C   UNL     1     -10.487  17.100  68.787  1.00  0.00    -0.351 A  
HETATM   10  O   UNL     1     -11.562  15.810  70.413  1.00  0.00    -0.303 OA 
HETATM   11  H   UNL     1     -11.375  16.468  71.072  1.00  0.00     0.000 HD 
HETATM   12  C   UNL     1     -10.091  17.320  67.473  1.00  0.00    -0.315 A  
HETATM   13  C   UNL     1     -10.375  16.390  66.483  1.00  0.00    -0.306 A  
HETATM   14  O   UNL     1      -9.421  18.451  67.111  1.00  0.00    -0.273 OA 
HETATM   15  H   UNL     1      -9.150  18.602  66.214  1.00  0.00     0.000 HD 
HETATM   16  C   UNL     1     -11.052  15.214  66.813  1.00  0.00    -0.307 A  
ENDBRANCH   6   7
ENDBRANCH   5   6
ENDBRANCH   4   5
ENDBRANCH   3   4
ENDBRANCH   2   3
TORSDOF 5
ENDMDL
MODEL      105
REMARK 921   NORMALIZED FREE ENERGY PREDICTED BY IDOCK:   -3.90 KCAL/MOL
REMARK 922        TOTAL FREE ENERGY PREDICTED BY IDOCK:   -5.44 KCAL/MOL
REMARK 923 INTER-LIGAND FREE ENERGY PREDICTED BY IDOCK:   -5.13 KCAL/MOL
REMARK 924 INTRA-LIGAND FREE ENERGY PREDICTED BY IDOCK:   -0.31 KCAL/MOL
REMARK 927      BINDING AFFINITY PREDICTED BY RF-SCORE:    0.00 PKD
ROOT
HETATM    1  C   UNL     1     -12.963  15.710  71.261  1.00  0.00    -0.556 C  
HETATM    2  C   UNL     1     -12.577  14.700  72.330  1.00  0.00    -0.410 C  
ENDROOT
BRANCH   2   3
HETATM    3  C   UNL     1     -13.730  13.745  72.632  1.00  0.00    -0.566 C  
BRANCH   3   4
HETATM    4  C   UNL     1     -13.524  12.379  71.975  1.00  0.00    -0.460 C  
BRANCH   4   5
HETATM    5  C   UNL     1     -12.289  12.387  71.073  1.00  0.00    -0.309 C  
BRANCH   5   6
HETATM    6  C   UNL     1     -11.948  10.981  70.578  1.00  0.00    -0.474 C  
BRANCH   6   7
HETATM    7  C   UNL     1     -11.432  10.995  69.159  1.00  0.00    -0.370 A  
HETATM    8  C   UNL     1     -11.031   9.839  68.474  1.00  0.00    -0.149 A  
HETATM    9  C   UNL     1     -10.595   9.896  67.151  1.00  0.00    -0.295 A  
HETATM   10  O   UNL     1     -11.032   8.598  69.045  1.00  0.00    -0.431 OA 
HETATM   11  H   UNL     1     -10.761   7.814  68.581  1.00  0.00     0.000 HD 
HETATM   12  C   UNL     1     -10.527  11.126  66.507  1.00  0.00    -0.255 A  
HETATM   13  C   UNL     1     -10.888  12.291  67.167  1.00  0.00    -0.282 A  
HETATM   14  O   UNL     1     -10.099  11.231  65.216  1.00  0.00    -0.240 OA 
HETATM   15  H   UNL     1     -10.053  12.071  64.776  1.00  0.00     0.000 HD 
HETATM   16  C   UNL     1     -11.340  12.227  68.487  1.00  0.00    -0.332 A  
ENDBRANCH   6   7
ENDBRANCH   5   6
ENDBRANCH   4   5
ENDBRANCH   3   4
ENDBRANCH   2   3
TORSDOF 5
ENDMDL
MODEL      106
REMARK 921   NORMALIZED FREE ENERGY PREDICTED BY IDOCK:   -3.88 KCAL/MOL
REMARK 922        TOTAL FREE ENERGY PREDICTED BY IDOCK:   -5.42 KCAL/MOL
REMARK 923 INTER-LIGAND FREE ENERGY PREDICTED BY IDOCK:   -4.58 KCAL/MOL
REMARK 924 INTRA-LIGAND FREE ENERGY PREDICTED BY IDOCK:   -0.84 KCAL/MOL
REMARK 927      BINDING AFFINITY PREDICTED BY RF-SCORE:    0.00 PKD
ROOT
HETATM    1  C   UNL     1     -11.965  11.307  69.226  1.00  0.00    -0.411 C  
HETATM    2  C   UNL     1     -10.665  10.640  68.803  1.00  0.00    -0.249 C  
ENDROOT
BRANCH   2   3
HETATM    3  C   UNL     1     -10.725  10.188  67.345  1.00  0.00    -0.336 C  
BRANCH   3   4
HETATM    4  C   UNL     1     -10.660  11.373  66.380  1.00  0.00    -0.311 C  
BRANCH   4   5
HETATM    5  C   UNL     1      -9.454  12.262  66.685  1.00  0.00    -0.227 C  
BRANCH   5   6
HETATM    6  C   UNL     1      -9.744  13.729  66.366  1.00  0.00    -0.304 C  
BRANCH   6   7
HETATM    7  C   UNL     1     -10.260  14.474  67.574  1.00  0.00    -0.232 A  
HETATM    8  C   UNL     1     -11.624  14.646  67.847  1.00  0.00    -0.348 A  
HETATM    9  C   UNL     1     -12.055  15.311  68.995  1.00  0.00    -0.244 A  
HETATM   10  O   UNL     1     -12.613  14.189  67.021  1.00  0.00    -0.539 OA 
HETATM   11  H   UNL     1     -13.537  14.305  67.206  1.00  0.00     0.000 HD 
HETATM   12  C   UNL     1     -11.114  15.841  69.870  1.00  0.00    -0.331 A  
HETATM   13  C   UNL     1      -9.757  15.713  69.612  1.00  0.00    -0.276 A  
HETATM   14  O   UNL     1     -11.489  16.505  71.000  1.00  0.00    -0.574 OA 
HETATM   15  H   UNL     1     -10.846  16.867  71.599  1.00  0.00     0.000 HD 
HETATM   16  C   UNL     1      -9.331  15.032  68.469  1.00  0.00    -0.196 A  
ENDBRANCH   6   7
ENDBRANCH   5   6
ENDBRANCH   4   5
ENDBRANCH   3   4
ENDBRANCH   2   3
TORSDOF 5
ENDMDL
MODEL      107
REMARK 921   NORMALIZED FREE ENERGY PREDICTED BY IDOCK:   -3.88 KCAL/MOL
REMARK 922        TOTAL FREE ENERGY PREDICTED BY IDOCK:   -5.42 KCAL/MOL
REMARK 923 INTER-LIGAND FREE ENERGY PREDICTED BY IDOCK:   -4.99 KCAL/MOL
REMARK 924 INTRA-LIGAND FREE ENERGY PREDICTED BY IDOCK:   -0.43 KCAL/MOL
REMARK 927      BINDING AFFINITY PREDICTED BY RF-SCORE:    0.00 PKD
ROOT
HETATM    1  C   UNL     1      -9.950  11.550  63.443  1.00  0.00    -0.445 C  
HETATM    2  C   UNL     1     -11.110  11.722  64.412  1.00  0.00    -0.396 C  
ENDROOT
BRANCH   2   3
HETATM    3  C   UNL     1     -11.628  13.159  64.406  1.00  0.00    -0.422 C  
BRANCH   3   4
HETATM    4  C   UNL     1     -10.497  14.171  64.594  1.00  0.00    -0.366 C  
BRANCH   4   5
HETATM    5  C   UNL     1     -10.995  15.420  65.323  1.00  0.00    -0.397 C  
BRANCH   5   6
HETATM    6  C   UNL     1     -10.182  15.691  66.589  1.00  0.00    -0.283 C  
BRANCH   6   7
HETATM    7  C   UNL     1     -10.910  15.236  67.832  1.00  0.00    -0.288 A  
HETATM    8  C   UNL     1     -11.188  16.083  68.914  1.00  0.00    -0.353 A  
HETATM    9  C   UNL     1     -11.895  15.628  70.027  1.00  0.00    -0.381 A  
HETATM   10  O   UNL     1     -10.788  17.389  68.961  1.00  0.00    -0.310 OA 
HETATM   11  H   UNL     1     -10.976  17.962  69.694  1.00  0.00     0.000 HD 
HETATM   12  C   UNL     1     -12.307  14.301  70.078  1.00  0.00    -0.346 A  
HETATM   13  C   UNL     1     -12.021  13.431  69.035  1.00  0.00    -0.357 A  
HETATM   14  O   UNL     1     -12.995  13.810  71.148  1.00  0.00    -0.326 OA 
HETATM   15  H   UNL     1     -13.276  12.903  71.182  1.00  0.00     0.000 HD 
HETATM   16  C   UNL     1     -11.327  13.896  67.916  1.00  0.00    -0.320 A  
ENDBRANCH   6   7
ENDBRANCH   5   6
ENDBRANCH   4   5
ENDBRANCH   3   4
ENDBRANCH   2   3
TORSDOF 5
ENDMDL
MODEL      108
REMARK 921   NORMALIZED FREE ENERGY PREDICTED BY IDOCK:   -3.87 KCAL/MOL
REMARK 922        TOTAL FREE ENERGY PREDICTED BY IDOCK:   -5.41 KCAL/MOL
REMARK 923 INTER-LIGAND FREE ENERGY PREDICTED BY IDOCK:   -5.10 KCAL/MOL
REMARK 924 INTRA-LIGAND FREE ENERGY PREDICTED BY IDOCK:   -0.31 KCAL/MOL
REMARK 927      BINDING AFFINITY PREDICTED BY RF-SCORE:    0.00 PKD
ROOT
HETATM    1  C   UNL     1      -9.827  11.592  63.502  1.00  0.00    -0.407 C  
HETATM    2  C   UNL     1     -10.143  10.865  64.800  1.00  0.00    -0.383 C  
ENDROOT
BRANCH   2   3
HETATM    3  C   UNL     1     -11.202  11.613  65.609  1.00  0.00    -0.275 C  
BRANCH   3   4
HETATM    4  C   UNL     1     -10.743  11.868  67.045  1.00  0.00    -0.280 C  
BRANCH   4   5
HETATM    5  C   UNL     1     -11.889  11.649  68.034  1.00  0.00    -0.295 C  
BRANCH   5   6
HETATM    6  C   UNL     1     -11.417  11.792  69.481  1.00  0.00    -0.363 C  
BRANCH   6   7
HETATM    7  C   UNL     1     -11.794  10.593  70.317  1.00  0.00    -0.430 A  
HETATM    8  C   UNL     1     -12.718  10.649  71.370  1.00  0.00    -0.440 A  
HETATM    9  C   UNL     1     -13.063   9.507  72.092  1.00  0.00    -0.522 A  
HETATM   10  O   UNL     1     -13.330  11.806  71.763  1.00  0.00    -0.407 OA 
HETATM   11  H   UNL     1     -13.956  11.844  72.477  1.00  0.00     0.000 HD 
HETATM   12  C   UNL     1     -12.459   8.294  71.781  1.00  0.00    -0.332 A  
HETATM   13  C   UNL     1     -11.519   8.213  70.764  1.00  0.00    -0.272 A  
HETATM   14  O   UNL     1     -12.760   7.153  72.465  1.00  0.00    -0.476 OA 
HETATM   15  H   UNL     1     -12.347   6.325  72.253  1.00  0.00     0.000 HD 
HETATM   16  C   UNL     1     -11.188   9.356  70.034  1.00  0.00    -0.217 A  
ENDBRANCH   6   7
ENDBRANCH   5   6
ENDBRANCH   4   5
ENDBRANCH   3   4
ENDBRANCH   2   3
TORSDOF 5
ENDMDL
MODEL      109
REMARK 921   NORMALIZED FREE ENERGY PREDICTED BY IDOCK:   -3.87 KCAL/MOL
REMARK 922        TOTAL FREE ENERGY PREDICTED BY IDOCK:   -5.41 KCAL/MOL
REMARK 923 INTER-LIGAND FREE ENERGY PREDICTED BY IDOCK:   -4.85 KCAL/MOL
REMARK 924 INTRA-LIGAND FREE ENERGY PREDICTED BY IDOCK:   -0.56 KCAL/MOL
REMARK 927      BINDING AFFINITY PREDICTED BY RF-SCORE:    0.00 PKD
ROOT
HETATM    1  C   UNL     1     -11.596  15.913  64.336  1.00  0.00    -0.234 C  
HETATM    2  C   UNL     1     -10.480  15.740  65.355  1.00  0.00    -0.438 C  
ENDROOT
BRANCH   2   3
HETATM    3  C   UNL     1     -10.218  14.263  65.644  1.00  0.00    -0.366 C  
BRANCH   3   4
HETATM    4  C   UNL     1     -11.144  13.354  64.835  1.00  0.00    -0.348 C  
BRANCH   4   5
HETATM    5  C   UNL     1     -12.055  12.541  65.756  1.00  0.00    -0.443 C  
BRANCH   5   6
HETATM    6  C   UNL     1     -11.746  12.809  67.229  1.00  0.00    -0.440 C  
BRANCH   6   7
HETATM    7  C   UNL     1     -11.312  11.554  67.949  1.00  0.00    -0.372 A  
HETATM    8  C   UNL     1     -11.287  11.439  69.346  1.00  0.00    -0.297 A  
HETATM    9  C   UNL     1     -10.913  10.248  69.968  1.00  0.00    -0.371 A  
HETATM   10  O   UNL     1     -11.613  12.468  70.185  1.00  0.00    -0.520 OA 
HETATM   11  H   UNL     1     -11.597  12.389  71.131  1.00  0.00     0.000 HD 
HETATM   12  C   UNL     1     -10.529   9.163  69.188  1.00  0.00    -0.217 A  
HETATM   13  C   UNL     1     -10.515   9.256  67.804  1.00  0.00    -0.313 A  
HETATM   14  O   UNL     1     -10.149   7.981  69.753  1.00  0.00    -0.189 OA 
HETATM   15  H   UNL     1      -9.887   7.239  69.220  1.00  0.00     0.000 HD 
HETATM   16  C   UNL     1     -10.906  10.446  67.186  1.00  0.00    -0.301 A  
ENDBRANCH   6   7
ENDBRANCH   5   6
ENDBRANCH   4   5
ENDBRANCH   3   4
ENDBRANCH   2   3
TORSDOF 5
ENDMDL
MODEL      110
REMARK 921   NORMALIZED FREE ENERGY PREDICTED BY IDOCK:   -3.86 KCAL/MOL
REMARK 922        TOTAL FREE ENERGY PREDICTED BY IDOCK:   -5.39 KCAL/MOL
REMARK 923 INTER-LIGAND FREE ENERGY PREDICTED BY IDOCK:   -4.46 KCAL/MOL
REMARK 924 INTRA-LIGAND FREE ENERGY PREDICTED BY IDOCK:   -0.93 KCAL/MOL
REMARK 927      BINDING AFFINITY PREDICTED BY RF-SCORE:    0.00 PKD
ROOT
HETATM    1  C   UNL     1     -13.437   8.919  72.411  1.00  0.00    -0.499 C  
HETATM    2  C   UNL     1     -13.526   9.855  71.215  1.00  0.00    -0.353 C  
ENDROOT
BRANCH   2   3
HETATM    3  C   UNL     1     -13.146  11.283  71.600  1.00  0.00    -0.513 C  
BRANCH   3   4
HETATM    4  C   UNL     1     -12.174  11.903  70.595  1.00  0.00    -0.424 C  
BRANCH   4   5
HETATM    5  C   UNL     1     -12.032  11.019  69.355  1.00  0.00    -0.408 C  
BRANCH   5   6
HETATM    6  C   UNL     1     -10.586  10.563  69.155  1.00  0.00    -0.258 C  
BRANCH   6   7
HETATM    7  C   UNL     1     -10.308   9.254  69.855  1.00  0.00    -0.241 A  
HETATM    8  C   UNL     1     -10.566   8.003  69.279  1.00  0.00    -0.184 A  
HETATM    9  C   UNL     1     -10.259   6.819  69.949  1.00  0.00    -0.211 A  
HETATM   10  O   UNL     1     -11.133   7.854  68.044  1.00  0.00    -0.457 OA 
HETATM   11  H   UNL     1     -11.308   7.007  67.653  1.00  0.00     0.000 HD 
HETATM   12  C   UNL     1      -9.714   6.881  71.227  1.00  0.00    -0.172 A  
HETATM   13  C   UNL     1      -9.475   8.104  71.836  1.00  0.00    -0.260 A  
HETATM   14  O   UNL     1      -9.405   5.750  71.923  1.00  0.00    -0.151 OA 
HETATM   15  H   UNL     1      -9.032   5.791  72.796  1.00  0.00     0.000 HD 
HETATM   16  C   UNL     1      -9.769   9.286  71.153  1.00  0.00    -0.327 A  
ENDBRANCH   6   7
ENDBRANCH   5   6
ENDBRANCH   4   5
ENDBRANCH   3   4
ENDBRANCH   2   3
TORSDOF 5
ENDMDL
MODEL      111
REMARK 921   NORMALIZED FREE ENERGY PREDICTED BY IDOCK:   -3.85 KCAL/MOL
REMARK 922        TOTAL FREE ENERGY PREDICTED BY IDOCK:   -5.39 KCAL/MOL
REMARK 923 INTER-LIGAND FREE ENERGY PREDICTED BY IDOCK:   -4.88 KCAL/MOL
REMARK 924 INTRA-LIGAND FREE ENERGY PREDICTED BY IDOCK:   -0.51 KCAL/MOL
REMARK 927      BINDING AFFINITY PREDICTED BY RF-SCORE:    0.00 PKD
ROOT
HETATM    1  C   UNL     1     -10.345  17.452  66.863  1.00  0.00    -0.317 C  
HETATM    2  C   UNL     1     -10.420  16.986  65.417  1.00  0.00    -0.129 C  
ENDROOT
BRANCH   2   3
HETATM    3  C   UNL     1     -10.875  15.531  65.327  1.00  0.00    -0.425 C  
BRANCH   3   4
HETATM    4  C   UNL     1     -11.078  14.913  66.711  1.00  0.00    -0.335 C  
BRANCH   4   5
HETATM    5  C   UNL     1     -12.284  13.971  66.718  1.00  0.00    -0.439 C  
BRANCH   5   6
HETATM    6  C   UNL     1     -12.399  13.198  65.405  1.00  0.00    -0.532 C  
BRANCH   6   7
HETATM    7  C   UNL     1     -11.420  12.049  65.342  1.00  0.00    -0.361 A  
HETATM    8  C   UNL     1     -10.719  11.699  64.180  1.00  0.00    -0.362 A  
HETATM    9  C   UNL     1      -9.797  10.651  64.179  1.00  0.00    -0.396 A  
HETATM   10  O   UNL     1     -10.888  12.340  62.986  1.00  0.00    -0.628 OA 
HETATM   11  H   UNL     1     -10.412  12.103  62.199  1.00  0.00     0.000 HD 
HETATM   12  C   UNL     1      -9.592   9.921  65.344  1.00  0.00    -0.285 A  
HETATM   13  C   UNL     1     -10.294  10.225  66.502  1.00  0.00    -0.276 A  
HETATM   14  O   UNL     1      -8.707   8.885  65.388  1.00  0.00    -0.171 OA 
HETATM   15  H   UNL     1      -8.567   8.386  66.183  1.00  0.00     0.000 HD 
HETATM   16  C   UNL     1     -11.203  11.285  66.502  1.00  0.00    -0.222 A  
ENDBRANCH   6   7
ENDBRANCH   5   6
ENDBRANCH   4   5
ENDBRANCH   3   4
ENDBRANCH   2   3
TORSDOF 5
ENDMDL
MODEL      112
REMARK 921   NORMALIZED FREE ENERGY PREDICTED BY IDOCK:   -3.84 KCAL/MOL
REMARK 922        TOTAL FREE ENERGY PREDICTED BY IDOCK:   -5.37 KCAL/MOL
REMARK 923 INTER-LIGAND FREE ENERGY PREDICTED BY IDOCK:   -4.99 KCAL/MOL
REMARK 924 INTRA-LIGAND FREE ENERGY PREDICTED BY IDOCK:   -0.38 KCAL/MOL
REMARK 927      BINDING AFFINITY PREDICTED BY RF-SCORE:    0.00 PKD
ROOT
HETATM    1  C   UNL     1     -10.932   6.128  68.271  1.00  0.00    -0.397 C  
HETATM    2  C   UNL     1     -10.615   6.977  67.050  1.00  0.00    -0.412 C  
ENDROOT
BRANCH   2   3
HETATM    3  C   UNL     1     -10.487   8.453  67.420  1.00  0.00    -0.354 C  
BRANCH   3   4
HETATM    4  C   UNL     1     -10.013   9.296  66.235  1.00  0.00    -0.357 C  
BRANCH   4   5
HETATM    5  C   UNL     1     -10.659  10.682  66.256  1.00  0.00    -0.229 C  
BRANCH   5   6
HETATM    6  C   UNL     1     -11.367  10.951  67.584  1.00  0.00    -0.345 C  
BRANCH   6   7
HETATM    7  C   UNL     1     -11.439  12.427  67.894  1.00  0.00    -0.385 A  
HETATM    8  C   UNL     1     -11.526  12.936  69.197  1.00  0.00    -0.306 A  
HETATM    9  C   UNL     1     -11.554  14.309  69.438  1.00  0.00    -0.354 A  
HETATM   10  O   UNL     1     -11.597  12.139  70.305  1.00  0.00    -0.516 OA 
HETATM   11  H   UNL     1     -11.656  12.484  71.188  1.00  0.00     0.000 HD 
HETATM   12  C   UNL     1     -11.524  15.191  68.364  1.00  0.00    -0.332 A  
HETATM   13  C   UNL     1     -11.467  14.717  67.061  1.00  0.00    -0.362 A  
HETATM   14  O   UNL     1     -11.556  16.542  68.551  1.00  0.00    -0.252 OA 
HETATM   15  H   UNL     1     -11.535  17.144  67.817  1.00  0.00     0.000 HD 
HETATM   16  C   UNL     1     -11.424  13.341  66.826  1.00  0.00    -0.387 A  
ENDBRANCH   6   7
ENDBRANCH   5   6
ENDBRANCH   4   5
ENDBRANCH   3   4
ENDBRANCH   2   3
TORSDOF 5
ENDMDL
MODEL      113
REMARK 921   NORMALIZED FREE ENERGY PREDICTED BY IDOCK:   -3.84 KCAL/MOL
REMARK 922        TOTAL FREE ENERGY PREDICTED BY IDOCK:   -5.36 KCAL/MOL
REMARK 923 INTER-LIGAND FREE ENERGY PREDICTED BY IDOCK:   -5.01 KCAL/MOL
REMARK 924 INTRA-LIGAND FREE ENERGY PREDICTED BY IDOCK:   -0.35 KCAL/MOL
REMARK 927      BINDING AFFINITY PREDICTED BY RF-SCORE:    0.00 PKD
ROOT
HETATM    1  C   UNL     1     -12.274  12.228  63.819  1.00  0.00    -0.642 C  
HETATM    2  C   UNL     1     -12.278  13.520  64.621  1.00  0.00    -0.450 C  
ENDROOT
BRANCH   2   3
HETATM    3  C   UNL     1     -11.653  13.318  66.000  1.00  0.00    -0.384 C  
BRANCH   3   4
HETATM    4  C   UNL     1     -11.585  14.626  66.790  1.00  0.00    -0.370 C  
BRANCH   4   5
HETATM    5  C   UNL     1     -10.266  15.354  66.530  1.00  0.00    -0.287 C  
BRANCH   5   6
HETATM    6  C   UNL     1     -10.496  16.825  66.181  1.00  0.00    -0.282 C  
BRANCH   6   7
HETATM    7  C   UNL     1      -9.584  17.738  66.965  1.00  0.00    -0.284 A  
HETATM    8  C   UNL     1      -9.541  19.127  66.779  1.00  0.00    -0.331 A  
HETATM    9  C   UNL     1      -8.708  19.935  67.552  1.00  0.00    -0.401 A  
HETATM   10  O   UNL     1     -10.293  19.776  65.841  1.00  0.00    -0.486 OA 
HETATM   11  H   UNL     1     -10.264  20.717  65.715  1.00  0.00     0.000 HD 
HETATM   12  C   UNL     1      -7.882  19.350  68.505  1.00  0.00    -0.354 A  
HETATM   13  C   UNL     1      -7.880  17.976  68.691  1.00  0.00    -0.298 A  
HETATM   14  O   UNL     1      -7.046  20.101  69.278  1.00  0.00    -0.220 OA 
HETATM   15  H   UNL     1      -6.482  19.701  69.929  1.00  0.00     0.000 HD 
HETATM   16  C   UNL     1      -8.728  17.172  67.926  1.00  0.00    -0.222 A  
ENDBRANCH   6   7
ENDBRANCH   5   6
ENDBRANCH   4   5
ENDBRANCH   3   4
ENDBRANCH   2   3
TORSDOF 5
ENDMDL
MODEL      114
REMARK 921   NORMALIZED FREE ENERGY PREDICTED BY IDOCK:   -3.81 KCAL/MOL
REMARK 922        TOTAL FREE ENERGY PREDICTED BY IDOCK:   -5.34 KCAL/MOL
REMARK 923 INTER-LIGAND FREE ENERGY PREDICTED BY IDOCK:   -4.63 KCAL/MOL
REMARK 924 INTRA-LIGAND FREE ENERGY PREDICTED BY IDOCK:   -0.70 KCAL/MOL
REMARK 927      BINDING AFFINITY PREDICTED BY RF-SCORE:    0.00 PKD
ROOT
HETATM    1  C   UNL     1     -10.624  17.553  66.222  1.00  0.00    -0.198 C  
HETATM    2  C   UNL     1     -10.057  16.221  65.757  1.00  0.00    -0.373 C  
ENDROOT
BRANCH   2   3
HETATM    3  C   UNL     1     -11.073  15.450  64.916  1.00  0.00    -0.435 C  
BRANCH   3   4
HETATM    4  C   UNL     1     -10.774  13.951  64.898  1.00  0.00    -0.422 C  
BRANCH   4   5
HETATM    5  C   UNL     1     -11.620  13.210  65.935  1.00  0.00    -0.391 C  
BRANCH   5   6
HETATM    6  C   UNL     1     -10.787  12.806  67.152  1.00  0.00    -0.282 C  
BRANCH   6   7
HETATM    7  C   UNL     1     -10.939  13.789  68.288  1.00  0.00    -0.269 A  
HETATM    8  C   UNL     1      -9.892  14.601  68.747  1.00  0.00    -0.227 A  
HETATM    9  C   UNL     1     -10.088  15.521  69.777  1.00  0.00    -0.291 A  
HETATM   10  O   UNL     1      -8.627  14.547  68.234  1.00  0.00    -0.157 OA 
HETATM   11  H   UNL     1      -7.918  15.097  68.545  1.00  0.00     0.000 HD 
HETATM   12  C   UNL     1     -11.337  15.614  70.380  1.00  0.00    -0.358 A  
HETATM   13  C   UNL     1     -12.384  14.803  69.968  1.00  0.00    -0.365 A  
HETATM   14  O   UNL     1     -11.573  16.494  71.395  1.00  0.00    -0.610 OA 
HETATM   15  H   UNL     1     -12.426  16.558  71.807  1.00  0.00     0.000 HD 
HETATM   16  C   UNL     1     -12.187  13.894  68.926  1.00  0.00    -0.257 A  
ENDBRANCH   6   7
ENDBRANCH   5   6
ENDBRANCH   4   5
ENDBRANCH   3   4
ENDBRANCH   2   3
TORSDOF 5
ENDMDL
MODEL      115
REMARK 921   NORMALIZED FREE ENERGY PREDICTED BY IDOCK:   -3.80 KCAL/MOL
REMARK 922        TOTAL FREE ENERGY PREDICTED BY IDOCK:   -5.32 KCAL/MOL
REMARK 923 INTER-LIGAND FREE ENERGY PREDICTED BY IDOCK:   -4.87 KCAL/MOL
REMARK 924 INTRA-LIGAND FREE ENERGY PREDICTED BY IDOCK:   -0.45 KCAL/MOL
REMARK 927      BINDING AFFINITY PREDICTED BY RF-SCORE:    0.00 PKD
ROOT
HETATM    1  C   UNL     1      -8.881  15.400  69.027  1.00  0.00    -0.231 C  
HETATM    2  C   UNL     1      -8.870  14.880  67.598  1.00  0.00    -0.184 C  
ENDROOT
BRANCH   2   3
HETATM    3  C   UNL     1     -10.274  14.489  67.141  1.00  0.00    -0.260 C  
BRANCH   3   4
HETATM    4  C   UNL     1     -10.399  12.982  66.917  1.00  0.00    -0.246 C  
BRANCH   4   5
HETATM    5  C   UNL     1     -11.168  12.320  68.062  1.00  0.00    -0.321 C  
BRANCH   5   6
HETATM    6  C   UNL     1     -10.313  11.276  68.781  1.00  0.00    -0.223 C  
BRANCH   6   7
HETATM    7  C   UNL     1     -11.067  10.613  69.909  1.00  0.00    -0.364 A  
HETATM    8  C   UNL     1     -10.496   9.654  70.757  1.00  0.00    -0.305 A  
HETATM    9  C   UNL     1     -11.220   9.095  71.810  1.00  0.00    -0.451 A  
HETATM   10  O   UNL     1      -9.215   9.201  70.613  1.00  0.00    -0.216 OA 
HETATM   11  H   UNL     1      -8.828   8.552  71.188  1.00  0.00     0.000 HD 
HETATM   12  C   UNL     1     -12.544   9.473  72.004  1.00  0.00    -0.376 A  
HETATM   13  C   UNL     1     -13.146  10.397  71.163  1.00  0.00    -0.474 A  
HETATM   14  O   UNL     1     -13.293   8.947  73.015  1.00  0.00    -0.865 OA 
HETATM   15  H   UNL     1     -14.197   9.205  73.147  1.00  0.00     0.000 HD 
HETATM   16  C   UNL     1     -12.411  10.967  70.120  1.00  0.00    -0.356 A  
ENDBRANCH   6   7
ENDBRANCH   5   6
ENDBRANCH   4   5
ENDBRANCH   3   4
ENDBRANCH   2   3
TORSDOF 5
ENDMDL
MODEL      116
REMARK 921   NORMALIZED FREE ENERGY PREDICTED BY IDOCK:   -3.78 KCAL/MOL
REMARK 922        TOTAL FREE ENERGY PREDICTED BY IDOCK:   -5.30 KCAL/MOL
REMARK 923 INTER-LIGAND FREE ENERGY PREDICTED BY IDOCK:   -4.96 KCAL/MOL
REMARK 924 INTRA-LIGAND FREE ENERGY PREDICTED BY IDOCK:   -0.34 KCAL/MOL
REMARK 927      BINDING AFFINITY PREDICTED BY RF-SCORE:    0.00 PKD
ROOT
HETATM    1  C   UNL     1     -10.427   7.901  67.209  1.00  0.00    -0.390 C  
HETATM    2  C   UNL     1     -10.280   9.180  68.018  1.00  0.00    -0.258 C  
ENDROOT
BRANCH   2   3
HETATM    3  C   UNL     1     -11.010  10.344  67.351  1.00  0.00    -0.335 C  
BRANCH   3   4
HETATM    4  C   UNL     1     -11.777  11.190  68.368  1.00  0.00    -0.349 C  
BRANCH   4   5
HETATM    5  C   UNL     1     -11.067  12.521  68.621  1.00  0.00    -0.305 C  
BRANCH   5   6
HETATM    6  C   UNL     1     -12.033  13.701  68.510  1.00  0.00    -0.396 C  
BRANCH   6   7
HETATM    7  C   UNL     1     -11.393  14.888  67.830  1.00  0.00    -0.340 A  
HETATM    8  C   UNL     1     -11.072  16.077  68.501  1.00  0.00    -0.347 A  
HETATM    9  C   UNL     1     -10.448  17.135  67.839  1.00  0.00    -0.369 A  
HETATM   10  O   UNL     1     -11.347  16.285  69.823  1.00  0.00    -0.321 OA 
HETATM   11  H   UNL     1     -11.129  17.090  70.277  1.00  0.00     0.000 HD 
HETATM   12  C   UNL     1     -10.167  17.021  66.483  1.00  0.00    -0.320 A  
HETATM   13  C   UNL     1     -10.500  15.869  65.786  1.00  0.00    -0.386 A  
HETATM   14  O   UNL     1      -9.565  18.032  65.794  1.00  0.00    -0.505 OA 
HETATM   15  H   UNL     1      -9.372  17.954  64.867  1.00  0.00     0.000 HD 
HETATM   16  C   UNL     1     -11.110  14.806  66.456  1.00  0.00    -0.334 A  
ENDBRANCH   6   7
ENDBRANCH   5   6
ENDBRANCH   4   5
ENDBRANCH   3   4
ENDBRANCH   2   3
TORSDOF 5
ENDMDL
MODEL      117
REMARK 921   NORMALIZED FREE ENERGY PREDICTED BY IDOCK:   -3.78 KCAL/MOL
REMARK 922        TOTAL FREE ENERGY PREDICTED BY IDOCK:   -5.29 KCAL/MOL
REMARK 923 INTER-LIGAND FREE ENERGY PREDICTED BY IDOCK:   -4.84 KCAL/MOL
REMARK 924 INTRA-LIGAND FREE ENERGY PREDICTED BY IDOCK:   -0.45 KCAL/MOL
REMARK 927      BINDING AFFINITY PREDICTED BY RF-SCORE:    0.00 PKD
ROOT
HETATM    1  C   UNL     1     -12.202  16.022  71.806  1.00  0.00    -0.535 C  
HETATM    2  C   UNL     1     -11.836  15.368  70.482  1.00  0.00    -0.373 C  
ENDROOT
BRANCH   2   3
HETATM    3  C   UNL     1     -10.585  16.002  69.878  1.00  0.00    -0.314 C  
BRANCH   3   4
HETATM    4  C   UNL     1     -10.768  16.317  68.393  1.00  0.00    -0.311 C  
BRANCH   4   5
HETATM    5  C   UNL     1      -9.417  16.403  67.681  1.00  0.00    -0.225 C  
BRANCH   5   6
HETATM    6  C   UNL     1      -9.328  15.404  66.526  1.00  0.00    -0.311 C  
BRANCH   6   7
HETATM    7  C   UNL     1     -10.016  14.101  66.856  1.00  0.00    -0.261 A  
HETATM    8  C   UNL     1     -11.237  13.711  66.288  1.00  0.00    -0.305 A  
HETATM    9  C   UNL     1     -11.818  12.481  66.595  1.00  0.00    -0.422 A  
HETATM   10  O   UNL     1     -11.936  14.495  65.413  1.00  0.00    -0.362 OA 
HETATM   11  H   UNL     1     -12.762  14.230  65.027  1.00  0.00     0.000 HD 
HETATM   12  C   UNL     1     -11.191  11.639  67.506  1.00  0.00    -0.293 A  
HETATM   13  C   UNL     1      -9.998  12.010  68.108  1.00  0.00    -0.203 A  
HETATM   14  O   UNL     1     -11.727  10.430  67.842  1.00  0.00    -0.714 OA 
HETATM   15  H   UNL     1     -11.298   9.855  68.464  1.00  0.00     0.000 HD 
HETATM   16  C   UNL     1      -9.412  13.236  67.784  1.00  0.00    -0.208 A  
ENDBRANCH   6   7
ENDBRANCH   5   6
ENDBRANCH   4   5
ENDBRANCH   3   4
ENDBRANCH   2   3
TORSDOF 5
ENDMDL
MODEL      118
REMARK 921   NORMALIZED FREE ENERGY PREDICTED BY IDOCK:   -3.76 KCAL/MOL
REMARK 922        TOTAL FREE ENERGY PREDICTED BY IDOCK:   -5.26 KCAL/MOL
REMARK 923 INTER-LIGAND FREE ENERGY PREDICTED BY IDOCK:   -4.65 KCAL/MOL
REMARK 924 INTRA-LIGAND FREE ENERGY PREDICTED BY IDOCK:   -0.61 KCAL/MOL
REMARK 927      BINDING AFFINITY PREDICTED BY RF-SCORE:    0.00 PKD
ROOT
HETATM    1  C   UNL     1     -11.768  13.090  64.038  1.00  0.00    -0.497 C  
HETATM    2  C   UNL     1     -11.634  13.891  65.324  1.00  0.00    -0.332 C  
ENDROOT
BRANCH   2   3
HETATM    3  C   UNL     1     -11.821  13.002  66.552  1.00  0.00    -0.464 C  
BRANCH   3   4
HETATM    4  C   UNL     1     -12.015  13.826  67.825  1.00  0.00    -0.391 C  
BRANCH   4   5
HETATM    5  C   UNL     1     -10.721  14.540  68.218  1.00  0.00    -0.243 C  
BRANCH   5   6
HETATM    6  C   UNL     1     -10.934  16.047  68.365  1.00  0.00    -0.331 C  
BRANCH   6   7
HETATM    7  C   UNL     1      -9.913  16.838  67.583  1.00  0.00    -0.262 A  
HETATM    8  C   UNL     1      -9.884  18.239  67.553  1.00  0.00    -0.317 A  
HETATM    9  C   UNL     1      -8.898  18.928  66.846  1.00  0.00    -0.306 A  
HETATM   10  O   UNL     1     -10.804  19.017  68.196  1.00  0.00    -0.330 OA 
HETATM   11  H   UNL     1     -10.784  19.966  68.176  1.00  0.00     0.000 HD 
HETATM   12  C   UNL     1      -7.944  18.211  66.132  1.00  0.00    -0.187 A  
HETATM   13  C   UNL     1      -7.965  16.824  66.118  1.00  0.00    -0.273 A  
HETATM   14  O   UNL     1      -6.966  18.842  65.420  1.00  0.00    -0.464 OA 
HETATM   15  H   UNL     1      -6.314  18.353  64.933  1.00  0.00     0.000 HD 
HETATM   16  C   UNL     1      -8.944  16.139  66.841  1.00  0.00    -0.248 A  
ENDBRANCH   6   7
ENDBRANCH   5   6
ENDBRANCH   4   5
ENDBRANCH   3   4
ENDBRANCH   2   3
TORSDOF 5
ENDMDL
MODEL      119
REMARK 921   NORMALIZED FREE ENERGY PREDICTED BY IDOCK:   -3.75 KCAL/MOL
REMARK 922        TOTAL FREE ENERGY PREDICTED BY IDOCK:   -5.25 KCAL/MOL
REMARK 923 INTER-LIGAND FREE ENERGY PREDICTED BY IDOCK:   -4.46 KCAL/MOL
REMARK 924 INTRA-LIGAND FREE ENERGY PREDICTED BY IDOCK:   -0.79 KCAL/MOL
REMARK 927      BINDING AFFINITY PREDICTED BY RF-SCORE:    0.00 PKD
ROOT
HETATM    1  C   UNL     1     -12.384  11.716  70.567  1.00  0.00    -0.410 C  
HETATM    2  C   UNL     1     -13.142  12.789  71.333  1.00  0.00    -0.318 C  
ENDROOT
BRANCH   2   3
HETATM    3  C   UNL     1     -12.337  14.085  71.411  1.00  0.00    -0.410 C  
BRANCH   3   4
HETATM    4  C   UNL     1     -12.776  15.090  70.345  1.00  0.00    -0.371 C  
BRANCH   4   5
HETATM    5  C   UNL     1     -11.572  15.838  69.768  1.00  0.00    -0.359 C  
BRANCH   5   6
HETATM    6  C   UNL     1     -11.569  15.800  68.240  1.00  0.00    -0.302 C  
BRANCH   6   7
HETATM    7  C   UNL     1     -11.027  14.493  67.712  1.00  0.00    -0.282 A  
HETATM    8  C   UNL     1     -11.644  13.763  66.686  1.00  0.00    -0.369 A  
HETATM    9  C   UNL     1     -11.088  12.578  66.205  1.00  0.00    -0.336 A  
HETATM   10  O   UNL     1     -12.817  14.148  66.099  1.00  0.00    -0.502 OA 
HETATM   11  H   UNL     1     -13.234  13.654  65.404  1.00  0.00     0.000 HD 
HETATM   12  C   UNL     1      -9.915  12.095  66.773  1.00  0.00    -0.203 A  
HETATM   13  C   UNL     1      -9.297  12.779  67.810  1.00  0.00    -0.199 A  
HETATM   14  O   UNL     1      -9.339  10.937  66.341  1.00  0.00    -0.169 OA 
HETATM   15  H   UNL     1      -8.537  10.607  66.729  1.00  0.00     0.000 HD 
HETATM   16  C   UNL     1      -9.850  13.974  68.277  1.00  0.00    -0.233 A  
ENDBRANCH   6   7
ENDBRANCH   5   6
ENDBRANCH   4   5
ENDBRANCH   3   4
ENDBRANCH   2   3
TORSDOF 5
ENDMDL
MODEL      120
REMARK 921   NORMALIZED FREE ENERGY PREDICTED BY IDOCK:   -3.74 KCAL/MOL
REMARK 922        TOTAL FREE ENERGY PREDICTED BY IDOCK:   -5.24 KCAL/MOL
REMARK 923 INTER-LIGAND FREE ENERGY PREDICTED BY IDOCK:   -4.84 KCAL/MOL
REMARK 924 INTRA-LIGAND FREE ENERGY PREDICTED BY IDOCK:   -0.39 KCAL/MOL
REMARK 927      BINDING AFFINITY PREDICTED BY RF-SCORE:    0.00 PKD
ROOT
HETATM    1  C   UNL     1      -9.091  10.248  64.423  1.00  0.00    -0.275 C  
HETATM    2  C   UNL     1      -8.601  10.143  65.859  1.00  0.00    -0.156 C  
ENDROOT
BRANCH   2   3
HETATM    3  C   UNL     1      -9.661   9.511  66.760  1.00  0.00    -0.229 C  
BRANCH   3   4
HETATM    4  C   UNL     1      -9.926  10.358  68.005  1.00  0.00    -0.178 C  
BRANCH   4   5
HETATM    5  C   UNL     1     -11.402  10.747  68.099  1.00  0.00    -0.377 C  
BRANCH   5   6
HETATM    6  C   UNL     1     -11.584  12.265  68.071  1.00  0.00    -0.408 C  
BRANCH   6   7
HETATM    7  C   UNL     1     -12.118  12.790  69.383  1.00  0.00    -0.248 A  
HETATM    8  C   UNL     1     -12.390  14.146  69.615  1.00  0.00    -0.256 A  
HETATM    9  C   UNL     1     -12.918  14.580  70.831  1.00  0.00    -0.424 A  
HETATM   10  O   UNL     1     -12.156  15.122  68.688  1.00  0.00    -0.550 OA 
HETATM   11  H   UNL     1     -12.341  16.040  68.845  1.00  0.00     0.000 HD 
HETATM   12  C   UNL     1     -13.151  13.656  71.843  1.00  0.00    -0.387 A  
HETATM   13  C   UNL     1     -12.864  12.312  71.653  1.00  0.00    -0.378 A  
HETATM   14  O   UNL     1     -13.659  14.037  73.050  1.00  0.00    -0.644 OA 
HETATM   15  H   UNL     1     -13.818  13.405  73.741  1.00  0.00     0.000 HD 
HETATM   16  C   UNL     1     -12.351  11.880  70.428  1.00  0.00    -0.334 A  
ENDBRANCH   6   7
ENDBRANCH   5   6
ENDBRANCH   4   5
ENDBRANCH   3   4
ENDBRANCH   2   3
TORSDOF 5
ENDMDL
MODEL      121
REMARK 921   NORMALIZED FREE ENERGY PREDICTED BY IDOCK:   -3.74 KCAL/MOL
REMARK 922        TOTAL FREE ENERGY PREDICTED BY IDOCK:   -5.23 KCAL/MOL
REMARK 923 INTER-LIGAND FREE ENERGY PREDICTED BY IDOCK:   -4.84 KCAL/MOL
REMARK 924 INTRA-LIGAND FREE ENERGY PREDICTED BY IDOCK:   -0.39 KCAL/MOL
REMARK 927      BINDING AFFINITY PREDICTED BY RF-SCORE:    0.00 PKD
ROOT
HETATM    1  C   UNL     1      -8.452  19.880  66.316  1.00  0.00    -0.373 C  
HETATM    2  C   UNL     1      -8.712  19.672  67.800  1.00  0.00    -0.372 C  
ENDROOT
BRANCH   2   3
HETATM    3  C   UNL     1      -8.835  18.188  68.138  1.00  0.00    -0.289 C  
BRANCH   3   4
HETATM    4  C   UNL     1      -9.704  17.445  67.123  1.00  0.00    -0.267 C  
BRANCH   4   5
HETATM    5  C   UNL     1     -11.013  16.977  67.760  1.00  0.00    -0.199 C  
BRANCH   5   6
HETATM    6  C   UNL     1     -11.132  15.453  67.742  1.00  0.00    -0.320 C  
BRANCH   6   7
HETATM    7  C   UNL     1     -11.699  14.918  69.036  1.00  0.00    -0.347 A  
HETATM    8  C   UNL     1     -11.819  13.550  69.315  1.00  0.00    -0.341 A  
HETATM    9  C   UNL     1     -12.316  13.102  70.540  1.00  0.00    -0.380 A  
HETATM   10  O   UNL     1     -11.471  12.574  68.425  1.00  0.00    -0.264 OA 
HETATM   11  H   UNL     1     -11.551  11.647  68.614  1.00  0.00     0.000 HD 
HETATM   12  C   UNL     1     -12.728  14.030  71.489  1.00  0.00    -0.363 A  
HETATM   13  C   UNL     1     -12.650  15.390  71.229  1.00  0.00    -0.477 A  
HETATM   14  O   UNL     1     -13.227  13.638  72.696  1.00  0.00    -0.503 OA 
HETATM   15  H   UNL     1     -13.509  14.272  73.345  1.00  0.00     0.000 HD 
HETATM   16  C   UNL     1     -12.137  15.834  70.009  1.00  0.00    -0.344 A  
ENDBRANCH   6   7
ENDBRANCH   5   6
ENDBRANCH   4   5
ENDBRANCH   3   4
ENDBRANCH   2   3
TORSDOF 5
ENDMDL
MODEL      122
REMARK 921   NORMALIZED FREE ENERGY PREDICTED BY IDOCK:   -3.72 KCAL/MOL
REMARK 922        TOTAL FREE ENERGY PREDICTED BY IDOCK:   -5.21 KCAL/MOL
REMARK 923 INTER-LIGAND FREE ENERGY PREDICTED BY IDOCK:   -4.78 KCAL/MOL
REMARK 924 INTRA-LIGAND FREE ENERGY PREDICTED BY IDOCK:   -0.44 KCAL/MOL
REMARK 927      BINDING AFFINITY PREDICTED BY RF-SCORE:    0.00 PKD
ROOT
HETATM    1  C   UNL     1      -9.245   9.636  64.491  1.00  0.00    -0.277 C  
HETATM    2  C   UNL     1     -10.066  10.803  65.016  1.00  0.00    -0.377 C  
ENDROOT
BRANCH   2   3
HETATM    3  C   UNL     1     -10.097  10.815  66.544  1.00  0.00    -0.277 C  
BRANCH   3   4
HETATM    4  C   UNL     1      -9.715  12.184  67.109  1.00  0.00    -0.203 C  
BRANCH   4   5
HETATM    5  C   UNL     1     -10.009  13.294  66.099  1.00  0.00    -0.295 C  
BRANCH   5   6
HETATM    6  C   UNL     1     -11.282  14.059  66.462  1.00  0.00    -0.326 C  
BRANCH   6   7
HETATM    7  C   UNL     1     -10.974  15.396  67.093  1.00  0.00    -0.317 A  
HETATM    8  C   UNL     1     -10.649  16.540  66.352  1.00  0.00    -0.221 A  
HETATM    9  C   UNL     1     -10.407  17.763  66.977  1.00  0.00    -0.344 A  
HETATM   10  O   UNL     1     -10.541  16.539  64.989  1.00  0.00    -0.670 OA 
HETATM   11  H   UNL     1     -10.322  17.315  64.487  1.00  0.00     0.000 HD 
HETATM   12  C   UNL     1     -10.460  17.843  68.364  1.00  0.00    -0.330 A  
HETATM   13  C   UNL     1     -10.749  16.721  69.126  1.00  0.00    -0.329 A  
HETATM   14  O   UNL     1     -10.223  19.016  69.018  1.00  0.00    -0.525 OA 
HETATM   15  H   UNL     1     -10.259  19.071  69.965  1.00  0.00     0.000 HD 
HETATM   16  C   UNL     1     -11.006  15.502  68.495  1.00  0.00    -0.288 A  
ENDBRANCH   6   7
ENDBRANCH   5   6
ENDBRANCH   4   5
ENDBRANCH   3   4
ENDBRANCH   2   3
TORSDOF 5
ENDMDL
MODEL      123
REMARK 921   NORMALIZED FREE ENERGY PREDICTED BY IDOCK:   -3.71 KCAL/MOL
REMARK 922        TOTAL FREE ENERGY PREDICTED BY IDOCK:   -5.20 KCAL/MOL
REMARK 923 INTER-LIGAND FREE ENERGY PREDICTED BY IDOCK:   -5.02 KCAL/MOL
REMARK 924 INTRA-LIGAND FREE ENERGY PREDICTED BY IDOCK:   -0.18 KCAL/MOL
REMARK 927      BINDING AFFINITY PREDICTED BY RF-SCORE:    0.00 PKD
ROOT
HETATM    1  C   UNL     1      -8.447  19.413  66.349  1.00  0.00    -0.361 C  
HETATM    2  C   UNL     1      -9.118  19.694  67.684  1.00  0.00    -0.403 C  
ENDROOT
BRANCH   2   3
HETATM    3  C   UNL     1      -9.119  18.453  68.575  1.00  0.00    -0.345 C  
BRANCH   3   4
HETATM    4  C   UNL     1      -9.309  17.172  67.763  1.00  0.00    -0.245 C  
BRANCH   4   5
HETATM    5  C   UNL     1     -10.537  16.396  68.242  1.00  0.00    -0.318 C  
BRANCH   5   6
HETATM    6  C   UNL     1     -10.145  15.227  69.145  1.00  0.00    -0.240 C  
BRANCH   6   7
HETATM    7  C   UNL     1     -11.248  14.869  70.112  1.00  0.00    -0.275 A  
HETATM    8  C   UNL     1     -11.772  15.771  71.048  1.00  0.00    -0.422 A  
HETATM    9  C   UNL     1     -12.817  15.408  71.898  1.00  0.00    -0.474 A  
HETATM   10  O   UNL     1     -11.302  17.046  71.199  1.00  0.00    -0.327 OA 
HETATM   11  H   UNL     1     -11.657  17.657  71.834  1.00  0.00     0.000 HD 
HETATM   12  C   UNL     1     -13.329  14.117  71.836  1.00  0.00    -0.393 A  
HETATM   13  C   UNL     1     -12.811  13.193  70.940  1.00  0.00    -0.237 A  
HETATM   14  O   UNL     1     -14.345  13.715  72.652  1.00  0.00    -0.703 OA 
HETATM   15  H   UNL     1     -14.695  12.833  72.609  1.00  0.00     0.000 HD 
HETATM   16  C   UNL     1     -11.776  13.567  70.081  1.00  0.00    -0.280 A  
ENDBRANCH   6   7
ENDBRANCH   5   6
ENDBRANCH   4   5
ENDBRANCH   3   4
ENDBRANCH   2   3
TORSDOF 5
ENDMDL
MODEL      124
REMARK 921   NORMALIZED FREE ENERGY PREDICTED BY IDOCK:   -3.69 KCAL/MOL
REMARK 922        TOTAL FREE ENERGY PREDICTED BY IDOCK:   -5.17 KCAL/MOL
REMARK 923 INTER-LIGAND FREE ENERGY PREDICTED BY IDOCK:   -4.63 KCAL/MOL
REMARK 924 INTRA-LIGAND FREE ENERGY PREDICTED BY IDOCK:   -0.54 KCAL/MOL
REMARK 927      BINDING AFFINITY PREDICTED BY RF-SCORE:    0.00 PKD
ROOT
HETATM    1  C   UNL     1     -12.237  15.713  70.447  1.00  0.00    -0.429 C  
HETATM    2  C   UNL     1     -12.486  14.234  70.191  1.00  0.00    -0.393 C  
ENDROOT
BRANCH   2   3
HETATM    3  C   UNL     1     -11.314  13.597  69.447  1.00  0.00    -0.303 C  
BRANCH   3   4
HETATM    4  C   UNL     1     -11.755  12.968  68.125  1.00  0.00    -0.391 C  
BRANCH   4   5
HETATM    5  C   UNL     1     -10.766  11.893  67.672  1.00  0.00    -0.253 C  
BRANCH   5   6
HETATM    6  C   UNL     1     -11.302  10.488  67.944  1.00  0.00    -0.297 C  
BRANCH   6   7
HETATM    7  C   UNL     1     -10.811   9.945  69.265  1.00  0.00    -0.255 A  
HETATM    8  C   UNL     1     -11.654   9.701  70.358  1.00  0.00    -0.236 A  
HETATM    9  C   UNL     1     -11.161   9.165  71.547  1.00  0.00    -0.430 A  
HETATM   10  O   UNL     1     -12.994   9.973  70.340  1.00  0.00    -0.574 OA 
HETATM   11  H   UNL     1     -13.565   9.808  71.081  1.00  0.00     0.000 HD 
HETATM   12  C   UNL     1      -9.803   8.894  71.662  1.00  0.00    -0.317 A  
HETATM   13  C   UNL     1      -8.939   9.152  70.608  1.00  0.00    -0.292 A  
HETATM   14  O   UNL     1      -9.275   8.376  72.808  1.00  0.00    -0.260 OA 
HETATM   15  H   UNL     1      -8.347   8.190  72.886  1.00  0.00     0.000 HD 
HETATM   16  C   UNL     1      -9.439   9.674  69.414  1.00  0.00    -0.201 A  
ENDBRANCH   6   7
ENDBRANCH   5   6
ENDBRANCH   4   5
ENDBRANCH   3   4
ENDBRANCH   2   3
TORSDOF 5
ENDMDL
MODEL      125
REMARK 921   NORMALIZED FREE ENERGY PREDICTED BY IDOCK:   -3.69 KCAL/MOL
REMARK 922        TOTAL FREE ENERGY PREDICTED BY IDOCK:   -5.17 KCAL/MOL
REMARK 923 INTER-LIGAND FREE ENERGY PREDICTED BY IDOCK:   -4.79 KCAL/MOL
REMARK 924 INTRA-LIGAND FREE ENERGY PREDICTED BY IDOCK:   -0.38 KCAL/MOL
REMARK 927      BINDING AFFINITY PREDICTED BY RF-SCORE:    0.00 PKD
ROOT
HETATM    1  C   UNL     1     -11.457  14.572  67.806  1.00  0.00    -0.362 C  
HETATM    2  C   UNL     1     -12.127  13.473  66.996  1.00  0.00    -0.401 C  
ENDROOT
BRANCH   2   3
HETATM    3  C   UNL     1     -11.510  12.108  67.299  1.00  0.00    -0.413 C  
BRANCH   3   4
HETATM    4  C   UNL     1     -11.541  11.791  68.795  1.00  0.00    -0.367 C  
BRANCH   4   5
HETATM    5  C   UNL     1     -10.427  10.812  69.170  1.00  0.00    -0.243 C  
BRANCH   5   6
HETATM    6  C   UNL     1     -10.783   9.379  68.774  1.00  0.00    -0.200 C  
BRANCH   6   7
HETATM    7  C   UNL     1     -10.949   8.487  69.982  1.00  0.00    -0.197 A  
HETATM    8  C   UNL     1     -11.371   7.153  69.900  1.00  0.00    -0.163 A  
HETATM    9  C   UNL     1     -11.474   6.356  71.040  1.00  0.00    -0.394 A  
HETATM   10  O   UNL     1     -11.712   6.550  68.723  1.00  0.00    -0.533 OA 
HETATM   11  H   UNL     1     -11.998   5.646  68.668  1.00  0.00     0.000 HD 
HETATM   12  C   UNL     1     -11.182   6.903  72.285  1.00  0.00    -0.263 A  
HETATM   13  C   UNL     1     -10.790   8.228  72.400  1.00  0.00    -0.421 A  
HETATM   14  O   UNL     1     -11.276   6.163  73.426  1.00  0.00    -0.457 OA 
HETATM   15  H   UNL     1     -11.076   6.537  74.276  1.00  0.00     0.000 HD 
HETATM   16  C   UNL     1     -10.673   9.018  71.254  1.00  0.00    -0.379 A  
ENDBRANCH   6   7
ENDBRANCH   5   6
ENDBRANCH   4   5
ENDBRANCH   3   4
ENDBRANCH   2   3
TORSDOF 5
ENDMDL
MODEL      126
REMARK 921   NORMALIZED FREE ENERGY PREDICTED BY IDOCK:   -3.68 KCAL/MOL
REMARK 922        TOTAL FREE ENERGY PREDICTED BY IDOCK:   -5.16 KCAL/MOL
REMARK 923 INTER-LIGAND FREE ENERGY PREDICTED BY IDOCK:   -5.00 KCAL/MOL
REMARK 924 INTRA-LIGAND FREE ENERGY PREDICTED BY IDOCK:   -0.17 KCAL/MOL
REMARK 927      BINDING AFFINITY PREDICTED BY RF-SCORE:    0.00 PKD
ROOT
HETATM    1  C   UNL     1     -10.540  19.643  67.105  1.00  0.00    -0.611 C  
HETATM    2  C   UNL     1      -9.769  18.372  66.782  1.00  0.00    -0.331 C  
ENDROOT
BRANCH   2   3
HETATM    3  C   UNL     1     -10.509  17.524  65.748  1.00  0.00    -0.212 C  
BRANCH   3   4
HETATM    4  C   UNL     1     -10.299  16.028  65.985  1.00  0.00    -0.366 C  
BRANCH   4   5
HETATM    5  C   UNL     1     -11.279  15.199  65.154  1.00  0.00    -0.392 C  
BRANCH   5   6
HETATM    6  C   UNL     1     -10.655  13.876  64.708  1.00  0.00    -0.444 C  
BRANCH   6   7
HETATM    7  C   UNL     1     -10.849  12.789  65.738  1.00  0.00    -0.299 A  
HETATM    8  C   UNL     1     -10.304  11.503  65.610  1.00  0.00    -0.261 A  
HETATM    9  C   UNL     1     -10.479  10.541  66.605  1.00  0.00    -0.290 A  
HETATM   10  O   UNL     1      -9.583  11.104  64.521  1.00  0.00    -0.235 OA 
HETATM   11  H   UNL     1      -9.213  10.233  64.435  1.00  0.00     0.000 HD 
HETATM   12  C   UNL     1     -11.233  10.853  67.731  1.00  0.00    -0.317 A  
HETATM   13  C   UNL     1     -11.809  12.107  67.871  1.00  0.00    -0.338 A  
HETATM   14  O   UNL     1     -11.436   9.942  68.725  1.00  0.00    -0.483 OA 
HETATM   15  H   UNL     1     -11.951  10.155  69.495  1.00  0.00     0.000 HD 
HETATM   16  C   UNL     1     -11.618  13.072  66.880  1.00  0.00    -0.419 A  
ENDBRANCH   6   7
ENDBRANCH   5   6
ENDBRANCH   4   5
ENDBRANCH   3   4
ENDBRANCH   2   3
TORSDOF 5
ENDMDL
MODEL      127
REMARK 921   NORMALIZED FREE ENERGY PREDICTED BY IDOCK:   -3.67 KCAL/MOL
REMARK 922        TOTAL FREE ENERGY PREDICTED BY IDOCK:   -5.15 KCAL/MOL
REMARK 923 INTER-LIGAND FREE ENERGY PREDICTED BY IDOCK:   -4.73 KCAL/MOL
REMARK 924 INTRA-LIGAND FREE ENERGY PREDICTED BY IDOCK:   -0.42 KCAL/MOL
REMARK 927      BINDING AFFINITY PREDICTED BY RF-SCORE:    0.00 PKD
ROOT
HETATM    1  C   UNL     1     -11.256   4.280  73.106  1.00  0.00    -0.275 C  
HETATM    2  C   UNL     1     -10.617   5.403  72.304  1.00  0.00    -0.280 C  
ENDROOT
BRANCH   2   3
HETATM    3  C   UNL     1     -11.665   6.406  71.826  1.00  0.00    -0.376 C  
BRANCH   3   4
HETATM    4  C   UNL     1     -11.531   7.752  72.540  1.00  0.00    -0.428 C  
BRANCH   4   5
HETATM    5  C   UNL     1     -10.647   8.711  71.740  1.00  0.00    -0.395 C  
BRANCH   5   6
HETATM    6  C   UNL     1     -10.994   8.683  70.252  1.00  0.00    -0.251 C  
BRANCH   6   7
HETATM    7  C   UNL     1     -11.305  10.063  69.722  1.00  0.00    -0.281 A  
HETATM    8  C   UNL     1     -11.121  10.432  68.383  1.00  0.00    -0.268 A  
HETATM    9  C   UNL     1     -11.455  11.709  67.931  1.00  0.00    -0.381 A  
HETATM   10  O   UNL     1     -10.604   9.587  67.441  1.00  0.00    -0.268 OA 
HETATM   11  H   UNL     1     -10.479   9.837  66.534  1.00  0.00     0.000 HD 
HETATM   12  C   UNL     1     -11.953  12.643  68.832  1.00  0.00    -0.242 A  
HETATM   13  C   UNL     1     -12.118  12.317  70.170  1.00  0.00    -0.364 A  
HETATM   14  O   UNL     1     -12.287  13.905  68.437  1.00  0.00    -0.494 OA 
HETATM   15  H   UNL     1     -12.627  14.543  69.052  1.00  0.00     0.000 HD 
HETATM   16  C   UNL     1     -11.797  11.032  70.614  1.00  0.00    -0.434 A  
ENDBRANCH   6   7
ENDBRANCH   5   6
ENDBRANCH   4   5
ENDBRANCH   3   4
ENDBRANCH   2   3
TORSDOF 5
ENDMDL
MODEL      128
REMARK 921   NORMALIZED FREE ENERGY PREDICTED BY IDOCK:   -3.67 KCAL/MOL
REMARK 922        TOTAL FREE ENERGY PREDICTED BY IDOCK:   -5.15 KCAL/MOL
REMARK 923 INTER-LIGAND FREE ENERGY PREDICTED BY IDOCK:   -4.37 KCAL/MOL
REMARK 924 INTRA-LIGAND FREE ENERGY PREDICTED BY IDOCK:   -0.78 KCAL/MOL
REMARK 927      BINDING AFFINITY PREDICTED BY RF-SCORE:    0.00 PKD
ROOT
HETATM    1  C   UNL     1     -12.541  12.317  64.219  1.00  0.00    -0.470 C  
HETATM    2  C   UNL     1     -11.274  13.116  64.482  1.00  0.00    -0.383 C  
ENDROOT
BRANCH   2   3
HETATM    3  C   UNL     1     -11.594  14.580  64.776  1.00  0.00    -0.414 C  
BRANCH   3   4
HETATM    4  C   UNL     1     -10.585  15.199  65.744  1.00  0.00    -0.364 C  
BRANCH   4   5
HETATM    5  C   UNL     1     -11.122  15.189  67.176  1.00  0.00    -0.335 C  
BRANCH   5   6
HETATM    6  C   UNL     1     -10.126  14.550  68.144  1.00  0.00    -0.227 C  
BRANCH   6   7
HETATM    7  C   UNL     1     -10.349  13.062  68.278  1.00  0.00    -0.256 A  
HETATM    8  C   UNL     1      -9.318  12.118  68.173  1.00  0.00    -0.204 A  
HETATM    9  C   UNL     1      -9.565  10.755  68.340  1.00  0.00    -0.177 A  
HETATM   10  O   UNL     1      -8.022  12.456  67.900  1.00  0.00    -0.131 OA 
HETATM   11  H   UNL     1      -7.324  11.816  67.830  1.00  0.00     0.000 HD 
HETATM   12  C   UNL     1     -10.863  10.322  68.584  1.00  0.00    -0.234 A  
HETATM   13  C   UNL     1     -11.909  11.229  68.662  1.00  0.00    -0.369 A  
HETATM   14  O   UNL     1     -11.152   8.999  68.746  1.00  0.00    -0.446 OA 
HETATM   15  H   UNL     1     -12.039   8.703  68.913  1.00  0.00     0.000 HD 
HETATM   16  C   UNL     1     -11.654  12.594  68.511  1.00  0.00    -0.363 A  
ENDBRANCH   6   7
ENDBRANCH   5   6
ENDBRANCH   4   5
ENDBRANCH   3   4
ENDBRANCH   2   3
TORSDOF 5
ENDMDL
MODEL      129
REMARK 921   NORMALIZED FREE ENERGY PREDICTED BY IDOCK:   -3.66 KCAL/MOL
REMARK 922        TOTAL FREE ENERGY PREDICTED BY IDOCK:   -5.14 KCAL/MOL
REMARK 923 INTER-LIGAND FREE ENERGY PREDICTED BY IDOCK:   -4.73 KCAL/MOL
REMARK 924 INTRA-LIGAND FREE ENERGY PREDICTED BY IDOCK:   -0.41 KCAL/MOL
REMARK 927      BINDING AFFINITY PREDICTED BY RF-SCORE:    0.00 PKD
ROOT
HETATM    1  C   UNL     1     -12.026  12.379  70.161  1.00  0.00    -0.376 C  
HETATM    2  C   UNL     1     -12.329  10.948  70.578  1.00  0.00    -0.463 C  
ENDROOT
BRANCH   2   3
HETATM    3  C   UNL     1     -13.226  10.910  71.814  1.00  0.00    -0.513 C  
BRANCH   3   4
HETATM    4  C   UNL     1     -13.601   9.479  72.200  1.00  0.00    -0.500 C  
BRANCH   4   5
HETATM    5  C   UNL     1     -12.391   8.549  72.097  1.00  0.00    -0.444 C  
BRANCH   5   6
HETATM    6  C   UNL     1     -12.765   7.211  71.459  1.00  0.00    -0.433 C  
BRANCH   6   7
HETATM    7  C   UNL     1     -11.555   6.332  71.249  1.00  0.00    -0.336 A  
HETATM    8  C   UNL     1     -11.151   5.349  72.163  1.00  0.00    -0.168 A  
HETATM    9  C   UNL     1     -10.047   4.535  71.910  1.00  0.00    -0.258 A  
HETATM   10  O   UNL     1     -11.791   5.127  73.350  1.00  0.00    -0.477 OA 
HETATM   11  H   UNL     1     -11.517   4.461  73.969  1.00  0.00     0.000 HD 
HETATM   12  C   UNL     1      -9.315   4.721  70.742  1.00  0.00    -0.148 A  
HETATM   13  C   UNL     1      -9.674   5.704  69.832  1.00  0.00    -0.222 A  
HETATM   14  O   UNL     1      -8.225   3.953  70.456  1.00  0.00    -0.057 OA 
HETATM   15  H   UNL     1      -7.726   4.080  69.659  1.00  0.00     0.000 HD 
HETATM   16  C   UNL     1     -10.789   6.506  70.083  1.00  0.00    -0.336 A  
ENDBRANCH   6   7
ENDBRANCH   5   6
ENDBRANCH   4   5
ENDBRANCH   3   4
ENDBRANCH   2   3
TORSDOF 5
ENDMDL
MODEL      130
REMARK 921   NORMALIZED FREE ENERGY PREDICTED BY IDOCK:   -3.66 KCAL/MOL
REMARK 922        TOTAL FREE ENERGY PREDICTED BY IDOCK:   -5.13 KCAL/MOL
REMARK 923 INTER-LIGAND FREE ENERGY PREDICTED BY IDOCK:   -4.75 KCAL/MOL
REMARK 924 INTRA-LIGAND FREE ENERGY PREDICTED BY IDOCK:   -0.39 KCAL/MOL
REMARK 927      BINDING AFFINITY PREDICTED BY RF-SCORE:    0.00 PKD
ROOT
HETATM    1  C   UNL     1      -9.908  18.436  67.083  1.00  0.00    -0.329 C  
HETATM    2  C   UNL     1      -9.095  17.313  66.458  1.00  0.00    -0.289 C  
ENDROOT
BRANCH   2   3
HETATM    3  C   UNL     1      -9.998  16.297  65.761  1.00  0.00    -0.353 C  
BRANCH   3   4
HETATM    4  C   UNL     1      -9.957  14.933  66.452  1.00  0.00    -0.290 C  
BRANCH   4   5
HETATM    5  C   UNL     1     -10.730  14.964  67.771  1.00  0.00    -0.271 C  
BRANCH   5   6
HETATM    6  C   UNL     1     -11.980  14.086  67.709  1.00  0.00    -0.392 C  
BRANCH   6   7
HETATM    7  C   UNL     1     -11.732  12.714  68.290  1.00  0.00    -0.389 A  
HETATM    8  C   UNL     1     -11.753  12.447  69.667  1.00  0.00    -0.307 A  
HETATM    9  C   UNL     1     -11.555  11.156  70.157  1.00  0.00    -0.410 A  
HETATM   10  O   UNL     1     -11.959  13.414  70.610  1.00  0.00    -0.479 OA 
HETATM   11  H   UNL     1     -11.974  13.233  71.542  1.00  0.00     0.000 HD 
HETATM   12  C   UNL     1     -11.301  10.120  69.266  1.00  0.00    -0.156 A  
HETATM   13  C   UNL     1     -11.244  10.358  67.901  1.00  0.00    -0.332 A  
HETATM   14  O   UNL     1     -11.094   8.844  69.700  1.00  0.00    -0.395 OA 
HETATM   15  H   UNL     1     -10.921   8.135  69.092  1.00  0.00     0.000 HD 
HETATM   16  C   UNL     1     -11.460  11.649  67.414  1.00  0.00    -0.357 A  
ENDBRANCH   6   7
ENDBRANCH   5   6
ENDBRANCH   4   5
ENDBRANCH   3   4
ENDBRANCH   2   3
TORSDOF 5
ENDMDL
MODEL      131
REMARK 921   NORMALIZED FREE ENERGY PREDICTED BY IDOCK:   -3.66 KCAL/MOL
REMARK 922        TOTAL FREE ENERGY PREDICTED BY IDOCK:   -5.13 KCAL/MOL
REMARK 923 INTER-LIGAND FREE ENERGY PREDICTED BY IDOCK:   -4.82 KCAL/MOL
REMARK 924 INTRA-LIGAND FREE ENERGY PREDICTED BY IDOCK:   -0.31 KCAL/MOL
REMARK 927      BINDING AFFINITY PREDICTED BY RF-SCORE:    0.00 PKD
ROOT
HETATM    1  C   UNL     1     -11.524   7.896  72.762  1.00  0.00    -0.428 C  
HETATM    2  C   UNL     1     -11.850   7.810  71.279  1.00  0.00    -0.318 C  
ENDROOT
BRANCH   2   3
HETATM    3  C   UNL     1     -10.797   8.531  70.439  1.00  0.00    -0.251 C  
BRANCH   3   4
HETATM    4  C   UNL     1     -11.151  10.004  70.228  1.00  0.00    -0.381 C  
BRANCH   4   5
HETATM    5  C   UNL     1     -10.497  10.548  68.957  1.00  0.00    -0.238 C  
BRANCH   5   6
HETATM    6  C   UNL     1     -11.541  11.061  67.965  1.00  0.00    -0.326 C  
BRANCH   6   7
HETATM    7  C   UNL     1     -11.325  12.516  67.624  1.00  0.00    -0.362 A  
HETATM    8  C   UNL     1     -11.792  13.106  66.442  1.00  0.00    -0.400 A  
HETATM    9  C   UNL     1     -11.600  14.464  66.185  1.00  0.00    -0.372 A  
HETATM   10  O   UNL     1     -12.451  12.407  65.470  1.00  0.00    -0.643 OA 
HETATM   11  H   UNL     1     -12.768  12.808  64.669  1.00  0.00     0.000 HD 
HETATM   12  C   UNL     1     -10.906  15.241  67.106  1.00  0.00    -0.322 A  
HETATM   13  C   UNL     1     -10.405  14.678  68.271  1.00  0.00    -0.230 A  
HETATM   14  O   UNL     1     -10.688  16.570  66.894  1.00  0.00    -0.279 OA 
HETATM   15  H   UNL     1     -10.214  17.101  67.523  1.00  0.00     0.000 HD 
HETATM   16  C   UNL     1     -10.614  13.322  68.530  1.00  0.00    -0.270 A  
ENDBRANCH   6   7
ENDBRANCH   5   6
ENDBRANCH   4   5
ENDBRANCH   3   4
ENDBRANCH   2   3
TORSDOF 5
ENDMDL
MODEL      132
REMARK 921   NORMALIZED FREE ENERGY PREDICTED BY IDOCK:   -3.64 KCAL/MOL
REMARK 922        TOTAL FREE ENERGY PREDICTED BY IDOCK:   -5.11 KCAL/MOL
REMARK 923 INTER-LIGAND FREE ENERGY PREDICTED BY IDOCK:   -4.71 KCAL/MOL
REMARK 924 INTRA-LIGAND FREE ENERGY PREDICTED BY IDOCK:   -0.41 KCAL/MOL
REMARK 927      BINDING AFFINITY PREDICTED BY RF-SCORE:    0.00 PKD
ROOT
HETATM    1  C   UNL     1     -10.160   7.469  66.908  1.00  0.00    -0.336 C  
HETATM    2  C   UNL     1      -9.747   8.828  66.365  1.00  0.00    -0.335 C  
ENDROOT
BRANCH   2   3
HETATM    3  C   UNL     1      -8.829   9.559  67.343  1.00  0.00    -0.134 C  
BRANCH   3   4
HETATM    4  C   UNL     1      -8.900  11.076  67.163  1.00  0.00    -0.140 C  
BRANCH   4   5
HETATM    5  C   UNL     1      -9.568  11.740  68.369  1.00  0.00    -0.191 C  
BRANCH   5   6
HETATM    6  C   UNL     1     -11.063  11.952  68.135  1.00  0.00    -0.294 C  
BRANCH   6   7
HETATM    7  C   UNL     1     -11.816  12.122  69.433  1.00  0.00    -0.370 A  
HETATM    8  C   UNL     1     -12.167  11.050  70.265  1.00  0.00    -0.363 A  
HETATM    9  C   UNL     1     -12.831  11.258  71.474  1.00  0.00    -0.519 A  
HETATM   10  O   UNL     1     -11.895   9.747  69.955  1.00  0.00    -0.429 OA 
HETATM   11  H   UNL     1     -12.132   9.020  70.519  1.00  0.00     0.000 HD 
HETATM   12  C   UNL     1     -13.179  12.551  71.847  1.00  0.00    -0.392 A  
HETATM   13  C   UNL     1     -12.872  13.630  71.031  1.00  0.00    -0.360 A  
HETATM   14  O   UNL     1     -13.835  12.802  73.016  1.00  0.00    -0.533 OA 
HETATM   15  H   UNL     1     -14.072  13.685  73.271  1.00  0.00     0.000 HD 
HETATM   16  C   UNL     1     -12.193  13.418  69.829  1.00  0.00    -0.307 A  
ENDBRANCH   6   7
ENDBRANCH   5   6
ENDBRANCH   4   5
ENDBRANCH   3   4
ENDBRANCH   2   3
TORSDOF 5
ENDMDL
MODEL      133
REMARK 921   NORMALIZED FREE ENERGY PREDICTED BY IDOCK:   -3.64 KCAL/MOL
REMARK 922        TOTAL FREE ENERGY PREDICTED BY IDOCK:   -5.11 KCAL/MOL
REMARK 923 INTER-LIGAND FREE ENERGY PREDICTED BY IDOCK:   -4.43 KCAL/MOL
REMARK 924 INTRA-LIGAND FREE ENERGY PREDICTED BY IDOCK:   -0.68 KCAL/MOL
REMARK 927      BINDING AFFINITY PREDICTED BY RF-SCORE:    0.00 PKD
ROOT
HETATM    1  C   UNL     1     -12.102  12.069  70.451  1.00  0.00    -0.407 C  
HETATM    2  C   UNL     1     -12.485  10.598  70.397  1.00  0.00    -0.421 C  
ENDROOT
BRANCH   2   3
HETATM    3  C   UNL     1     -11.715   9.787  71.438  1.00  0.00    -0.475 C  
BRANCH   3   4
HETATM    4  C   UNL     1     -10.603   8.955  70.801  1.00  0.00    -0.281 C  
BRANCH   4   5
HETATM    5  C   UNL     1     -10.691   8.999  69.274  1.00  0.00    -0.189 C  
BRANCH   5   6
HETATM    6  C   UNL     1      -9.359   9.410  68.647  1.00  0.00    -0.142 C  
BRANCH   6   7
HETATM    7  C   UNL     1      -9.557  10.283  67.431  1.00  0.00    -0.183 A  
HETATM    8  C   UNL     1      -9.822   9.772  66.153  1.00  0.00    -0.263 A  
HETATM    9  C   UNL     1     -10.033  10.618  65.064  1.00  0.00    -0.369 A  
HETATM   10  O   UNL     1      -9.885   8.434  65.883  1.00  0.00    -0.471 OA 
HETATM   11  H   UNL     1     -10.065   8.088  65.018  1.00  0.00     0.000 HD 
HETATM   12  C   UNL     1      -9.950  11.995  65.243  1.00  0.00    -0.247 A  
HETATM   13  C   UNL     1      -9.660  12.529  66.490  1.00  0.00    -0.242 A  
HETATM   14  O   UNL     1     -10.142  12.860  64.207  1.00  0.00    -0.564 OA 
HETATM   15  H   UNL     1     -10.086  13.800  64.329  1.00  0.00     0.000 HD 
HETATM   16  C   UNL     1      -9.465  11.678  67.580  1.00  0.00    -0.177 A  
ENDBRANCH   6   7
ENDBRANCH   5   6
ENDBRANCH   4   5
ENDBRANCH   3   4
ENDBRANCH   2   3
TORSDOF 5
ENDMDL
MODEL      134
REMARK 921   NORMALIZED FREE ENERGY PREDICTED BY IDOCK:   -3.61 KCAL/MOL
REMARK 922        TOTAL FREE ENERGY PREDICTED BY IDOCK:   -5.07 KCAL/MOL
REMARK 923 INTER-LIGAND FREE ENERGY PREDICTED BY IDOCK:   -4.47 KCAL/MOL
REMARK 924 INTRA-LIGAND FREE ENERGY PREDICTED BY IDOCK:   -0.61 KCAL/MOL
REMARK 927      BINDING AFFINITY PREDICTED BY RF-SCORE:    0.00 PKD
ROOT
HETATM    1  C   UNL     1      -8.117  15.528  69.394  1.00  0.00    -0.241 C  
HETATM    2  C   UNL     1      -8.247  15.136  67.930  1.00  0.00    -0.152 C  
ENDROOT
BRANCH   2   3
HETATM    3  C   UNL     1      -9.147  13.913  67.762  1.00  0.00    -0.191 C  
BRANCH   3   4
HETATM    4  C   UNL     1     -10.412  14.243  66.968  1.00  0.00    -0.271 C  
BRANCH   4   5
HETATM    5  C   UNL     1     -11.626  13.515  67.546  1.00  0.00    -0.385 C  
BRANCH   5   6
HETATM    6  C   UNL     1     -11.727  13.705  69.059  1.00  0.00    -0.375 C  
BRANCH   6   7
HETATM    7  C   UNL     1     -11.909  12.390  69.780  1.00  0.00    -0.387 A  
HETATM    8  C   UNL     1     -12.638  12.261  70.971  1.00  0.00    -0.257 A  
HETATM    9  C   UNL     1     -12.811  11.019  71.582  1.00  0.00    -0.540 A  
HETATM   10  O   UNL     1     -13.215  13.321  71.610  1.00  0.00    -0.383 OA 
HETATM   11  H   UNL     1     -13.708  13.233  72.417  1.00  0.00     0.000 HD 
HETATM   12  C   UNL     1     -12.224   9.892  71.016  1.00  0.00    -0.353 A  
HETATM   13  C   UNL     1     -11.473   9.994  69.855  1.00  0.00    -0.274 A  
HETATM   14  O   UNL     1     -12.360   8.659  71.583  1.00  0.00    -0.303 OA 
HETATM   15  H   UNL     1     -11.960   7.890  71.196  1.00  0.00     0.000 HD 
HETATM   16  C   UNL     1     -11.316  11.237  69.238  1.00  0.00    -0.354 A  
ENDBRANCH   6   7
ENDBRANCH   5   6
ENDBRANCH   4   5
ENDBRANCH   3   4
ENDBRANCH   2   3
TORSDOF 5
ENDMDL
MODEL      135
REMARK 921   NORMALIZED FREE ENERGY PREDICTED BY IDOCK:   -3.60 KCAL/MOL
REMARK 922        TOTAL FREE ENERGY PREDICTED BY IDOCK:   -5.05 KCAL/MOL
REMARK 923 INTER-LIGAND FREE ENERGY PREDICTED BY IDOCK:   -4.58 KCAL/MOL
REMARK 924 INTRA-LIGAND FREE ENERGY PREDICTED BY IDOCK:   -0.47 KCAL/MOL
REMARK 927      BINDING AFFINITY PREDICTED BY RF-SCORE:    0.00 PKD
ROOT
HETATM    1  C   UNL     1      -7.309  13.356  67.628  1.00  0.00    -0.173 C  
HETATM    2  C   UNL     1      -7.276  11.935  67.089  1.00  0.00    -0.144 C  
ENDROOT
BRANCH   2   3
HETATM    3  C   UNL     1      -8.684  11.354  66.973  1.00  0.00    -0.160 C  
BRANCH   3   4
HETATM    4  C   UNL     1      -9.518  11.634  68.224  1.00  0.00    -0.191 C  
BRANCH   4   5
HETATM    5  C   UNL     1     -10.969  11.195  68.024  1.00  0.00    -0.307 C  
BRANCH   5   6
HETATM    6  C   UNL     1     -11.851  12.363  67.581  1.00  0.00    -0.363 C  
BRANCH   6   7
HETATM    7  C   UNL     1     -11.831  13.493  68.582  1.00  0.00    -0.404 A  
HETATM    8  C   UNL     1     -11.539  14.820  68.238  1.00  0.00    -0.323 A  
HETATM    9  C   UNL     1     -11.567  15.839  69.191  1.00  0.00    -0.399 A  
HETATM   10  O   UNL     1     -11.205  15.205  66.970  1.00  0.00    -0.335 OA 
HETATM   11  H   UNL     1     -11.007  16.104  66.737  1.00  0.00     0.000 HD 
HETATM   12  C   UNL     1     -11.861  15.527  70.513  1.00  0.00    -0.356 A  
HETATM   13  C   UNL     1     -12.125  14.219  70.890  1.00  0.00    -0.417 A  
HETATM   14  O   UNL     1     -11.893  16.489  71.480  1.00  0.00    -0.655 OA 
HETATM   15  H   UNL     1     -12.094  16.277  72.383  1.00  0.00     0.000 HD 
HETATM   16  C   UNL     1     -12.111  13.205  69.930  1.00  0.00    -0.357 A  
ENDBRANCH   6   7
ENDBRANCH   5   6
ENDBRANCH   4   5
ENDBRANCH   3   4
ENDBRANCH   2   3
TORSDOF 5
ENDMDL
MODEL      136
REMARK 921   NORMALIZED FREE ENERGY PREDICTED BY IDOCK:   -3.59 KCAL/MOL
REMARK 922        TOTAL FREE ENERGY PREDICTED BY IDOCK:   -5.04 KCAL/MOL
REMARK 923 INTER-LIGAND FREE ENERGY PREDICTED BY IDOCK:   -4.51 KCAL/MOL
REMARK 924 INTRA-LIGAND FREE ENERGY PREDICTED BY IDOCK:   -0.53 KCAL/MOL
REMARK 927      BINDING AFFINITY PREDICTED BY RF-SCORE:    0.00 PKD
ROOT
HETATM    1  C   UNL     1      -5.768   9.810  65.853  1.00  0.00    -0.051 C  
HETATM    2  C   UNL     1      -6.031   9.507  64.386  1.00  0.00    -0.081 C  
ENDROOT
BRANCH   2   3
HETATM    3  C   UNL     1      -7.528   9.376  64.108  1.00  0.00    -0.113 C  
BRANCH   3   4
HETATM    4  C   UNL     1      -8.259   8.681  65.257  1.00  0.00    -0.148 C  
BRANCH   4   5
HETATM    5  C   UNL     1      -9.609   9.347  65.530  1.00  0.00    -0.328 C  
BRANCH   5   6
HETATM    6  C   UNL     1      -9.796  10.603  64.679  1.00  0.00    -0.382 C  
BRANCH   6   7
HETATM    7  C   UNL     1     -10.494  11.702  65.445  1.00  0.00    -0.324 A  
HETATM    8  C   UNL     1     -10.656  13.003  64.948  1.00  0.00    -0.337 A  
HETATM    9  C   UNL     1     -11.340  13.976  65.676  1.00  0.00    -0.313 A  
HETATM   10  O   UNL     1     -10.159  13.406  63.741  1.00  0.00    -0.655 OA 
HETATM   11  H   UNL     1     -10.269  14.287  63.404  1.00  0.00     0.000 HD 
HETATM   12  C   UNL     1     -11.845  13.659  66.932  1.00  0.00    -0.411 A  
HETATM   13  C   UNL     1     -11.675  12.389  67.463  1.00  0.00    -0.425 A  
HETATM   14  O   UNL     1     -12.514  14.580  67.683  1.00  0.00    -0.595 OA 
HETATM   15  H   UNL     1     -12.860  14.364  68.540  1.00  0.00     0.000 HD 
HETATM   16  C   UNL     1     -11.003  11.413  66.723  1.00  0.00    -0.347 A  
ENDBRANCH   6   7
ENDBRANCH   5   6
ENDBRANCH   4   5
ENDBRANCH   3   4
ENDBRANCH   2   3
TORSDOF 5
ENDMDL
MODEL      137
REMARK 921   NORMALIZED FREE ENERGY PREDICTED BY IDOCK:   -3.59 KCAL/MOL
REMARK 922        TOTAL FREE ENERGY PREDICTED BY IDOCK:   -5.04 KCAL/MOL
REMARK 923 INTER-LIGAND FREE ENERGY PREDICTED BY IDOCK:   -4.63 KCAL/MOL
REMARK 924 INTRA-LIGAND FREE ENERGY PREDICTED BY IDOCK:   -0.41 KCAL/MOL
REMARK 927      BINDING AFFINITY PREDICTED BY RF-SCORE:    0.00 PKD
ROOT
HETATM    1  C   UNL     1      -8.982   7.041  68.947  1.00  0.00    -0.129 C  
HETATM    2  C   UNL     1     -10.236   7.853  68.662  1.00  0.00    -0.223 C  
ENDROOT
BRANCH   2   3
HETATM    3  C   UNL     1     -10.064   8.718  67.415  1.00  0.00    -0.289 C  
BRANCH   3   4
HETATM    4  C   UNL     1      -9.828  10.186  67.771  1.00  0.00    -0.190 C  
BRANCH   4   5
HETATM    5  C   UNL     1     -10.542  10.555  69.073  1.00  0.00    -0.250 C  
BRANCH   5   6
HETATM    6  C   UNL     1     -11.868  11.266  68.802  1.00  0.00    -0.396 C  
BRANCH   6   7
HETATM    7  C   UNL     1     -12.254  12.185  69.937  1.00  0.00    -0.240 A  
HETATM    8  C   UNL     1     -12.073  13.575  69.896  1.00  0.00    -0.341 A  
HETATM    9  C   UNL     1     -12.478  14.389  70.953  1.00  0.00    -0.424 A  
HETATM   10  O   UNL     1     -11.491  14.220  68.841  1.00  0.00    -0.251 OA 
HETATM   11  H   UNL     1     -11.369  15.161  68.813  1.00  0.00     0.000 HD 
HETATM   12  C   UNL     1     -13.046  13.809  72.083  1.00  0.00    -0.406 A  
HETATM   13  C   UNL     1     -13.211  12.434  72.164  1.00  0.00    -0.491 A  
HETATM   14  O   UNL     1     -13.450  14.565  73.143  1.00  0.00    -0.609 OA 
HETATM   15  H   UNL     1     -13.838  14.169  73.914  1.00  0.00     0.000 HD 
HETATM   16  C   UNL     1     -12.818  11.625  71.096  1.00  0.00    -0.392 A  
ENDBRANCH   6   7
ENDBRANCH   5   6
ENDBRANCH   4   5
ENDBRANCH   3   4
ENDBRANCH   2   3
TORSDOF 5
ENDMDL
MODEL      138
REMARK 921   NORMALIZED FREE ENERGY PREDICTED BY IDOCK:   -3.58 KCAL/MOL
REMARK 922        TOTAL FREE ENERGY PREDICTED BY IDOCK:   -5.04 KCAL/MOL
REMARK 923 INTER-LIGAND FREE ENERGY PREDICTED BY IDOCK:   -4.17 KCAL/MOL
REMARK 924 INTRA-LIGAND FREE ENERGY PREDICTED BY IDOCK:   -0.87 KCAL/MOL
REMARK 927      BINDING AFFINITY PREDICTED BY RF-SCORE:    0.00 PKD
ROOT
HETATM    1  C   UNL     1     -10.812  13.928  64.221  1.00  0.00    -0.185 C  
HETATM    2  C   UNL     1     -10.120  14.886  65.179  1.00  0.00    -0.354 C  
ENDROOT
BRANCH   2   3
HETATM    3  C   UNL     1     -11.136  15.654  66.023  1.00  0.00    -0.136 C  
BRANCH   3   4
HETATM    4  C   UNL     1     -10.928  15.414  67.519  1.00  0.00    -0.315 C  
BRANCH   4   5
HETATM    5  C   UNL     1     -11.585  14.105  67.961  1.00  0.00    -0.368 C  
BRANCH   5   6
HETATM    6  C   UNL     1     -10.581  13.178  68.647  1.00  0.00    -0.259 C  
BRANCH   6   7
HETATM    7  C   UNL     1     -10.259  11.972  67.796  1.00  0.00    -0.211 A  
HETATM    8  C   UNL     1     -11.049  10.815  67.772  1.00  0.00    -0.318 A  
HETATM    9  C   UNL     1     -10.732   9.739  66.943  1.00  0.00    -0.192 A  
HETATM   10  O   UNL     1     -12.163  10.656  68.548  1.00  0.00    -0.822 OA 
HETATM   11  H   UNL     1     -12.698   9.872  68.532  1.00  0.00     0.000 HD 
HETATM   12  C   UNL     1      -9.594   9.803  66.148  1.00  0.00    -0.227 A  
HETATM   13  C   UNL     1      -8.776  10.922  66.172  1.00  0.00    -0.189 A  
HETATM   14  O   UNL     1      -9.241   8.772  65.327  1.00  0.00    -0.400 OA 
HETATM   15  H   UNL     1      -8.463   8.816  64.784  1.00  0.00     0.000 HD 
HETATM   16  C   UNL     1      -9.106  12.004  66.992  1.00  0.00    -0.191 A  
ENDBRANCH   6   7
ENDBRANCH   5   6
ENDBRANCH   4   5
ENDBRANCH   3   4
ENDBRANCH   2   3
TORSDOF 5
ENDMDL
MODEL      139
REMARK 921   NORMALIZED FREE ENERGY PREDICTED BY IDOCK:   -3.58 KCAL/MOL
REMARK 922        TOTAL FREE ENERGY PREDICTED BY IDOCK:   -5.03 KCAL/MOL
REMARK 923 INTER-LIGAND FREE ENERGY PREDICTED BY IDOCK:   -4.63 KCAL/MOL
REMARK 924 INTRA-LIGAND FREE ENERGY PREDICTED BY IDOCK:   -0.40 KCAL/MOL
REMARK 927      BINDING AFFINITY PREDICTED BY RF-SCORE:    0.00 PKD
ROOT
HETATM    1  C   UNL     1     -11.069   7.016  71.293  1.00  0.00    -0.282 C  
HETATM    2  C   UNL     1     -10.897   7.571  69.887  1.00  0.00    -0.250 C  
ENDROOT
BRANCH   2   3
HETATM    3  C   UNL     1     -10.264   6.537  68.958  1.00  0.00    -0.204 C  
BRANCH   3   4
HETATM    4  C   UNL     1      -9.486   7.199  67.820  1.00  0.00    -0.136 C  
BRANCH   4   5
HETATM    5  C   UNL     1     -10.332   8.269  67.128  1.00  0.00    -0.387 C  
BRANCH   5   6
HETATM    6  C   UNL     1      -9.553   9.572  66.952  1.00  0.00    -0.217 C  
BRANCH   6   7
HETATM    7  C   UNL     1     -10.403  10.655  66.331  1.00  0.00    -0.291 A  
HETATM    8  C   UNL     1     -10.508  10.851  64.947  1.00  0.00    -0.282 A  
HETATM    9  C   UNL     1     -11.335  11.842  64.417  1.00  0.00    -0.395 A  
HETATM   10  O   UNL     1      -9.818  10.105  64.034  1.00  0.00    -0.333 OA 
HETATM   11  H   UNL     1      -9.890  10.238  63.096  1.00  0.00     0.000 HD 
HETATM   12  C   UNL     1     -12.045  12.671  65.279  1.00  0.00    -0.467 A  
HETATM   13  C   UNL     1     -11.937  12.521  66.653  1.00  0.00    -0.351 A  
HETATM   14  O   UNL     1     -12.859  13.658  64.806  1.00  0.00    -0.680 OA 
HETATM   15  H   UNL     1     -13.344  14.224  65.394  1.00  0.00     0.000 HD 
HETATM   16  C   UNL     1     -11.121  11.517  67.179  1.00  0.00    -0.355 A  
ENDBRANCH   6   7
ENDBRANCH   5   6
ENDBRANCH   4   5
ENDBRANCH   3   4
ENDBRANCH   2   3
TORSDOF 5
ENDMDL
MODEL      140
REMARK 921   NORMALIZED FREE ENERGY PREDICTED BY IDOCK:   -3.57 KCAL/MOL
REMARK 922        TOTAL FREE ENERGY PREDICTED BY IDOCK:   -5.02 KCAL/MOL
REMARK 923 INTER-LIGAND FREE ENERGY PREDICTED BY IDOCK:   -4.45 KCAL/MOL
REMARK 924 INTRA-LIGAND FREE ENERGY PREDICTED BY IDOCK:   -0.57 KCAL/MOL
REMARK 927      BINDING AFFINITY PREDICTED BY RF-SCORE:    0.00 PKD
ROOT
HETATM    1  C   UNL     1     -11.811  10.449  71.170  1.00  0.00    -0.432 C  
HETATM    2  C   UNL     1     -13.118  11.226  71.205  1.00  0.00    -0.317 C  
ENDROOT
BRANCH   2   3
HETATM    3  C   UNL     1     -13.046  12.385  72.197  1.00  0.00    -0.419 C  
BRANCH   3   4
HETATM    4  C   UNL     1     -13.373  13.722  71.532  1.00  0.00    -0.391 C  
BRANCH   4   5
HETATM    5  C   UNL     1     -12.182  14.680  71.613  1.00  0.00    -0.411 C  
BRANCH   5   6
HETATM    6  C   UNL     1     -12.034  15.499  70.330  1.00  0.00    -0.398 C  
BRANCH   6   7
HETATM    7  C   UNL     1     -11.463  14.676  69.201  1.00  0.00    -0.320 A  
HETATM    8  C   UNL     1     -10.088  14.487  69.005  1.00  0.00    -0.183 A  
HETATM    9  C   UNL     1      -9.606  13.688  67.969  1.00  0.00    -0.216 A  
HETATM   10  O   UNL     1      -9.136  15.067  69.797  1.00  0.00    -0.448 OA 
HETATM   11  H   UNL     1      -8.205  14.939  69.664  1.00  0.00     0.000 HD 
HETATM   12  C   UNL     1     -10.507  13.090  67.094  1.00  0.00    -0.243 A  
HETATM   13  C   UNL     1     -11.872  13.282  67.243  1.00  0.00    -0.421 A  
HETATM   14  O   UNL     1     -10.082  12.307  66.062  1.00  0.00    -0.237 OA 
HETATM   15  H   UNL     1     -10.696  11.898  65.464  1.00  0.00     0.000 HD 
HETATM   16  C   UNL     1     -12.350  14.071  68.293  1.00  0.00    -0.012 A  
ENDBRANCH   6   7
ENDBRANCH   5   6
ENDBRANCH   4   5
ENDBRANCH   3   4
ENDBRANCH   2   3
TORSDOF 5
ENDMDL
MODEL      141
REMARK 921   NORMALIZED FREE ENERGY PREDICTED BY IDOCK:   -3.57 KCAL/MOL
REMARK 922        TOTAL FREE ENERGY PREDICTED BY IDOCK:   -5.02 KCAL/MOL
REMARK 923 INTER-LIGAND FREE ENERGY PREDICTED BY IDOCK:   -4.58 KCAL/MOL
REMARK 924 INTRA-LIGAND FREE ENERGY PREDICTED BY IDOCK:   -0.44 KCAL/MOL
REMARK 927      BINDING AFFINITY PREDICTED BY RF-SCORE:    0.00 PKD
ROOT
HETATM    1  C   UNL     1      -9.413   3.060  71.077  1.00  0.00    -0.228 C  
HETATM    2  C   UNL     1      -9.707   4.535  70.850  1.00  0.00    -0.263 C  
ENDROOT
BRANCH   2   3
HETATM    3  C   UNL     1     -10.617   5.093  71.941  1.00  0.00    -0.256 C  
BRANCH   3   4
HETATM    4  C   UNL     1      -9.938   6.214  72.730  1.00  0.00    -0.185 C  
BRANCH   4   5
HETATM    5  C   UNL     1     -10.938   7.311  73.095  1.00  0.00    -0.384 C  
BRANCH   5   6
HETATM    6  C   UNL     1     -11.979   7.510  71.993  1.00  0.00    -0.330 C  
BRANCH   6   7
HETATM    7  C   UNL     1     -12.029   8.943  71.519  1.00  0.00    -0.401 A  
HETATM    8  C   UNL     1     -11.192   9.450  70.515  1.00  0.00    -0.275 A  
HETATM    9  C   UNL     1     -11.298  10.773  70.084  1.00  0.00    -0.390 A  
HETATM   10  O   UNL     1     -10.226   8.703  69.902  1.00  0.00    -0.193 OA 
HETATM   11  H   UNL     1      -9.659   9.047  69.222  1.00  0.00     0.000 HD 
HETATM   12  C   UNL     1     -12.231  11.613  70.681  1.00  0.00    -0.366 A  
HETATM   13  C   UNL     1     -13.053  11.147  71.698  1.00  0.00    -0.529 A  
HETATM   14  O   UNL     1     -12.366  12.914  70.297  1.00  0.00    -0.299 OA 
HETATM   15  H   UNL     1     -13.003  13.488  70.705  1.00  0.00     0.000 HD 
HETATM   16  C   UNL     1     -12.954   9.818  72.115  1.00  0.00    -0.483 A  
ENDBRANCH   6   7
ENDBRANCH   5   6
ENDBRANCH   4   5
ENDBRANCH   3   4
ENDBRANCH   2   3
TORSDOF 5
ENDMDL
MODEL      142
REMARK 921   NORMALIZED FREE ENERGY PREDICTED BY IDOCK:   -3.57 KCAL/MOL
REMARK 922        TOTAL FREE ENERGY PREDICTED BY IDOCK:   -5.02 KCAL/MOL
REMARK 923 INTER-LIGAND FREE ENERGY PREDICTED BY IDOCK:   -4.52 KCAL/MOL
REMARK 924 INTRA-LIGAND FREE ENERGY PREDICTED BY IDOCK:   -0.50 KCAL/MOL
REMARK 927      BINDING AFFINITY PREDICTED BY RF-SCORE:    0.00 PKD
ROOT
HETATM    1  C   UNL     1      -5.266  10.349  66.312  1.00  0.00    -0.054 C  
HETATM    2  C   UNL     1      -6.302  11.012  65.419  1.00  0.00     0.207 C  
ENDROOT
BRANCH   2   3
HETATM    3  C   UNL     1      -7.711  10.522  65.747  1.00  0.00    -0.145 C  
BRANCH   3   4
HETATM    4  C   UNL     1      -8.141  10.933  67.156  1.00  0.00    -0.127 C  
BRANCH   4   5
HETATM    5  C   UNL     1      -9.640  11.236  67.205  1.00  0.00    -0.194 C  
BRANCH   5   6
HETATM    6  C   UNL     1     -10.301  11.014  65.844  1.00  0.00    -0.315 C  
BRANCH   6   7
HETATM    7  C   UNL     1     -10.837  12.300  65.263  1.00  0.00    -0.332 A  
HETATM    8  C   UNL     1     -11.501  12.370  64.031  1.00  0.00    -0.408 A  
HETATM    9  C   UNL     1     -12.012  13.575  63.550  1.00  0.00    -0.388 A  
HETATM   10  O   UNL     1     -11.688  11.283  63.223  1.00  0.00    -0.789 OA 
HETATM   11  H   UNL     1     -12.138  11.330  62.388  1.00  0.00     0.000 HD 
HETATM   12  C   UNL     1     -11.833  14.737  64.293  1.00  0.00    -0.319 A  
HETATM   13  C   UNL     1     -11.154  14.705  65.502  1.00  0.00    -0.345 A  
HETATM   14  O   UNL     1     -12.309  15.939  63.859  1.00  0.00    -1.027 OA 
HETATM   15  H   UNL     1     -12.186  16.732  64.367  1.00  0.00     0.000 HD 
HETATM   16  C   UNL     1     -10.658  13.493  65.987  1.00  0.00    -0.285 A  
ENDBRANCH   6   7
ENDBRANCH   5   6
ENDBRANCH   4   5
ENDBRANCH   3   4
ENDBRANCH   2   3
TORSDOF 5
ENDMDL
MODEL      143
REMARK 921   NORMALIZED FREE ENERGY PREDICTED BY IDOCK:   -3.57 KCAL/MOL
REMARK 922        TOTAL FREE ENERGY PREDICTED BY IDOCK:   -5.02 KCAL/MOL
REMARK 923 INTER-LIGAND FREE ENERGY PREDICTED BY IDOCK:   -4.46 KCAL/MOL
REMARK 924 INTRA-LIGAND FREE ENERGY PREDICTED BY IDOCK:   -0.55 KCAL/MOL
REMARK 927      BINDING AFFINITY PREDICTED BY RF-SCORE:    0.00 PKD
ROOT
HETATM    1  C   UNL     1     -11.699  12.773  69.528  1.00  0.00    -0.383 C  
HETATM    2  C   UNL     1     -11.722  11.266  69.730  1.00  0.00    -0.422 C  
ENDROOT
BRANCH   2   3
HETATM    3  C   UNL     1     -12.294  10.899  71.098  1.00  0.00    -0.479 C  
BRANCH   3   4
HETATM    4  C   UNL     1     -13.487   9.950  70.979  1.00  0.00    -0.257 C  
BRANCH   4   5
HETATM    5  C   UNL     1     -13.314   8.736  71.893  1.00  0.00    -0.432 C  
BRANCH   5   6
HETATM    6  C   UNL     1     -11.854   8.546  72.303  1.00  0.00    -0.453 C  
BRANCH   6   7
HETATM    7  C   UNL     1     -11.066   7.806  71.248  1.00  0.00    -0.271 A  
HETATM    8  C   UNL     1      -9.769   8.169  70.861  1.00  0.00    -0.166 A  
HETATM    9  C   UNL     1      -9.065   7.433  69.907  1.00  0.00    -0.141 A  
HETATM   10  O   UNL     1      -9.114   9.253  71.374  1.00  0.00    -0.299 OA 
HETATM   11  H   UNL     1      -8.235   9.499  71.111  1.00  0.00     0.000 HD 
HETATM   12  C   UNL     1      -9.673   6.336  69.307  1.00  0.00    -0.136 A  
HETATM   13  C   UNL     1     -10.967   5.970  69.648  1.00  0.00    -0.470 A  
HETATM   14  O   UNL     1      -9.026   5.592  68.365  1.00  0.00    -0.115 OA 
HETATM   15  H   UNL     1      -9.441   4.843  67.955  1.00  0.00     0.000 HD 
HETATM   16  C   UNL     1     -11.661   6.700  70.615  1.00  0.00    -0.439 A  
ENDBRANCH   6   7
ENDBRANCH   5   6
ENDBRANCH   4   5
ENDBRANCH   3   4
ENDBRANCH   2   3
TORSDOF 5
ENDMDL
MODEL      144
REMARK 921   NORMALIZED FREE ENERGY PREDICTED BY IDOCK:   -3.55 KCAL/MOL
REMARK 922        TOTAL FREE ENERGY PREDICTED BY IDOCK:   -4.99 KCAL/MOL
REMARK 923 INTER-LIGAND FREE ENERGY PREDICTED BY IDOCK:   -4.50 KCAL/MOL
REMARK 924 INTRA-LIGAND FREE ENERGY PREDICTED BY IDOCK:   -0.49 KCAL/MOL
REMARK 927      BINDING AFFINITY PREDICTED BY RF-SCORE:    0.00 PKD
ROOT
HETATM    1  C   UNL     1     -11.171   5.598  73.069  1.00  0.00    -0.319 C  
HETATM    2  C   UNL     1     -10.523   6.784  73.767  1.00  0.00    -0.383 C  
ENDROOT
BRANCH   2   3
HETATM    3  C   UNL     1     -10.470   8.004  72.850  1.00  0.00    -0.402 C  
BRANCH   3   4
HETATM    4  C   UNL     1     -11.784   8.202  72.093  1.00  0.00    -0.418 C  
BRANCH   4   5
HETATM    5  C   UNL     1     -11.647   9.299  71.035  1.00  0.00    -0.380 C  
BRANCH   5   6
HETATM    6  C   UNL     1     -10.196   9.460  70.580  1.00  0.00    -0.332 C  
BRANCH   6   7
HETATM    7  C   UNL     1     -10.080   9.484  69.074  1.00  0.00    -0.201 A  
HETATM    8  C   UNL     1      -9.857  10.657  68.339  1.00  0.00    -0.161 A  
HETATM    9  C   UNL     1      -9.720  10.626  66.951  1.00  0.00    -0.213 A  
HETATM   10  O   UNL     1      -9.765  11.892  68.916  1.00  0.00    -0.396 OA 
HETATM   11  H   UNL     1      -9.614  12.686  68.418  1.00  0.00     0.000 HD 
HETATM   12  C   UNL     1      -9.837   9.414  66.281  1.00  0.00    -0.281 A  
HETATM   13  C   UNL     1     -10.087   8.241  66.978  1.00  0.00    -0.353 A  
HETATM   14  O   UNL     1      -9.718   9.337  64.924  1.00  0.00    -0.421 OA 
HETATM   15  H   UNL     1      -9.797   8.509  64.466  1.00  0.00     0.000 HD 
HETATM   16  C   UNL     1     -10.208   8.275  68.369  1.00  0.00    -0.242 A  
ENDBRANCH   6   7
ENDBRANCH   5   6
ENDBRANCH   4   5
ENDBRANCH   3   4
ENDBRANCH   2   3
TORSDOF 5
ENDMDL
MODEL      145
REMARK 921   NORMALIZED FREE ENERGY PREDICTED BY IDOCK:   -3.54 KCAL/MOL
REMARK 922        TOTAL FREE ENERGY PREDICTED BY IDOCK:   -4.99 KCAL/MOL
REMARK 923 INTER-LIGAND FREE ENERGY PREDICTED BY IDOCK:   -4.38 KCAL/MOL
REMARK 924 INTRA-LIGAND FREE ENERGY PREDICTED BY IDOCK:   -0.60 KCAL/MOL
REMARK 927      BINDING AFFINITY PREDICTED BY RF-SCORE:    0.00 PKD
ROOT
HETATM    1  C   UNL     1     -12.196  15.714  70.449  1.00  0.00    -0.429 C  
HETATM    2  C   UNL     1     -12.309  14.214  70.226  1.00  0.00    -0.421 C  
ENDROOT
BRANCH   2   3
HETATM    3  C   UNL     1     -11.124  13.684  69.420  1.00  0.00    -0.193 C  
BRANCH   3   4
HETATM    4  C   UNL     1     -11.579  12.931  68.169  1.00  0.00    -0.378 C  
BRANCH   4   5
HETATM    5  C   UNL     1     -11.972  13.905  67.056  1.00  0.00    -0.459 C  
BRANCH   5   6
HETATM    6  C   UNL     1     -10.859  14.049  66.019  1.00  0.00    -0.295 C  
BRANCH   6   7
HETATM    7  C   UNL     1     -10.120  15.358  66.166  1.00  0.00    -0.325 A  
HETATM    8  C   UNL     1      -8.770  15.442  66.534  1.00  0.00    -0.300 A  
HETATM    9  C   UNL     1      -8.120  16.673  66.621  1.00  0.00    -0.309 A  
HETATM   10  O   UNL     1      -8.010  14.348  66.834  1.00  0.00    -0.364 OA 
HETATM   11  H   UNL     1      -7.095  14.405  67.083  1.00  0.00     0.000 HD 
HETATM   12  C   UNL     1      -8.831  17.841  66.369  1.00  0.00    -0.231 A  
HETATM   13  C   UNL     1     -10.175  17.791  66.031  1.00  0.00    -0.296 A  
HETATM   14  O   UNL     1      -8.238  19.066  66.450  1.00  0.00    -0.290 OA 
HETATM   15  H   UNL     1      -8.724  19.864  66.277  1.00  0.00     0.000 HD 
HETATM   16  C   UNL     1     -10.818  16.555  65.929  1.00  0.00    -0.096 A  
ENDBRANCH   6   7
ENDBRANCH   5   6
ENDBRANCH   4   5
ENDBRANCH   3   4
ENDBRANCH   2   3
TORSDOF 5
ENDMDL
MODEL      146
REMARK 921   NORMALIZED FREE ENERGY PREDICTED BY IDOCK:   -3.54 KCAL/MOL
REMARK 922        TOTAL FREE ENERGY PREDICTED BY IDOCK:   -4.98 KCAL/MOL
REMARK 923 INTER-LIGAND FREE ENERGY PREDICTED BY IDOCK:   -4.61 KCAL/MOL
REMARK 924 INTRA-LIGAND FREE ENERGY PREDICTED BY IDOCK:   -0.37 KCAL/MOL
REMARK 927      BINDING AFFINITY PREDICTED BY RF-SCORE:    0.00 PKD
ROOT
HETATM    1  C   UNL     1     -11.643  14.936  64.877  1.00  0.00    -0.395 C  
HETATM    2  C   UNL     1     -10.452  14.375  65.638  1.00  0.00    -0.347 C  
ENDROOT
BRANCH   2   3
HETATM    3  C   UNL     1     -10.858  13.178  66.496  1.00  0.00    -0.291 C  
BRANCH   3   4
HETATM    4  C   UNL     1     -11.709  13.601  67.694  1.00  0.00    -0.398 C  
BRANCH   4   5
HETATM    5  C   UNL     1     -11.205  12.947  68.982  1.00  0.00    -0.320 C  
BRANCH   5   6
HETATM    6  C   UNL     1     -12.147  11.840  69.454  1.00  0.00    -0.301 C  
BRANCH   6   7
HETATM    7  C   UNL     1     -11.398  10.712  70.123  1.00  0.00    -0.402 A  
HETATM    8  C   UNL     1     -11.854  10.067  71.282  1.00  0.00    -0.385 A  
HETATM    9  C   UNL     1     -11.146   9.005  71.845  1.00  0.00    -0.433 A  
HETATM   10  O   UNL     1     -12.998  10.429  71.935  1.00  0.00    -0.438 OA 
HETATM   11  H   UNL     1     -13.306   9.992  72.720  1.00  0.00     0.000 HD 
HETATM   12  C   UNL     1      -9.951   8.597  71.263  1.00  0.00    -0.246 A  
HETATM   13  C   UNL     1      -9.460   9.235  70.134  1.00  0.00    -0.258 A  
HETATM   14  O   UNL     1      -9.222   7.568  71.783  1.00  0.00    -0.139 OA 
HETATM   15  H   UNL     1      -8.406   7.289  71.386  1.00  0.00     0.000 HD 
HETATM   16  C   UNL     1     -10.180  10.288  69.565  1.00  0.00    -0.261 A  
ENDBRANCH   6   7
ENDBRANCH   5   6
ENDBRANCH   4   5
ENDBRANCH   3   4
ENDBRANCH   2   3
TORSDOF 5
ENDMDL
MODEL      147
REMARK 921   NORMALIZED FREE ENERGY PREDICTED BY IDOCK:   -3.54 KCAL/MOL
REMARK 922        TOTAL FREE ENERGY PREDICTED BY IDOCK:   -4.98 KCAL/MOL
REMARK 923 INTER-LIGAND FREE ENERGY PREDICTED BY IDOCK:   -4.45 KCAL/MOL
REMARK 924 INTRA-LIGAND FREE ENERGY PREDICTED BY IDOCK:   -0.53 KCAL/MOL
REMARK 927      BINDING AFFINITY PREDICTED BY RF-SCORE:    0.00 PKD
ROOT
HETATM    1  C   UNL     1      -7.927  19.702  68.475  1.00  0.00    -0.350 C  
HETATM    2  C   UNL     1      -9.151  18.801  68.417  1.00  0.00    -0.372 C  
ENDROOT
BRANCH   2   3
HETATM    3  C   UNL     1     -10.289  19.463  67.642  1.00  0.00    -0.550 C  
BRANCH   3   4
HETATM    4  C   UNL     1     -10.334  18.992  66.188  1.00  0.00    -0.537 C  
BRANCH   4   5
HETATM    5  C   UNL     1      -9.821  17.557  66.060  1.00  0.00    -0.195 C  
BRANCH   5   6
HETATM    6  C   UNL     1     -10.909  16.540  66.405  1.00  0.00    -0.042 C  
BRANCH   6   7
HETATM    7  C   UNL     1     -10.332  15.289  67.024  1.00  0.00    -0.277 A  
HETATM    8  C   UNL     1     -11.094  14.378  67.768  1.00  0.00    -0.287 A  
HETATM    9  C   UNL     1     -10.526  13.216  68.291  1.00  0.00    -0.258 A  
HETATM   10  O   UNL     1     -12.422  14.560  68.037  1.00  0.00    -0.598 OA 
HETATM   11  H   UNL     1     -12.938  13.943  68.540  1.00  0.00     0.000 HD 
HETATM   12  C   UNL     1      -9.172  12.971  68.096  1.00  0.00    -0.212 A  
HETATM   13  C   UNL     1      -8.385  13.869  67.390  1.00  0.00    -0.208 A  
HETATM   14  O   UNL     1      -8.572  11.853  68.595  1.00  0.00    -0.283 OA 
HETATM   15  H   UNL     1      -7.647  11.685  68.462  1.00  0.00     0.000 HD 
HETATM   16  C   UNL     1      -8.962  15.023  66.854  1.00  0.00    -0.276 A  
ENDBRANCH   6   7
ENDBRANCH   5   6
ENDBRANCH   4   5
ENDBRANCH   3   4
ENDBRANCH   2   3
TORSDOF 5
ENDMDL
MODEL      148
REMARK 921   NORMALIZED FREE ENERGY PREDICTED BY IDOCK:   -3.52 KCAL/MOL
REMARK 922        TOTAL FREE ENERGY PREDICTED BY IDOCK:   -4.95 KCAL/MOL
REMARK 923 INTER-LIGAND FREE ENERGY PREDICTED BY IDOCK:   -4.84 KCAL/MOL
REMARK 924 INTRA-LIGAND FREE ENERGY PREDICTED BY IDOCK:   -0.12 KCAL/MOL
REMARK 927      BINDING AFFINITY PREDICTED BY RF-SCORE:    0.00 PKD
ROOT
HETATM    1  C   UNL     1      -7.845   7.856  70.096  1.00  0.00    -0.097 C  
HETATM    2  C   UNL     1      -8.350   8.696  71.258  1.00  0.00    -0.211 C  
ENDROOT
BRANCH   2   3
HETATM    3  C   UNL     1      -9.505   8.005  71.980  1.00  0.00    -0.257 C  
BRANCH   3   4
HETATM    4  C   UNL     1     -10.691   8.949  72.186  1.00  0.00    -0.323 C  
BRANCH   4   5
HETATM    5  C   UNL     1     -11.732   8.769  71.081  1.00  0.00    -0.344 C  
BRANCH   5   6
HETATM    6  C   UNL     1     -12.897   9.746  71.244  1.00  0.00    -0.472 C  
BRANCH   6   7
HETATM    7  C   UNL     1     -12.590  11.092  70.633  1.00  0.00    -0.408 A  
HETATM    8  C   UNL     1     -12.143  11.254  69.314  1.00  0.00    -0.303 A  
HETATM    9  C   UNL     1     -11.907  12.521  68.780  1.00  0.00    -0.347 A  
HETATM   10  O   UNL     1     -11.905  10.204  68.473  1.00  0.00    -0.655 OA 
HETATM   11  H   UNL     1     -11.603  10.314  67.580  1.00  0.00     0.000 HD 
HETATM   12  C   UNL     1     -12.089  13.644  69.580  1.00  0.00    -0.321 A  
HETATM   13  C   UNL     1     -12.501  13.513  70.898  1.00  0.00    -0.448 A  
HETATM   14  O   UNL     1     -11.863  14.901  69.103  1.00  0.00    -0.299 OA 
HETATM   15  H   UNL     1     -11.988  15.668  69.650  1.00  0.00     0.000 HD 
HETATM   16  C   UNL     1     -12.752  12.244  71.423  1.00  0.00    -0.351 A  
ENDBRANCH   6   7
ENDBRANCH   5   6
ENDBRANCH   4   5
ENDBRANCH   3   4
ENDBRANCH   2   3
TORSDOF 5
ENDMDL
MODEL      149
REMARK 921   NORMALIZED FREE ENERGY PREDICTED BY IDOCK:   -3.51 KCAL/MOL
REMARK 922        TOTAL FREE ENERGY PREDICTED BY IDOCK:   -4.95 KCAL/MOL
REMARK 923 INTER-LIGAND FREE ENERGY PREDICTED BY IDOCK:   -4.85 KCAL/MOL
REMARK 924 INTRA-LIGAND FREE ENERGY PREDICTED BY IDOCK:   -0.10 KCAL/MOL
REMARK 927      BINDING AFFINITY PREDICTED BY RF-SCORE:    0.00 PKD
ROOT
HETATM    1  C   UNL     1      -6.003  10.833  66.305  1.00  0.00    -0.126 C  
HETATM    2  C   UNL     1      -7.449  11.031  65.876  1.00  0.00     0.019 C  
ENDROOT
BRANCH   2   3
HETATM    3  C   UNL     1      -8.414  10.690  67.010  1.00  0.00    -0.129 C  
BRANCH   3   4
HETATM    4  C   UNL     1      -8.308  11.687  68.165  1.00  0.00    -0.154 C  
BRANCH   4   5
HETATM    5  C   UNL     1      -9.686  12.226  68.552  1.00  0.00    -0.142 C  
BRANCH   5   6
HETATM    6  C   UNL     1     -10.802  11.504  67.798  1.00  0.00    -0.270 C  
BRANCH   6   7
HETATM    7  C   UNL     1     -11.246  12.277  66.578  1.00  0.00    -0.373 A  
HETATM    8  C   UNL     1     -11.875  13.528  66.647  1.00  0.00    -0.407 A  
HETATM    9  C   UNL     1     -12.235  14.222  65.492  1.00  0.00    -0.408 A  
HETATM   10  O   UNL     1     -12.181  14.144  67.828  1.00  0.00    -0.548 OA 
HETATM   11  H   UNL     1     -12.606  14.992  67.874  1.00  0.00     0.000 HD 
HETATM   12  C   UNL     1     -11.993  13.649  64.248  1.00  0.00    -0.445 A  
HETATM   13  C   UNL     1     -11.399  12.399  64.149  1.00  0.00    -0.442 A  
HETATM   14  O   UNL     1     -12.334  14.288  63.093  1.00  0.00    -1.096 OA 
HETATM   15  H   UNL     1     -12.169  13.897  62.243  1.00  0.00     0.000 HD 
HETATM   16  C   UNL     1     -11.026  11.716  65.308  1.00  0.00    -0.327 A  
ENDBRANCH   6   7
ENDBRANCH   5   6
ENDBRANCH   4   5
ENDBRANCH   3   4
ENDBRANCH   2   3
TORSDOF 5
ENDMDL
MODEL      150
REMARK 921   NORMALIZED FREE ENERGY PREDICTED BY IDOCK:   -3.51 KCAL/MOL
REMARK 922        TOTAL FREE ENERGY PREDICTED BY IDOCK:   -4.95 KCAL/MOL
REMARK 923 INTER-LIGAND FREE ENERGY PREDICTED BY IDOCK:   -4.58 KCAL/MOL
REMARK 924 INTRA-LIGAND FREE ENERGY PREDICTED BY IDOCK:   -0.36 KCAL/MOL
REMARK 927      BINDING AFFINITY PREDICTED BY RF-SCORE:    0.00 PKD
ROOT
HETATM    1  C   UNL     1      -8.290  11.019  66.946  1.00  0.00    -0.138 C  
HETATM    2  C   UNL     1      -9.668  11.614  67.191  1.00  0.00    -0.195 C  
ENDROOT
BRANCH   2   3
HETATM    3  C   UNL     1     -10.007  11.631  68.680  1.00  0.00    -0.192 C  
BRANCH   3   4
HETATM    4  C   UNL     1     -11.301  10.871  68.976  1.00  0.00    -0.348 C  
BRANCH   4   5
HETATM    5  C   UNL     1     -11.829  11.212  70.371  1.00  0.00    -0.462 C  
BRANCH   5   6
HETATM    6  C   UNL     1     -12.869  10.194  70.840  1.00  0.00    -0.442 C  
BRANCH   6   7
HETATM    7  C   UNL     1     -12.222   8.958  71.420  1.00  0.00    -0.374 A  
HETATM    8  C   UNL     1     -12.813   7.688  71.375  1.00  0.00    -0.319 A  
HETATM    9  C   UNL     1     -12.162   6.567  71.891  1.00  0.00    -0.373 A  
HETATM   10  O   UNL     1     -14.050   7.460  70.839  1.00  0.00    -0.615 OA 
HETATM   11  H   UNL     1     -14.450   6.599  70.809  1.00  0.00     0.000 HD 
HETATM   12  C   UNL     1     -10.916   6.717  72.489  1.00  0.00    -0.247 A  
HETATM   13  C   UNL     1     -10.318   7.966  72.574  1.00  0.00    -0.349 A  
HETATM   14  O   UNL     1     -10.246   5.652  73.013  1.00  0.00    -0.176 OA 
HETATM   15  H   UNL     1      -9.394   5.754  73.421  1.00  0.00     0.000 HD 
HETATM   16  C   UNL     1     -10.967   9.082  72.041  1.00  0.00    -0.355 A  
ENDBRANCH   6   7
ENDBRANCH   5   6
ENDBRANCH   4   5
ENDBRANCH   3   4
ENDBRANCH   2   3
TORSDOF 5
ENDMDL
MODEL      151
REMARK 921   NORMALIZED FREE ENERGY PREDICTED BY IDOCK:   -3.48 KCAL/MOL
REMARK 922        TOTAL FREE ENERGY PREDICTED BY IDOCK:   -4.90 KCAL/MOL
REMARK 923 INTER-LIGAND FREE ENERGY PREDICTED BY IDOCK:   -3.99 KCAL/MOL
REMARK 924 INTRA-LIGAND FREE ENERGY PREDICTED BY IDOCK:   -0.91 KCAL/MOL
REMARK 927      BINDING AFFINITY PREDICTED BY RF-SCORE:    0.00 PKD
ROOT
HETATM    1  C   UNL     1     -11.654  13.688  69.248  1.00  0.00    -0.363 C  
HETATM    2  C   UNL     1     -11.881  12.762  68.063  1.00  0.00    -0.386 C  
ENDROOT
BRANCH   2   3
HETATM    3  C   UNL     1     -11.987  13.550  66.759  1.00  0.00    -0.453 C  
BRANCH   3   4
HETATM    4  C   UNL     1     -11.990  12.629  65.538  1.00  0.00    -0.509 C  
BRANCH   4   5
HETATM    5  C   UNL     1     -10.657  12.706  64.791  1.00  0.00    -0.341 C  
BRANCH   5   6
HETATM    6  C   UNL     1      -9.878  11.395  64.898  1.00  0.00    -0.301 C  
BRANCH   6   7
HETATM    7  C   UNL     1      -9.329  11.181  66.289  1.00  0.00    -0.216 A  
HETATM    8  C   UNL     1      -9.637  10.060  67.072  1.00  0.00    -0.172 A  
HETATM    9  C   UNL     1      -9.077   9.886  68.338  1.00  0.00    -0.123 A  
HETATM   10  O   UNL     1     -10.495   9.078  66.664  1.00  0.00    -0.246 OA 
HETATM   11  H   UNL     1     -10.703   8.319  67.194  1.00  0.00     0.000 HD 
HETATM   12  C   UNL     1      -8.222  10.857  68.845  1.00  0.00    -0.141 A  
HETATM   13  C   UNL     1      -7.922  11.992  68.106  1.00  0.00    -0.152 A  
HETATM   14  O   UNL     1      -7.658  10.733  70.081  1.00  0.00    -0.414 OA 
HETATM   15  H   UNL     1      -7.073  11.396  70.427  1.00  0.00     0.000 HD 
HETATM   16  C   UNL     1      -8.472  12.154  66.832  1.00  0.00    -0.173 A  
ENDBRANCH   6   7
ENDBRANCH   5   6
ENDBRANCH   4   5
ENDBRANCH   3   4
ENDBRANCH   2   3
TORSDOF 5
ENDMDL
MODEL      152
REMARK 921   NORMALIZED FREE ENERGY PREDICTED BY IDOCK:   -3.47 KCAL/MOL
REMARK 922        TOTAL FREE ENERGY PREDICTED BY IDOCK:   -4.89 KCAL/MOL
REMARK 923 INTER-LIGAND FREE ENERGY PREDICTED BY IDOCK:   -4.26 KCAL/MOL
REMARK 924 INTRA-LIGAND FREE ENERGY PREDICTED BY IDOCK:   -0.63 KCAL/MOL
REMARK 927      BINDING AFFINITY PREDICTED BY RF-SCORE:    0.00 PKD
ROOT
HETATM    1  C   UNL     1      -7.561   8.668  71.573  1.00  0.00    -0.134 C  
HETATM    2  C   UNL     1      -9.013   8.659  71.122  1.00  0.00    -0.253 C  
ENDROOT
BRANCH   2   3
HETATM    3  C   UNL     1      -9.144   8.150  69.688  1.00  0.00    -0.151 C  
BRANCH   3   4
HETATM    4  C   UNL     1      -8.610   9.164  68.675  1.00  0.00    -0.128 C  
BRANCH   4   5
HETATM    5  C   UNL     1      -9.143  10.567  68.972  1.00  0.00    -0.188 C  
BRANCH   5   6
HETATM    6  C   UNL     1     -10.616  10.700  68.584  1.00  0.00    -0.229 C  
BRANCH   6   7
HETATM    7  C   UNL     1     -11.418  11.398  69.656  1.00  0.00    -0.380 A  
HETATM    8  C   UNL     1     -11.432  12.790  69.823  1.00  0.00    -0.129 A  
HETATM    9  C   UNL     1     -12.217  13.394  70.805  1.00  0.00    -0.409 A  
HETATM   10  O   UNL     1     -10.687  13.640  69.054  1.00  0.00    -0.318 OA 
HETATM   11  H   UNL     1     -10.697  14.583  69.167  1.00  0.00     0.000 HD 
HETATM   12  C   UNL     1     -12.977  12.599  71.655  1.00  0.00    -0.299 A  
HETATM   13  C   UNL     1     -12.961  11.217  71.534  1.00  0.00    -0.542 A  
HETATM   14  O   UNL     1     -13.754  13.145  72.634  1.00  0.00    -0.651 OA 
HETATM   15  H   UNL     1     -14.274  12.602  73.214  1.00  0.00     0.000 HD 
HETATM   16  C   UNL     1     -12.186  10.618  70.539  1.00  0.00    -0.449 A  
ENDBRANCH   6   7
ENDBRANCH   5   6
ENDBRANCH   4   5
ENDBRANCH   3   4
ENDBRANCH   2   3
TORSDOF 5
ENDMDL
MODEL      153
REMARK 921   NORMALIZED FREE ENERGY PREDICTED BY IDOCK:   -3.47 KCAL/MOL
REMARK 922        TOTAL FREE ENERGY PREDICTED BY IDOCK:   -4.89 KCAL/MOL
REMARK 923 INTER-LIGAND FREE ENERGY PREDICTED BY IDOCK:   -4.30 KCAL/MOL
REMARK 924 INTRA-LIGAND FREE ENERGY PREDICTED BY IDOCK:   -0.58 KCAL/MOL
REMARK 927      BINDING AFFINITY PREDICTED BY RF-SCORE:    0.00 PKD
ROOT
HETATM    1  C   UNL     1     -11.108   7.033  71.243  1.00  0.00    -0.282 C  
HETATM    2  C   UNL     1     -11.022   7.626  69.846  1.00  0.00    -0.208 C  
ENDROOT
BRANCH   2   3
HETATM    3  C   UNL     1     -10.611   6.570  68.821  1.00  0.00    -0.282 C  
BRANCH   3   4
HETATM    4  C   UNL     1      -9.840   7.184  67.652  1.00  0.00    -0.183 C  
BRANCH   4   5
HETATM    5  C   UNL     1     -10.613   8.353  67.039  1.00  0.00    -0.316 C  
BRANCH   5   6
HETATM    6  C   UNL     1      -9.721   9.581  66.855  1.00  0.00    -0.237 C  
BRANCH   6   7
HETATM    7  C   UNL     1     -10.444  10.858  67.213  1.00  0.00    -0.275 A  
HETATM    8  C   UNL     1     -10.984  11.729  66.256  1.00  0.00    -0.300 A  
HETATM    9  C   UNL     1     -11.676  12.880  66.634  1.00  0.00    -0.452 A  
HETATM   10  O   UNL     1     -10.871  11.521  64.911  1.00  0.00    -0.298 OA 
HETATM   11  H   UNL     1     -11.237  12.111  64.263  1.00  0.00     0.000 HD 
HETATM   12  C   UNL     1     -11.805  13.186  67.984  1.00  0.00    -0.358 A  
HETATM   13  C   UNL     1     -11.255  12.359  68.953  1.00  0.00    -0.330 A  
HETATM   14  O   UNL     1     -12.466  14.304  68.400  1.00  0.00    -0.564 OA 
HETATM   15  H   UNL     1     -12.555  14.513  69.322  1.00  0.00     0.000 HD 
HETATM   16  C   UNL     1     -10.578  11.199  68.570  1.00  0.00    -0.219 A  
ENDBRANCH   6   7
ENDBRANCH   5   6
ENDBRANCH   4   5
ENDBRANCH   3   4
ENDBRANCH   2   3
TORSDOF 5
ENDMDL
MODEL      154
REMARK 921   NORMALIZED FREE ENERGY PREDICTED BY IDOCK:   -3.46 KCAL/MOL
REMARK 922        TOTAL FREE ENERGY PREDICTED BY IDOCK:   -4.88 KCAL/MOL
REMARK 923 INTER-LIGAND FREE ENERGY PREDICTED BY IDOCK:   -4.21 KCAL/MOL
REMARK 924 INTRA-LIGAND FREE ENERGY PREDICTED BY IDOCK:   -0.67 KCAL/MOL
REMARK 927      BINDING AFFINITY PREDICTED BY RF-SCORE:    0.00 PKD
ROOT
HETATM    1  C   UNL     1      -8.009   6.002  73.201  1.00  0.00    -0.108 C  
HETATM    2  C   UNL     1      -9.163   6.813  73.770  1.00  0.00    -0.190 C  
ENDROOT
BRANCH   2   3
HETATM    3  C   UNL     1      -9.288   8.165  73.069  1.00  0.00    -0.335 C  
BRANCH   3   4
HETATM    4  C   UNL     1      -8.214   8.349  71.996  1.00  0.00    -0.212 C  
BRANCH   4   5
HETATM    5  C   UNL     1      -8.707   9.272  70.880  1.00  0.00    -0.234 C  
BRANCH   5   6
HETATM    6  C   UNL     1     -10.204   9.093  70.625  1.00  0.00    -0.306 C  
BRANCH   6   7
HETATM    7  C   UNL     1     -10.468   8.179  69.452  1.00  0.00    -0.223 A  
HETATM    8  C   UNL     1     -10.834   6.833  69.593  1.00  0.00    -0.271 A  
HETATM    9  C   UNL     1     -11.104   6.036  68.480  1.00  0.00    -0.279 A  
HETATM   10  O   UNL     1     -10.946   6.214  70.806  1.00  0.00    -0.268 OA 
HETATM   11  H   UNL     1     -11.195   5.303  70.901  1.00  0.00     0.000 HD 
HETATM   12  C   UNL     1     -10.977   6.577  67.206  1.00  0.00    -0.400 A  
HETATM   13  C   UNL     1     -10.587   7.897  67.034  1.00  0.00    -0.381 A  
HETATM   14  O   UNL     1     -11.223   5.833  66.090  1.00  0.00    -0.735 OA 
HETATM   15  H   UNL     1     -11.137   6.203  65.219  1.00  0.00     0.000 HD 
HETATM   16  C   UNL     1     -10.334   8.696  68.151  1.00  0.00    -0.267 A  
ENDBRANCH   6   7
ENDBRANCH   5   6
ENDBRANCH   4   5
ENDBRANCH   3   4
ENDBRANCH   2   3
TORSDOF 5
ENDMDL
MODEL      155
REMARK 921   NORMALIZED FREE ENERGY PREDICTED BY IDOCK:   -3.45 KCAL/MOL
REMARK 922        TOTAL FREE ENERGY PREDICTED BY IDOCK:   -4.87 KCAL/MOL
REMARK 923 INTER-LIGAND FREE ENERGY PREDICTED BY IDOCK:   -4.24 KCAL/MOL
REMARK 924 INTRA-LIGAND FREE ENERGY PREDICTED BY IDOCK:   -0.63 KCAL/MOL
REMARK 927      BINDING AFFINITY PREDICTED BY RF-SCORE:    0.00 PKD
ROOT
HETATM    1  C   UNL     1     -12.919  15.504  71.140  1.00  0.00    -0.560 C  
HETATM    2  C   UNL     1     -12.566  14.247  70.360  1.00  0.00    -0.405 C  
ENDROOT
BRANCH   2   3
HETATM    3  C   UNL     1     -11.305  14.452  69.522  1.00  0.00    -0.318 C  
BRANCH   3   4
HETATM    4  C   UNL     1     -11.626  14.571  68.032  1.00  0.00    -0.364 C  
BRANCH   4   5
HETATM    5  C   UNL     1     -10.418  14.184  67.178  1.00  0.00    -0.270 C  
BRANCH   5   6
HETATM    6  C   UNL     1     -10.562  12.771  66.611  1.00  0.00    -0.272 C  
BRANCH   6   7
HETATM    7  C   UNL     1     -10.141  11.720  67.610  1.00  0.00    -0.206 A  
HETATM    8  C   UNL     1     -11.053  10.939  68.335  1.00  0.00    -0.262 A  
HETATM    9  C   UNL     1     -10.618   9.954  69.221  1.00  0.00    -0.245 A  
HETATM   10  O   UNL     1     -12.407  11.088  68.234  1.00  0.00    -0.717 OA 
HETATM   11  H   UNL     1     -13.025  10.559  68.724  1.00  0.00     0.000 HD 
HETATM   12  C   UNL     1      -9.254   9.761  69.412  1.00  0.00    -0.205 A  
HETATM   13  C   UNL     1      -8.328  10.539  68.731  1.00  0.00    -0.136 A  
HETATM   14  O   UNL     1      -8.783   8.815  70.273  1.00  0.00    -0.140 OA 
HETATM   15  H   UNL     1      -7.852   8.683  70.404  1.00  0.00     0.000 HD 
HETATM   16  C   UNL     1      -8.769  11.513  67.833  1.00  0.00    -0.144 A  
ENDBRANCH   6   7
ENDBRANCH   5   6
ENDBRANCH   4   5
ENDBRANCH   3   4
ENDBRANCH   2   3
TORSDOF 5
ENDMDL
MODEL      156
REMARK 921   NORMALIZED FREE ENERGY PREDICTED BY IDOCK:   -3.45 KCAL/MOL
REMARK 922        TOTAL FREE ENERGY PREDICTED BY IDOCK:   -4.86 KCAL/MOL
REMARK 923 INTER-LIGAND FREE ENERGY PREDICTED BY IDOCK:   -4.44 KCAL/MOL
REMARK 924 INTRA-LIGAND FREE ENERGY PREDICTED BY IDOCK:   -0.42 KCAL/MOL
REMARK 927      BINDING AFFINITY PREDICTED BY RF-SCORE:    0.00 PKD
ROOT
HETATM    1  C   UNL     1      -6.724   5.196  67.969  1.00  0.00    -0.055 C  
HETATM    2  C   UNL     1      -7.446   6.361  68.628  1.00  0.00    -0.088 C  
ENDROOT
BRANCH   2   3
HETATM    3  C   UNL     1      -7.341   6.287  70.150  1.00  0.00    -0.085 C  
BRANCH   3   4
HETATM    4  C   UNL     1      -8.680   6.580  70.827  1.00  0.00    -0.143 C  
BRANCH   4   5
HETATM    5  C   UNL     1      -9.767   6.867  69.789  1.00  0.00    -0.166 C  
BRANCH   5   6
HETATM    6  C   UNL     1     -11.164   6.621  70.359  1.00  0.00    -0.398 C  
BRANCH   6   7
HETATM    7  C   UNL     1     -11.783   7.890  70.894  1.00  0.00    -0.271 A  
HETATM    8  C   UNL     1     -12.903   7.903  71.738  1.00  0.00    -0.328 A  
HETATM    9  C   UNL     1     -13.418   9.099  72.238  1.00  0.00    -0.546 A  
HETATM   10  O   UNL     1     -13.561   6.769  72.120  1.00  0.00    -0.544 OA 
HETATM   11  H   UNL     1     -14.320   6.778  72.692  1.00  0.00     0.000 HD 
HETATM   12  C   UNL     1     -12.830  10.304  71.869  1.00  0.00    -0.426 A  
HETATM   13  C   UNL     1     -11.740  10.324  71.012  1.00  0.00    -0.461 A  
HETATM   14  O   UNL     1     -13.304  11.497  72.327  1.00  0.00    -0.624 OA 
HETATM   15  H   UNL     1     -12.902  12.320  72.075  1.00  0.00     0.000 HD 
HETATM   16  C   UNL     1     -11.217   9.124  70.527  1.00  0.00    -0.309 A  
ENDBRANCH   6   7
ENDBRANCH   5   6
ENDBRANCH   4   5
ENDBRANCH   3   4
ENDBRANCH   2   3
TORSDOF 5
ENDMDL
MODEL      157
REMARK 921   NORMALIZED FREE ENERGY PREDICTED BY IDOCK:   -3.44 KCAL/MOL
REMARK 922        TOTAL FREE ENERGY PREDICTED BY IDOCK:   -4.86 KCAL/MOL
REMARK 923 INTER-LIGAND FREE ENERGY PREDICTED BY IDOCK:   -4.14 KCAL/MOL
REMARK 924 INTRA-LIGAND FREE ENERGY PREDICTED BY IDOCK:   -0.72 KCAL/MOL
REMARK 927      BINDING AFFINITY PREDICTED BY RF-SCORE:    0.00 PKD
ROOT
HETATM    1  C   UNL     1      -9.145  15.428  68.076  1.00  0.00    -0.175 C  
HETATM    2  C   UNL     1     -10.155  16.199  67.239  1.00  0.00    -0.265 C  
ENDROOT
BRANCH   2   3
HETATM    3  C   UNL     1     -11.075  15.251  66.471  1.00  0.00    -0.271 C  
BRANCH   3   4
HETATM    4  C   UNL     1     -10.463  14.822  65.137  1.00  0.00    -0.443 C  
BRANCH   4   5
HETATM    5  C   UNL     1     -11.210  13.621  64.553  1.00  0.00    -0.395 C  
BRANCH   5   6
HETATM    6  C   UNL     1     -10.353  12.356  64.594  1.00  0.00    -0.332 C  
BRANCH   6   7
HETATM    7  C   UNL     1     -10.161  11.852  66.004  1.00  0.00    -0.261 A  
HETATM    8  C   UNL     1      -8.904  11.559  66.552  1.00  0.00    -0.190 A  
HETATM    9  C   UNL     1      -8.772  11.131  67.873  1.00  0.00    -0.136 A  
HETATM   10  O   UNL     1      -7.740  11.664  65.844  1.00  0.00    -0.348 OA 
HETATM   11  H   UNL     1      -6.889  11.466  66.215  1.00  0.00     0.000 HD 
HETATM   12  C   UNL     1      -9.911  10.962  68.653  1.00  0.00    -0.190 A  
HETATM   13  C   UNL     1     -11.170  11.215  68.129  1.00  0.00    -0.356 A  
HETATM   14  O   UNL     1      -9.830  10.538  69.946  1.00  0.00    -0.420 OA 
HETATM   15  H   UNL     1     -10.608  10.423  70.479  1.00  0.00     0.000 HD 
HETATM   16  C   UNL     1     -11.296  11.659  66.811  1.00  0.00    -0.354 A  
ENDBRANCH   6   7
ENDBRANCH   5   6
ENDBRANCH   4   5
ENDBRANCH   3   4
ENDBRANCH   2   3
TORSDOF 5
ENDMDL
MODEL      158
REMARK 921   NORMALIZED FREE ENERGY PREDICTED BY IDOCK:   -3.42 KCAL/MOL
REMARK 922        TOTAL FREE ENERGY PREDICTED BY IDOCK:   -4.82 KCAL/MOL
REMARK 923 INTER-LIGAND FREE ENERGY PREDICTED BY IDOCK:   -4.48 KCAL/MOL
REMARK 924 INTRA-LIGAND FREE ENERGY PREDICTED BY IDOCK:   -0.34 KCAL/MOL
REMARK 927      BINDING AFFINITY PREDICTED BY RF-SCORE:    0.00 PKD
ROOT
HETATM    1  C   UNL     1      -6.405  12.766  67.530  1.00  0.00    -0.162 C  
HETATM    2  C   UNL     1      -5.855  11.537  66.824  1.00  0.00    -0.143 C  
ENDROOT
BRANCH   2   3
HETATM    3  C   UNL     1      -6.942  10.828  66.018  1.00  0.00    -0.104 C  
BRANCH   3   4
HETATM    4  C   UNL     1      -8.265  10.766  66.783  1.00  0.00    -0.135 C  
BRANCH   4   5
HETATM    5  C   UNL     1      -9.318   9.986  65.993  1.00  0.00    -0.224 C  
BRANCH   5   6
HETATM    6  C   UNL     1     -10.159  10.912  65.115  1.00  0.00    -0.352 C  
BRANCH   6   7
HETATM    7  C   UNL     1     -10.706  12.084  65.896  1.00  0.00    -0.314 A  
HETATM    8  C   UNL     1     -10.602  13.413  65.462  1.00  0.00    -0.290 A  
HETATM    9  C   UNL     1     -11.155  14.460  66.200  1.00  0.00    -0.330 A  
HETATM   10  O   UNL     1      -9.960  13.773  64.311  1.00  0.00    -0.742 OA 
HETATM   11  H   UNL     1      -9.890  14.674  64.018  1.00  0.00     0.000 HD 
HETATM   12  C   UNL     1     -11.794  14.184  67.403  1.00  0.00    -0.413 A  
HETATM   13  C   UNL     1     -11.886  12.882  67.873  1.00  0.00    -0.388 A  
HETATM   14  O   UNL     1     -12.343  15.176  68.161  1.00  0.00    -0.499 OA 
HETATM   15  H   UNL     1     -12.779  14.988  68.983  1.00  0.00     0.000 HD 
HETATM   16  C   UNL     1     -11.345  11.835  67.123  1.00  0.00    -0.387 A  
ENDBRANCH   6   7
ENDBRANCH   5   6
ENDBRANCH   4   5
ENDBRANCH   3   4
ENDBRANCH   2   3
TORSDOF 5
ENDMDL
MODEL      159
REMARK 921   NORMALIZED FREE ENERGY PREDICTED BY IDOCK:   -3.40 KCAL/MOL
REMARK 922        TOTAL FREE ENERGY PREDICTED BY IDOCK:   -4.80 KCAL/MOL
REMARK 923 INTER-LIGAND FREE ENERGY PREDICTED BY IDOCK:   -4.42 KCAL/MOL
REMARK 924 INTRA-LIGAND FREE ENERGY PREDICTED BY IDOCK:   -0.38 KCAL/MOL
REMARK 927      BINDING AFFINITY PREDICTED BY RF-SCORE:    0.00 PKD
ROOT
HETATM    1  C   UNL     1      -8.153   8.612  65.818  1.00  0.00    -0.114 C  
HETATM    2  C   UNL     1      -8.768   9.994  65.659  1.00  0.00    -0.171 C  
ENDROOT
BRANCH   2   3
HETATM    3  C   UNL     1     -10.227  10.005  66.111  1.00  0.00    -0.283 C  
BRANCH   3   4
HETATM    4  C   UNL     1     -10.386  10.612  67.505  1.00  0.00    -0.254 C  
BRANCH   4   5
HETATM    5  C   UNL     1     -10.183  12.128  67.469  1.00  0.00    -0.209 C  
BRANCH   5   6
HETATM    6  C   UNL     1     -11.514  12.869  67.340  1.00  0.00    -0.388 C  
BRANCH   6   7
HETATM    7  C   UNL     1     -11.738  13.823  68.489  1.00  0.00    -0.391 A  
HETATM    8  C   UNL     1     -11.588  15.212  68.376  1.00  0.00    -0.337 A  
HETATM    9  C   UNL     1     -11.842  16.058  69.455  1.00  0.00    -0.243 A  
HETATM   10  O   UNL     1     -11.184  15.826  67.224  1.00  0.00    -0.263 OA 
HETATM   11  H   UNL     1     -11.083  16.768  67.147  1.00  0.00     0.000 HD 
HETATM   12  C   UNL     1     -12.221  15.512  70.676  1.00  0.00    -0.402 A  
HETATM   13  C   UNL     1     -12.349  14.139  70.827  1.00  0.00    -0.439 A  
HETATM   14  O   UNL     1     -12.472  16.300  71.761  1.00  0.00    -0.575 OA 
HETATM   15  H   UNL     1     -12.732  15.927  72.594  1.00  0.00     0.000 HD 
HETATM   16  C   UNL     1     -12.110  13.297  69.739  1.00  0.00    -0.355 A  
ENDBRANCH   6   7
ENDBRANCH   5   6
ENDBRANCH   4   5
ENDBRANCH   3   4
ENDBRANCH   2   3
TORSDOF 5
ENDMDL
MODEL      160
REMARK 921   NORMALIZED FREE ENERGY PREDICTED BY IDOCK:   -3.40 KCAL/MOL
REMARK 922        TOTAL FREE ENERGY PREDICTED BY IDOCK:   -4.80 KCAL/MOL
REMARK 923 INTER-LIGAND FREE ENERGY PREDICTED BY IDOCK:   -4.51 KCAL/MOL
REMARK 924 INTRA-LIGAND FREE ENERGY PREDICTED BY IDOCK:   -0.30 KCAL/MOL
REMARK 927      BINDING AFFINITY PREDICTED BY RF-SCORE:    0.00 PKD
ROOT
HETATM    1  C   UNL     1     -10.009  18.437  67.137  1.00  0.00    -0.350 C  
HETATM    2  C   UNL     1      -9.113  17.323  66.618  1.00  0.00    -0.286 C  
ENDROOT
BRANCH   2   3
HETATM    3  C   UNL     1      -9.918  16.280  65.846  1.00  0.00    -0.366 C  
BRANCH   3   4
HETATM    4  C   UNL     1      -9.860  14.907  66.517  1.00  0.00    -0.281 C  
BRANCH   4   5
HETATM    5  C   UNL     1     -10.960  14.766  67.570  1.00  0.00    -0.304 C  
BRANCH   5   6
HETATM    6  C   UNL     1     -11.949  13.659  67.204  1.00  0.00    -0.434 C  
BRANCH   6   7
HETATM    7  C   UNL     1     -11.243  12.383  66.812  1.00  0.00    -0.363 A  
HETATM    8  C   UNL     1     -10.662  11.509  67.741  1.00  0.00    -0.207 A  
HETATM    9  C   UNL     1     -10.051  10.322  67.335  1.00  0.00    -0.246 A  
HETATM   10  O   UNL     1     -10.646  11.754  69.085  1.00  0.00    -0.352 OA 
HETATM   11  H   UNL     1     -10.252  11.161  69.715  1.00  0.00     0.000 HD 
HETATM   12  C   UNL     1      -9.990  10.015  65.980  1.00  0.00    -0.267 A  
HETATM   13  C   UNL     1     -10.530  10.875  65.035  1.00  0.00    -0.331 A  
HETATM   14  O   UNL     1      -9.396   8.870  65.537  1.00  0.00    -0.350 OA 
HETATM   15  H   UNL     1      -9.355   8.660  64.612  1.00  0.00     0.000 HD 
HETATM   16  C   UNL     1     -11.154  12.054  65.448  1.00  0.00    -0.369 A  
ENDBRANCH   6   7
ENDBRANCH   5   6
ENDBRANCH   4   5
ENDBRANCH   3   4
ENDBRANCH   2   3
TORSDOF 5
ENDMDL
MODEL      161
REMARK 921   NORMALIZED FREE ENERGY PREDICTED BY IDOCK:   -3.38 KCAL/MOL
REMARK 922        TOTAL FREE ENERGY PREDICTED BY IDOCK:   -4.78 KCAL/MOL
REMARK 923 INTER-LIGAND FREE ENERGY PREDICTED BY IDOCK:   -4.40 KCAL/MOL
REMARK 924 INTRA-LIGAND FREE ENERGY PREDICTED BY IDOCK:   -0.38 KCAL/MOL
REMARK 927      BINDING AFFINITY PREDICTED BY RF-SCORE:    0.00 PKD
ROOT
HETATM    1  C   UNL     1      -9.437   3.706  64.308  1.00  0.00    -0.152 C  
HETATM    2  C   UNL     1      -9.169   4.727  65.403  1.00  0.00    -0.156 C  
ENDROOT
BRANCH   2   3
HETATM    3  C   UNL     1     -10.305   4.755  66.423  1.00  0.00    -0.312 C  
BRANCH   3   4
HETATM    4  C   UNL     1     -10.053   5.786  67.525  1.00  0.00    -0.204 C  
BRANCH   4   5
HETATM    5  C   UNL     1     -10.861   7.061  67.277  1.00  0.00    -0.403 C  
BRANCH   5   6
HETATM    6  C   UNL     1     -10.142   8.295  67.822  1.00  0.00    -0.262 C  
BRANCH   6   7
HETATM    7  C   UNL     1     -10.304   9.488  66.910  1.00  0.00    -0.307 A  
HETATM    8  C   UNL     1     -11.115  10.588  67.220  1.00  0.00    -0.213 A  
HETATM    9  C   UNL     1     -11.206  11.685  66.362  1.00  0.00    -0.349 A  
HETATM   10  O   UNL     1     -11.866  10.663  68.359  1.00  0.00    -0.700 OA 
HETATM   11  H   UNL     1     -12.415  11.409  68.569  1.00  0.00     0.000 HD 
HETATM   12  C   UNL     1     -10.503  11.673  65.163  1.00  0.00    -0.279 A  
HETATM   13  C   UNL     1      -9.716  10.586  64.815  1.00  0.00    -0.365 A  
HETATM   14  O   UNL     1     -10.567  12.720  64.291  1.00  0.00    -0.353 OA 
HETATM   15  H   UNL     1     -10.087  12.712  63.472  1.00  0.00     0.000 HD 
HETATM   16  C   UNL     1      -9.615   9.497  65.684  1.00  0.00    -0.346 A  
ENDBRANCH   6   7
ENDBRANCH   5   6
ENDBRANCH   4   5
ENDBRANCH   3   4
ENDBRANCH   2   3
TORSDOF 5
ENDMDL
MODEL      162
REMARK 921   NORMALIZED FREE ENERGY PREDICTED BY IDOCK:   -3.36 KCAL/MOL
REMARK 922        TOTAL FREE ENERGY PREDICTED BY IDOCK:   -4.75 KCAL/MOL
REMARK 923 INTER-LIGAND FREE ENERGY PREDICTED BY IDOCK:   -4.34 KCAL/MOL
REMARK 924 INTRA-LIGAND FREE ENERGY PREDICTED BY IDOCK:   -0.41 KCAL/MOL
REMARK 927      BINDING AFFINITY PREDICTED BY RF-SCORE:    0.00 PKD
ROOT
HETATM    1  C   UNL     1      -8.148  18.485  67.944  1.00  0.00    -0.272 C  
HETATM    2  C   UNL     1      -9.298  17.568  68.329  1.00  0.00    -0.281 C  
ENDROOT
BRANCH   2   3
HETATM    3  C   UNL     1     -10.534  17.841  67.473  1.00  0.00    -0.376 C  
BRANCH   3   4
HETATM    4  C   UNL     1     -10.383  17.274  66.061  1.00  0.00    -0.312 C  
BRANCH   4   5
HETATM    5  C   UNL     1     -10.077  15.776  66.103  1.00  0.00    -0.337 C  
BRANCH   5   6
HETATM    6  C   UNL     1     -11.352  14.940  65.999  1.00  0.00    -0.306 C  
BRANCH   6   7
HETATM    7  C   UNL     1     -11.087  13.476  66.260  1.00  0.00    -0.308 A  
HETATM    8  C   UNL     1     -11.463  12.825  67.443  1.00  0.00    -0.340 A  
HETATM    9  C   UNL     1     -11.230  11.462  67.626  1.00  0.00    -0.346 A  
HETATM   10  O   UNL     1     -12.069  13.468  68.487  1.00  0.00    -0.359 OA 
HETATM   11  H   UNL     1     -12.324  13.027  69.288  1.00  0.00     0.000 HD 
HETATM   12  C   UNL     1     -10.584  10.741  66.628  1.00  0.00    -0.232 A  
HETATM   13  C   UNL     1     -10.173  11.364  65.459  1.00  0.00    -0.312 A  
HETATM   14  O   UNL     1     -10.329   9.409  66.766  1.00  0.00    -0.251 OA 
HETATM   15  H   UNL     1      -9.888   8.916  66.084  1.00  0.00     0.000 HD 
HETATM   16  C   UNL     1     -10.424  12.725  65.274  1.00  0.00    -0.312 A  
ENDBRANCH   6   7
ENDBRANCH   5   6
ENDBRANCH   4   5
ENDBRANCH   3   4
ENDBRANCH   2   3
TORSDOF 5
ENDMDL
MODEL      163
REMARK 921   NORMALIZED FREE ENERGY PREDICTED BY IDOCK:   -3.36 KCAL/MOL
REMARK 922        TOTAL FREE ENERGY PREDICTED BY IDOCK:   -4.74 KCAL/MOL
REMARK 923 INTER-LIGAND FREE ENERGY PREDICTED BY IDOCK:   -3.96 KCAL/MOL
REMARK 924 INTRA-LIGAND FREE ENERGY PREDICTED BY IDOCK:   -0.79 KCAL/MOL
REMARK 927      BINDING AFFINITY PREDICTED BY RF-SCORE:    0.00 PKD
ROOT
HETATM    1  C   UNL     1      -9.340   8.097  66.313  1.00  0.00    -0.259 C  
HETATM    2  C   UNL     1      -8.483   8.528  67.493  1.00  0.00    -0.128 C  
ENDROOT
BRANCH   2   3
HETATM    3  C   UNL     1      -7.887   7.320  68.214  1.00  0.00    -0.122 C  
BRANCH   3   4
HETATM    4  C   UNL     1      -8.156   6.018  67.458  1.00  0.00    -0.102 C  
BRANCH   4   5
HETATM    5  C   UNL     1      -8.214   4.829  68.418  1.00  0.00    -0.084 C  
BRANCH   5   6
HETATM    6  C   UNL     1      -9.656   4.423  68.721  1.00  0.00    -0.224 C  
BRANCH   6   7
HETATM    7  C   UNL     1     -10.248   5.246  69.841  1.00  0.00    -0.364 A  
HETATM    8  C   UNL     1     -11.229   6.226  69.640  1.00  0.00    -0.437 A  
HETATM    9  C   UNL     1     -11.773   6.937  70.710  1.00  0.00    -0.417 A  
HETATM   10  O   UNL     1     -11.710   6.556  68.404  1.00  0.00    -0.470 OA 
HETATM   11  H   UNL     1     -12.375   7.221  68.268  1.00  0.00     0.000 HD 
HETATM   12  C   UNL     1     -11.312   6.689  71.998  1.00  0.00    -0.280 A  
HETATM   13  C   UNL     1     -10.321   5.746  72.225  1.00  0.00    -0.244 A  
HETATM   14  O   UNL     1     -11.809   7.364  73.073  1.00  0.00    -0.571 OA 
HETATM   15  H   UNL     1     -11.495   7.195  73.953  1.00  0.00     0.000 HD 
HETATM   16  C   UNL     1      -9.791   5.026  71.153  1.00  0.00    -0.254 A  
ENDBRANCH   6   7
ENDBRANCH   5   6
ENDBRANCH   4   5
ENDBRANCH   3   4
ENDBRANCH   2   3
TORSDOF 5
ENDMDL
MODEL      164
REMARK 921   NORMALIZED FREE ENERGY PREDICTED BY IDOCK:   -3.35 KCAL/MOL
REMARK 922        TOTAL FREE ENERGY PREDICTED BY IDOCK:   -4.73 KCAL/MOL
REMARK 923 INTER-LIGAND FREE ENERGY PREDICTED BY IDOCK:   -4.29 KCAL/MOL
REMARK 924 INTRA-LIGAND FREE ENERGY PREDICTED BY IDOCK:   -0.44 KCAL/MOL
REMARK 927      BINDING AFFINITY PREDICTED BY RF-SCORE:    0.00 PKD
ROOT
HETATM    1  C   UNL     1      -8.241  18.645  66.361  1.00  0.00    -0.295 C  
HETATM    2  C   UNL     1      -8.048  18.370  67.845  1.00  0.00    -0.271 C  
ENDROOT
BRANCH   2   3
HETATM    3  C   UNL     1      -7.026  17.258  68.073  1.00  0.00    -0.179 C  
BRANCH   3   4
HETATM    4  C   UNL     1      -7.457  15.947  67.414  1.00  0.00    -0.217 C  
BRANCH   4   5
HETATM    5  C   UNL     1      -8.059  14.988  68.443  1.00  0.00    -0.141 C  
BRANCH   5   6
HETATM    6  C   UNL     1      -9.542  15.277  68.677  1.00  0.00    -0.206 C  
BRANCH   6   7
HETATM    7  C   UNL     1     -10.419  14.548  67.687  1.00  0.00    -0.246 A  
HETATM    8  C   UNL     1     -10.870  15.122  66.490  1.00  0.00    -0.317 A  
HETATM    9  C   UNL     1     -11.649  14.397  65.588  1.00  0.00    -0.347 A  
HETATM   10  O   UNL     1     -10.590  16.409  66.129  1.00  0.00    -0.311 OA 
HETATM   11  H   UNL     1     -10.895  16.798  65.318  1.00  0.00     0.000 HD 
HETATM   12  C   UNL     1     -12.012  13.090  65.896  1.00  0.00    -0.435 A  
HETATM   13  C   UNL     1     -11.606  12.505  67.087  1.00  0.00    -0.437 A  
HETATM   14  O   UNL     1     -12.778  12.346  65.048  1.00  0.00    -0.631 OA 
HETATM   15  H   UNL     1     -13.025  11.454  65.258  1.00  0.00     0.000 HD 
HETATM   16  C   UNL     1     -10.812  13.230  67.979  1.00  0.00    -0.261 A  
ENDBRANCH   6   7
ENDBRANCH   5   6
ENDBRANCH   4   5
ENDBRANCH   3   4
ENDBRANCH   2   3
TORSDOF 5
ENDMDL
MODEL      165
REMARK 921   NORMALIZED FREE ENERGY PREDICTED BY IDOCK:   -3.34 KCAL/MOL
REMARK 922        TOTAL FREE ENERGY PREDICTED BY IDOCK:   -4.72 KCAL/MOL
REMARK 923 INTER-LIGAND FREE ENERGY PREDICTED BY IDOCK:   -4.45 KCAL/MOL
REMARK 924 INTRA-LIGAND FREE ENERGY PREDICTED BY IDOCK:   -0.27 KCAL/MOL
REMARK 927      BINDING AFFINITY PREDICTED BY RF-SCORE:    0.00 PKD
ROOT
HETATM    1  C   UNL     1      -9.254  10.423  62.347  1.00  0.00    -0.304 C  
HETATM    2  C   UNL     1      -9.937  11.361  63.331  1.00  0.00    -0.435 C  
ENDROOT
BRANCH   2   3
HETATM    3  C   UNL     1      -9.816  10.843  64.763  1.00  0.00    -0.343 C  
BRANCH   3   4
HETATM    4  C   UNL     1      -9.194  11.885  65.693  1.00  0.00    -0.060 C  
BRANCH   4   5
HETATM    5  C   UNL     1     -10.045  13.155  65.739  1.00  0.00    -0.290 C  
BRANCH   5   6
HETATM    6  C   UNL     1     -11.511  12.837  66.035  1.00  0.00    -0.396 C  
BRANCH   6   7
HETATM    7  C   UNL     1     -11.758  12.650  67.513  1.00  0.00    -0.429 A  
HETATM    8  C   UNL     1     -11.719  11.401  68.147  1.00  0.00    -0.284 A  
HETATM    9  C   UNL     1     -11.918  11.281  69.523  1.00  0.00    -0.421 A  
HETATM   10  O   UNL     1     -11.494  10.232  67.477  1.00  0.00    -0.527 OA 
HETATM   11  H   UNL     1     -11.467   9.385  67.907  1.00  0.00     0.000 HD 
HETATM   12  C   UNL     1     -12.191  12.418  70.275  1.00  0.00    -0.267 A  
HETATM   13  C   UNL     1     -12.265  13.664  69.670  1.00  0.00    -0.326 A  
HETATM   14  O   UNL     1     -12.399  12.348  71.620  1.00  0.00    -0.049 OA 
HETATM   15  H   UNL     1     -12.585  13.125  72.134  1.00  0.00     0.000 HD 
HETATM   16  C   UNL     1     -12.049  13.781  68.295  1.00  0.00    -0.314 A  
ENDBRANCH   6   7
ENDBRANCH   5   6
ENDBRANCH   4   5
ENDBRANCH   3   4
ENDBRANCH   2   3
TORSDOF 5
ENDMDL
MODEL      166
REMARK 921   NORMALIZED FREE ENERGY PREDICTED BY IDOCK:   -3.34 KCAL/MOL
REMARK 922        TOTAL FREE ENERGY PREDICTED BY IDOCK:   -4.72 KCAL/MOL
REMARK 923 INTER-LIGAND FREE ENERGY PREDICTED BY IDOCK:   -4.05 KCAL/MOL
REMARK 924 INTRA-LIGAND FREE ENERGY PREDICTED BY IDOCK:   -0.67 KCAL/MOL
REMARK 927      BINDING AFFINITY PREDICTED BY RF-SCORE:    0.00 PKD
ROOT
HETATM    1  C   UNL     1      -7.829   5.042  73.311  1.00  0.00    -0.097 C  
HETATM    2  C   UNL     1      -7.063   6.355  73.353  1.00  0.00    -0.082 C  
ENDROOT
BRANCH   2   3
HETATM    3  C   UNL     1      -6.154   6.504  72.135  1.00  0.00    -0.038 C  
BRANCH   3   4
HETATM    4  C   UNL     1      -6.703   7.528  71.140  1.00  0.00    -0.046 C  
BRANCH   4   5
HETATM    5  C   UNL     1      -7.623   8.531  71.837  1.00  0.00    -0.139 C  
BRANCH   5   6
HETATM    6  C   UNL     1      -8.576   9.200  70.847  1.00  0.00    -0.259 C  
BRANCH   6   7
HETATM    7  C   UNL     1     -10.016   9.087  71.290  1.00  0.00    -0.381 A  
HETATM    8  C   UNL     1     -11.042   9.897  70.783  1.00  0.00    -0.347 A  
HETATM    9  C   UNL     1     -12.364   9.733  71.195  1.00  0.00    -0.451 A  
HETATM   10  O   UNL     1     -10.825  10.891  69.871  1.00  0.00    -0.397 OA 
HETATM   11  H   UNL     1     -11.520  11.440  69.528  1.00  0.00     0.000 HD 
HETATM   12  C   UNL     1     -12.667   8.767  72.149  1.00  0.00    -0.400 A  
HETATM   13  C   UNL     1     -11.668   7.971  72.691  1.00  0.00    -0.418 A  
HETATM   14  O   UNL     1     -13.944   8.576  72.587  1.00  0.00    -0.635 OA 
HETATM   15  H   UNL     1     -14.151   7.917  73.238  1.00  0.00     0.000 HD 
HETATM   16  C   UNL     1     -10.348   8.129  72.263  1.00  0.00    -0.361 A  
ENDBRANCH   6   7
ENDBRANCH   5   6
ENDBRANCH   4   5
ENDBRANCH   3   4
ENDBRANCH   2   3
TORSDOF 5
ENDMDL
MODEL      167
REMARK 921   NORMALIZED FREE ENERGY PREDICTED BY IDOCK:   -3.33 KCAL/MOL
REMARK 922        TOTAL FREE ENERGY PREDICTED BY IDOCK:   -4.70 KCAL/MOL
REMARK 923 INTER-LIGAND FREE ENERGY PREDICTED BY IDOCK:   -4.07 KCAL/MOL
REMARK 924 INTRA-LIGAND FREE ENERGY PREDICTED BY IDOCK:   -0.64 KCAL/MOL
REMARK 927      BINDING AFFINITY PREDICTED BY RF-SCORE:    0.00 PKD
ROOT
HETATM    1  C   UNL     1      -9.970   3.291  71.953  1.00  0.00    -0.209 C  
HETATM    2  C   UNL     1     -10.626   2.910  73.271  1.00  0.00    -0.262 C  
ENDROOT
BRANCH   2   3
HETATM    3  C   UNL     1     -10.715   4.110  74.211  1.00  0.00    -0.259 C  
BRANCH   3   4
HETATM    4  C   UNL     1      -9.563   5.091  73.991  1.00  0.00    -0.139 C  
BRANCH   4   5
HETATM    5  C   UNL     1      -9.905   6.473  74.550  1.00  0.00    -0.355 C  
BRANCH   5   6
HETATM    6  C   UNL     1      -9.586   7.579  73.544  1.00  0.00    -0.339 C  
BRANCH   6   7
HETATM    7  C   UNL     1     -10.146   7.272  72.175  1.00  0.00    -0.207 A  
HETATM    8  C   UNL     1     -11.494   7.454  71.838  1.00  0.00    -0.266 A  
HETATM    9  C   UNL     1     -11.959   7.191  70.549  1.00  0.00    -0.258 A  
HETATM   10  O   UNL     1     -12.434   7.887  72.730  1.00  0.00    -0.583 OA 
HETATM   11  H   UNL     1     -13.347   8.010  72.501  1.00  0.00     0.000 HD 
HETATM   12  C   UNL     1     -11.076   6.711  69.589  1.00  0.00    -0.334 A  
HETATM   13  C   UNL     1      -9.742   6.493  69.902  1.00  0.00    -0.176 A  
HETATM   14  O   UNL     1     -11.487   6.434  68.319  1.00  0.00    -0.522 OA 
HETATM   15  H   UNL     1     -10.884   6.106  67.663  1.00  0.00     0.000 HD 
HETATM   16  C   UNL     1      -9.277   6.773  71.189  1.00  0.00    -0.159 A  
ENDBRANCH   6   7
ENDBRANCH   5   6
ENDBRANCH   4   5
ENDBRANCH   3   4
ENDBRANCH   2   3
TORSDOF 5
ENDMDL
MODEL      168
REMARK 921   NORMALIZED FREE ENERGY PREDICTED BY IDOCK:   -3.32 KCAL/MOL
REMARK 922        TOTAL FREE ENERGY PREDICTED BY IDOCK:   -4.70 KCAL/MOL
REMARK 923 INTER-LIGAND FREE ENERGY PREDICTED BY IDOCK:   -4.38 KCAL/MOL
REMARK 924 INTRA-LIGAND FREE ENERGY PREDICTED BY IDOCK:   -0.32 KCAL/MOL
REMARK 927      BINDING AFFINITY PREDICTED BY RF-SCORE:    0.00 PKD
ROOT
HETATM    1  C   UNL     1     -10.080  11.612  63.341  1.00  0.00    -0.468 C  
HETATM    2  C   UNL     1     -11.368  11.475  64.138  1.00  0.00    -0.349 C  
ENDROOT
BRANCH   2   3
HETATM    3  C   UNL     1     -12.052  12.829  64.321  1.00  0.00    -0.497 C  
BRANCH   3   4
HETATM    4  C   UNL     1     -11.038  13.971  64.400  1.00  0.00    -0.300 C  
BRANCH   4   5
HETATM    5  C   UNL     1     -11.270  14.824  65.648  1.00  0.00    -0.343 C  
BRANCH   5   6
HETATM    6  C   UNL     1     -10.503  16.144  65.575  1.00  0.00    -0.407 C  
BRANCH   6   7
HETATM    7  C   UNL     1      -9.476  16.258  66.677  1.00  0.00    -0.269 A  
HETATM    8  C   UNL     1      -9.809  16.493  68.018  1.00  0.00    -0.240 A  
HETATM    9  C   UNL     1      -8.828  16.555  69.008  1.00  0.00    -0.223 A  
HETATM   10  O   UNL     1     -11.094  16.681  68.445  1.00  0.00    -0.359 OA 
HETATM   11  H   UNL     1     -11.319  16.840  69.353  1.00  0.00     0.000 HD 
HETATM   12  C   UNL     1      -7.491  16.411  68.653  1.00  0.00    -0.194 A  
HETATM   13  C   UNL     1      -7.128  16.208  67.330  1.00  0.00    -0.209 A  
HETATM   14  O   UNL     1      -6.498  16.472  69.586  1.00  0.00    -0.215 OA 
HETATM   15  H   UNL     1      -5.585  16.373  69.344  1.00  0.00     0.000 HD 
HETATM   16  C   UNL     1      -8.116  16.131  66.345  1.00  0.00    -0.305 A  
ENDBRANCH   6   7
ENDBRANCH   5   6
ENDBRANCH   4   5
ENDBRANCH   3   4
ENDBRANCH   2   3
TORSDOF 5
ENDMDL
MODEL      169
REMARK 921   NORMALIZED FREE ENERGY PREDICTED BY IDOCK:   -3.30 KCAL/MOL
REMARK 922        TOTAL FREE ENERGY PREDICTED BY IDOCK:   -4.67 KCAL/MOL
REMARK 923 INTER-LIGAND FREE ENERGY PREDICTED BY IDOCK:   -4.30 KCAL/MOL
REMARK 924 INTRA-LIGAND FREE ENERGY PREDICTED BY IDOCK:   -0.38 KCAL/MOL
REMARK 927      BINDING AFFINITY PREDICTED BY RF-SCORE:    0.00 PKD
ROOT
HETATM    1  C   UNL     1      -9.442  10.438  62.886  1.00  0.00    -0.354 C  
HETATM    2  C   UNL     1     -10.532  11.296  63.509  1.00  0.00    -0.457 C  
ENDROOT
BRANCH   2   3
HETATM    3  C   UNL     1     -10.295  11.490  65.006  1.00  0.00    -0.333 C  
BRANCH   3   4
HETATM    4  C   UNL     1     -10.277  12.970  65.390  1.00  0.00    -0.301 C  
BRANCH   4   5
HETATM    5  C   UNL     1     -11.699  13.506  65.572  1.00  0.00    -0.361 C  
BRANCH   5   6
HETATM    6  C   UNL     1     -11.873  14.182  66.932  1.00  0.00    -0.458 C  
BRANCH   6   7
HETATM    7  C   UNL     1     -10.801  15.215  67.187  1.00  0.00    -0.320 A  
HETATM    8  C   UNL     1      -9.835  15.089  68.195  1.00  0.00    -0.216 A  
HETATM    9  C   UNL     1      -8.842  16.052  68.370  1.00  0.00    -0.188 A  
HETATM   10  O   UNL     1      -9.801  14.038  69.067  1.00  0.00    -0.405 OA 
HETATM   11  H   UNL     1      -9.147  13.952  69.750  1.00  0.00     0.000 HD 
HETATM   12  C   UNL     1      -8.826  17.174  67.549  1.00  0.00    -0.216 A  
HETATM   13  C   UNL     1      -9.786  17.341  66.562  1.00  0.00    -0.306 A  
HETATM   14  O   UNL     1      -7.878  18.144  67.688  1.00  0.00    -0.220 OA 
HETATM   15  H   UNL     1      -7.867  18.910  67.127  1.00  0.00     0.000 HD 
HETATM   16  C   UNL     1     -10.769  16.366  66.380  1.00  0.00    -0.161 A  
ENDBRANCH   6   7
ENDBRANCH   5   6
ENDBRANCH   4   5
ENDBRANCH   3   4
ENDBRANCH   2   3
TORSDOF 5
ENDMDL
MODEL      170
REMARK 921   NORMALIZED FREE ENERGY PREDICTED BY IDOCK:   -3.27 KCAL/MOL
REMARK 922        TOTAL FREE ENERGY PREDICTED BY IDOCK:   -4.63 KCAL/MOL
REMARK 923 INTER-LIGAND FREE ENERGY PREDICTED BY IDOCK:   -4.29 KCAL/MOL
REMARK 924 INTRA-LIGAND FREE ENERGY PREDICTED BY IDOCK:   -0.34 KCAL/MOL
REMARK 927      BINDING AFFINITY PREDICTED BY RF-SCORE:    0.00 PKD
ROOT
HETATM    1  C   UNL     1      -6.037  13.122  69.067  1.00  0.00    -0.089 C  
HETATM    2  C   UNL     1      -6.906  12.245  68.179  1.00  0.00    -0.078 C  
ENDROOT
BRANCH   2   3
HETATM    3  C   UNL     1      -8.380  12.628  68.295  1.00  0.00    -0.165 C  
BRANCH   3   4
HETATM    4  C   UNL     1      -8.773  13.691  67.268  1.00  0.00    -0.223 C  
BRANCH   4   5
HETATM    5  C   UNL     1      -9.421  14.898  67.949  1.00  0.00    -0.200 C  
BRANCH   5   6
HETATM    6  C   UNL     1     -10.947  14.821  67.893  1.00  0.00    -0.282 C  
BRANCH   6   7
HETATM    7  C   UNL     1     -11.429  14.162  66.622  1.00  0.00    -0.378 A  
HETATM    8  C   UNL     1     -11.937  12.856  66.578  1.00  0.00    -0.377 A  
HETATM    9  C   UNL     1     -12.405  12.302  65.387  1.00  0.00    -0.168 A  
HETATM   10  O   UNL     1     -12.002  12.045  67.675  1.00  0.00    -0.547 OA 
HETATM   11  H   UNL     1     -12.347  11.160  67.645  1.00  0.00     0.000 HD 
HETATM   12  C   UNL     1     -12.339  13.047  64.215  1.00  0.00    -0.366 A  
HETATM   13  C   UNL     1     -11.815  14.331  64.222  1.00  0.00    -0.401 A  
HETATM   14  O   UNL     1     -12.778  12.543  63.026  1.00  0.00    -0.669 OA 
HETATM   15  H   UNL     1     -12.734  13.052  62.226  1.00  0.00     0.000 HD 
HETATM   16  C   UNL     1     -11.362  14.888  65.420  1.00  0.00    -0.346 A  
ENDBRANCH   6   7
ENDBRANCH   5   6
ENDBRANCH   4   5
ENDBRANCH   3   4
ENDBRANCH   2   3
TORSDOF 5
ENDMDL
MODEL      171
REMARK 921   NORMALIZED FREE ENERGY PREDICTED BY IDOCK:   -3.27 KCAL/MOL
REMARK 922        TOTAL FREE ENERGY PREDICTED BY IDOCK:   -4.63 KCAL/MOL
REMARK 923 INTER-LIGAND FREE ENERGY PREDICTED BY IDOCK:   -3.95 KCAL/MOL
REMARK 924 INTRA-LIGAND FREE ENERGY PREDICTED BY IDOCK:   -0.68 KCAL/MOL
REMARK 927      BINDING AFFINITY PREDICTED BY RF-SCORE:    0.00 PKD
ROOT
HETATM    1  C   UNL     1     -11.799  12.566  63.332  1.00  0.00    -0.587 C  
HETATM    2  C   UNL     1     -10.911  13.213  64.384  1.00  0.00    -0.417 C  
ENDROOT
BRANCH   2   3
HETATM    3  C   UNL     1     -11.292  14.676  64.604  1.00  0.00    -0.372 C  
BRANCH   3   4
HETATM    4  C   UNL     1     -11.355  15.028  66.091  1.00  0.00    -0.270 C  
BRANCH   4   5
HETATM    5  C   UNL     1     -11.950  13.875  66.902  1.00  0.00    -0.467 C  
BRANCH   5   6
HETATM    6  C   UNL     1     -11.213  13.683  68.228  1.00  0.00    -0.302 C  
BRANCH   6   7
HETATM    7  C   UNL     1      -9.716  13.625  68.035  1.00  0.00    -0.226 A  
HETATM    8  C   UNL     1      -8.850  14.656  68.426  1.00  0.00    -0.181 A  
HETATM    9  C   UNL     1      -7.469  14.543  68.261  1.00  0.00    -0.120 A  
HETATM   10  O   UNL     1      -9.286  15.827  68.979  1.00  0.00    -0.210 OA 
HETATM   11  H   UNL     1      -8.699  16.525  69.244  1.00  0.00     0.000 HD 
HETATM   12  C   UNL     1      -6.944  13.399  67.670  1.00  0.00    -0.162 A  
HETATM   13  C   UNL     1      -7.778  12.375  67.246  1.00  0.00    -0.158 A  
HETATM   14  O   UNL     1      -5.602  13.248  67.482  1.00  0.00    -0.287 OA 
HETATM   15  H   UNL     1      -5.243  12.467  67.079  1.00  0.00     0.000 HD 
HETATM   16  C   UNL     1      -9.159  12.486  67.428  1.00  0.00    -0.185 A  
ENDBRANCH   6   7
ENDBRANCH   5   6
ENDBRANCH   4   5
ENDBRANCH   3   4
ENDBRANCH   2   3
TORSDOF 5
ENDMDL
MODEL      172
REMARK 921   NORMALIZED FREE ENERGY PREDICTED BY IDOCK:   -3.26 KCAL/MOL
REMARK 922        TOTAL FREE ENERGY PREDICTED BY IDOCK:   -4.62 KCAL/MOL
REMARK 923 INTER-LIGAND FREE ENERGY PREDICTED BY IDOCK:   -4.31 KCAL/MOL
REMARK 924 INTRA-LIGAND FREE ENERGY PREDICTED BY IDOCK:   -0.32 KCAL/MOL
REMARK 927      BINDING AFFINITY PREDICTED BY RF-SCORE:    0.00 PKD
ROOT
HETATM    1  C   UNL     1      -8.971   8.988  69.265  1.00  0.00    -0.144 C  
HETATM    2  C   UNL     1     -10.013   8.172  68.517  1.00  0.00    -0.204 C  
ENDROOT
BRANCH   2   3
HETATM    3  C   UNL     1      -9.749   8.183  67.012  1.00  0.00    -0.275 C  
BRANCH   3   4
HETATM    4  C   UNL     1     -10.407   9.383  66.330  1.00  0.00    -0.211 C  
BRANCH   4   5
HETATM    5  C   UNL     1      -9.376  10.203  65.552  1.00  0.00    -0.260 C  
BRANCH   5   6
HETATM    6  C   UNL     1     -10.031  11.371  64.813  1.00  0.00    -0.313 C  
BRANCH   6   7
HETATM    7  C   UNL     1     -10.503  12.444  65.765  1.00  0.00    -0.288 A  
HETATM    8  C   UNL     1      -9.632  13.214  66.549  1.00  0.00    -0.268 A  
HETATM    9  C   UNL     1     -10.110  14.220  67.388  1.00  0.00    -0.247 A  
HETATM   10  O   UNL     1      -8.277  13.033  66.553  1.00  0.00    -0.395 OA 
HETATM   11  H   UNL     1      -7.687  13.555  67.084  1.00  0.00     0.000 HD 
HETATM   12  C   UNL     1     -11.480  14.445  67.471  1.00  0.00    -0.349 A  
HETATM   13  C   UNL     1     -12.368  13.680  66.730  1.00  0.00    -0.354 A  
HETATM   14  O   UNL     1     -11.994  15.413  68.283  1.00  0.00    -0.500 OA 
HETATM   15  H   UNL     1     -12.929  15.566  68.340  1.00  0.00     0.000 HD 
HETATM   16  C   UNL     1     -11.883  12.684  65.880  1.00  0.00    -0.499 A  
ENDBRANCH   6   7
ENDBRANCH   5   6
ENDBRANCH   4   5
ENDBRANCH   3   4
ENDBRANCH   2   3
TORSDOF 5
ENDMDL
MODEL      173
REMARK 921   NORMALIZED FREE ENERGY PREDICTED BY IDOCK:   -3.26 KCAL/MOL
REMARK 922        TOTAL FREE ENERGY PREDICTED BY IDOCK:   -4.62 KCAL/MOL
REMARK 923 INTER-LIGAND FREE ENERGY PREDICTED BY IDOCK:   -4.01 KCAL/MOL
REMARK 924 INTRA-LIGAND FREE ENERGY PREDICTED BY IDOCK:   -0.61 KCAL/MOL
REMARK 927      BINDING AFFINITY PREDICTED BY RF-SCORE:    0.00 PKD
ROOT
HETATM    1  C   UNL     1     -12.050  14.210  64.426  1.00  0.00    -0.486 C  
HETATM    2  C   UNL     1     -12.600  12.793  64.490  1.00  0.00    -0.463 C  
ENDROOT
BRANCH   2   3
HETATM    3  C   UNL     1     -11.884  11.876  63.501  1.00  0.00    -0.560 C  
BRANCH   3   4
HETATM    4  C   UNL     1     -10.388  11.773  63.802  1.00  0.00    -0.451 C  
BRANCH   4   5
HETATM    5  C   UNL     1     -10.100  10.607  64.749  1.00  0.00    -0.412 C  
BRANCH   5   6
HETATM    6  C   UNL     1     -10.269  11.017  66.212  1.00  0.00    -0.295 C  
BRANCH   6   7
HETATM    7  C   UNL     1      -9.128  11.885  66.687  1.00  0.00    -0.203 A  
HETATM    8  C   UNL     1      -7.842  11.390  66.946  1.00  0.00    -0.158 A  
HETATM    9  C   UNL     1      -6.809  12.236  67.349  1.00  0.00    -0.145 A  
HETATM   10  O   UNL     1      -7.515  10.068  66.832  1.00  0.00    -0.094 OA 
HETATM   11  H   UNL     1      -6.644   9.733  67.007  1.00  0.00     0.000 HD 
HETATM   12  C   UNL     1      -7.066  13.591  67.527  1.00  0.00    -0.148 A  
HETATM   13  C   UNL     1      -8.335  14.104  67.307  1.00  0.00    -0.212 A  
HETATM   14  O   UNL     1      -6.088  14.453  67.927  1.00  0.00    -0.141 OA 
HETATM   15  H   UNL     1      -6.263  15.379  68.048  1.00  0.00     0.000 HD 
HETATM   16  C   UNL     1      -9.363  13.256  66.888  1.00  0.00    -0.244 A  
ENDBRANCH   6   7
ENDBRANCH   5   6
ENDBRANCH   4   5
ENDBRANCH   3   4
ENDBRANCH   2   3
TORSDOF 5
ENDMDL
MODEL      174
REMARK 921   NORMALIZED FREE ENERGY PREDICTED BY IDOCK:   -3.26 KCAL/MOL
REMARK 922        TOTAL FREE ENERGY PREDICTED BY IDOCK:   -4.61 KCAL/MOL
REMARK 923 INTER-LIGAND FREE ENERGY PREDICTED BY IDOCK:   -4.29 KCAL/MOL
REMARK 924 INTRA-LIGAND FREE ENERGY PREDICTED BY IDOCK:   -0.33 KCAL/MOL
REMARK 927      BINDING AFFINITY PREDICTED BY RF-SCORE:    0.00 PKD
ROOT
HETATM    1  C   UNL     1      -8.409   9.478  66.864  1.00  0.00    -0.116 C  
HETATM    2  C   UNL     1      -8.604   9.861  65.405  1.00  0.00    -0.164 C  
ENDROOT
BRANCH   2   3
HETATM    3  C   UNL     1      -9.898  10.650  65.209  1.00  0.00    -0.334 C  
BRANCH   3   4
HETATM    4  C   UNL     1     -10.840  10.502  66.404  1.00  0.00    -0.094 C  
BRANCH   4   5
HETATM    5  C   UNL     1     -11.410  11.858  66.823  1.00  0.00    -0.393 C  
BRANCH   5   6
HETATM    6  C   UNL     1     -10.774  12.356  68.122  1.00  0.00    -0.243 C  
BRANCH   6   7
HETATM    7  C   UNL     1     -11.537  11.885  69.337  1.00  0.00    -0.388 A  
HETATM    8  C   UNL     1     -12.098  12.759  70.279  1.00  0.00    -0.297 A  
HETATM    9  C   UNL     1     -12.826  12.280  71.368  1.00  0.00    -0.373 A  
HETATM   10  O   UNL     1     -11.969  14.118  70.205  1.00  0.00    -0.292 OA 
HETATM   11  H   UNL     1     -12.349  14.709  70.843  1.00  0.00     0.000 HD 
HETATM   12  C   UNL     1     -12.974  10.908  71.539  1.00  0.00    -0.451 A  
HETATM   13  C   UNL     1     -12.405  10.018  70.640  1.00  0.00    -0.342 A  
HETATM   14  O   UNL     1     -13.671  10.393  72.592  1.00  0.00    -0.485 OA 
HETATM   15  H   UNL     1     -13.772   9.457  72.709  1.00  0.00     0.000 HD 
HETATM   16  C   UNL     1     -11.690  10.503  69.543  1.00  0.00    -0.313 A  
ENDBRANCH   6   7
ENDBRANCH   5   6
ENDBRANCH   4   5
ENDBRANCH   3   4
ENDBRANCH   2   3
TORSDOF 5
ENDMDL
MODEL      175
REMARK 921   NORMALIZED FREE ENERGY PREDICTED BY IDOCK:   -3.25 KCAL/MOL
REMARK 922        TOTAL FREE ENERGY PREDICTED BY IDOCK:   -4.61 KCAL/MOL
REMARK 923 INTER-LIGAND FREE ENERGY PREDICTED BY IDOCK:   -4.25 KCAL/MOL
REMARK 924 INTRA-LIGAND FREE ENERGY PREDICTED BY IDOCK:   -0.36 KCAL/MOL
REMARK 927      BINDING AFFINITY PREDICTED BY RF-SCORE:    0.00 PKD
ROOT
HETATM    1  C   UNL     1     -12.713  10.652  71.406  1.00  0.00    -0.545 C  
HETATM    2  C   UNL     1     -11.824   9.467  71.749  1.00  0.00    -0.452 C  
ENDROOT
BRANCH   2   3
HETATM    3  C   UNL     1     -11.214   8.851  70.491  1.00  0.00    -0.287 C  
BRANCH   3   4
HETATM    4  C   UNL     1     -10.951   9.904  69.413  1.00  0.00    -0.263 C  
BRANCH   4   5
HETATM    5  C   UNL     1      -9.923   9.404  68.398  1.00  0.00    -0.191 C  
BRANCH   5   6
HETATM    6  C   UNL     1     -10.597   8.853  67.142  1.00  0.00    -0.301 C  
BRANCH   6   7
HETATM    7  C   UNL     1     -10.208   9.632  65.908  1.00  0.00    -0.219 A  
HETATM    8  C   UNL     1     -10.767  10.875  65.575  1.00  0.00    -0.112 A  
HETATM    9  C   UNL     1     -10.350  11.576  64.443  1.00  0.00    -0.364 A  
HETATM   10  O   UNL     1     -11.745  11.475  66.317  1.00  0.00    -0.384 OA 
HETATM   11  H   UNL     1     -12.122  12.316  66.091  1.00  0.00     0.000 HD 
HETATM   12  C   UNL     1      -9.385  11.018  63.612  1.00  0.00    -0.238 A  
HETATM   13  C   UNL     1      -8.836   9.777  63.899  1.00  0.00    -0.259 A  
HETATM   14  O   UNL     1      -8.952  11.664  62.492  1.00  0.00    -0.521 OA 
HETATM   15  H   UNL     1      -8.293  11.284  61.924  1.00  0.00     0.000 HD 
HETATM   16  C   UNL     1      -9.244   9.087  65.042  1.00  0.00    -0.116 A  
ENDBRANCH   6   7
ENDBRANCH   5   6
ENDBRANCH   4   5
ENDBRANCH   3   4
ENDBRANCH   2   3
TORSDOF 5
ENDMDL
MODEL      176
REMARK 921   NORMALIZED FREE ENERGY PREDICTED BY IDOCK:   -3.25 KCAL/MOL
REMARK 922        TOTAL FREE ENERGY PREDICTED BY IDOCK:   -4.61 KCAL/MOL
REMARK 923 INTER-LIGAND FREE ENERGY PREDICTED BY IDOCK:   -4.13 KCAL/MOL
REMARK 924 INTRA-LIGAND FREE ENERGY PREDICTED BY IDOCK:   -0.47 KCAL/MOL
REMARK 927      BINDING AFFINITY PREDICTED BY RF-SCORE:    0.00 PKD
ROOT
HETATM    1  C   UNL     1     -11.961  12.221  70.268  1.00  0.00    -0.373 C  
HETATM    2  C   UNL     1     -12.154  10.813  70.809  1.00  0.00    -0.473 C  
ENDROOT
BRANCH   2   3
HETATM    3  C   UNL     1     -13.215  10.783  71.908  1.00  0.00    -0.524 C  
BRANCH   3   4
HETATM    4  C   UNL     1     -13.556   9.353  72.329  1.00  0.00    -0.532 C  
BRANCH   4   5
HETATM    5  C   UNL     1     -12.572   8.353  71.719  1.00  0.00    -0.378 C  
BRANCH   5   6
HETATM    6  C   UNL     1     -11.426   8.036  72.681  1.00  0.00    -0.465 C  
BRANCH   6   7
HETATM    7  C   UNL     1     -10.140   7.743  71.945  1.00  0.00    -0.231 A  
HETATM    8  C   UNL     1      -9.896   6.537  71.274  1.00  0.00    -0.181 A  
HETATM    9  C   UNL     1      -8.706   6.324  70.577  1.00  0.00    -0.143 A  
HETATM   10  O   UNL     1     -10.784   5.499  71.259  1.00  0.00    -0.251 OA 
HETATM   11  H   UNL     1     -10.619   4.682  70.804  1.00  0.00     0.000 HD 
HETATM   12  C   UNL     1      -7.732   7.316  70.572  1.00  0.00    -0.093 A  
HETATM   13  C   UNL     1      -7.932   8.508  71.252  1.00  0.00    -0.158 A  
HETATM   14  O   UNL     1      -6.551   7.149  69.911  1.00  0.00    -0.042 OA 
HETATM   15  H   UNL     1      -5.885   7.826  69.907  1.00  0.00     0.000 HD 
HETATM   16  C   UNL     1      -9.132   8.722  71.935  1.00  0.00    -0.291 A  
ENDBRANCH   6   7
ENDBRANCH   5   6
ENDBRANCH   4   5
ENDBRANCH   3   4
ENDBRANCH   2   3
TORSDOF 5
ENDMDL
MODEL      177
REMARK 921   NORMALIZED FREE ENERGY PREDICTED BY IDOCK:   -3.25 KCAL/MOL
REMARK 922        TOTAL FREE ENERGY PREDICTED BY IDOCK:   -4.61 KCAL/MOL
REMARK 923 INTER-LIGAND FREE ENERGY PREDICTED BY IDOCK:   -4.06 KCAL/MOL
REMARK 924 INTRA-LIGAND FREE ENERGY PREDICTED BY IDOCK:   -0.54 KCAL/MOL
REMARK 927      BINDING AFFINITY PREDICTED BY RF-SCORE:    0.00 PKD
ROOT
HETATM    1  C   UNL     1     -10.341   5.660  67.192  1.00  0.00    -0.301 C  
HETATM    2  C   UNL     1      -9.870   5.277  68.587  1.00  0.00    -0.216 C  
ENDROOT
BRANCH   2   3
HETATM    3  C   UNL     1      -9.653   6.515  69.456  1.00  0.00    -0.152 C  
BRANCH   3   4
HETATM    4  C   UNL     1     -10.547   6.501  70.696  1.00  0.00    -0.280 C  
BRANCH   4   5
HETATM    5  C   UNL     1     -11.624   7.584  70.607  1.00  0.00    -0.272 C  
BRANCH   5   6
HETATM    6  C   UNL     1     -11.107   8.931  71.113  1.00  0.00    -0.354 C  
BRANCH   6   7
HETATM    7  C   UNL     1     -11.349  10.036  70.113  1.00  0.00    -0.357 A  
HETATM    8  C   UNL     1     -11.989  11.240  70.437  1.00  0.00    -0.380 A  
HETATM    9  C   UNL     1     -12.158  12.249  69.489  1.00  0.00    -0.260 A  
HETATM   10  O   UNL     1     -12.491  11.506  71.680  1.00  0.00    -0.219 OA 
HETATM   11  H   UNL     1     -12.925  12.322  71.900  1.00  0.00     0.000 HD 
HETATM   12  C   UNL     1     -11.709  12.045  68.189  1.00  0.00    -0.333 A  
HETATM   13  C   UNL     1     -11.098  10.852  67.830  1.00  0.00    -0.362 A  
HETATM   14  O   UNL     1     -11.859  12.999  67.226  1.00  0.00    -0.362 OA 
HETATM   15  H   UNL     1     -11.552  12.860  66.339  1.00  0.00     0.000 HD 
HETATM   16  C   UNL     1     -10.917   9.852  68.788  1.00  0.00    -0.217 A  
ENDBRANCH   6   7
ENDBRANCH   5   6
ENDBRANCH   4   5
ENDBRANCH   3   4
ENDBRANCH   2   3
TORSDOF 5
ENDMDL
MODEL      178
REMARK 921   NORMALIZED FREE ENERGY PREDICTED BY IDOCK:   -3.25 KCAL/MOL
REMARK 922        TOTAL FREE ENERGY PREDICTED BY IDOCK:   -4.60 KCAL/MOL
REMARK 923 INTER-LIGAND FREE ENERGY PREDICTED BY IDOCK:   -4.20 KCAL/MOL
REMARK 924 INTRA-LIGAND FREE ENERGY PREDICTED BY IDOCK:   -0.40 KCAL/MOL
REMARK 927      BINDING AFFINITY PREDICTED BY RF-SCORE:    0.00 PKD
ROOT
HETATM    1  C   UNL     1     -10.008   3.110  72.092  1.00  0.00    -0.232 C  
HETATM    2  C   UNL     1     -10.799   3.134  73.391  1.00  0.00    -0.307 C  
ENDROOT
BRANCH   2   3
HETATM    3  C   UNL     1     -10.959   4.560  73.915  1.00  0.00    -0.326 C  
BRANCH   3   4
HETATM    4  C   UNL     1     -10.917   5.589  72.784  1.00  0.00    -0.324 C  
BRANCH   4   5
HETATM    5  C   UNL     1     -10.690   6.998  73.333  1.00  0.00    -0.379 C  
BRANCH   5   6
HETATM    6  C   UNL     1     -11.375   8.055  72.467  1.00  0.00    -0.469 C  
BRANCH   6   7
HETATM    7  C   UNL     1     -10.587   8.350  71.212  1.00  0.00    -0.279 A  
HETATM    8  C   UNL     1     -10.916   7.822  69.956  1.00  0.00    -0.214 A  
HETATM    9  C   UNL     1     -10.180   8.151  68.817  1.00  0.00    -0.221 A  
HETATM   10  O   UNL     1     -11.957   6.959  69.759  1.00  0.00    -0.625 OA 
HETATM   11  H   UNL     1     -12.180   6.602  68.908  1.00  0.00     0.000 HD 
HETATM   12  C   UNL     1      -9.081   8.995  68.936  1.00  0.00    -0.140 A  
HETATM   13  C   UNL     1      -8.713   9.508  70.171  1.00  0.00    -0.258 A  
HETATM   14  O   UNL     1      -8.328   9.338  67.852  1.00  0.00    -0.115 OA 
HETATM   15  H   UNL     1      -7.578   9.914  67.932  1.00  0.00     0.000 HD 
HETATM   16  C   UNL     1      -9.463   9.189  71.305  1.00  0.00    -0.313 A  
ENDBRANCH   6   7
ENDBRANCH   5   6
ENDBRANCH   4   5
ENDBRANCH   3   4
ENDBRANCH   2   3
TORSDOF 5
ENDMDL
MODEL      179
REMARK 921   NORMALIZED FREE ENERGY PREDICTED BY IDOCK:   -3.24 KCAL/MOL
REMARK 922        TOTAL FREE ENERGY PREDICTED BY IDOCK:   -4.59 KCAL/MOL
REMARK 923 INTER-LIGAND FREE ENERGY PREDICTED BY IDOCK:   -4.21 KCAL/MOL
REMARK 924 INTRA-LIGAND FREE ENERGY PREDICTED BY IDOCK:   -0.38 KCAL/MOL
REMARK 927      BINDING AFFINITY PREDICTED BY RF-SCORE:    0.00 PKD
ROOT
HETATM    1  C   UNL     1      -9.914  11.570  65.163  1.00  0.00    -0.304 C  
HETATM    2  C   UNL     1     -10.972  11.371  66.237  1.00  0.00    -0.303 C  
ENDROOT
BRANCH   2   3
HETATM    3  C   UNL     1     -11.634  12.694  66.615  1.00  0.00    -0.443 C  
BRANCH   3   4
HETATM    4  C   UNL     1     -11.102  13.236  67.942  1.00  0.00    -0.287 C  
BRANCH   4   5
HETATM    5  C   UNL     1     -11.554  14.681  68.165  1.00  0.00    -0.362 C  
BRANCH   5   6
HETATM    6  C   UNL     1     -10.900  15.288  69.405  1.00  0.00    -0.263 C  
BRANCH   6   7
HETATM    7  C   UNL     1      -9.736  16.181  69.046  1.00  0.00    -0.248 A  
HETATM    8  C   UNL     1      -8.396  15.803  69.214  1.00  0.00    -0.249 A  
HETATM    9  C   UNL     1      -7.353  16.647  68.834  1.00  0.00    -0.225 A  
HETATM   10  O   UNL     1      -8.022  14.606  69.758  1.00  0.00    -0.406 OA 
HETATM   11  H   UNL     1      -7.115  14.350  69.872  1.00  0.00     0.000 HD 
HETATM   12  C   UNL     1      -7.645  17.899  68.306  1.00  0.00    -0.266 A  
HETATM   13  C   UNL     1      -8.961  18.313  68.155  1.00  0.00    -0.314 A  
HETATM   14  O   UNL     1      -6.658  18.760  67.927  1.00  0.00    -0.210 OA 
HETATM   15  H   UNL     1      -6.858  19.615  67.566  1.00  0.00     0.000 HD 
HETATM   16  C   UNL     1     -10.002  17.458  68.522  1.00  0.00    -0.331 A  
ENDBRANCH   6   7
ENDBRANCH   5   6
ENDBRANCH   4   5
ENDBRANCH   3   4
ENDBRANCH   2   3
TORSDOF 5
ENDMDL
MODEL      180
REMARK 921   NORMALIZED FREE ENERGY PREDICTED BY IDOCK:   -3.24 KCAL/MOL
REMARK 922        TOTAL FREE ENERGY PREDICTED BY IDOCK:   -4.59 KCAL/MOL
REMARK 923 INTER-LIGAND FREE ENERGY PREDICTED BY IDOCK:   -4.19 KCAL/MOL
REMARK 924 INTRA-LIGAND FREE ENERGY PREDICTED BY IDOCK:   -0.40 KCAL/MOL
REMARK 927      BINDING AFFINITY PREDICTED BY RF-SCORE:    0.00 PKD
ROOT
HETATM    1  C   UNL     1     -11.408   4.807  73.334  1.00  0.00    -0.397 C  
HETATM    2  C   UNL     1     -10.214   5.458  74.015  1.00  0.00    -0.273 C  
ENDROOT
BRANCH   2   3
HETATM    3  C   UNL     1      -9.705   6.655  73.214  1.00  0.00    -0.189 C  
BRANCH   3   4
HETATM    4  C   UNL     1      -9.836   6.427  71.708  1.00  0.00    -0.178 C  
BRANCH   4   5
HETATM    5  C   UNL     1      -9.295   7.623  70.924  1.00  0.00    -0.158 C  
BRANCH   5   6
HETATM    6  C   UNL     1      -9.792   8.946  71.507  1.00  0.00    -0.384 C  
BRANCH   6   7
HETATM    7  C   UNL     1     -10.447   9.812  70.456  1.00  0.00    -0.366 A  
HETATM    8  C   UNL     1     -11.759  10.294  70.567  1.00  0.00    -0.331 A  
HETATM    9  C   UNL     1     -12.311  11.121  69.588  1.00  0.00    -0.287 A  
HETATM   10  O   UNL     1     -12.579   9.990  71.617  1.00  0.00    -0.370 OA 
HETATM   11  H   UNL     1     -13.467  10.318  71.691  1.00  0.00     0.000 HD 
HETATM   12  C   UNL     1     -11.557  11.449  68.467  1.00  0.00    -0.318 A  
HETATM   13  C   UNL     1     -10.267  10.962  68.315  1.00  0.00    -0.191 A  
HETATM   14  O   UNL     1     -12.057  12.247  67.482  1.00  0.00    -0.514 OA 
HETATM   15  H   UNL     1     -11.542  12.472  66.716  1.00  0.00     0.000 HD 
HETATM   16  C   UNL     1      -9.713  10.148  69.306  1.00  0.00    -0.238 A  
ENDBRANCH   6   7
ENDBRANCH   5   6
ENDBRANCH   4   5
ENDBRANCH   3   4
ENDBRANCH   2   3
TORSDOF 5
ENDMDL
MODEL      181
REMARK 921   NORMALIZED FREE ENERGY PREDICTED BY IDOCK:   -3.24 KCAL/MOL
REMARK 922        TOTAL FREE ENERGY PREDICTED BY IDOCK:   -4.59 KCAL/MOL
REMARK 923 INTER-LIGAND FREE ENERGY PREDICTED BY IDOCK:   -3.94 KCAL/MOL
REMARK 924 INTRA-LIGAND FREE ENERGY PREDICTED BY IDOCK:   -0.65 KCAL/MOL
REMARK 927      BINDING AFFINITY PREDICTED BY RF-SCORE:    0.00 PKD
ROOT
HETATM    1  C   UNL     1      -9.770  11.228  63.069  1.00  0.00    -0.389 C  
HETATM    2  C   UNL     1     -10.073  10.510  64.375  1.00  0.00    -0.395 C  
ENDROOT
BRANCH   2   3
HETATM    3  C   UNL     1      -8.988   9.487  64.707  1.00  0.00    -0.263 C  
BRANCH   3   4
HETATM    4  C   UNL     1      -9.183   8.886  66.100  1.00  0.00    -0.273 C  
BRANCH   4   5
HETATM    5  C   UNL     1      -8.293   9.586  67.128  1.00  0.00    -0.131 C  
BRANCH   5   6
HETATM    6  C   UNL     1      -9.086   9.993  68.370  1.00  0.00    -0.121 C  
BRANCH   6   7
HETATM    7  C   UNL     1      -9.890  11.250  68.137  1.00  0.00    -0.190 A  
HETATM    8  C   UNL     1      -9.358  12.539  68.274  1.00  0.00    -0.193 A  
HETATM    9  C   UNL     1     -10.130  13.672  68.012  1.00  0.00    -0.250 A  
HETATM   10  O   UNL     1      -8.073  12.777  68.673  1.00  0.00    -0.282 OA 
HETATM   11  H   UNL     1      -7.713  13.651  68.765  1.00  0.00     0.000 HD 
HETATM   12  C   UNL     1     -11.460  13.520  67.637  1.00  0.00    -0.318 A  
HETATM   13  C   UNL     1     -12.022  12.257  67.522  1.00  0.00    -0.210 A  
HETATM   14  O   UNL     1     -12.253  14.598  67.379  1.00  0.00    -0.571 OA 
HETATM   15  H   UNL     1     -13.162  14.495  67.123  1.00  0.00     0.000 HD 
HETATM   16  C   UNL     1     -11.241  11.126  67.770  1.00  0.00    -0.359 A  
ENDBRANCH   6   7
ENDBRANCH   5   6
ENDBRANCH   4   5
ENDBRANCH   3   4
ENDBRANCH   2   3
TORSDOF 5
ENDMDL
MODEL      182
REMARK 921   NORMALIZED FREE ENERGY PREDICTED BY IDOCK:   -3.23 KCAL/MOL
REMARK 922        TOTAL FREE ENERGY PREDICTED BY IDOCK:   -4.58 KCAL/MOL
REMARK 923 INTER-LIGAND FREE ENERGY PREDICTED BY IDOCK:   -4.05 KCAL/MOL
REMARK 924 INTRA-LIGAND FREE ENERGY PREDICTED BY IDOCK:   -0.54 KCAL/MOL
REMARK 927      BINDING AFFINITY PREDICTED BY RF-SCORE:    0.00 PKD
ROOT
HETATM    1  C   UNL     1     -10.553   4.080  73.761  1.00  0.00    -0.292 C  
HETATM    2  C   UNL     1      -9.244   3.347  73.511  1.00  0.00    -0.106 C  
ENDROOT
BRANCH   2   3
HETATM    3  C   UNL     1      -8.126   4.321  73.143  1.00  0.00    -0.091 C  
BRANCH   3   4
HETATM    4  C   UNL     1      -8.677   5.634  72.588  1.00  0.00    -0.123 C  
BRANCH   4   5
HETATM    5  C   UNL     1      -7.887   6.830  73.123  1.00  0.00    -0.099 C  
BRANCH   5   6
HETATM    6  C   UNL     1      -8.808   7.995  73.482  1.00  0.00    -0.333 C  
BRANCH   6   7
HETATM    7  C   UNL     1      -9.598   8.476  72.288  1.00  0.00    -0.377 A  
HETATM    8  C   UNL     1     -10.999   8.451  72.232  1.00  0.00    -0.361 A  
HETATM    9  C   UNL     1     -11.687   8.939  71.121  1.00  0.00    -0.356 A  
HETATM   10  O   UNL     1     -11.776   7.951  73.238  1.00  0.00    -0.632 OA 
HETATM   11  H   UNL     1     -12.725   7.935  73.200  1.00  0.00     0.000 HD 
HETATM   12  C   UNL     1     -10.971   9.432  70.036  1.00  0.00    -0.239 A  
HETATM   13  C   UNL     1      -9.584   9.442  70.050  1.00  0.00    -0.256 A  
HETATM   14  O   UNL     1     -11.602   9.912  68.927  1.00  0.00    -0.486 OA 
HETATM   15  H   UNL     1     -11.113  10.249  68.186  1.00  0.00     0.000 HD 
HETATM   16  C   UNL     1      -8.899   8.967  71.171  1.00  0.00    -0.297 A  
ENDBRANCH   6   7
ENDBRANCH   5   6
ENDBRANCH   4   5
ENDBRANCH   3   4
ENDBRANCH   2   3
TORSDOF 5
ENDMDL
MODEL      183
REMARK 921   NORMALIZED FREE ENERGY PREDICTED BY IDOCK:   -3.23 KCAL/MOL
REMARK 922        TOTAL FREE ENERGY PREDICTED BY IDOCK:   -4.58 KCAL/MOL
REMARK 923 INTER-LIGAND FREE ENERGY PREDICTED BY IDOCK:   -3.94 KCAL/MOL
REMARK 924 INTRA-LIGAND FREE ENERGY PREDICTED BY IDOCK:   -0.64 KCAL/MOL
REMARK 927      BINDING AFFINITY PREDICTED BY RF-SCORE:    0.00 PKD
ROOT
HETATM    1  C   UNL     1      -8.933   6.489  66.825  1.00  0.00    -0.136 C  
HETATM    2  C   UNL     1     -10.042   7.193  67.591  1.00  0.00    -0.229 C  
ENDROOT
BRANCH   2   3
HETATM    3  C   UNL     1     -10.173   8.652  67.157  1.00  0.00    -0.353 C  
BRANCH   3   4
HETATM    4  C   UNL     1      -9.662   9.612  68.233  1.00  0.00    -0.162 C  
BRANCH   4   5
HETATM    5  C   UNL     1     -10.765   9.942  69.240  1.00  0.00    -0.247 C  
BRANCH   5   6
HETATM    6  C   UNL     1     -10.247   9.881  70.677  1.00  0.00    -0.203 C  
BRANCH   6   7
HETATM    7  C   UNL     1     -10.620   8.583  71.354  1.00  0.00    -0.312 A  
HETATM    8  C   UNL     1      -9.988   8.111  72.512  1.00  0.00    -0.302 A  
HETATM    9  C   UNL     1     -10.391   6.923  73.123  1.00  0.00    -0.293 A  
HETATM   10  O   UNL     1      -8.948   8.763  73.113  1.00  0.00    -0.274 OA 
HETATM   11  H   UNL     1      -8.521   8.443  73.898  1.00  0.00     0.000 HD 
HETATM   12  C   UNL     1     -11.418   6.177  72.556  1.00  0.00    -0.276 A  
HETATM   13  C   UNL     1     -12.042   6.604  71.393  1.00  0.00    -0.400 A  
HETATM   14  O   UNL     1     -11.839   5.007  73.114  1.00  0.00    -0.481 OA 
HETATM   15  H   UNL     1     -12.541   4.498  72.727  1.00  0.00     0.000 HD 
HETATM   16  C   UNL     1     -11.646   7.802  70.794  1.00  0.00    -0.270 A  
ENDBRANCH   6   7
ENDBRANCH   5   6
ENDBRANCH   4   5
ENDBRANCH   3   4
ENDBRANCH   2   3
TORSDOF 5
ENDMDL
MODEL      184
REMARK 921   NORMALIZED FREE ENERGY PREDICTED BY IDOCK:   -3.23 KCAL/MOL
REMARK 922        TOTAL FREE ENERGY PREDICTED BY IDOCK:   -4.58 KCAL/MOL
REMARK 923 INTER-LIGAND FREE ENERGY PREDICTED BY IDOCK:   -4.79 KCAL/MOL
REMARK 924 INTRA-LIGAND FREE ENERGY PREDICTED BY IDOCK:    0.21 KCAL/MOL
REMARK 927      BINDING AFFINITY PREDICTED BY RF-SCORE:    0.00 PKD
ROOT
HETATM    1  C   UNL     1      -9.479  18.490  66.210  1.00  0.00    -0.256 C  
HETATM    2  C   UNL     1      -8.807  17.488  67.136  1.00  0.00    -0.246 C  
ENDROOT
BRANCH   2   3
HETATM    3  C   UNL     1      -9.761  16.355  67.512  1.00  0.00    -0.231 C  
BRANCH   3   4
HETATM    4  C   UNL     1      -9.130  15.392  68.518  1.00  0.00    -0.197 C  
BRANCH   4   5
HETATM    5  C   UNL     1     -10.144  14.348  68.988  1.00  0.00    -0.161 C  
BRANCH   5   6
HETATM    6  C   UNL     1      -9.898  12.991  68.329  1.00  0.00    -0.225 C  
BRANCH   6   7
HETATM    7  C   UNL     1     -10.695  12.832  67.056  1.00  0.00    -0.272 A  
HETATM    8  C   UNL     1     -11.922  13.471  66.832  1.00  0.00    -0.399 A  
HETATM    9  C   UNL     1     -12.606  13.323  65.625  1.00  0.00    -0.469 A  
HETATM   10  O   UNL     1     -12.530  14.265  67.764  1.00  0.00    -0.567 OA 
HETATM   11  H   UNL     1     -13.361  14.698  67.612  1.00  0.00     0.000 HD 
HETATM   12  C   UNL     1     -12.076  12.502  64.637  1.00  0.00    -0.428 A  
HETATM   13  C   UNL     1     -10.878  11.833  64.841  1.00  0.00    -0.353 A  
HETATM   14  O   UNL     1     -12.713  12.322  63.444  1.00  0.00    -0.727 OA 
HETATM   15  H   UNL     1     -12.350  11.761  62.769  1.00  0.00     0.000 HD 
HETATM   16  C   UNL     1     -10.189  11.997  66.044  1.00  0.00    -0.256 A  
ENDBRANCH   6   7
ENDBRANCH   5   6
ENDBRANCH   4   5
ENDBRANCH   3   4
ENDBRANCH   2   3
TORSDOF 5
ENDMDL
MODEL      185
REMARK 921   NORMALIZED FREE ENERGY PREDICTED BY IDOCK:   -3.23 KCAL/MOL
REMARK 922        TOTAL FREE ENERGY PREDICTED BY IDOCK:   -4.57 KCAL/MOL
REMARK 923 INTER-LIGAND FREE ENERGY PREDICTED BY IDOCK:   -4.14 KCAL/MOL
REMARK 924 INTRA-LIGAND FREE ENERGY PREDICTED BY IDOCK:   -0.43 KCAL/MOL
REMARK 927      BINDING AFFINITY PREDICTED BY RF-SCORE:    0.00 PKD
ROOT
HETATM    1  C   UNL     1     -11.952  11.564  70.368  1.00  0.00    -0.459 C  
HETATM    2  C   UNL     1     -12.994  10.475  70.571  1.00  0.00    -0.289 C  
ENDROOT
BRANCH   2   3
HETATM    3  C   UNL     1     -12.816   9.784  71.922  1.00  0.00    -0.520 C  
BRANCH   3   4
HETATM    4  C   UNL     1     -11.518   8.978  71.980  1.00  0.00    -0.408 C  
BRANCH   4   5
HETATM    5  C   UNL     1     -11.516   7.867  70.929  1.00  0.00    -0.294 C  
BRANCH   5   6
HETATM    6  C   UNL     1     -10.335   8.007  69.968  1.00  0.00    -0.218 C  
BRANCH   6   7
HETATM    7  C   UNL     1     -10.238   6.833  69.023  1.00  0.00    -0.191 A  
HETATM    8  C   UNL     1      -9.758   5.573  69.409  1.00  0.00    -0.160 A  
HETATM    9  C   UNL     1      -9.720   4.507  68.510  1.00  0.00    -0.198 A  
HETATM   10  O   UNL     1      -9.295   5.305  70.666  1.00  0.00    -0.152 OA 
HETATM   11  H   UNL     1      -8.970   4.452  70.927  1.00  0.00     0.000 HD 
HETATM   12  C   UNL     1     -10.138   4.704  67.199  1.00  0.00    -0.143 A  
HETATM   13  C   UNL     1     -10.590   5.947  66.780  1.00  0.00    -0.368 A  
HETATM   14  O   UNL     1     -10.111   3.693  66.284  1.00  0.00    -0.414 OA 
HETATM   15  H   UNL     1     -10.397   3.828  65.389  1.00  0.00     0.000 HD 
HETATM   16  C   UNL     1     -10.641   7.007  67.688  1.00  0.00    -0.327 A  
ENDBRANCH   6   7
ENDBRANCH   5   6
ENDBRANCH   4   5
ENDBRANCH   3   4
ENDBRANCH   2   3
TORSDOF 5
ENDMDL
MODEL      186
REMARK 921   NORMALIZED FREE ENERGY PREDICTED BY IDOCK:   -3.22 KCAL/MOL
REMARK 922        TOTAL FREE ENERGY PREDICTED BY IDOCK:   -4.56 KCAL/MOL
REMARK 923 INTER-LIGAND FREE ENERGY PREDICTED BY IDOCK:   -4.02 KCAL/MOL
REMARK 924 INTRA-LIGAND FREE ENERGY PREDICTED BY IDOCK:   -0.54 KCAL/MOL
REMARK 927      BINDING AFFINITY PREDICTED BY RF-SCORE:    0.00 PKD
ROOT
HETATM    1  C   UNL     1      -9.909   7.974  68.799  1.00  0.00    -0.176 C  
HETATM    2  C   UNL     1     -10.478   8.504  70.106  1.00  0.00    -0.226 C  
ENDROOT
BRANCH   2   3
HETATM    3  C   UNL     1     -10.638  10.023  70.064  1.00  0.00    -0.344 C  
BRANCH   3   4
HETATM    4  C   UNL     1     -12.002  10.434  69.508  1.00  0.00    -0.175 C  
BRANCH   4   5
HETATM    5  C   UNL     1     -11.852  11.503  68.424  1.00  0.00    -0.353 C  
BRANCH   5   6
HETATM    6  C   UNL     1     -10.434  12.074  68.392  1.00  0.00    -0.231 C  
BRANCH   6   7
HETATM    7  C   UNL     1     -10.437  13.575  68.220  1.00  0.00    -0.258 A  
HETATM    8  C   UNL     1      -9.787  14.229  67.164  1.00  0.00    -0.252 A  
HETATM    9  C   UNL     1      -9.847  15.615  67.025  1.00  0.00    -0.237 A  
HETATM   10  O   UNL     1      -9.055  13.569  66.217  1.00  0.00    -0.463 OA 
HETATM   11  H   UNL     1      -8.615  14.013  65.502  1.00  0.00     0.000 HD 
HETATM   12  C   UNL     1     -10.540  16.366  67.967  1.00  0.00    -0.314 A  
HETATM   13  C   UNL     1     -11.169  15.750  69.039  1.00  0.00    -0.319 A  
HETATM   14  O   UNL     1     -10.620  17.725  67.876  1.00  0.00    -0.386 OA 
HETATM   15  H   UNL     1     -11.094  18.238  68.519  1.00  0.00     0.000 HD 
HETATM   16  C   UNL     1     -11.119  14.360  69.166  1.00  0.00    -0.290 A  
ENDBRANCH   6   7
ENDBRANCH   5   6
ENDBRANCH   4   5
ENDBRANCH   3   4
ENDBRANCH   2   3
TORSDOF 5
ENDMDL
MODEL      187
REMARK 921   NORMALIZED FREE ENERGY PREDICTED BY IDOCK:   -3.21 KCAL/MOL
REMARK 922        TOTAL FREE ENERGY PREDICTED BY IDOCK:   -4.56 KCAL/MOL
REMARK 923 INTER-LIGAND FREE ENERGY PREDICTED BY IDOCK:   -4.07 KCAL/MOL
REMARK 924 INTRA-LIGAND FREE ENERGY PREDICTED BY IDOCK:   -0.49 KCAL/MOL
REMARK 927      BINDING AFFINITY PREDICTED BY RF-SCORE:    0.00 PKD
ROOT
HETATM    1  C   UNL     1      -9.661   4.386  67.553  1.00  0.00    -0.213 C  
HETATM    2  C   UNL     1      -9.488   5.838  67.133  1.00  0.00    -0.121 C  
ENDROOT
BRANCH   2   3
HETATM    3  C   UNL     1     -10.823   6.580  67.148  1.00  0.00    -0.472 C  
BRANCH   3   4
HETATM    4  C   UNL     1     -10.631   8.095  67.080  1.00  0.00    -0.346 C  
BRANCH   4   5
HETATM    5  C   UNL     1      -9.464   8.539  67.963  1.00  0.00    -0.154 C  
BRANCH   5   6
HETATM    6  C   UNL     1      -9.928   9.483  69.073  1.00  0.00    -0.185 C  
BRANCH   6   7
HETATM    7  C   UNL     1     -10.304  10.842  68.533  1.00  0.00    -0.203 A  
HETATM    8  C   UNL     1     -11.597  11.376  68.625  1.00  0.00    -0.320 A  
HETATM    9  C   UNL     1     -11.889  12.652  68.145  1.00  0.00    -0.366 A  
HETATM   10  O   UNL     1     -12.646  10.695  69.175  1.00  0.00    -0.734 OA 
HETATM   11  H   UNL     1     -13.522  11.057  69.238  1.00  0.00     0.000 HD 
HETATM   12  C   UNL     1     -10.887  13.399  67.536  1.00  0.00    -0.263 A  
HETATM   13  C   UNL     1      -9.605  12.886  67.404  1.00  0.00    -0.203 A  
HETATM   14  O   UNL     1     -11.128  14.648  67.045  1.00  0.00    -0.315 OA 
HETATM   15  H   UNL     1     -10.443  15.158  66.630  1.00  0.00     0.000 HD 
HETATM   16  C   UNL     1      -9.313  11.613  67.901  1.00  0.00    -0.174 A  
ENDBRANCH   6   7
ENDBRANCH   5   6
ENDBRANCH   4   5
ENDBRANCH   3   4
ENDBRANCH   2   3
TORSDOF 5
ENDMDL
MODEL      188
REMARK 921   NORMALIZED FREE ENERGY PREDICTED BY IDOCK:   -3.21 KCAL/MOL
REMARK 922        TOTAL FREE ENERGY PREDICTED BY IDOCK:   -4.55 KCAL/MOL
REMARK 923 INTER-LIGAND FREE ENERGY PREDICTED BY IDOCK:   -4.09 KCAL/MOL
REMARK 924 INTRA-LIGAND FREE ENERGY PREDICTED BY IDOCK:   -0.47 KCAL/MOL
REMARK 927      BINDING AFFINITY PREDICTED BY RF-SCORE:    0.00 PKD
ROOT
HETATM    1  C   UNL     1      -7.975   4.001  66.370  1.00  0.00    -0.097 C  
HETATM    2  C   UNL     1      -9.124   4.996  66.305  1.00  0.00    -0.129 C  
ENDROOT
BRANCH   2   3
HETATM    3  C   UNL     1      -9.563   5.426  67.703  1.00  0.00    -0.142 C  
BRANCH   3   4
HETATM    4  C   UNL     1     -10.827   6.286  67.662  1.00  0.00    -0.433 C  
BRANCH   4   5
HETATM    5  C   UNL     1     -10.561   7.617  66.956  1.00  0.00    -0.406 C  
BRANCH   5   6
HETATM    6  C   UNL     1      -9.705   8.546  67.817  1.00  0.00    -0.199 C  
BRANCH   6   7
HETATM    7  C   UNL     1     -10.547   9.376  68.756  1.00  0.00    -0.234 A  
HETATM    8  C   UNL     1     -11.224  10.538  68.360  1.00  0.00    -0.279 A  
HETATM    9  C   UNL     1     -12.021  11.252  69.255  1.00  0.00    -0.411 A  
HETATM   10  O   UNL     1     -11.149  11.049  67.095  1.00  0.00    -0.285 OA 
HETATM   11  H   UNL     1     -11.608  11.836  66.827  1.00  0.00     0.000 HD 
HETATM   12  C   UNL     1     -12.122  10.821  70.573  1.00  0.00    -0.366 A  
HETATM   13  C   UNL     1     -11.440   9.692  71.002  1.00  0.00    -0.444 A  
HETATM   14  O   UNL     1     -12.883  11.492  71.484  1.00  0.00    -0.410 OA 
HETATM   15  H   UNL     1     -12.952  11.198  72.384  1.00  0.00     0.000 HD 
HETATM   16  C   UNL     1     -10.657   8.971  70.098  1.00  0.00    -0.250 A  
ENDBRANCH   6   7
ENDBRANCH   5   6
ENDBRANCH   4   5
ENDBRANCH   3   4
ENDBRANCH   2   3
TORSDOF 5
ENDMDL
MODEL      189
REMARK 921   NORMALIZED FREE ENERGY PREDICTED BY IDOCK:   -3.20 KCAL/MOL
REMARK 922        TOTAL FREE ENERGY PREDICTED BY IDOCK:   -4.54 KCAL/MOL
REMARK 923 INTER-LIGAND FREE ENERGY PREDICTED BY IDOCK:   -4.21 KCAL/MOL
REMARK 924 INTRA-LIGAND FREE ENERGY PREDICTED BY IDOCK:   -0.33 KCAL/MOL
REMARK 927      BINDING AFFINITY PREDICTED BY RF-SCORE:    0.00 PKD
ROOT
HETATM    1  C   UNL     1     -10.598  11.376  65.287  1.00  0.00    -0.336 C  
HETATM    2  C   UNL     1      -9.899  10.353  66.170  1.00  0.00    -0.278 C  
ENDROOT
BRANCH   2   3
HETATM    3  C   UNL     1     -10.877   9.704  67.147  1.00  0.00    -0.184 C  
BRANCH   3   4
HETATM    4  C   UNL     1     -10.162   9.136  68.373  1.00  0.00    -0.230 C  
BRANCH   4   5
HETATM    5  C   UNL     1      -9.834  10.243  69.378  1.00  0.00    -0.247 C  
BRANCH   5   6
HETATM    6  C   UNL     1     -10.894  10.334  70.476  1.00  0.00    -0.281 C  
BRANCH   6   7
HETATM    7  C   UNL     1     -11.109   9.004  71.160  1.00  0.00    -0.371 A  
HETATM    8  C   UNL     1     -10.144   8.391  71.970  1.00  0.00    -0.294 A  
HETATM    9  C   UNL     1     -10.401   7.179  72.611  1.00  0.00    -0.246 A  
HETATM   10  O   UNL     1      -8.902   8.921  72.182  1.00  0.00    -0.381 OA 
HETATM   11  H   UNL     1      -8.248   8.506  72.731  1.00  0.00     0.000 HD 
HETATM   12  C   UNL     1     -11.627   6.552  72.420  1.00  0.00    -0.255 A  
HETATM   13  C   UNL     1     -12.591   7.120  71.600  1.00  0.00    -0.410 A  
HETATM   14  O   UNL     1     -11.919   5.363  73.020  1.00  0.00    -0.548 OA 
HETATM   15  H   UNL     1     -12.756   4.935  72.889  1.00  0.00     0.000 HD 
HETATM   16  C   UNL     1     -12.335   8.341  70.973  1.00  0.00    -0.145 A  
ENDBRANCH   6   7
ENDBRANCH   5   6
ENDBRANCH   4   5
ENDBRANCH   3   4
ENDBRANCH   2   3
TORSDOF 5
ENDMDL
MODEL      190
REMARK 921   NORMALIZED FREE ENERGY PREDICTED BY IDOCK:   -3.19 KCAL/MOL
REMARK 922        TOTAL FREE ENERGY PREDICTED BY IDOCK:   -4.53 KCAL/MOL
REMARK 923 INTER-LIGAND FREE ENERGY PREDICTED BY IDOCK:   -4.12 KCAL/MOL
REMARK 924 INTRA-LIGAND FREE ENERGY PREDICTED BY IDOCK:   -0.42 KCAL/MOL
REMARK 927      BINDING AFFINITY PREDICTED BY RF-SCORE:    0.00 PKD
ROOT
HETATM    1  C   UNL     1     -12.730   7.808  72.074  1.00  0.00    -0.285 C  
HETATM    2  C   UNL     1     -11.787   8.304  70.989  1.00  0.00    -0.276 C  
ENDROOT
BRANCH   2   3
HETATM    3  C   UNL     1     -11.173   7.140  70.214  1.00  0.00    -0.309 C  
BRANCH   3   4
HETATM    4  C   UNL     1     -10.085   7.611  69.248  1.00  0.00    -0.190 C  
BRANCH   4   5
HETATM    5  C   UNL     1     -10.635   8.650  68.269  1.00  0.00    -0.181 C  
BRANCH   5   6
HETATM    6  C   UNL     1      -9.665   9.818  68.089  1.00  0.00    -0.163 C  
BRANCH   6   7
HETATM    7  C   UNL     1     -10.368  11.061  67.597  1.00  0.00    -0.223 A  
HETATM    8  C   UNL     1     -10.939  12.011  68.455  1.00  0.00    -0.237 A  
HETATM    9  C   UNL     1     -11.547  13.164  67.957  1.00  0.00    -0.371 A  
HETATM   10  O   UNL     1     -10.948  11.878  69.815  1.00  0.00    -0.467 OA 
HETATM   11  H   UNL     1     -11.335  12.522  70.396  1.00  0.00     0.000 HD 
HETATM   12  C   UNL     1     -11.615  13.359  66.582  1.00  0.00    -0.362 A  
HETATM   13  C   UNL     1     -11.085  12.422  65.707  1.00  0.00    -0.351 A  
HETATM   14  O   UNL     1     -12.206  14.467  66.049  1.00  0.00    -0.394 OA 
HETATM   15  H   UNL     1     -12.252  14.601  65.110  1.00  0.00     0.000 HD 
HETATM   16  C   UNL     1     -10.463  11.278  66.211  1.00  0.00    -0.308 A  
ENDBRANCH   6   7
ENDBRANCH   5   6
ENDBRANCH   4   5
ENDBRANCH   3   4
ENDBRANCH   2   3
TORSDOF 5
ENDMDL
MODEL      191
REMARK 921   NORMALIZED FREE ENERGY PREDICTED BY IDOCK:   -3.19 KCAL/MOL
REMARK 922        TOTAL FREE ENERGY PREDICTED BY IDOCK:   -4.53 KCAL/MOL
REMARK 923 INTER-LIGAND FREE ENERGY PREDICTED BY IDOCK:   -3.90 KCAL/MOL
REMARK 924 INTRA-LIGAND FREE ENERGY PREDICTED BY IDOCK:   -0.63 KCAL/MOL
REMARK 927      BINDING AFFINITY PREDICTED BY RF-SCORE:    0.00 PKD
ROOT
HETATM    1  C   UNL     1      -6.773   7.140  69.458  1.00  0.00    -0.049 C  
HETATM    2  C   UNL     1      -6.918   7.133  70.972  1.00  0.00    -0.061 C  
ENDROOT
BRANCH   2   3
HETATM    3  C   UNL     1      -7.501   5.810  71.465  1.00  0.00    -0.093 C  
BRANCH   3   4
HETATM    4  C   UNL     1      -8.847   6.008  72.163  1.00  0.00    -0.135 C  
BRANCH   4   5
HETATM    5  C   UNL     1      -9.979   5.360  71.363  1.00  0.00    -0.241 C  
BRANCH   5   6
HETATM    6  C   UNL     1     -11.317   6.052  71.624  1.00  0.00    -0.313 C  
BRANCH   6   7
HETATM    7  C   UNL     1     -11.291   7.501  71.199  1.00  0.00    -0.288 A  
HETATM    8  C   UNL     1     -11.939   8.522  71.909  1.00  0.00    -0.345 A  
HETATM    9  C   UNL     1     -11.858   9.852  71.498  1.00  0.00    -0.445 A  
HETATM   10  O   UNL     1     -12.688   8.291  73.028  1.00  0.00    -0.694 OA 
HETATM   11  H   UNL     1     -13.127   8.983  73.509  1.00  0.00     0.000 HD 
HETATM   12  C   UNL     1     -11.147  10.169  70.347  1.00  0.00    -0.324 A  
HETATM   13  C   UNL     1     -10.520   9.177  69.607  1.00  0.00    -0.230 A  
HETATM   14  O   UNL     1     -11.047  11.455  69.904  1.00  0.00    -0.444 OA 
HETATM   15  H   UNL     1     -10.560  11.672  69.118  1.00  0.00     0.000 HD 
HETATM   16  C   UNL     1     -10.590   7.849  70.031  1.00  0.00    -0.242 A  
ENDBRANCH   6   7
ENDBRANCH   5   6
ENDBRANCH   4   5
ENDBRANCH   3   4
ENDBRANCH   2   3
TORSDOF 5
ENDMDL
MODEL      192
REMARK 921   NORMALIZED FREE ENERGY PREDICTED BY IDOCK:   -3.18 KCAL/MOL
REMARK 922        TOTAL FREE ENERGY PREDICTED BY IDOCK:   -4.52 KCAL/MOL
REMARK 923 INTER-LIGAND FREE ENERGY PREDICTED BY IDOCK:   -4.01 KCAL/MOL
REMARK 924 INTRA-LIGAND FREE ENERGY PREDICTED BY IDOCK:   -0.51 KCAL/MOL
REMARK 927      BINDING AFFINITY PREDICTED BY RF-SCORE:    0.00 PKD
ROOT
HETATM    1  C   UNL     1     -11.377   6.162  69.973  1.00  0.00    -0.443 C  
HETATM    2  C   UNL     1     -10.892   6.243  68.534  1.00  0.00    -0.394 C  
ENDROOT
BRANCH   2   3
HETATM    3  C   UNL     1     -10.152   7.554  68.273  1.00  0.00    -0.209 C  
BRANCH   3   4
HETATM    4  C   UNL     1     -10.060   8.414  69.534  1.00  0.00    -0.200 C  
BRANCH   4   5
HETATM    5  C   UNL     1     -10.541   9.840  69.261  1.00  0.00    -0.240 C  
BRANCH   5   6
HETATM    6  C   UNL     1      -9.388  10.749  68.835  1.00  0.00    -0.183 C  
BRANCH   6   7
HETATM    7  C   UNL     1      -9.698  11.486  67.553  1.00  0.00    -0.189 A  
HETATM    8  C   UNL     1      -9.841  12.878  67.482  1.00  0.00    -0.208 A  
HETATM    9  C   UNL     1     -10.091  13.520  66.269  1.00  0.00    -0.298 A  
HETATM   10  O   UNL     1      -9.753  13.693  68.575  1.00  0.00    -0.247 OA 
HETATM   11  H   UNL     1      -9.849  14.637  68.527  1.00  0.00     0.000 HD 
HETATM   12  C   UNL     1     -10.233  12.761  65.112  1.00  0.00    -0.278 A  
HETATM   13  C   UNL     1     -10.127  11.378  65.156  1.00  0.00    -0.319 A  
HETATM   14  O   UNL     1     -10.486  13.344  63.906  1.00  0.00    -0.543 OA 
HETATM   15  H   UNL     1     -10.582  12.826  63.116  1.00  0.00     0.000 HD 
HETATM   16  C   UNL     1      -9.860  10.742  66.371  1.00  0.00    -0.254 A  
ENDBRANCH   6   7
ENDBRANCH   5   6
ENDBRANCH   4   5
ENDBRANCH   3   4
ENDBRANCH   2   3
TORSDOF 5
ENDMDL
MODEL      193
REMARK 921   NORMALIZED FREE ENERGY PREDICTED BY IDOCK:   -3.17 KCAL/MOL
REMARK 922        TOTAL FREE ENERGY PREDICTED BY IDOCK:   -4.50 KCAL/MOL
REMARK 923 INTER-LIGAND FREE ENERGY PREDICTED BY IDOCK:   -4.06 KCAL/MOL
REMARK 924 INTRA-LIGAND FREE ENERGY PREDICTED BY IDOCK:   -0.44 KCAL/MOL
REMARK 927      BINDING AFFINITY PREDICTED BY RF-SCORE:    0.00 PKD
ROOT
HETATM    1  C   UNL     1     -11.133   4.918  73.115  1.00  0.00    -0.396 C  
HETATM    2  C   UNL     1     -10.615   5.935  74.120  1.00  0.00    -0.168 C  
ENDROOT
BRANCH   2   3
HETATM    3  C   UNL     1     -10.514   7.326  73.498  1.00  0.00    -0.421 C  
BRANCH   3   4
HETATM    4  C   UNL     1      -9.514   7.360  72.342  1.00  0.00    -0.189 C  
BRANCH   4   5
HETATM    5  C   UNL     1      -9.431   8.759  71.729  1.00  0.00    -0.363 C  
BRANCH   5   6
HETATM    6  C   UNL     1     -10.701   9.106  70.952  1.00  0.00    -0.343 C  
BRANCH   6   7
HETATM    7  C   UNL     1     -10.475   9.061  69.459  1.00  0.00    -0.223 A  
HETATM    8  C   UNL     1     -10.769   7.941  68.670  1.00  0.00    -0.035 A  
HETATM    9  C   UNL     1     -10.578   7.958  67.288  1.00  0.00    -0.365 A  
HETATM   10  O   UNL     1     -11.249   6.770  69.187  1.00  0.00    -0.454 OA 
HETATM   11  H   UNL     1     -11.448   6.011  68.652  1.00  0.00     0.000 HD 
HETATM   12  C   UNL     1     -10.057   9.097  66.686  1.00  0.00    -0.273 A  
HETATM   13  C   UNL     1      -9.729  10.211  67.444  1.00  0.00    -0.192 A  
HETATM   14  O   UNL     1      -9.846   9.157  65.340  1.00  0.00    -0.453 OA 
HETATM   15  H   UNL     1      -9.491   9.935  64.928  1.00  0.00     0.000 HD 
HETATM   16  C   UNL     1      -9.937  10.195  68.825  1.00  0.00    -0.187 A  
ENDBRANCH   6   7
ENDBRANCH   5   6
ENDBRANCH   4   5
ENDBRANCH   3   4
ENDBRANCH   2   3
TORSDOF 5
ENDMDL
MODEL      194
REMARK 921   NORMALIZED FREE ENERGY PREDICTED BY IDOCK:   -3.17 KCAL/MOL
REMARK 922        TOTAL FREE ENERGY PREDICTED BY IDOCK:   -4.50 KCAL/MOL
REMARK 923 INTER-LIGAND FREE ENERGY PREDICTED BY IDOCK:   -3.83 KCAL/MOL
REMARK 924 INTRA-LIGAND FREE ENERGY PREDICTED BY IDOCK:   -0.68 KCAL/MOL
REMARK 927      BINDING AFFINITY PREDICTED BY RF-SCORE:    0.00 PKD
ROOT
HETATM    1  C   UNL     1     -12.070  13.916  68.944  1.00  0.00    -0.355 C  
HETATM    2  C   UNL     1     -11.506  12.742  69.729  1.00  0.00    -0.199 C  
ENDROOT
BRANCH   2   3
HETATM    3  C   UNL     1     -11.957  11.410  69.132  1.00  0.00    -0.395 C  
BRANCH   3   4
HETATM    4  C   UNL     1     -10.923  10.845  68.158  1.00  0.00    -0.302 C  
BRANCH   4   5
HETATM    5  C   UNL     1      -9.645  11.686  68.167  1.00  0.00    -0.190 C  
BRANCH   5   6
HETATM    6  C   UNL     1      -9.255  12.128  66.757  1.00  0.00    -0.207 C  
BRANCH   6   7
HETATM    7  C   UNL     1      -9.146  13.631  66.649  1.00  0.00    -0.189 A  
HETATM    8  C   UNL     1      -9.967  14.403  65.816  1.00  0.00    -0.329 A  
HETATM    9  C   UNL     1      -9.855  15.793  65.776  1.00  0.00    -0.383 A  
HETATM   10  O   UNL     1     -10.915  13.862  64.993  1.00  0.00    -0.330 OA 
HETATM   11  H   UNL     1     -11.471  14.386  64.429  1.00  0.00     0.000 HD 
HETATM   12  C   UNL     1      -8.890  16.422  66.555  1.00  0.00    -0.281 A  
HETATM   13  C   UNL     1      -8.044  15.682  67.367  1.00  0.00    -0.195 A  
HETATM   14  O   UNL     1      -8.739  17.778  66.543  1.00  0.00    -0.253 OA 
HETATM   15  H   UNL     1      -8.081  18.207  67.075  1.00  0.00     0.000 HD 
HETATM   16  C   UNL     1      -8.171  14.292  67.415  1.00  0.00    -0.217 A  
ENDBRANCH   6   7
ENDBRANCH   5   6
ENDBRANCH   4   5
ENDBRANCH   3   4
ENDBRANCH   2   3
TORSDOF 5
ENDMDL
MODEL      195
REMARK 921   NORMALIZED FREE ENERGY PREDICTED BY IDOCK:   -3.17 KCAL/MOL
REMARK 922        TOTAL FREE ENERGY PREDICTED BY IDOCK:   -4.50 KCAL/MOL
REMARK 923 INTER-LIGAND FREE ENERGY PREDICTED BY IDOCK:   -4.08 KCAL/MOL
REMARK 924 INTRA-LIGAND FREE ENERGY PREDICTED BY IDOCK:   -0.42 KCAL/MOL
REMARK 927      BINDING AFFINITY PREDICTED BY RF-SCORE:    0.00 PKD
ROOT
HETATM    1  C   UNL     1     -12.202  15.721  72.664  1.00  0.00    -0.573 C  
HETATM    2  C   UNL     1     -12.879  15.545  71.313  1.00  0.00    -0.540 C  
ENDROOT
BRANCH   2   3
HETATM    3  C   UNL     1     -11.916  14.954  70.285  1.00  0.00    -0.365 C  
BRANCH   3   4
HETATM    4  C   UNL     1     -12.211  15.463  68.873  1.00  0.00    -0.118 C  
BRANCH   4   5
HETATM    5  C   UNL     1     -11.790  14.435  67.821  1.00  0.00    -0.402 C  
BRANCH   5   6
HETATM    6  C   UNL     1     -11.556  13.059  68.445  1.00  0.00    -0.370 C  
BRANCH   6   7
HETATM    7  C   UNL     1     -10.390  12.344  67.805  1.00  0.00    -0.222 A  
HETATM    8  C   UNL     1      -9.052  12.619  68.121  1.00  0.00    -0.204 A  
HETATM    9  C   UNL     1      -8.007  11.907  67.531  1.00  0.00    -0.155 A  
HETATM   10  O   UNL     1      -8.680  13.590  69.008  1.00  0.00    -0.360 OA 
HETATM   11  H   UNL     1      -7.774  13.776  69.222  1.00  0.00     0.000 HD 
HETATM   12  C   UNL     1      -8.296  10.927  66.588  1.00  0.00    -0.143 A  
HETATM   13  C   UNL     1      -9.609  10.653  66.233  1.00  0.00    -0.228 A  
HETATM   14  O   UNL     1      -7.308  10.211  65.980  1.00  0.00    -0.106 OA 
HETATM   15  H   UNL     1      -7.505   9.541  65.337  1.00  0.00     0.000 HD 
HETATM   16  C   UNL     1     -10.652  11.357  66.839  1.00  0.00    -0.292 A  
ENDBRANCH   6   7
ENDBRANCH   5   6
ENDBRANCH   4   5
ENDBRANCH   3   4
ENDBRANCH   2   3
TORSDOF 5
ENDMDL
MODEL      196
REMARK 921   NORMALIZED FREE ENERGY PREDICTED BY IDOCK:   -3.17 KCAL/MOL
REMARK 922        TOTAL FREE ENERGY PREDICTED BY IDOCK:   -4.50 KCAL/MOL
REMARK 923 INTER-LIGAND FREE ENERGY PREDICTED BY IDOCK:   -4.09 KCAL/MOL
REMARK 924 INTRA-LIGAND FREE ENERGY PREDICTED BY IDOCK:   -0.41 KCAL/MOL
REMARK 927      BINDING AFFINITY PREDICTED BY RF-SCORE:    0.00 PKD
ROOT
HETATM    1  C   UNL     1      -6.064   9.545  67.885  1.00  0.00    -0.052 C  
HETATM    2  C   UNL     1      -6.560   8.108  67.883  1.00  0.00    -0.061 C  
ENDROOT
BRANCH   2   3
HETATM    3  C   UNL     1      -8.087   8.049  67.897  1.00  0.00    -0.129 C  
BRANCH   3   4
HETATM    4  C   UNL     1      -8.702   9.391  68.295  1.00  0.00    -0.124 C  
BRANCH   4   5
HETATM    5  C   UNL     1      -9.162   9.371  69.754  1.00  0.00    -0.209 C  
BRANCH   5   6
HETATM    6  C   UNL     1     -10.482  10.120  69.936  1.00  0.00    -0.322 C  
BRANCH   6   7
HETATM    7  C   UNL     1     -11.529   9.260  70.603  1.00  0.00    -0.327 A  
HETATM    8  C   UNL     1     -12.698   9.778  71.177  1.00  0.00    -0.340 A  
HETATM    9  C   UNL     1     -13.656   8.941  71.751  1.00  0.00    -0.461 A  
HETATM   10  O   UNL     1     -12.977  11.115  71.222  1.00  0.00    -0.391 OA 
HETATM   11  H   UNL     1     -13.770  11.466  71.611  1.00  0.00     0.000 HD 
HETATM   12  C   UNL     1     -13.432   7.569  71.780  1.00  0.00    -0.317 A  
HETATM   13  C   UNL     1     -12.271   7.029  71.247  1.00  0.00    -0.419 A  
HETATM   14  O   UNL     1     -14.337   6.713  72.337  1.00  0.00    -0.670 OA 
HETATM   15  H   UNL     1     -14.185   5.776  72.357  1.00  0.00     0.000 HD 
HETATM   16  C   UNL     1     -11.324   7.870  70.659  1.00  0.00    -0.267 A  
ENDBRANCH   6   7
ENDBRANCH   5   6
ENDBRANCH   4   5
ENDBRANCH   3   4
ENDBRANCH   2   3
TORSDOF 5
ENDMDL
MODEL      197
REMARK 921   NORMALIZED FREE ENERGY PREDICTED BY IDOCK:   -3.17 KCAL/MOL
REMARK 922        TOTAL FREE ENERGY PREDICTED BY IDOCK:   -4.50 KCAL/MOL
REMARK 923 INTER-LIGAND FREE ENERGY PREDICTED BY IDOCK:   -3.85 KCAL/MOL
REMARK 924 INTRA-LIGAND FREE ENERGY PREDICTED BY IDOCK:   -0.64 KCAL/MOL
REMARK 927      BINDING AFFINITY PREDICTED BY RF-SCORE:    0.00 PKD
ROOT
HETATM    1  C   UNL     1     -10.192   4.602  66.038  1.00  0.00    -0.306 C  
HETATM    2  C   UNL     1      -9.706   3.992  67.344  1.00  0.00    -0.190 C  
ENDROOT
BRANCH   2   3
HETATM    3  C   UNL     1      -9.294   5.073  68.340  1.00  0.00    -0.163 C  
BRANCH   3   4
HETATM    4  C   UNL     1     -10.274   5.172  69.510  1.00  0.00    -0.318 C  
BRANCH   4   5
HETATM    5  C   UNL     1     -11.135   6.432  69.398  1.00  0.00    -0.450 C  
BRANCH   5   6
HETATM    6  C   UNL     1     -10.355   7.681  69.808  1.00  0.00    -0.223 C  
BRANCH   6   7
HETATM    7  C   UNL     1     -10.449   8.770  68.765  1.00  0.00    -0.214 A  
HETATM    8  C   UNL     1     -10.677  10.117  69.078  1.00  0.00    -0.221 A  
HETATM    9  C   UNL     1     -10.719  11.094  68.083  1.00  0.00    -0.244 A  
HETATM   10  O   UNL     1     -10.877  10.562  70.354  1.00  0.00    -0.425 OA 
HETATM   11  H   UNL     1     -11.031  11.475  70.566  1.00  0.00     0.000 HD 
HETATM   12  C   UNL     1     -10.562  10.721  66.753  1.00  0.00    -0.250 A  
HETATM   13  C   UNL     1     -10.365   9.391  66.410  1.00  0.00    -0.237 A  
HETATM   14  O   UNL     1     -10.604  11.640  65.746  1.00  0.00    -0.256 OA 
HETATM   15  H   UNL     1     -10.496  11.385  64.838  1.00  0.00     0.000 HD 
HETATM   16  C   UNL     1     -10.307   8.419  67.411  1.00  0.00    -0.355 A  
ENDBRANCH   6   7
ENDBRANCH   5   6
ENDBRANCH   4   5
ENDBRANCH   3   4
ENDBRANCH   2   3
TORSDOF 5
ENDMDL
MODEL      198
REMARK 921   NORMALIZED FREE ENERGY PREDICTED BY IDOCK:   -3.16 KCAL/MOL
REMARK 922        TOTAL FREE ENERGY PREDICTED BY IDOCK:   -4.49 KCAL/MOL
REMARK 923 INTER-LIGAND FREE ENERGY PREDICTED BY IDOCK:   -4.20 KCAL/MOL
REMARK 924 INTRA-LIGAND FREE ENERGY PREDICTED BY IDOCK:   -0.29 KCAL/MOL
REMARK 927      BINDING AFFINITY PREDICTED BY RF-SCORE:    0.00 PKD
ROOT
HETATM    1  C   UNL     1     -10.505  17.922  66.473  1.00  0.00    -0.315 C  
HETATM    2  C   UNL     1      -9.857  16.691  65.860  1.00  0.00    -0.301 C  
ENDROOT
BRANCH   2   3
HETATM    3  C   UNL     1     -10.890  15.818  65.149  1.00  0.00    -0.444 C  
BRANCH   3   4
HETATM    4  C   UNL     1     -10.382  14.390  64.945  1.00  0.00    -0.419 C  
BRANCH   4   5
HETATM    5  C   UNL     1     -11.486  13.370  65.229  1.00  0.00    -0.318 C  
BRANCH   5   6
HETATM    6  C   UNL     1     -10.944  11.941  65.224  1.00  0.00    -0.354 C  
BRANCH   6   7
HETATM    7  C   UNL     1     -10.092  11.659  66.439  1.00  0.00    -0.246 A  
HETATM    8  C   UNL     1     -10.622  11.271  67.677  1.00  0.00    -0.213 A  
HETATM    9  C   UNL     1      -9.794  10.986  68.762  1.00  0.00    -0.206 A  
HETATM   10  O   UNL     1     -11.964  11.152  67.908  1.00  0.00    -0.624 OA 
HETATM   11  H   UNL     1     -12.323  10.888  68.747  1.00  0.00     0.000 HD 
HETATM   12  C   UNL     1      -8.417  11.118  68.623  1.00  0.00    -0.153 A  
HETATM   13  C   UNL     1      -7.864  11.530  67.419  1.00  0.00    -0.143 A  
HETATM   14  O   UNL     1      -7.569  10.858  69.658  1.00  0.00    -0.319 OA 
HETATM   15  H   UNL     1      -6.628  10.948  69.563  1.00  0.00     0.000 HD 
HETATM   16  C   UNL     1      -8.697  11.799  66.330  1.00  0.00    -0.147 A  
ENDBRANCH   6   7
ENDBRANCH   5   6
ENDBRANCH   4   5
ENDBRANCH   3   4
ENDBRANCH   2   3
TORSDOF 5
ENDMDL
MODEL      199
REMARK 921   NORMALIZED FREE ENERGY PREDICTED BY IDOCK:   -3.16 KCAL/MOL
REMARK 922        TOTAL FREE ENERGY PREDICTED BY IDOCK:   -4.49 KCAL/MOL
REMARK 923 INTER-LIGAND FREE ENERGY PREDICTED BY IDOCK:   -4.20 KCAL/MOL
REMARK 924 INTRA-LIGAND FREE ENERGY PREDICTED BY IDOCK:   -0.29 KCAL/MOL
REMARK 927      BINDING AFFINITY PREDICTED BY RF-SCORE:    0.00 PKD
ROOT
HETATM    1  C   UNL     1     -11.009  14.172  64.734  1.00  0.00    -0.409 C  
HETATM    2  C   UNL     1     -12.286  13.926  65.522  1.00  0.00    -0.506 C  
ENDROOT
BRANCH   2   3
HETATM    3  C   UNL     1     -11.982  13.617  66.986  1.00  0.00    -0.448 C  
BRANCH   3   4
HETATM    4  C   UNL     1     -11.458  12.192  67.168  1.00  0.00    -0.413 C  
BRANCH   4   5
HETATM    5  C   UNL     1      -9.975  12.197  67.541  1.00  0.00    -0.202 C  
BRANCH   5   6
HETATM    6  C   UNL     1      -9.261  10.951  67.017  1.00  0.00    -0.165 C  
BRANCH   6   7
HETATM    7  C   UNL     1      -9.821   9.686  67.623  1.00  0.00    -0.202 A  
HETATM    8  C   UNL     1      -9.825   9.431  69.002  1.00  0.00    -0.169 A  
HETATM    9  C   UNL     1     -10.387   8.264  69.520  1.00  0.00    -0.219 A  
HETATM   10  O   UNL     1      -9.285  10.287  69.920  1.00  0.00    -0.389 OA 
HETATM   11  H   UNL     1      -9.289  10.114  70.854  1.00  0.00     0.000 HD 
HETATM   12  C   UNL     1     -10.925   7.321  68.652  1.00  0.00     0.014 A  
HETATM   13  C   UNL     1     -10.908   7.532  67.281  1.00  0.00    -0.297 A  
HETATM   14  O   UNL     1     -11.478   6.163  69.113  1.00  0.00    -0.461 OA 
HETATM   15  H   UNL     1     -11.846   5.519  68.520  1.00  0.00     0.000 HD 
HETATM   16  C   UNL     1     -10.360   8.709  66.768  1.00  0.00    -0.336 A  
ENDBRANCH   6   7
ENDBRANCH   5   6
ENDBRANCH   4   5
ENDBRANCH   3   4
ENDBRANCH   2   3
TORSDOF 5
ENDMDL
MODEL      200
REMARK 921   NORMALIZED FREE ENERGY PREDICTED BY IDOCK:   -3.14 KCAL/MOL
REMARK 922        TOTAL FREE ENERGY PREDICTED BY IDOCK:   -4.46 KCAL/MOL
REMARK 923 INTER-LIGAND FREE ENERGY PREDICTED BY IDOCK:   -4.18 KCAL/MOL
REMARK 924 INTRA-LIGAND FREE ENERGY PREDICTED BY IDOCK:   -0.28 KCAL/MOL
REMARK 927      BINDING AFFINITY PREDICTED BY RF-SCORE:    0.00 PKD
ROOT
HETATM    1  C   UNL     1     -13.559  13.231  72.231  1.00  0.00    -0.703 C  
HETATM    2  C   UNL     1     -12.808  12.151  71.468  1.00  0.00    -0.394 C  
ENDROOT
BRANCH   2   3
HETATM    3  C   UNL     1     -13.269  10.756  71.886  1.00  0.00    -0.524 C  
BRANCH   3   4
HETATM    4  C   UNL     1     -12.112   9.756  71.897  1.00  0.00    -0.331 C  
BRANCH   4   5
HETATM    5  C   UNL     1     -12.523   8.450  72.579  1.00  0.00    -0.337 C  
BRANCH   5   6
HETATM    6  C   UNL     1     -12.085   7.231  71.766  1.00  0.00    -0.353 C  
BRANCH   6   7
HETATM    7  C   UNL     1     -10.814   6.622  72.308  1.00  0.00    -0.260 A  
HETATM    8  C   UNL     1     -10.795   5.483  73.125  1.00  0.00    -0.285 A  
HETATM    9  C   UNL     1      -9.594   4.933  73.572  1.00  0.00    -0.142 A  
HETATM   10  O   UNL     1     -11.930   4.844  73.539  1.00  0.00    -0.381 OA 
HETATM   11  H   UNL     1     -11.917   4.072  74.093  1.00  0.00     0.000 HD 
HETATM   12  C   UNL     1      -8.394   5.543  73.227  1.00  0.00    -0.117 A  
HETATM   13  C   UNL     1      -8.382   6.688  72.445  1.00  0.00    -0.106 A  
HETATM   14  O   UNL     1      -7.196   5.045  73.648  1.00  0.00    -0.079 OA 
HETATM   15  H   UNL     1      -6.376   5.462  73.412  1.00  0.00     0.000 HD 
HETATM   16  C   UNL     1      -9.586   7.226  71.985  1.00  0.00    -0.169 A  
ENDBRANCH   6   7
ENDBRANCH   5   6
ENDBRANCH   4   5
ENDBRANCH   3   4
ENDBRANCH   2   3
TORSDOF 5
ENDMDL
MODEL      201
REMARK 921   NORMALIZED FREE ENERGY PREDICTED BY IDOCK:   -3.13 KCAL/MOL
REMARK 922        TOTAL FREE ENERGY PREDICTED BY IDOCK:   -4.46 KCAL/MOL
REMARK 923 INTER-LIGAND FREE ENERGY PREDICTED BY IDOCK:   -3.92 KCAL/MOL
REMARK 924 INTRA-LIGAND FREE ENERGY PREDICTED BY IDOCK:   -0.53 KCAL/MOL
REMARK 927      BINDING AFFINITY PREDICTED BY RF-SCORE:    0.00 PKD
ROOT
HETATM    1  C   UNL     1     -11.950   7.023  70.952  1.00  0.00    -0.409 C  
HETATM    2  C   UNL     1     -11.583   8.008  72.051  1.00  0.00    -0.369 C  
ENDROOT
BRANCH   2   3
HETATM    3  C   UNL     1     -11.018   9.302  71.468  1.00  0.00    -0.446 C  
BRANCH   3   4
HETATM    4  C   UNL     1     -12.102  10.138  70.787  1.00  0.00    -0.438 C  
BRANCH   4   5
HETATM    5  C   UNL     1     -11.500  11.042  69.709  1.00  0.00    -0.387 C  
BRANCH   5   6
HETATM    6  C   UNL     1     -11.305  10.290  68.392  1.00  0.00    -0.244 C  
BRANCH   6   7
HETATM    7  C   UNL     1      -9.933  10.529  67.807  1.00  0.00    -0.198 A  
HETATM    8  C   UNL     1      -9.424   9.804  66.721  1.00  0.00    -0.163 A  
HETATM    9  C   UNL     1      -8.164  10.084  66.191  1.00  0.00    -0.121 A  
HETATM   10  O   UNL     1     -10.107   8.785  66.118  1.00  0.00    -0.405 OA 
HETATM   11  H   UNL     1      -9.762   8.295  65.382  1.00  0.00     0.000 HD 
HETATM   12  C   UNL     1      -7.386  11.080  66.769  1.00  0.00    -0.139 A  
HETATM   13  C   UNL     1      -7.851  11.795  67.864  1.00  0.00    -0.135 A  
HETATM   14  O   UNL     1      -6.147  11.383  66.289  1.00  0.00    -0.284 OA 
HETATM   15  H   UNL     1      -5.615  12.064  66.684  1.00  0.00     0.000 HD 
HETATM   16  C   UNL     1      -9.120  11.522  68.381  1.00  0.00    -0.185 A  
ENDBRANCH   6   7
ENDBRANCH   5   6
ENDBRANCH   4   5
ENDBRANCH   3   4
ENDBRANCH   2   3
TORSDOF 5
ENDMDL
MODEL      202
REMARK 921   NORMALIZED FREE ENERGY PREDICTED BY IDOCK:   -3.13 KCAL/MOL
REMARK 922        TOTAL FREE ENERGY PREDICTED BY IDOCK:   -4.45 KCAL/MOL
REMARK 923 INTER-LIGAND FREE ENERGY PREDICTED BY IDOCK:   -4.94 KCAL/MOL
REMARK 924 INTRA-LIGAND FREE ENERGY PREDICTED BY IDOCK:    0.48 KCAL/MOL
REMARK 927      BINDING AFFINITY PREDICTED BY RF-SCORE:    0.00 PKD
ROOT
HETATM    1  C   UNL     1     -10.429   6.920  69.679  1.00  0.00    -0.240 C  
HETATM    2  C   UNL     1     -10.630   8.398  69.975  1.00  0.00    -0.235 C  
ENDROOT
BRANCH   2   3
HETATM    3  C   UNL     1     -11.556   8.602  71.173  1.00  0.00    -0.330 C  
BRANCH   3   4
HETATM    4  C   UNL     1     -11.857  10.082  71.412  1.00  0.00    -0.447 C  
BRANCH   4   5
HETATM    5  C   UNL     1     -12.384  10.746  70.139  1.00  0.00    -0.401 C  
BRANCH   5   6
HETATM    6  C   UNL     1     -12.098  12.248  70.132  1.00  0.00    -0.364 C  
BRANCH   6   7
HETATM    7  C   UNL     1     -11.442  12.688  68.844  1.00  0.00    -0.354 A  
HETATM    8  C   UNL     1     -11.391  11.888  67.695  1.00  0.00    -0.304 A  
HETATM    9  C   UNL     1     -10.806  12.351  66.516  1.00  0.00    -0.284 A  
HETATM   10  O   UNL     1     -11.894  10.618  67.648  1.00  0.00    -0.633 OA 
HETATM   11  H   UNL     1     -11.860  10.076  66.869  1.00  0.00     0.000 HD 
HETATM   12  C   UNL     1     -10.236  13.618  66.489  1.00  0.00    -0.284 A  
HETATM   13  C   UNL     1     -10.245  14.422  67.620  1.00  0.00    -0.229 A  
HETATM   14  O   UNL     1      -9.647  14.109  65.361  1.00  0.00    -0.549 OA 
HETATM   15  H   UNL     1      -9.258  14.975  65.343  1.00  0.00     0.000 HD 
HETATM   16  C   UNL     1     -10.846  13.960  68.793  1.00  0.00    -0.282 A  
ENDBRANCH   6   7
ENDBRANCH   5   6
ENDBRANCH   4   5
ENDBRANCH   3   4
ENDBRANCH   2   3
TORSDOF 5
ENDMDL
MODEL      203
REMARK 921   NORMALIZED FREE ENERGY PREDICTED BY IDOCK:   -3.12 KCAL/MOL
REMARK 922        TOTAL FREE ENERGY PREDICTED BY IDOCK:   -4.44 KCAL/MOL
REMARK 923 INTER-LIGAND FREE ENERGY PREDICTED BY IDOCK:   -4.11 KCAL/MOL
REMARK 924 INTRA-LIGAND FREE ENERGY PREDICTED BY IDOCK:   -0.33 KCAL/MOL
REMARK 927      BINDING AFFINITY PREDICTED BY RF-SCORE:    0.00 PKD
ROOT
HETATM    1  C   UNL     1     -10.914  16.448  69.836  1.00  0.00    -0.339 C  
HETATM    2  C   UNL     1     -11.608  15.663  70.939  1.00  0.00    -0.424 C  
ENDROOT
BRANCH   2   3
HETATM    3  C   UNL     1     -12.541  14.601  70.358  1.00  0.00    -0.399 C  
BRANCH   3   4
HETATM    4  C   UNL     1     -12.033  14.072  69.016  1.00  0.00    -0.392 C  
BRANCH   4   5
HETATM    5  C   UNL     1     -11.612  12.605  69.129  1.00  0.00    -0.374 C  
BRANCH   5   6
HETATM    6  C   UNL     1     -11.656  11.904  67.772  1.00  0.00    -0.393 C  
BRANCH   6   7
HETATM    7  C   UNL     1     -10.874  10.611  67.782  1.00  0.00    -0.338 A  
HETATM    8  C   UNL     1     -10.233  10.092  66.649  1.00  0.00    -0.223 A  
HETATM    9  C   UNL     1      -9.491   8.912  66.714  1.00  0.00    -0.243 A  
HETATM   10  O   UNL     1     -10.292  10.687  65.421  1.00  0.00    -0.272 OA 
HETATM   11  H   UNL     1      -9.857  10.335  64.653  1.00  0.00     0.000 HD 
HETATM   12  C   UNL     1      -9.410   8.223  67.919  1.00  0.00    -0.138 A  
HETATM   13  C   UNL     1     -10.059   8.696  69.050  1.00  0.00    -0.207 A  
HETATM   14  O   UNL     1      -8.702   7.062  68.028  1.00  0.00    -0.126 OA 
HETATM   15  H   UNL     1      -8.647   6.591  68.851  1.00  0.00     0.000 HD 
HETATM   16  C   UNL     1     -10.787   9.886  68.983  1.00  0.00    -0.242 A  
ENDBRANCH   6   7
ENDBRANCH   5   6
ENDBRANCH   4   5
ENDBRANCH   3   4
ENDBRANCH   2   3
TORSDOF 5
ENDMDL
MODEL      204
REMARK 921   NORMALIZED FREE ENERGY PREDICTED BY IDOCK:   -3.10 KCAL/MOL
REMARK 922        TOTAL FREE ENERGY PREDICTED BY IDOCK:   -4.41 KCAL/MOL
REMARK 923 INTER-LIGAND FREE ENERGY PREDICTED BY IDOCK:   -3.80 KCAL/MOL
REMARK 924 INTRA-LIGAND FREE ENERGY PREDICTED BY IDOCK:   -0.62 KCAL/MOL
REMARK 927      BINDING AFFINITY PREDICTED BY RF-SCORE:    0.00 PKD
ROOT
HETATM    1  C   UNL     1      -9.980  10.303  65.598  1.00  0.00    -0.347 C  
HETATM    2  C   UNL     1      -9.473  10.274  67.031  1.00  0.00    -0.191 C  
ENDROOT
BRANCH   2   3
HETATM    3  C   UNL     1     -10.623  10.101  68.022  1.00  0.00    -0.273 C  
BRANCH   3   4
HETATM    4  C   UNL     1     -10.208  10.476  69.445  1.00  0.00    -0.245 C  
BRANCH   4   5
HETATM    5  C   UNL     1     -11.206  11.454  70.067  1.00  0.00    -0.160 C  
BRANCH   5   6
HETATM    6  C   UNL     1     -12.028  12.173  68.997  1.00  0.00    -0.302 C  
BRANCH   6   7
HETATM    7  C   UNL     1     -11.786  13.663  69.011  1.00  0.00    -0.393 A  
HETATM    8  C   UNL     1     -12.382  14.531  69.937  1.00  0.00    -0.298 A  
HETATM    9  C   UNL     1     -12.101  15.897  69.934  1.00  0.00    -0.245 A  
HETATM   10  O   UNL     1     -13.270  14.111  70.887  1.00  0.00    -0.320 OA 
HETATM   11  H   UNL     1     -13.673  14.698  71.515  1.00  0.00     0.000 HD 
HETATM   12  C   UNL     1     -11.236  16.414  68.976  1.00  0.00    -0.291 A  
HETATM   13  C   UNL     1     -10.655  15.585  68.028  1.00  0.00    -0.270 A  
HETATM   14  O   UNL     1     -10.938  17.744  68.931  1.00  0.00    -0.196 OA 
HETATM   15  H   UNL     1     -10.347  18.097  68.277  1.00  0.00     0.000 HD 
HETATM   16  C   UNL     1     -10.927  14.216  68.045  1.00  0.00    -0.269 A  
ENDBRANCH   6   7
ENDBRANCH   5   6
ENDBRANCH   4   5
ENDBRANCH   3   4
ENDBRANCH   2   3
TORSDOF 5
ENDMDL
MODEL      205
REMARK 921   NORMALIZED FREE ENERGY PREDICTED BY IDOCK:   -3.09 KCAL/MOL
REMARK 922        TOTAL FREE ENERGY PREDICTED BY IDOCK:   -4.40 KCAL/MOL
REMARK 923 INTER-LIGAND FREE ENERGY PREDICTED BY IDOCK:   -3.64 KCAL/MOL
REMARK 924 INTRA-LIGAND FREE ENERGY PREDICTED BY IDOCK:   -0.76 KCAL/MOL
REMARK 927      BINDING AFFINITY PREDICTED BY RF-SCORE:    0.00 PKD
ROOT
HETATM    1  C   UNL     1     -10.498   8.297  66.992  1.00  0.00    -0.384 C  
HETATM    2  C   UNL     1      -9.625   9.451  66.523  1.00  0.00    -0.267 C  
ENDROOT
BRANCH   2   3
HETATM    3  C   UNL     1      -8.343   9.546  67.348  1.00  0.00    -0.125 C  
BRANCH   3   4
HETATM    4  C   UNL     1      -8.088   8.268  68.148  1.00  0.00    -0.124 C  
BRANCH   4   5
HETATM    5  C   UNL     1      -7.979   8.571  69.644  1.00  0.00    -0.101 C  
BRANCH   5   6
HETATM    6  C   UNL     1      -8.563   7.439  70.489  1.00  0.00    -0.139 C  
BRANCH   6   7
HETATM    7  C   UNL     1     -10.021   7.672  70.809  1.00  0.00    -0.181 A  
HETATM    8  C   UNL     1     -10.945   6.632  70.985  1.00  0.00    -0.259 A  
HETATM    9  C   UNL     1     -12.275   6.894  71.316  1.00  0.00    -0.427 A  
HETATM   10  O   UNL     1     -10.619   5.313  70.842  1.00  0.00    -0.236 OA 
HETATM   11  H   UNL     1     -11.245   4.609  70.962  1.00  0.00     0.000 HD 
HETATM   12  C   UNL     1     -12.699   8.212  71.444  1.00  0.00    -0.268 A  
HETATM   13  C   UNL     1     -11.815   9.262  71.246  1.00  0.00    -0.415 A  
HETATM   14  O   UNL     1     -13.991   8.515  71.759  1.00  0.00    -0.393 OA 
HETATM   15  H   UNL     1     -14.281   9.415  71.847  1.00  0.00     0.000 HD 
HETATM   16  C   UNL     1     -10.481   8.994  70.931  1.00  0.00    -0.321 A  
ENDBRANCH   6   7
ENDBRANCH   5   6
ENDBRANCH   4   5
ENDBRANCH   3   4
ENDBRANCH   2   3
TORSDOF 5
ENDMDL
MODEL      206
REMARK 921   NORMALIZED FREE ENERGY PREDICTED BY IDOCK:   -3.09 KCAL/MOL
REMARK 922        TOTAL FREE ENERGY PREDICTED BY IDOCK:   -4.40 KCAL/MOL
REMARK 923 INTER-LIGAND FREE ENERGY PREDICTED BY IDOCK:   -4.07 KCAL/MOL
REMARK 924 INTRA-LIGAND FREE ENERGY PREDICTED BY IDOCK:   -0.33 KCAL/MOL
REMARK 927      BINDING AFFINITY PREDICTED BY RF-SCORE:    0.00 PKD
ROOT
HETATM    1  C   UNL     1      -6.380  12.292  67.217  1.00  0.00    -0.150 C  
HETATM    2  C   UNL     1      -6.056  10.925  66.635  1.00  0.00    -0.101 C  
ENDROOT
BRANCH   2   3
HETATM    3  C   UNL     1      -7.148  10.460  65.673  1.00  0.00    -0.142 C  
BRANCH   3   4
HETATM    4  C   UNL     1      -8.471  11.183  65.924  1.00  0.00    -0.105 C  
BRANCH   4   5
HETATM    5  C   UNL     1      -9.649  10.209  65.859  1.00  0.00    -0.274 C  
BRANCH   5   6
HETATM    6  C   UNL     1     -10.931  10.909  65.407  1.00  0.00    -0.032 C  
BRANCH   6   7
HETATM    7  C   UNL     1     -11.258  12.098  66.278  1.00  0.00    -0.382 A  
HETATM    8  C   UNL     1     -11.671  11.983  67.613  1.00  0.00    -0.294 A  
HETATM    9  C   UNL     1     -11.928  13.112  68.392  1.00  0.00    -0.324 A  
HETATM   10  O   UNL     1     -11.855  10.780  68.235  1.00  0.00    -0.688 OA 
HETATM   11  H   UNL     1     -12.134  10.702  69.139  1.00  0.00     0.000 HD 
HETATM   12  C   UNL     1     -11.801  14.375  67.825  1.00  0.00    -0.368 A  
HETATM   13  C   UNL     1     -11.423  14.520  66.498  1.00  0.00    -0.366 A  
HETATM   14  O   UNL     1     -12.049  15.506  68.545  1.00  0.00    -0.546 OA 
HETATM   15  H   UNL     1     -11.962  16.369  68.158  1.00  0.00     0.000 HD 
HETATM   16  C   UNL     1     -11.152  13.387  65.727  1.00  0.00    -0.295 A  
ENDBRANCH   6   7
ENDBRANCH   5   6
ENDBRANCH   4   5
ENDBRANCH   3   4
ENDBRANCH   2   3
TORSDOF 5
ENDMDL
MODEL      207
REMARK 921   NORMALIZED FREE ENERGY PREDICTED BY IDOCK:   -3.09 KCAL/MOL
REMARK 922        TOTAL FREE ENERGY PREDICTED BY IDOCK:   -4.40 KCAL/MOL
REMARK 923 INTER-LIGAND FREE ENERGY PREDICTED BY IDOCK:   -4.16 KCAL/MOL
REMARK 924 INTRA-LIGAND FREE ENERGY PREDICTED BY IDOCK:   -0.24 KCAL/MOL
REMARK 927      BINDING AFFINITY PREDICTED BY RF-SCORE:    0.00 PKD
ROOT
HETATM    1  C   UNL     1     -12.534  13.570  63.679  1.00  0.00    -0.278 C  
HETATM    2  C   UNL     1     -12.495  12.064  63.469  1.00  0.00    -0.654 C  
ENDROOT
BRANCH   2   3
HETATM    3  C   UNL     1     -11.076  11.520  63.621  1.00  0.00    -0.469 C  
BRANCH   3   4
HETATM    4  C   UNL     1     -10.093  12.612  64.047  1.00  0.00    -0.280 C  
BRANCH   4   5
HETATM    5  C   UNL     1      -9.805  12.534  65.547  1.00  0.00    -0.197 C  
BRANCH   5   6
HETATM    6  C   UNL     1     -10.478  13.678  66.307  1.00  0.00    -0.291 C  
BRANCH   6   7
HETATM    7  C   UNL     1      -9.470  14.675  66.828  1.00  0.00    -0.275 A  
HETATM    8  C   UNL     1      -9.391  15.998  66.372  1.00  0.00    -0.298 A  
HETATM    9  C   UNL     1      -8.467  16.895  66.909  1.00  0.00    -0.243 A  
HETATM   10  O   UNL     1     -10.191  16.494  65.382  1.00  0.00    -0.566 OA 
HETATM   11  H   UNL     1     -10.138  17.391  65.073  1.00  0.00     0.000 HD 
HETATM   12  C   UNL     1      -7.588  16.461  67.895  1.00  0.00    -0.148 A  
HETATM   13  C   UNL     1      -7.623  15.149  68.346  1.00  0.00    -0.117 A  
HETATM   14  O   UNL     1      -6.664  17.300  68.444  1.00  0.00    -0.169 OA 
HETATM   15  H   UNL     1      -6.064  17.004  69.117  1.00  0.00     0.000 HD 
HETATM   16  C   UNL     1      -8.561  14.260  67.816  1.00  0.00    -0.177 A  
ENDBRANCH   6   7
ENDBRANCH   5   6
ENDBRANCH   4   5
ENDBRANCH   3   4
ENDBRANCH   2   3
TORSDOF 5
ENDMDL
MODEL      208
REMARK 921   NORMALIZED FREE ENERGY PREDICTED BY IDOCK:   -3.08 KCAL/MOL
REMARK 922        TOTAL FREE ENERGY PREDICTED BY IDOCK:   -4.39 KCAL/MOL
REMARK 923 INTER-LIGAND FREE ENERGY PREDICTED BY IDOCK:   -4.04 KCAL/MOL
REMARK 924 INTRA-LIGAND FREE ENERGY PREDICTED BY IDOCK:   -0.35 KCAL/MOL
REMARK 927      BINDING AFFINITY PREDICTED BY RF-SCORE:    0.00 PKD
ROOT
HETATM    1  C   UNL     1      -6.252   4.173  68.755  1.00  0.00    -0.032 C  
HETATM    2  C   UNL     1      -7.055   4.960  69.778  1.00  0.00    -0.054 C  
ENDROOT
BRANCH   2   3
HETATM    3  C   UNL     1      -7.983   4.045  70.575  1.00  0.00    -0.055 C  
BRANCH   3   4
HETATM    4  C   UNL     1      -9.415   4.083  70.038  1.00  0.00    -0.260 C  
BRANCH   4   5
HETATM    5  C   UNL     1     -10.236   5.165  70.742  1.00  0.00    -0.308 C  
BRANCH   5   6
HETATM    6  C   UNL     1     -10.887   6.117  69.738  1.00  0.00    -0.421 C  
BRANCH   6   7
HETATM    7  C   UNL     1     -11.481   7.328  70.416  1.00  0.00    -0.279 A  
HETATM    8  C   UNL     1     -10.986   8.628  70.241  1.00  0.00    -0.236 A  
HETATM    9  C   UNL     1     -11.591   9.722  70.860  1.00  0.00    -0.441 A  
HETATM   10  O   UNL     1      -9.894   8.912  69.471  1.00  0.00    -0.173 OA 
HETATM   11  H   UNL     1      -9.559   9.792  69.352  1.00  0.00     0.000 HD 
HETATM   12  C   UNL     1     -12.686   9.517  71.691  1.00  0.00    -0.388 A  
HETATM   13  C   UNL     1     -13.180   8.239  71.908  1.00  0.00    -0.366 A  
HETATM   14  O   UNL     1     -13.304  10.555  72.323  1.00  0.00    -0.601 OA 
HETATM   15  H   UNL     1     -14.052  10.415  72.890  1.00  0.00     0.000 HD 
HETATM   16  C   UNL     1     -12.581   7.148  71.273  1.00  0.00    -0.421 A  
ENDBRANCH   6   7
ENDBRANCH   5   6
ENDBRANCH   4   5
ENDBRANCH   3   4
ENDBRANCH   2   3
TORSDOF 5
ENDMDL
MODEL      209
REMARK 921   NORMALIZED FREE ENERGY PREDICTED BY IDOCK:   -3.07 KCAL/MOL
REMARK 922        TOTAL FREE ENERGY PREDICTED BY IDOCK:   -4.38 KCAL/MOL
REMARK 923 INTER-LIGAND FREE ENERGY PREDICTED BY IDOCK:   -4.06 KCAL/MOL
REMARK 924 INTRA-LIGAND FREE ENERGY PREDICTED BY IDOCK:   -0.32 KCAL/MOL
REMARK 927      BINDING AFFINITY PREDICTED BY RF-SCORE:    0.00 PKD
ROOT
HETATM    1  C   UNL     1     -10.972   6.641  68.842  1.00  0.00    -0.325 C  
HETATM    2  C   UNL     1     -10.863   6.626  67.325  1.00  0.00    -0.456 C  
ENDROOT
BRANCH   2   3
HETATM    3  C   UNL     1     -10.481   8.003  66.784  1.00  0.00    -0.319 C  
BRANCH   3   4
HETATM    4  C   UNL     1     -10.802   9.115  67.784  1.00  0.00    -0.159 C  
BRANCH   4   5
HETATM    5  C   UNL     1     -10.772  10.486  67.107  1.00  0.00    -0.323 C  
BRANCH   5   6
HETATM    6  C   UNL     1     -11.386  11.565  67.999  1.00  0.00    -0.368 C  
BRANCH   6   7
HETATM    7  C   UNL     1     -10.812  12.931  67.705  1.00  0.00    -0.248 A  
HETATM    8  C   UNL     1     -11.567  13.982  67.166  1.00  0.00    -0.372 A  
HETATM    9  C   UNL     1     -11.003  15.239  66.945  1.00  0.00    -0.315 A  
HETATM   10  O   UNL     1     -12.882  13.854  66.819  1.00  0.00    -0.352 OA 
HETATM   11  H   UNL     1     -13.393  14.566  66.454  1.00  0.00     0.000 HD 
HETATM   12  C   UNL     1      -9.659  15.444  67.236  1.00  0.00    -0.211 A  
HETATM   13  C   UNL     1      -8.879  14.415  67.742  1.00  0.00    -0.186 A  
HETATM   14  O   UNL     1      -9.063  16.653  67.029  1.00  0.00    -0.206 OA 
HETATM   15  H   UNL     1      -8.145  16.794  67.228  1.00  0.00     0.000 HD 
HETATM   16  C   UNL     1      -9.453  13.163  67.977  1.00  0.00    -0.220 A  
ENDBRANCH   6   7
ENDBRANCH   5   6
ENDBRANCH   4   5
ENDBRANCH   3   4
ENDBRANCH   2   3
TORSDOF 5
ENDMDL
MODEL      210
REMARK 921   NORMALIZED FREE ENERGY PREDICTED BY IDOCK:   -3.07 KCAL/MOL
REMARK 922        TOTAL FREE ENERGY PREDICTED BY IDOCK:   -4.37 KCAL/MOL
REMARK 923 INTER-LIGAND FREE ENERGY PREDICTED BY IDOCK:   -4.07 KCAL/MOL
REMARK 924 INTRA-LIGAND FREE ENERGY PREDICTED BY IDOCK:   -0.30 KCAL/MOL
REMARK 927      BINDING AFFINITY PREDICTED BY RF-SCORE:    0.00 PKD
ROOT
HETATM    1  C   UNL     1      -5.830  12.956  70.536  1.00  0.00    -0.138 C  
HETATM    2  C   UNL     1      -6.395  11.829  69.686  1.00  0.00    -0.129 C  
ENDROOT
BRANCH   2   3
HETATM    3  C   UNL     1      -6.248  10.480  70.387  1.00  0.00    -0.128 C  
BRANCH   3   4
HETATM    4  C   UNL     1      -7.160   9.417  69.771  1.00  0.00    -0.068 C  
BRANCH   4   5
HETATM    5  C   UNL     1      -8.427   9.231  70.607  1.00  0.00    -0.258 C  
BRANCH   5   6
HETATM    6  C   UNL     1      -9.356   8.185  69.991  1.00  0.00    -0.159 C  
BRANCH   6   7
HETATM    7  C   UNL     1     -10.714   8.181  70.652  1.00  0.00    -0.238 A  
HETATM    8  C   UNL     1     -11.656   7.159  70.468  1.00  0.00    -0.290 A  
HETATM    9  C   UNL     1     -12.885   7.180  71.127  1.00  0.00    -0.340 A  
HETATM   10  O   UNL     1     -11.446   6.092  69.640  1.00  0.00    -0.429 OA 
HETATM   11  H   UNL     1     -12.084   5.400  69.516  1.00  0.00     0.000 HD 
HETATM   12  C   UNL     1     -13.194   8.250  71.960  1.00  0.00    -0.319 A  
HETATM   13  C   UNL     1     -12.295   9.291  72.138  1.00  0.00    -0.398 A  
HETATM   14  O   UNL     1     -14.386   8.316  72.619  1.00  0.00    -0.731 OA 
HETATM   15  H   UNL     1     -14.598   9.047  73.188  1.00  0.00     0.000 HD 
HETATM   16  C   UNL     1     -11.059   9.257  71.488  1.00  0.00    -0.443 A  
ENDBRANCH   6   7
ENDBRANCH   5   6
ENDBRANCH   4   5
ENDBRANCH   3   4
ENDBRANCH   2   3
TORSDOF 5
ENDMDL
MODEL      211
REMARK 921   NORMALIZED FREE ENERGY PREDICTED BY IDOCK:   -3.07 KCAL/MOL
REMARK 922        TOTAL FREE ENERGY PREDICTED BY IDOCK:   -4.37 KCAL/MOL
REMARK 923 INTER-LIGAND FREE ENERGY PREDICTED BY IDOCK:   -3.47 KCAL/MOL
REMARK 924 INTRA-LIGAND FREE ENERGY PREDICTED BY IDOCK:   -0.90 KCAL/MOL
REMARK 927      BINDING AFFINITY PREDICTED BY RF-SCORE:    0.00 PKD
ROOT
HETATM    1  C   UNL     1     -11.392   5.221  72.856  1.00  0.00    -0.368 C  
HETATM    2  C   UNL     1     -10.073   5.956  73.034  1.00  0.00    -0.197 C  
ENDROOT
BRANCH   2   3
HETATM    3  C   UNL     1     -10.301   7.416  73.422  1.00  0.00    -0.411 C  
BRANCH   3   4
HETATM    4  C   UNL     1     -11.528   8.004  72.723  1.00  0.00    -0.420 C  
BRANCH   4   5
HETATM    5  C   UNL     1     -11.118   9.037  71.672  1.00  0.00    -0.433 C  
BRANCH   5   6
HETATM    6  C   UNL     1     -11.523   8.596  70.265  1.00  0.00    -0.084 C  
BRANCH   6   7
HETATM    7  C   UNL     1     -10.580   7.555  69.710  1.00  0.00    -0.245 A  
HETATM    8  C   UNL     1      -9.211   7.785  69.511  1.00  0.00    -0.149 A  
HETATM    9  C   UNL     1      -8.371   6.782  69.029  1.00  0.00    -0.124 A  
HETATM   10  O   UNL     1      -8.613   8.988  69.763  1.00  0.00    -0.124 OA 
HETATM   11  H   UNL     1      -7.686   9.143  69.629  1.00  0.00     0.000 HD 
HETATM   12  C   UNL     1      -8.906   5.538  68.711  1.00  0.00    -0.107 A  
HETATM   13  C   UNL     1     -10.262   5.290  68.868  1.00  0.00    -0.248 A  
HETATM   14  O   UNL     1      -8.124   4.530  68.229  1.00  0.00    -0.083 OA 
HETATM   15  H   UNL     1      -8.489   3.681  68.012  1.00  0.00     0.000 HD 
HETATM   16  C   UNL     1     -11.096   6.293  69.367  1.00  0.00    -0.477 A  
ENDBRANCH   6   7
ENDBRANCH   5   6
ENDBRANCH   4   5
ENDBRANCH   3   4
ENDBRANCH   2   3
TORSDOF 5
ENDMDL
MODEL      212
REMARK 921   NORMALIZED FREE ENERGY PREDICTED BY IDOCK:   -3.04 KCAL/MOL
REMARK 922        TOTAL FREE ENERGY PREDICTED BY IDOCK:   -4.34 KCAL/MOL
REMARK 923 INTER-LIGAND FREE ENERGY PREDICTED BY IDOCK:   -4.04 KCAL/MOL
REMARK 924 INTRA-LIGAND FREE ENERGY PREDICTED BY IDOCK:   -0.30 KCAL/MOL
REMARK 927      BINDING AFFINITY PREDICTED BY RF-SCORE:    0.00 PKD
ROOT
HETATM    1  C   UNL     1     -10.447   8.263  67.639  1.00  0.00    -0.303 C  
HETATM    2  C   UNL     1     -10.209   9.733  67.948  1.00  0.00    -0.237 C  
ENDROOT
BRANCH   2   3
HETATM    3  C   UNL     1     -11.156  10.626  67.149  1.00  0.00    -0.267 C  
BRANCH   3   4
HETATM    4  C   UNL     1     -11.236  12.036  67.736  1.00  0.00    -0.331 C  
BRANCH   4   5
HETATM    5  C   UNL     1     -10.028  12.874  67.315  1.00  0.00    -0.224 C  
BRANCH   5   6
HETATM    6  C   UNL     1      -9.711  13.958  68.345  1.00  0.00    -0.226 C  
BRANCH   6   7
HETATM    7  C   UNL     1      -9.463  15.298  67.694  1.00  0.00    -0.205 A  
HETATM    8  C   UNL     1      -8.274  15.619  67.025  1.00  0.00    -0.233 A  
HETATM    9  C   UNL     1      -8.103  16.857  66.406  1.00  0.00    -0.350 A  
HETATM   10  O   UNL     1      -7.213  14.762  66.937  1.00  0.00    -0.322 OA 
HETATM   11  H   UNL     1      -6.407  14.980  66.484  1.00  0.00     0.000 HD 
HETATM   12  C   UNL     1      -9.120  17.803  66.479  1.00  0.00    -0.264 A  
HETATM   13  C   UNL     1     -10.296  17.525  67.159  1.00  0.00    -0.330 A  
HETATM   14  O   UNL     1      -8.995  19.029  65.895  1.00  0.00    -0.448 OA 
HETATM   15  H   UNL     1      -9.689  19.674  65.945  1.00  0.00     0.000 HD 
HETATM   16  C   UNL     1     -10.469  16.277  67.764  1.00  0.00    -0.295 A  
ENDBRANCH   6   7
ENDBRANCH   5   6
ENDBRANCH   4   5
ENDBRANCH   3   4
ENDBRANCH   2   3
TORSDOF 5
ENDMDL
MODEL      213
REMARK 921   NORMALIZED FREE ENERGY PREDICTED BY IDOCK:   -3.04 KCAL/MOL
REMARK 922        TOTAL FREE ENERGY PREDICTED BY IDOCK:   -4.33 KCAL/MOL
REMARK 923 INTER-LIGAND FREE ENERGY PREDICTED BY IDOCK:   -3.61 KCAL/MOL
REMARK 924 INTRA-LIGAND FREE ENERGY PREDICTED BY IDOCK:   -0.72 KCAL/MOL
REMARK 927      BINDING AFFINITY PREDICTED BY RF-SCORE:    0.00 PKD
ROOT
HETATM    1  C   UNL     1      -9.225  10.633  69.143  1.00  0.00    -0.162 C  
HETATM    2  C   UNL     1      -9.441  11.310  67.798  1.00  0.00    -0.173 C  
ENDROOT
BRANCH   2   3
HETATM    3  C   UNL     1      -8.836  12.712  67.781  1.00  0.00    -0.179 C  
BRANCH   3   4
HETATM    4  C   UNL     1      -9.426  13.571  66.661  1.00  0.00    -0.271 C  
BRANCH   4   5
HETATM    5  C   UNL     1     -10.953  13.604  66.743  1.00  0.00    -0.297 C  
BRANCH   5   6
HETATM    6  C   UNL     1     -11.456  14.938  67.294  1.00  0.00    -0.350 C  
BRANCH   6   7
HETATM    7  C   UNL     1     -11.539  14.927  68.802  1.00  0.00    -0.348 A  
HETATM    8  C   UNL     1     -10.668  15.654  69.625  1.00  0.00    -0.278 A  
HETATM    9  C   UNL     1     -10.805  15.643  71.014  1.00  0.00    -0.168 A  
HETATM   10  O   UNL     1      -9.637  16.408  69.139  1.00  0.00    -0.259 OA 
HETATM   11  H   UNL     1      -9.047  16.901  69.697  1.00  0.00     0.000 HD 
HETATM   12  C   UNL     1     -11.806  14.871  71.594  1.00  0.00    -0.366 A  
HETATM   13  C   UNL     1     -12.664  14.117  70.807  1.00  0.00    -0.414 A  
HETATM   14  O   UNL     1     -11.972  14.823  72.946  1.00  0.00    -0.235 OA 
HETATM   15  H   UNL     1     -12.656  14.297  73.343  1.00  0.00     0.000 HD 
HETATM   16  C   UNL     1     -12.532  14.145  69.416  1.00  0.00    -0.114 A  
ENDBRANCH   6   7
ENDBRANCH   5   6
ENDBRANCH   4   5
ENDBRANCH   3   4
ENDBRANCH   2   3
TORSDOF 5
ENDMDL
MODEL      214
REMARK 921   NORMALIZED FREE ENERGY PREDICTED BY IDOCK:   -3.03 KCAL/MOL
REMARK 922        TOTAL FREE ENERGY PREDICTED BY IDOCK:   -4.32 KCAL/MOL
REMARK 923 INTER-LIGAND FREE ENERGY PREDICTED BY IDOCK:   -3.88 KCAL/MOL
REMARK 924 INTRA-LIGAND FREE ENERGY PREDICTED BY IDOCK:   -0.44 KCAL/MOL
REMARK 927      BINDING AFFINITY PREDICTED BY RF-SCORE:    0.00 PKD
ROOT
HETATM    1  C   UNL     1     -10.269  11.611  66.028  1.00  0.00    -0.270 C  
HETATM    2  C   UNL     1      -9.600  10.305  66.427  1.00  0.00    -0.233 C  
ENDROOT
BRANCH   2   3
HETATM    3  C   UNL     1     -10.572   9.390  67.170  1.00  0.00    -0.294 C  
BRANCH   3   4
HETATM    4  C   UNL     1      -9.930   8.048  67.525  1.00  0.00    -0.253 C  
BRANCH   4   5
HETATM    5  C   UNL     1     -10.976   6.932  67.558  1.00  0.00    -0.340 C  
BRANCH   5   6
HETATM    6  C   UNL     1     -10.534   5.777  68.456  1.00  0.00    -0.290 C  
BRANCH   6   7
HETATM    7  C   UNL     1     -10.661   6.124  69.920  1.00  0.00    -0.366 A  
HETATM    8  C   UNL     1      -9.580   6.100  70.813  1.00  0.00    -0.169 A  
HETATM    9  C   UNL     1      -9.738   6.464  72.150  1.00  0.00    -0.161 A  
HETATM   10  O   UNL     1      -8.320   5.720  70.447  1.00  0.00    -0.117 OA 
HETATM   11  H   UNL     1      -7.588   5.704  71.051  1.00  0.00     0.000 HD 
HETATM   12  C   UNL     1     -10.996   6.828  72.615  1.00  0.00    -0.257 A  
HETATM   13  C   UNL     1     -12.091   6.832  71.763  1.00  0.00    -0.393 A  
HETATM   14  O   UNL     1     -11.199   7.184  73.916  1.00  0.00    -0.440 OA 
HETATM   15  H   UNL     1     -12.058   7.433  74.233  1.00  0.00     0.000 HD 
HETATM   16  C   UNL     1     -11.925   6.483  70.421  1.00  0.00    -0.295 A  
ENDBRANCH   6   7
ENDBRANCH   5   6
ENDBRANCH   4   5
ENDBRANCH   3   4
ENDBRANCH   2   3
TORSDOF 5
ENDMDL
MODEL      215
REMARK 921   NORMALIZED FREE ENERGY PREDICTED BY IDOCK:   -3.01 KCAL/MOL
REMARK 922        TOTAL FREE ENERGY PREDICTED BY IDOCK:   -4.30 KCAL/MOL
REMARK 923 INTER-LIGAND FREE ENERGY PREDICTED BY IDOCK:   -3.96 KCAL/MOL
REMARK 924 INTRA-LIGAND FREE ENERGY PREDICTED BY IDOCK:   -0.35 KCAL/MOL
REMARK 927      BINDING AFFINITY PREDICTED BY RF-SCORE:    0.00 PKD
ROOT
HETATM    1  C   UNL     1      -6.204   7.204  70.673  1.00  0.00    -0.035 C  
HETATM    2  C   UNL     1      -7.357   6.375  70.127  1.00  0.00    -0.086 C  
ENDROOT
BRANCH   2   3
HETATM    3  C   UNL     1      -8.554   7.256  69.775  1.00  0.00    -0.141 C  
BRANCH   3   4
HETATM    4  C   UNL     1      -9.221   7.833  71.025  1.00  0.00    -0.158 C  
BRANCH   4   5
HETATM    5  C   UNL     1      -9.620   9.293  70.808  1.00  0.00    -0.341 C  
BRANCH   5   6
HETATM    6  C   UNL     1     -11.100   9.422  70.445  1.00  0.00    -0.311 C  
BRANCH   6   7
HETATM    7  C   UNL     1     -11.400  10.739  69.769  1.00  0.00    -0.372 A  
HETATM    8  C   UNL     1     -11.276  10.940  68.387  1.00  0.00    -0.285 A  
HETATM    9  C   UNL     1     -11.599  12.164  67.802  1.00  0.00    -0.410 A  
HETATM   10  O   UNL     1     -10.833   9.972  67.530  1.00  0.00    -0.277 OA 
HETATM   11  H   UNL     1     -10.749  10.108  66.594  1.00  0.00     0.000 HD 
HETATM   12  C   UNL     1     -12.023  13.215  68.608  1.00  0.00    -0.284 A  
HETATM   13  C   UNL     1     -12.127  13.055  69.982  1.00  0.00    -0.367 A  
HETATM   14  O   UNL     1     -12.343  14.431  68.080  1.00  0.00    -0.601 OA 
HETATM   15  H   UNL     1     -12.633  15.149  68.630  1.00  0.00     0.000 HD 
HETATM   16  C   UNL     1     -11.818  11.823  70.561  1.00  0.00    -0.288 A  
ENDBRANCH   6   7
ENDBRANCH   5   6
ENDBRANCH   4   5
ENDBRANCH   3   4
ENDBRANCH   2   3
TORSDOF 5
ENDMDL
MODEL      216
REMARK 921   NORMALIZED FREE ENERGY PREDICTED BY IDOCK:   -3.01 KCAL/MOL
REMARK 922        TOTAL FREE ENERGY PREDICTED BY IDOCK:   -4.30 KCAL/MOL
REMARK 923 INTER-LIGAND FREE ENERGY PREDICTED BY IDOCK:   -3.91 KCAL/MOL
REMARK 924 INTRA-LIGAND FREE ENERGY PREDICTED BY IDOCK:   -0.39 KCAL/MOL
REMARK 927      BINDING AFFINITY PREDICTED BY RF-SCORE:    0.00 PKD
ROOT
HETATM    1  C   UNL     1      -6.953   7.758  70.984  1.00  0.00    -0.049 C  
HETATM    2  C   UNL     1      -8.047   7.246  70.060  1.00  0.00    -0.130 C  
ENDROOT
BRANCH   2   3
HETATM    3  C   UNL     1      -8.440   8.301  69.028  1.00  0.00    -0.131 C  
BRANCH   3   4
HETATM    4  C   UNL     1      -8.917   9.594  69.691  1.00  0.00    -0.215 C  
BRANCH   4   5
HETATM    5  C   UNL     1      -9.404  10.598  68.646  1.00  0.00    -0.177 C  
BRANCH   5   6
HETATM    6  C   UNL     1      -8.793  10.319  67.272  1.00  0.00    -0.136 C  
BRANCH   6   7
HETATM    7  C   UNL     1      -9.548  11.021  66.169  1.00  0.00    -0.240 A  
HETATM    8  C   UNL     1      -9.809  10.435  64.922  1.00  0.00    -0.334 A  
HETATM    9  C   UNL     1     -10.542  11.108  63.945  1.00  0.00    -0.431 A  
HETATM   10  O   UNL     1      -9.367   9.188  64.578  1.00  0.00    -0.433 OA 
HETATM   11  H   UNL     1      -9.544   8.791  63.733  1.00  0.00     0.000 HD 
HETATM   12  C   UNL     1     -10.997  12.397  64.200  1.00  0.00    -0.367 A  
HETATM   13  C   UNL     1     -10.729  13.014  65.413  1.00  0.00    -0.309 A  
HETATM   14  O   UNL     1     -11.711  13.095  63.272  1.00  0.00    -0.713 OA 
HETATM   15  H   UNL     1     -12.023  13.975  63.446  1.00  0.00     0.000 HD 
HETATM   16  C   UNL     1     -10.009  12.330  66.394  1.00  0.00    -0.243 A  
ENDBRANCH   6   7
ENDBRANCH   5   6
ENDBRANCH   4   5
ENDBRANCH   3   4
ENDBRANCH   2   3
TORSDOF 5
ENDMDL
MODEL      217
REMARK 921   NORMALIZED FREE ENERGY PREDICTED BY IDOCK:   -3.01 KCAL/MOL
REMARK 922        TOTAL FREE ENERGY PREDICTED BY IDOCK:   -4.30 KCAL/MOL
REMARK 923 INTER-LIGAND FREE ENERGY PREDICTED BY IDOCK:   -4.00 KCAL/MOL
REMARK 924 INTRA-LIGAND FREE ENERGY PREDICTED BY IDOCK:   -0.29 KCAL/MOL
REMARK 927      BINDING AFFINITY PREDICTED BY RF-SCORE:    0.00 PKD
ROOT
HETATM    1  C   UNL     1     -10.026   5.222  68.125  1.00  0.00    -0.209 C  
HETATM    2  C   UNL     1      -9.666   6.413  67.251  1.00  0.00    -0.155 C  
ENDROOT
BRANCH   2   3
HETATM    3  C   UNL     1     -10.840   7.383  67.127  1.00  0.00    -0.340 C  
BRANCH   3   4
HETATM    4  C   UNL     1     -10.374   8.839  67.107  1.00  0.00    -0.364 C  
BRANCH   4   5
HETATM    5  C   UNL     1      -9.434   9.130  68.278  1.00  0.00    -0.152 C  
BRANCH   5   6
HETATM    6  C   UNL     1     -10.208   9.330  69.581  1.00  0.00    -0.219 C  
BRANCH   6   7
HETATM    7  C   UNL     1     -10.920  10.662  69.612  1.00  0.00    -0.331 A  
HETATM    8  C   UNL     1     -11.958  10.959  70.507  1.00  0.00    -0.371 A  
HETATM    9  C   UNL     1     -12.562  12.216  70.523  1.00  0.00    -0.184 A  
HETATM   10  O   UNL     1     -12.448  10.054  71.405  1.00  0.00    -0.347 OA 
HETATM   11  H   UNL     1     -13.151  10.255  72.012  1.00  0.00     0.000 HD 
HETATM   12  C   UNL     1     -12.148  13.184  69.615  1.00  0.00    -0.255 A  
HETATM   13  C   UNL     1     -11.144  12.910  68.698  1.00  0.00    -0.307 A  
HETATM   14  O   UNL     1     -12.714  14.424  69.590  1.00  0.00    -0.536 OA 
HETATM   15  H   UNL     1     -12.432  15.086  68.970  1.00  0.00     0.000 HD 
HETATM   16  C   UNL     1     -10.531  11.656  68.696  1.00  0.00    -0.234 A  
ENDBRANCH   6   7
ENDBRANCH   5   6
ENDBRANCH   4   5
ENDBRANCH   3   4
ENDBRANCH   2   3
TORSDOF 5
ENDMDL
MODEL      218
REMARK 921   NORMALIZED FREE ENERGY PREDICTED BY IDOCK:   -3.01 KCAL/MOL
REMARK 922        TOTAL FREE ENERGY PREDICTED BY IDOCK:   -4.29 KCAL/MOL
REMARK 923 INTER-LIGAND FREE ENERGY PREDICTED BY IDOCK:   -3.77 KCAL/MOL
REMARK 924 INTRA-LIGAND FREE ENERGY PREDICTED BY IDOCK:   -0.52 KCAL/MOL
REMARK 927      BINDING AFFINITY PREDICTED BY RF-SCORE:    0.00 PKD
ROOT
HETATM    1  C   UNL     1     -11.534  14.891  67.140  1.00  0.00    -0.344 C  
HETATM    2  C   UNL     1     -10.875  13.523  67.063  1.00  0.00    -0.287 C  
ENDROOT
BRANCH   2   3
HETATM    3  C   UNL     1     -10.656  13.095  65.613  1.00  0.00    -0.289 C  
BRANCH   3   4
HETATM    4  C   UNL     1     -11.048  11.635  65.386  1.00  0.00    -0.299 C  
BRANCH   4   5
HETATM    5  C   UNL     1      -9.836  10.801  64.967  1.00  0.00    -0.346 C  
BRANCH   5   6
HETATM    6  C   UNL     1      -8.958  10.446  66.167  1.00  0.00    -0.175 C  
BRANCH   6   7
HETATM    7  C   UNL     1      -9.640   9.465  67.091  1.00  0.00    -0.202 A  
HETATM    8  C   UNL     1      -9.826   8.112  66.774  1.00  0.00    -0.259 A  
HETATM    9  C   UNL     1     -10.430   7.234  67.674  1.00  0.00    -0.310 A  
HETATM   10  O   UNL     1      -9.443   7.566  65.581  1.00  0.00    -0.383 OA 
HETATM   11  H   UNL     1      -9.568   6.650  65.367  1.00  0.00     0.000 HD 
HETATM   12  C   UNL     1     -10.884   7.715  68.897  1.00  0.00    -0.017 A  
HETATM   13  C   UNL     1     -10.741   9.055  69.227  1.00  0.00    -0.189 A  
HETATM   14  O   UNL     1     -11.486   6.895  69.805  1.00  0.00    -0.482 OA 
HETATM   15  H   UNL     1     -11.796   7.224  70.640  1.00  0.00     0.000 HD 
HETATM   16  C   UNL     1     -10.121   9.927  68.329  1.00  0.00    -0.185 A  
ENDBRANCH   6   7
ENDBRANCH   5   6
ENDBRANCH   4   5
ENDBRANCH   3   4
ENDBRANCH   2   3
TORSDOF 5
ENDMDL
MODEL      219
REMARK 921   NORMALIZED FREE ENERGY PREDICTED BY IDOCK:   -3.01 KCAL/MOL
REMARK 922        TOTAL FREE ENERGY PREDICTED BY IDOCK:   -4.29 KCAL/MOL
REMARK 923 INTER-LIGAND FREE ENERGY PREDICTED BY IDOCK:   -3.93 KCAL/MOL
REMARK 924 INTRA-LIGAND FREE ENERGY PREDICTED BY IDOCK:   -0.36 KCAL/MOL
REMARK 927      BINDING AFFINITY PREDICTED BY RF-SCORE:    0.00 PKD
ROOT
HETATM    1  C   UNL     1      -6.349   8.439  71.765  1.00  0.00    -0.061 C  
HETATM    2  C   UNL     1      -5.733   9.630  71.048  1.00  0.00    -0.072 C  
ENDROOT
BRANCH   2   3
HETATM    3  C   UNL     1      -6.758  10.333  70.162  1.00  0.00    -0.146 C  
BRANCH   3   4
HETATM    4  C   UNL     1      -8.154   9.727  70.317  1.00  0.00    -0.181 C  
BRANCH   4   5
HETATM    5  C   UNL     1      -8.934   9.803  69.003  1.00  0.00    -0.154 C  
BRANCH   5   6
HETATM    6  C   UNL     1     -10.042   8.752  68.948  1.00  0.00    -0.210 C  
BRANCH   6   7
HETATM    7  C   UNL     1     -11.117   9.016  69.976  1.00  0.00    -0.197 A  
HETATM    8  C   UNL     1     -12.046  10.060  69.867  1.00  0.00     0.046 A  
HETATM    9  C   UNL     1     -13.045  10.243  70.823  1.00  0.00    -0.360 A  
HETATM   10  O   UNL     1     -12.036  10.962  68.840  1.00  0.00    -0.623 OA 
HETATM   11  H   UNL     1     -12.665  11.669  68.766  1.00  0.00     0.000 HD 
HETATM   12  C   UNL     1     -13.104   9.393  71.920  1.00  0.00    -0.424 A  
HETATM   13  C   UNL     1     -12.180   8.368  72.071  1.00  0.00    -0.419 A  
HETATM   14  O   UNL     1     -14.058   9.538  72.883  1.00  0.00    -0.841 OA 
HETATM   15  H   UNL     1     -14.098   8.957  73.633  1.00  0.00     0.000 HD 
HETATM   16  C   UNL     1     -11.192   8.179  71.103  1.00  0.00    -0.289 A  
ENDBRANCH   6   7
ENDBRANCH   5   6
ENDBRANCH   4   5
ENDBRANCH   3   4
ENDBRANCH   2   3
TORSDOF 5
ENDMDL
MODEL      220
REMARK 921   NORMALIZED FREE ENERGY PREDICTED BY IDOCK:   -3.00 KCAL/MOL
REMARK 922        TOTAL FREE ENERGY PREDICTED BY IDOCK:   -4.29 KCAL/MOL
REMARK 923 INTER-LIGAND FREE ENERGY PREDICTED BY IDOCK:   -3.59 KCAL/MOL
REMARK 924 INTRA-LIGAND FREE ENERGY PREDICTED BY IDOCK:   -0.69 KCAL/MOL
REMARK 927      BINDING AFFINITY PREDICTED BY RF-SCORE:    0.00 PKD
ROOT
HETATM    1  C   UNL     1      -7.101   6.253  70.364  1.00  0.00    -0.071 C  
HETATM    2  C   UNL     1      -6.351   6.980  71.469  1.00  0.00    -0.037 C  
ENDROOT
BRANCH   2   3
HETATM    3  C   UNL     1      -6.217   6.107  72.715  1.00  0.00    -0.057 C  
BRANCH   3   4
HETATM    4  C   UNL     1      -7.192   6.532  73.813  1.00  0.00    -0.084 C  
BRANCH   4   5
HETATM    5  C   UNL     1      -8.517   5.776  73.692  1.00  0.00    -0.116 C  
BRANCH   5   6
HETATM    6  C   UNL     1      -9.696   6.636  74.149  1.00  0.00    -0.309 C  
BRANCH   6   7
HETATM    7  C   UNL     1     -10.353   7.348  72.991  1.00  0.00    -0.356 A  
HETATM    8  C   UNL     1     -11.590   6.965  72.454  1.00  0.00    -0.239 A  
HETATM    9  C   UNL     1     -12.177   7.676  71.407  1.00  0.00    -0.351 A  
HETATM   10  O   UNL     1     -12.295   5.884  72.904  1.00  0.00    -0.465 OA 
HETATM   11  H   UNL     1     -13.133   5.624  72.541  1.00  0.00     0.000 HD 
HETATM   12  C   UNL     1     -11.508   8.767  70.865  1.00  0.00    -0.284 A  
HETATM   13  C   UNL     1     -10.269   9.153  71.355  1.00  0.00    -0.402 A  
HETATM   14  O   UNL     1     -12.040   9.487  69.836  1.00  0.00    -0.444 OA 
HETATM   15  H   UNL     1     -11.584  10.233  69.466  1.00  0.00     0.000 HD 
HETATM   16  C   UNL     1      -9.694   8.448  72.414  1.00  0.00    -0.376 A  
ENDBRANCH   6   7
ENDBRANCH   5   6
ENDBRANCH   4   5
ENDBRANCH   3   4
ENDBRANCH   2   3
TORSDOF 5
ENDMDL
MODEL      221
REMARK 921   NORMALIZED FREE ENERGY PREDICTED BY IDOCK:   -2.99 KCAL/MOL
REMARK 922        TOTAL FREE ENERGY PREDICTED BY IDOCK:   -4.27 KCAL/MOL
REMARK 923 INTER-LIGAND FREE ENERGY PREDICTED BY IDOCK:   -3.44 KCAL/MOL
REMARK 924 INTRA-LIGAND FREE ENERGY PREDICTED BY IDOCK:   -0.82 KCAL/MOL
REMARK 927      BINDING AFFINITY PREDICTED BY RF-SCORE:    0.00 PKD
ROOT
HETATM    1  C   UNL     1     -11.911  10.947  70.584  1.00  0.00    -0.453 C  
HETATM    2  C   UNL     1     -12.928  12.060  70.782  1.00  0.00     0.012 C  
ENDROOT
BRANCH   2   3
HETATM    3  C   UNL     1     -12.248  13.364  71.196  1.00  0.00    -0.243 C  
BRANCH   3   4
HETATM    4  C   UNL     1     -12.407  14.450  70.131  1.00  0.00    -0.406 C  
BRANCH   4   5
HETATM    5  C   UNL     1     -11.044  14.959  69.660  1.00  0.00    -0.298 C  
BRANCH   5   6
HETATM    6  C   UNL     1     -10.902  14.858  68.141  1.00  0.00    -0.256 C  
BRANCH   6   7
HETATM    7  C   UNL     1     -10.423  13.491  67.712  1.00  0.00    -0.242 A  
HETATM    8  C   UNL     1      -9.124  13.022  67.947  1.00  0.00    -0.207 A  
HETATM    9  C   UNL     1      -8.737  11.738  67.565  1.00  0.00    -0.159 A  
HETATM   10  O   UNL     1      -8.157  13.776  68.552  1.00  0.00    -0.144 OA 
HETATM   11  H   UNL     1      -7.277  13.458  68.712  1.00  0.00     0.000 HD 
HETATM   12  C   UNL     1      -9.648  10.917  66.910  1.00  0.00    -0.178 A  
HETATM   13  C   UNL     1     -10.932  11.364  66.636  1.00  0.00    -0.341 A  
HETATM   14  O   UNL     1      -9.312   9.657  66.510  1.00  0.00    -0.151 OA 
HETATM   15  H   UNL     1      -9.935   9.097  66.063  1.00  0.00     0.000 HD 
HETATM   16  C   UNL     1     -11.320  12.645  67.035  1.00  0.00    -0.377 A  
ENDBRANCH   6   7
ENDBRANCH   5   6
ENDBRANCH   4   5
ENDBRANCH   3   4
ENDBRANCH   2   3
TORSDOF 5
ENDMDL
MODEL      222
REMARK 921   NORMALIZED FREE ENERGY PREDICTED BY IDOCK:   -2.99 KCAL/MOL
REMARK 922        TOTAL FREE ENERGY PREDICTED BY IDOCK:   -4.26 KCAL/MOL
REMARK 923 INTER-LIGAND FREE ENERGY PREDICTED BY IDOCK:   -3.44 KCAL/MOL
REMARK 924 INTRA-LIGAND FREE ENERGY PREDICTED BY IDOCK:   -0.82 KCAL/MOL
REMARK 927      BINDING AFFINITY PREDICTED BY RF-SCORE:    0.00 PKD
ROOT
HETATM    1  C   UNL     1      -6.612   6.577  69.644  1.00  0.00    -0.048 C  
HETATM    2  C   UNL     1      -6.540   6.810  71.145  1.00  0.00    -0.053 C  
ENDROOT
BRANCH   2   3
HETATM    3  C   UNL     1      -6.882   5.538  71.919  1.00  0.00    -0.063 C  
BRANCH   3   4
HETATM    4  C   UNL     1      -8.250   5.635  72.595  1.00  0.00    -0.113 C  
BRANCH   4   5
HETATM    5  C   UNL     1      -9.185   4.531  72.100  1.00  0.00    -0.165 C  
BRANCH   5   6
HETATM    6  C   UNL     1     -10.497   5.106  71.564  1.00  0.00    -0.256 C  
BRANCH   6   7
HETATM    7  C   UNL     1     -10.467   5.266  70.062  1.00  0.00    -0.351 A  
HETATM    8  C   UNL     1     -11.103   6.318  69.388  1.00  0.00    -0.410 A  
HETATM    9  C   UNL     1     -11.018   6.446  68.002  1.00  0.00    -0.400 A  
HETATM   10  O   UNL     1     -11.843   7.273  70.027  1.00  0.00    -0.524 OA 
HETATM   11  H   UNL     1     -12.274   7.986  69.571  1.00  0.00     0.000 HD 
HETATM   12  C   UNL     1     -10.315   5.496  67.271  1.00  0.00    -0.236 A  
HETATM   13  C   UNL     1      -9.701   4.427  67.906  1.00  0.00    -0.186 A  
HETATM   14  O   UNL     1     -10.212   5.576  65.913  1.00  0.00    -0.395 OA 
HETATM   15  H   UNL     1      -9.731   4.927  65.414  1.00  0.00     0.000 HD 
HETATM   16  C   UNL     1      -9.775   4.312  69.296  1.00  0.00    -0.240 A  
ENDBRANCH   6   7
ENDBRANCH   5   6
ENDBRANCH   4   5
ENDBRANCH   3   4
ENDBRANCH   2   3
TORSDOF 5
ENDMDL
MODEL      223
REMARK 921   NORMALIZED FREE ENERGY PREDICTED BY IDOCK:   -2.97 KCAL/MOL
REMARK 922        TOTAL FREE ENERGY PREDICTED BY IDOCK:   -4.25 KCAL/MOL
REMARK 923 INTER-LIGAND FREE ENERGY PREDICTED BY IDOCK:   -3.90 KCAL/MOL
REMARK 924 INTRA-LIGAND FREE ENERGY PREDICTED BY IDOCK:   -0.35 KCAL/MOL
REMARK 927      BINDING AFFINITY PREDICTED BY RF-SCORE:    0.00 PKD
ROOT
HETATM    1  C   UNL     1      -9.624   3.297  64.740  1.00  0.00    -0.149 C  
HETATM    2  C   UNL     1      -9.291   4.570  65.503  1.00  0.00    -0.162 C  
ENDROOT
BRANCH   2   3
HETATM    3  C   UNL     1     -10.301   4.825  66.620  1.00  0.00    -0.258 C  
BRANCH   3   4
HETATM    4  C   UNL     1      -9.871   5.985  67.519  1.00  0.00    -0.138 C  
BRANCH   4   5
HETATM    5  C   UNL     1     -10.588   7.277  67.126  1.00  0.00    -0.416 C  
BRANCH   5   6
HETATM    6  C   UNL     1      -9.656   8.486  67.217  1.00  0.00    -0.220 C  
BRANCH   6   7
HETATM    7  C   UNL     1      -9.981   9.526  66.171  1.00  0.00    -0.342 A  
HETATM    8  C   UNL     1      -9.536   9.447  64.844  1.00  0.00    -0.080 A  
HETATM    9  C   UNL     1      -9.891  10.413  63.903  1.00  0.00    -0.332 A  
HETATM   10  O   UNL     1      -8.731   8.441  64.386  1.00  0.00    -0.399 OA 
HETATM   11  H   UNL     1      -8.430   8.388  63.487  1.00  0.00     0.000 HD 
HETATM   12  C   UNL     1     -10.677  11.491  64.294  1.00  0.00    -0.355 A  
HETATM   13  C   UNL     1     -11.108  11.612  65.607  1.00  0.00    -0.308 A  
HETATM   14  O   UNL     1     -11.043  12.462  63.410  1.00  0.00    -0.526 OA 
HETATM   15  H   UNL     1     -11.580  13.199  63.677  1.00  0.00     0.000 HD 
HETATM   16  C   UNL     1     -10.763  10.633  66.542  1.00  0.00    -0.218 A  
ENDBRANCH   6   7
ENDBRANCH   5   6
ENDBRANCH   4   5
ENDBRANCH   3   4
ENDBRANCH   2   3
TORSDOF 5
ENDMDL
MODEL      224
REMARK 921   NORMALIZED FREE ENERGY PREDICTED BY IDOCK:   -2.97 KCAL/MOL
REMARK 922        TOTAL FREE ENERGY PREDICTED BY IDOCK:   -4.24 KCAL/MOL
REMARK 923 INTER-LIGAND FREE ENERGY PREDICTED BY IDOCK:   -4.12 KCAL/MOL
REMARK 924 INTRA-LIGAND FREE ENERGY PREDICTED BY IDOCK:   -0.13 KCAL/MOL
REMARK 927      BINDING AFFINITY PREDICTED BY RF-SCORE:    0.00 PKD
ROOT
HETATM    1  C   UNL     1     -11.790  12.393  70.052  1.00  0.00    -0.363 C  
HETATM    2  C   UNL     1     -12.110  12.154  68.584  1.00  0.00    -0.146 C  
ENDROOT
BRANCH   2   3
HETATM    3  C   UNL     1     -12.131  13.467  67.802  1.00  0.00    -0.299 C  
BRANCH   3   4
HETATM    4  C   UNL     1     -12.035  13.231  66.294  1.00  0.00    -0.471 C  
BRANCH   4   5
HETATM    5  C   UNL     1     -10.584  13.317  65.818  1.00  0.00    -0.291 C  
BRANCH   5   6
HETATM    6  C   UNL     1      -9.644  13.718  66.956  1.00  0.00    -0.251 C  
BRANCH   6   7
HETATM    7  C   UNL     1      -9.624  15.213  67.168  1.00  0.00    -0.224 A  
HETATM    8  C   UNL     1      -9.356  15.811  68.407  1.00  0.00    -0.196 A  
HETATM    9  C   UNL     1      -9.313  17.198  68.548  1.00  0.00    -0.274 A  
HETATM   10  O   UNL     1      -9.129  15.093  69.547  1.00  0.00    -0.366 OA 
HETATM   11  H   UNL     1      -8.947  15.498  70.387  1.00  0.00     0.000 HD 
HETATM   12  C   UNL     1      -9.569  18.004  67.444  1.00  0.00    -0.272 A  
HETATM   13  C   UNL     1      -9.867  17.442  66.212  1.00  0.00    -0.291 A  
HETATM   14  O   UNL     1      -9.545  19.364  67.536  1.00  0.00    -0.309 OA 
HETATM   15  H   UNL     1      -9.720  19.915  66.783  1.00  0.00     0.000 HD 
HETATM   16  C   UNL     1      -9.893  16.053  66.072  1.00  0.00    -0.365 A  
ENDBRANCH   6   7
ENDBRANCH   5   6
ENDBRANCH   4   5
ENDBRANCH   3   4
ENDBRANCH   2   3
TORSDOF 5
ENDMDL
MODEL      225
REMARK 921   NORMALIZED FREE ENERGY PREDICTED BY IDOCK:   -2.95 KCAL/MOL
REMARK 922        TOTAL FREE ENERGY PREDICTED BY IDOCK:   -4.22 KCAL/MOL
REMARK 923 INTER-LIGAND FREE ENERGY PREDICTED BY IDOCK:   -3.77 KCAL/MOL
REMARK 924 INTRA-LIGAND FREE ENERGY PREDICTED BY IDOCK:   -0.45 KCAL/MOL
REMARK 927      BINDING AFFINITY PREDICTED BY RF-SCORE:    0.00 PKD
ROOT
HETATM    1  C   UNL     1     -12.948  11.381  71.747  1.00  0.00    -0.519 C  
HETATM    2  C   UNL     1     -12.582  10.294  70.747  1.00  0.00    -0.442 C  
ENDROOT
BRANCH   2   3
HETATM    3  C   UNL     1     -11.070  10.211  70.549  1.00  0.00    -0.400 C  
BRANCH   3   4
HETATM    4  C   UNL     1     -10.698  10.065  69.073  1.00  0.00    -0.244 C  
BRANCH   4   5
HETATM    5  C   UNL     1     -11.490  11.048  68.209  1.00  0.00    -0.374 C  
BRANCH   5   6
HETATM    6  C   UNL     1     -10.793  11.308  66.874  1.00  0.00    -0.333 C  
BRANCH   6   7
HETATM    7  C   UNL     1      -9.497  12.062  67.054  1.00  0.00    -0.199 A  
HETATM    8  C   UNL     1      -8.237  11.448  67.016  1.00  0.00    -0.160 A  
HETATM    9  C   UNL     1      -7.065  12.191  67.152  1.00  0.00    -0.120 A  
HETATM   10  O   UNL     1      -8.070  10.101  66.852  1.00  0.00    -0.119 OA 
HETATM   11  H   UNL     1      -7.217   9.685  66.825  1.00  0.00     0.000 HD 
HETATM   12  C   UNL     1      -7.146  13.563  67.360  1.00  0.00    -0.083 A  
HETATM   13  C   UNL     1      -8.379  14.195  67.432  1.00  0.00    -0.210 A  
HETATM   14  O   UNL     1      -6.027  14.328  67.505  1.00  0.00    -0.337 OA 
HETATM   15  H   UNL     1      -6.083  15.265  67.647  1.00  0.00     0.000 HD 
HETATM   16  C   UNL     1      -9.550  13.449  67.280  1.00  0.00    -0.234 A  
ENDBRANCH   6   7
ENDBRANCH   5   6
ENDBRANCH   4   5
ENDBRANCH   3   4
ENDBRANCH   2   3
TORSDOF 5
ENDMDL
MODEL      226
REMARK 921   NORMALIZED FREE ENERGY PREDICTED BY IDOCK:   -2.95 KCAL/MOL
REMARK 922        TOTAL FREE ENERGY PREDICTED BY IDOCK:   -4.21 KCAL/MOL
REMARK 923 INTER-LIGAND FREE ENERGY PREDICTED BY IDOCK:   -3.80 KCAL/MOL
REMARK 924 INTRA-LIGAND FREE ENERGY PREDICTED BY IDOCK:   -0.41 KCAL/MOL
REMARK 927      BINDING AFFINITY PREDICTED BY RF-SCORE:    0.00 PKD
ROOT
HETATM    1  C   UNL     1     -13.598  13.415  72.183  1.00  0.00    -0.660 C  
HETATM    2  C   UNL     1     -12.957  12.077  71.847  1.00  0.00    -0.428 C  
ENDROOT
BRANCH   2   3
HETATM    3  C   UNL     1     -13.898  10.917  72.167  1.00  0.00     0.245 C  
BRANCH   3   4
HETATM    4  C   UNL     1     -13.163   9.576  72.176  1.00  0.00    -0.539 C  
BRANCH   4   5
HETATM    5  C   UNL     1     -12.103   9.525  71.075  1.00  0.00    -0.398 C  
BRANCH   5   6
HETATM    6  C   UNL     1     -11.481   8.133  70.959  1.00  0.00    -0.301 C  
BRANCH   6   7
HETATM    7  C   UNL     1     -10.111   8.076  71.592  1.00  0.00    -0.238 A  
HETATM    8  C   UNL     1      -9.902   7.794  72.950  1.00  0.00    -0.264 A  
HETATM    9  C   UNL     1      -8.616   7.716  73.483  1.00  0.00    -0.254 A  
HETATM   10  O   UNL     1     -10.923   7.586  73.833  1.00  0.00    -0.528 OA 
HETATM   11  H   UNL     1     -10.782   7.394  74.752  1.00  0.00     0.000 HD 
HETATM   12  C   UNL     1      -7.520   7.952  72.661  1.00  0.00    -0.105 A  
HETATM   13  C   UNL     1      -7.696   8.263  71.320  1.00  0.00    -0.106 A  
HETATM   14  O   UNL     1      -6.245   7.894  73.140  1.00  0.00    -0.060 OA 
HETATM   15  H   UNL     1      -5.496   8.055  72.578  1.00  0.00     0.000 HD 
HETATM   16  C   UNL     1      -8.985   8.324  70.787  1.00  0.00    -0.166 A  
ENDBRANCH   6   7
ENDBRANCH   5   6
ENDBRANCH   4   5
ENDBRANCH   3   4
ENDBRANCH   2   3
TORSDOF 5
ENDMDL
MODEL      227
REMARK 921   NORMALIZED FREE ENERGY PREDICTED BY IDOCK:   -2.94 KCAL/MOL
REMARK 922        TOTAL FREE ENERGY PREDICTED BY IDOCK:   -4.21 KCAL/MOL
REMARK 923 INTER-LIGAND FREE ENERGY PREDICTED BY IDOCK:   -3.71 KCAL/MOL
REMARK 924 INTRA-LIGAND FREE ENERGY PREDICTED BY IDOCK:   -0.49 KCAL/MOL
REMARK 927      BINDING AFFINITY PREDICTED BY RF-SCORE:    0.00 PKD
ROOT
HETATM    1  C   UNL     1     -12.532  14.385  64.503  1.00  0.00    -0.362 C  
HETATM    2  C   UNL     1     -12.557  12.872  64.350  1.00  0.00    -0.392 C  
ENDROOT
BRANCH   2   3
HETATM    3  C   UNL     1     -11.216  12.345  63.844  1.00  0.00    -0.487 C  
BRANCH   3   4
HETATM    4  C   UNL     1     -10.048  12.870  64.680  1.00  0.00    -0.254 C  
BRANCH   4   5
HETATM    5  C   UNL     1      -9.549  11.803  65.657  1.00  0.00    -0.240 C  
BRANCH   5   6
HETATM    6  C   UNL     1      -9.786  12.219  67.109  1.00  0.00    -0.207 C  
BRANCH   6   7
HETATM    7  C   UNL     1      -9.182  13.569  67.412  1.00  0.00    -0.223 A  
HETATM    8  C   UNL     1      -7.814  13.847  67.283  1.00  0.00    -0.114 A  
HETATM    9  C   UNL     1      -7.306  15.120  67.539  1.00  0.00    -0.222 A  
HETATM   10  O   UNL     1      -6.895  12.907  66.909  1.00  0.00    -0.414 OA 
HETATM   11  H   UNL     1      -5.969  13.095  66.821  1.00  0.00     0.000 HD 
HETATM   12  C   UNL     1      -8.168  16.126  67.961  1.00  0.00    -0.151 A  
HETATM   13  C   UNL     1      -9.522  15.874  68.127  1.00  0.00    -0.203 A  
HETATM   14  O   UNL     1      -7.715  17.384  68.230  1.00  0.00    -0.221 OA 
HETATM   15  H   UNL     1      -8.303  18.072  68.518  1.00  0.00     0.000 HD 
HETATM   16  C   UNL     1     -10.028  14.602  67.853  1.00  0.00    -0.221 A  
ENDBRANCH   6   7
ENDBRANCH   5   6
ENDBRANCH   4   5
ENDBRANCH   3   4
ENDBRANCH   2   3
TORSDOF 5
ENDMDL
MODEL      228
REMARK 921   NORMALIZED FREE ENERGY PREDICTED BY IDOCK:   -2.94 KCAL/MOL
REMARK 922        TOTAL FREE ENERGY PREDICTED BY IDOCK:   -4.20 KCAL/MOL
REMARK 923 INTER-LIGAND FREE ENERGY PREDICTED BY IDOCK:   -3.74 KCAL/MOL
REMARK 924 INTRA-LIGAND FREE ENERGY PREDICTED BY IDOCK:   -0.47 KCAL/MOL
REMARK 927      BINDING AFFINITY PREDICTED BY RF-SCORE:    0.00 PKD
ROOT
HETATM    1  C   UNL     1      -9.355   8.036  69.262  1.00  0.00    -0.151 C  
HETATM    2  C   UNL     1      -9.136   9.305  70.071  1.00  0.00    -0.229 C  
ENDROOT
BRANCH   2   3
HETATM    3  C   UNL     1      -9.428  10.550  69.236  1.00  0.00    -0.191 C  
BRANCH   3   4
HETATM    4  C   UNL     1      -8.408  10.732  68.111  1.00  0.00    -0.120 C  
BRANCH   4   5
HETATM    5  C   UNL     1      -8.033  12.206  67.944  1.00  0.00    -0.150 C  
BRANCH   5   6
HETATM    6  C   UNL     1      -9.080  13.125  68.573  1.00  0.00    -0.053 C  
BRANCH   6   7
HETATM    7  C   UNL     1      -9.598  14.144  67.586  1.00  0.00    -0.216 A  
HETATM    8  C   UNL     1      -9.663  15.517  67.862  1.00  0.00    -0.211 A  
HETATM    9  C   UNL     1     -10.114  16.427  66.905  1.00  0.00    -0.281 A  
HETATM   10  O   UNL     1      -9.302  16.054  69.066  1.00  0.00    -0.213 OA 
HETATM   11  H   UNL     1      -9.345  16.984  69.252  1.00  0.00     0.000 HD 
HETATM   12  C   UNL     1     -10.537  15.960  65.666  1.00  0.00    -0.378 A  
HETATM   13  C   UNL     1     -10.512  14.604  65.374  1.00  0.00    -0.400 A  
HETATM   14  O   UNL     1     -10.993  16.812  64.703  1.00  0.00    -0.839 OA 
HETATM   15  H   UNL     1     -11.281  16.493  63.856  1.00  0.00     0.000 HD 
HETATM   16  C   UNL     1     -10.044  13.699  66.329  1.00  0.00    -0.301 A  
ENDBRANCH   6   7
ENDBRANCH   5   6
ENDBRANCH   4   5
ENDBRANCH   3   4
ENDBRANCH   2   3
TORSDOF 5
ENDMDL
MODEL      229
REMARK 921   NORMALIZED FREE ENERGY PREDICTED BY IDOCK:   -2.93 KCAL/MOL
REMARK 922        TOTAL FREE ENERGY PREDICTED BY IDOCK:   -4.20 KCAL/MOL
REMARK 923 INTER-LIGAND FREE ENERGY PREDICTED BY IDOCK:   -4.00 KCAL/MOL
REMARK 924 INTRA-LIGAND FREE ENERGY PREDICTED BY IDOCK:   -0.19 KCAL/MOL
REMARK 927      BINDING AFFINITY PREDICTED BY RF-SCORE:    0.00 PKD
ROOT
HETATM    1  C   UNL     1     -13.463  12.619  72.151  1.00  0.00    -0.561 C  
HETATM    2  C   UNL     1     -12.651  12.025  71.011  1.00  0.00    -0.370 C  
ENDROOT
BRANCH   2   3
HETATM    3  C   UNL     1     -12.710  10.498  71.028  1.00  0.00    -0.504 C  
BRANCH   3   4
HETATM    4  C   UNL     1     -11.322   9.879  71.200  1.00  0.00    -0.443 C  
BRANCH   4   5
HETATM    5  C   UNL     1     -10.919   9.082  69.958  1.00  0.00    -0.230 C  
BRANCH   5   6
HETATM    6  C   UNL     1     -10.953   9.951  68.700  1.00  0.00    -0.222 C  
BRANCH   6   7
HETATM    7  C   UNL     1      -9.947   9.489  67.672  1.00  0.00    -0.226 A  
HETATM    8  C   UNL     1     -10.061   8.278  66.975  1.00  0.00    -0.283 A  
HETATM    9  C   UNL     1      -9.127   7.909  66.008  1.00  0.00    -0.181 A  
HETATM   10  O   UNL     1     -11.072   7.384  67.194  1.00  0.00    -0.557 OA 
HETATM   11  H   UNL     1     -11.150   6.564  66.721  1.00  0.00     0.000 HD 
HETATM   12  C   UNL     1      -8.046   8.743  65.750  1.00  0.00    -0.109 A  
HETATM   13  C   UNL     1      -7.890   9.934  66.444  1.00  0.00    -0.107 A  
HETATM   14  O   UNL     1      -7.104   8.420  64.818  1.00  0.00    -0.077 OA 
HETATM   15  H   UNL     1      -6.365   8.990  64.642  1.00  0.00     0.000 HD 
HETATM   16  C   UNL     1      -8.837  10.306  67.401  1.00  0.00    -0.134 A  
ENDBRANCH   6   7
ENDBRANCH   5   6
ENDBRANCH   4   5
ENDBRANCH   3   4
ENDBRANCH   2   3
TORSDOF 5
ENDMDL
MODEL      230
REMARK 921   NORMALIZED FREE ENERGY PREDICTED BY IDOCK:   -2.91 KCAL/MOL
REMARK 922        TOTAL FREE ENERGY PREDICTED BY IDOCK:   -4.17 KCAL/MOL
REMARK 923 INTER-LIGAND FREE ENERGY PREDICTED BY IDOCK:   -3.71 KCAL/MOL
REMARK 924 INTRA-LIGAND FREE ENERGY PREDICTED BY IDOCK:   -0.46 KCAL/MOL
REMARK 927      BINDING AFFINITY PREDICTED BY RF-SCORE:    0.00 PKD
ROOT
HETATM    1  C   UNL     1     -11.496   5.759  72.683  1.00  0.00    -0.337 C  
HETATM    2  C   UNL     1     -10.510   6.843  73.092  1.00  0.00    -0.313 C  
ENDROOT
BRANCH   2   3
HETATM    3  C   UNL     1     -10.724   8.119  72.279  1.00  0.00    -0.381 C  
BRANCH   3   4
HETATM    4  C   UNL     1     -11.498   7.847  70.989  1.00  0.00    -0.298 C  
BRANCH   4   5
HETATM    5  C   UNL     1     -10.560   7.369  69.878  1.00  0.00    -0.245 C  
BRANCH   5   6
HETATM    6  C   UNL     1     -11.241   6.342  68.973  1.00  0.00    -0.402 C  
BRANCH   6   7
HETATM    7  C   UNL     1     -10.262   5.319  68.449  1.00  0.00    -0.206 A  
HETATM    8  C   UNL     1     -10.263   4.862  67.124  1.00  0.00    -0.162 A  
HETATM    9  C   UNL     1      -9.315   3.942  66.675  1.00  0.00    -0.201 A  
HETATM   10  O   UNL     1     -11.178   5.271  66.195  1.00  0.00    -0.731 OA 
HETATM   11  H   UNL     1     -11.178   4.962  65.297  1.00  0.00     0.000 HD 
HETATM   12  C   UNL     1      -8.370   3.446  67.566  1.00  0.00    -0.086 A  
HETATM   13  C   UNL     1      -8.363   3.856  68.891  1.00  0.00    -0.087 A  
HETATM   14  O   UNL     1      -7.430   2.540  67.173  1.00  0.00    -0.060 OA 
HETATM   15  H   UNL     1      -6.784   2.201  67.781  1.00  0.00     0.000 HD 
HETATM   16  C   UNL     1      -9.304   4.790  69.332  1.00  0.00    -0.197 A  
ENDBRANCH   6   7
ENDBRANCH   5   6
ENDBRANCH   4   5
ENDBRANCH   3   4
ENDBRANCH   2   3
TORSDOF 5
ENDMDL
MODEL      231
REMARK 921   NORMALIZED FREE ENERGY PREDICTED BY IDOCK:   -2.91 KCAL/MOL
REMARK 922        TOTAL FREE ENERGY PREDICTED BY IDOCK:   -4.17 KCAL/MOL
REMARK 923 INTER-LIGAND FREE ENERGY PREDICTED BY IDOCK:   -3.32 KCAL/MOL
REMARK 924 INTRA-LIGAND FREE ENERGY PREDICTED BY IDOCK:   -0.85 KCAL/MOL
REMARK 927      BINDING AFFINITY PREDICTED BY RF-SCORE:    0.00 PKD
ROOT
HETATM    1  C   UNL     1     -10.484   4.449  72.445  1.00  0.00    -0.219 C  
HETATM    2  C   UNL     1     -10.910   4.688  73.886  1.00  0.00    -0.359 C  
ENDROOT
BRANCH   2   3
HETATM    3  C   UNL     1     -10.294   5.971  74.439  1.00  0.00    -0.267 C  
BRANCH   3   4
HETATM    4  C   UNL     1      -8.933   6.266  73.806  1.00  0.00    -0.134 C  
BRANCH   4   5
HETATM    5  C   UNL     1      -8.580   7.749  73.933  1.00  0.00    -0.313 C  
BRANCH   5   6
HETATM    6  C   UNL     1      -8.118   8.332  72.597  1.00  0.00    -0.211 C  
BRANCH   6   7
HETATM    7  C   UNL     1      -8.996   7.879  71.454  1.00  0.00    -0.161 A  
HETATM    8  C   UNL     1      -8.581   6.952  70.488  1.00  0.00    -0.142 A  
HETATM    9  C   UNL     1      -9.439   6.535  69.470  1.00  0.00    -0.150 A  
HETATM   10  O   UNL     1      -7.329   6.404  70.468  1.00  0.00    -0.080 OA 
HETATM   11  H   UNL     1      -7.049   5.776  69.814  1.00  0.00     0.000 HD 
HETATM   12  C   UNL     1     -10.720   7.072  69.394  1.00  0.00    -0.238 A  
HETATM   13  C   UNL     1     -11.148   8.013  70.318  1.00  0.00    -0.224 A  
HETATM   14  O   UNL     1     -11.590   6.700  68.412  1.00  0.00    -0.534 OA 
HETATM   15  H   UNL     1     -12.464   7.066  68.360  1.00  0.00     0.000 HD 
HETATM   16  C   UNL     1     -10.291   8.415  71.345  1.00  0.00    -0.285 A  
ENDBRANCH   6   7
ENDBRANCH   5   6
ENDBRANCH   4   5
ENDBRANCH   3   4
ENDBRANCH   2   3
TORSDOF 5
ENDMDL
MODEL      232
REMARK 921   NORMALIZED FREE ENERGY PREDICTED BY IDOCK:   -2.91 KCAL/MOL
REMARK 922        TOTAL FREE ENERGY PREDICTED BY IDOCK:   -4.16 KCAL/MOL
REMARK 923 INTER-LIGAND FREE ENERGY PREDICTED BY IDOCK:   -3.51 KCAL/MOL
REMARK 924 INTRA-LIGAND FREE ENERGY PREDICTED BY IDOCK:   -0.65 KCAL/MOL
REMARK 927      BINDING AFFINITY PREDICTED BY RF-SCORE:    0.00 PKD
ROOT
HETATM    1  C   UNL     1     -11.801  12.350  70.791  1.00  0.00     0.119 C  
HETATM    2  C   UNL     1     -11.390  10.999  70.225  1.00  0.00    -0.291 C  
ENDROOT
BRANCH   2   3
HETATM    3  C   UNL     1     -11.102  11.091  68.728  1.00  0.00    -0.293 C  
BRANCH   3   4
HETATM    4  C   UNL     1      -9.802  10.378  68.355  1.00  0.00    -0.173 C  
BRANCH   4   5
HETATM    5  C   UNL     1     -10.087   9.053  67.645  1.00  0.00    -0.271 C  
BRANCH   5   6
HETATM    6  C   UNL     1      -9.329   7.895  68.295  1.00  0.00    -0.145 C  
BRANCH   6   7
HETATM    7  C   UNL     1      -9.829   7.610  69.691  1.00  0.00    -0.181 A  
HETATM    8  C   UNL     1     -11.031   6.940  69.956  1.00  0.00    -0.279 A  
HETATM    9  C   UNL     1     -11.434   6.666  71.263  1.00  0.00    -0.360 A  
HETATM   10  O   UNL     1     -11.882   6.519  68.974  1.00  0.00    -0.523 OA 
HETATM   11  H   UNL     1     -12.696   6.064  69.153  1.00  0.00     0.000 HD 
HETATM   12  C   UNL     1     -10.644   7.093  72.325  1.00  0.00    -0.215 A  
HETATM   13  C   UNL     1      -9.464   7.785  72.095  1.00  0.00    -0.216 A  
HETATM   14  O   UNL     1     -11.003   6.855  73.619  1.00  0.00    -0.530 OA 
HETATM   15  H   UNL     1     -10.463   7.147  74.344  1.00  0.00     0.000 HD 
HETATM   16  C   UNL     1      -9.057   8.042  70.784  1.00  0.00    -0.151 A  
ENDBRANCH   6   7
ENDBRANCH   5   6
ENDBRANCH   4   5
ENDBRANCH   3   4
ENDBRANCH   2   3
TORSDOF 5
ENDMDL
MODEL      233
REMARK 921   NORMALIZED FREE ENERGY PREDICTED BY IDOCK:   -2.91 KCAL/MOL
REMARK 922        TOTAL FREE ENERGY PREDICTED BY IDOCK:   -4.16 KCAL/MOL
REMARK 923 INTER-LIGAND FREE ENERGY PREDICTED BY IDOCK:   -3.70 KCAL/MOL
REMARK 924 INTRA-LIGAND FREE ENERGY PREDICTED BY IDOCK:   -0.46 KCAL/MOL
REMARK 927      BINDING AFFINITY PREDICTED BY RF-SCORE:    0.00 PKD
ROOT
HETATM    1  C   UNL     1     -13.339  11.763  71.897  1.00  0.00    -0.401 C  
HETATM    2  C   UNL     1     -12.998  10.547  71.050  1.00  0.00    -0.475 C  
ENDROOT
BRANCH   2   3
HETATM    3  C   UNL     1     -11.531  10.564  70.624  1.00  0.00    -0.418 C  
BRANCH   3   4
HETATM    4  C   UNL     1     -10.693   9.574  71.435  1.00  0.00    -0.348 C  
BRANCH   4   5
HETATM    5  C   UNL     1     -11.566   8.453  72.001  1.00  0.00    -0.418 C  
BRANCH   5   6
HETATM    6  C   UNL     1     -10.817   7.638  73.056  1.00  0.00    -0.457 C  
BRANCH   6   7
HETATM    7  C   UNL     1      -9.614   6.936  72.472  1.00  0.00    -0.165 A  
HETATM    8  C   UNL     1      -8.296   7.365  72.682  1.00  0.00    -0.109 A  
HETATM    9  C   UNL     1      -7.213   6.663  72.153  1.00  0.00    -0.081 A  
HETATM   10  O   UNL     1      -7.982   8.484  73.401  1.00  0.00    -0.363 OA 
HETATM   11  H   UNL     1      -7.089   8.774  73.544  1.00  0.00     0.000 HD 
HETATM   12  C   UNL     1      -7.445   5.534  71.377  1.00  0.00    -0.098 A  
HETATM   13  C   UNL     1      -8.740   5.102  71.126  1.00  0.00    -0.139 A  
HETATM   14  O   UNL     1      -6.418   4.821  70.833  1.00  0.00    -0.028 OA 
HETATM   15  H   UNL     1      -6.577   4.049  70.303  1.00  0.00     0.000 HD 
HETATM   16  C   UNL     1      -9.820   5.799  71.672  1.00  0.00    -0.205 A  
ENDBRANCH   6   7
ENDBRANCH   5   6
ENDBRANCH   4   5
ENDBRANCH   3   4
ENDBRANCH   2   3
TORSDOF 5
ENDMDL
MODEL      234
REMARK 921   NORMALIZED FREE ENERGY PREDICTED BY IDOCK:   -2.91 KCAL/MOL
REMARK 922        TOTAL FREE ENERGY PREDICTED BY IDOCK:   -4.16 KCAL/MOL
REMARK 923 INTER-LIGAND FREE ENERGY PREDICTED BY IDOCK:   -3.05 KCAL/MOL
REMARK 924 INTRA-LIGAND FREE ENERGY PREDICTED BY IDOCK:   -1.11 KCAL/MOL
REMARK 927      BINDING AFFINITY PREDICTED BY RF-SCORE:    0.00 PKD
ROOT
HETATM    1  C   UNL     1     -11.659   8.105  72.577  1.00  0.00    -0.468 C  
HETATM    2  C   UNL     1     -11.817   8.842  71.256  1.00  0.00    -0.371 C  
ENDROOT
BRANCH   2   3
HETATM    3  C   UNL     1     -10.549   9.615  70.898  1.00  0.00    -0.386 C  
BRANCH   3   4
HETATM    4  C   UNL     1     -10.112   9.351  69.456  1.00  0.00    -0.214 C  
BRANCH   4   5
HETATM    5  C   UNL     1     -10.470   7.927  69.027  1.00  0.00    -0.210 C  
BRANCH   5   6
HETATM    6  C   UNL     1      -9.248   7.009  69.062  1.00  0.00    -0.137 C  
BRANCH   6   7
HETATM    7  C   UNL     1      -9.181   6.213  70.343  1.00  0.00    -0.162 A  
HETATM    8  C   UNL     1      -8.327   6.538  71.406  1.00  0.00    -0.125 A  
HETATM    9  C   UNL     1      -8.325   5.795  72.587  1.00  0.00    -0.116 A  
HETATM   10  O   UNL     1      -7.446   7.582  71.362  1.00  0.00    -0.077 OA 
HETATM   11  H   UNL     1      -6.868   7.803  72.083  1.00  0.00     0.000 HD 
HETATM   12  C   UNL     1      -9.164   4.692  72.700  1.00  0.00    -0.126 A  
HETATM   13  C   UNL     1      -9.998   4.328  71.654  1.00  0.00    -0.250 A  
HETATM   14  O   UNL     1      -9.190   3.932  73.832  1.00  0.00    -0.093 OA 
HETATM   15  H   UNL     1      -9.763   3.179  73.910  1.00  0.00     0.000 HD 
HETATM   16  C   UNL     1     -10.009   5.085  70.481  1.00  0.00    -0.312 A  
ENDBRANCH   6   7
ENDBRANCH   5   6
ENDBRANCH   4   5
ENDBRANCH   3   4
ENDBRANCH   2   3
TORSDOF 5
ENDMDL
MODEL      235
REMARK 921   NORMALIZED FREE ENERGY PREDICTED BY IDOCK:   -2.88 KCAL/MOL
REMARK 922        TOTAL FREE ENERGY PREDICTED BY IDOCK:   -4.13 KCAL/MOL
REMARK 923 INTER-LIGAND FREE ENERGY PREDICTED BY IDOCK:   -3.84 KCAL/MOL
REMARK 924 INTRA-LIGAND FREE ENERGY PREDICTED BY IDOCK:   -0.29 KCAL/MOL
REMARK 927      BINDING AFFINITY PREDICTED BY RF-SCORE:    0.00 PKD
ROOT
HETATM    1  C   UNL     1      -5.752   9.453  67.527  1.00  0.00    -0.041 C  
HETATM    2  C   UNL     1      -6.666   9.161  66.347  1.00  0.00    -0.071 C  
ENDROOT
BRANCH   2   3
HETATM    3  C   UNL     1      -7.958   9.972  66.433  1.00  0.00    -0.116 C  
BRANCH   3   4
HETATM    4  C   UNL     1      -8.247  10.428  67.864  1.00  0.00    -0.106 C  
BRANCH   4   5
HETATM    5  C   UNL     1      -8.942   9.322  68.661  1.00  0.00    -0.132 C  
BRANCH   5   6
HETATM    6  C   UNL     1      -8.888   9.596  70.164  1.00  0.00    -0.266 C  
BRANCH   6   7
HETATM    7  C   UNL     1     -10.257   9.518  70.798  1.00  0.00    -0.363 A  
HETATM    8  C   UNL     1     -10.671   8.448  71.603  1.00  0.00    -0.265 A  
HETATM    9  C   UNL     1     -11.933   8.436  72.199  1.00  0.00    -0.438 A  
HETATM   10  O   UNL     1      -9.888   7.357  71.854  1.00  0.00    -0.162 OA 
HETATM   11  H   UNL     1     -10.169   6.632  72.400  1.00  0.00     0.000 HD 
HETATM   12  C   UNL     1     -12.808   9.491  71.965  1.00  0.00    -0.414 A  
HETATM   13  C   UNL     1     -12.437  10.550  71.149  1.00  0.00    -0.517 A  
HETATM   14  O   UNL     1     -14.053   9.518  72.520  1.00  0.00    -0.602 OA 
HETATM   15  H   UNL     1     -14.650  10.239  72.361  1.00  0.00     0.000 HD 
HETATM   16  C   UNL     1     -11.167  10.565  70.568  1.00  0.00    -0.348 A  
ENDBRANCH   6   7
ENDBRANCH   5   6
ENDBRANCH   4   5
ENDBRANCH   3   4
ENDBRANCH   2   3
TORSDOF 5
ENDMDL
MODEL      236
REMARK 921   NORMALIZED FREE ENERGY PREDICTED BY IDOCK:   -2.88 KCAL/MOL
REMARK 922        TOTAL FREE ENERGY PREDICTED BY IDOCK:   -4.13 KCAL/MOL
REMARK 923 INTER-LIGAND FREE ENERGY PREDICTED BY IDOCK:   -3.56 KCAL/MOL
REMARK 924 INTRA-LIGAND FREE ENERGY PREDICTED BY IDOCK:   -0.57 KCAL/MOL
REMARK 927      BINDING AFFINITY PREDICTED BY RF-SCORE:    0.00 PKD
ROOT
HETATM    1  C   UNL     1     -10.225   2.541  72.597  1.00  0.00    -0.236 C  
HETATM    2  C   UNL     1     -10.063   3.729  71.662  1.00  0.00    -0.149 C  
ENDROOT
BRANCH   2   3
HETATM    3  C   UNL     1     -10.422   5.038  72.363  1.00  0.00    -0.275 C  
BRANCH   3   4
HETATM    4  C   UNL     1      -9.292   6.064  72.262  1.00  0.00    -0.149 C  
BRANCH   4   5
HETATM    5  C   UNL     1      -9.849   7.470  72.031  1.00  0.00    -0.200 C  
BRANCH   5   6
HETATM    6  C   UNL     1     -11.134   7.435  71.204  1.00  0.00    -0.271 C  
BRANCH   6   7
HETATM    7  C   UNL     1     -10.882   7.793  69.759  1.00  0.00    -0.211 A  
HETATM    8  C   UNL     1     -10.725   9.112  69.309  1.00  0.00    -0.183 A  
HETATM    9  C   UNL     1     -10.457   9.392  67.969  1.00  0.00    -0.278 A  
HETATM   10  O   UNL     1     -10.826  10.197  70.133  1.00  0.00    -0.273 OA 
HETATM   11  H   UNL     1     -10.719  11.090  69.828  1.00  0.00     0.000 HD 
HETATM   12  C   UNL     1     -10.374   8.347  67.056  1.00  0.00    -0.315 A  
HETATM   13  C   UNL     1     -10.555   7.034  67.466  1.00  0.00    -0.351 A  
HETATM   14  O   UNL     1     -10.122   8.575  65.736  1.00  0.00    -0.387 OA 
HETATM   15  H   UNL     1     -10.065   7.861  65.112  1.00  0.00     0.000 HD 
HETATM   16  C   UNL     1     -10.807   6.757  68.811  1.00  0.00    -0.280 A  
ENDBRANCH   6   7
ENDBRANCH   5   6
ENDBRANCH   4   5
ENDBRANCH   3   4
ENDBRANCH   2   3
TORSDOF 5
ENDMDL
MODEL      237
REMARK 921   NORMALIZED FREE ENERGY PREDICTED BY IDOCK:   -2.87 KCAL/MOL
REMARK 922        TOTAL FREE ENERGY PREDICTED BY IDOCK:   -4.12 KCAL/MOL
REMARK 923 INTER-LIGAND FREE ENERGY PREDICTED BY IDOCK:   -3.81 KCAL/MOL
REMARK 924 INTRA-LIGAND FREE ENERGY PREDICTED BY IDOCK:   -0.30 KCAL/MOL
REMARK 927      BINDING AFFINITY PREDICTED BY RF-SCORE:    0.00 PKD
ROOT
HETATM    1  C   UNL     1     -12.144  14.243  64.464  1.00  0.00    -0.499 C  
HETATM    2  C   UNL     1     -12.783  12.867  64.361  1.00  0.00    -0.322 C  
ENDROOT
BRANCH   2   3
HETATM    3  C   UNL     1     -11.900  11.904  63.569  1.00  0.00    -0.560 C  
BRANCH   3   4
HETATM    4  C   UNL     1     -10.579  11.625  64.287  1.00  0.00    -0.394 C  
BRANCH   4   5
HETATM    5  C   UNL     1      -9.530  11.087  63.312  1.00  0.00    -0.346 C  
BRANCH   5   6
HETATM    6  C   UNL     1      -9.090   9.672  63.688  1.00  0.00    -0.214 C  
BRANCH   6   7
HETATM    7  C   UNL     1      -8.773   9.554  65.160  1.00  0.00    -0.200 A  
HETATM    8  C   UNL     1      -7.627  10.110  65.746  1.00  0.00    -0.134 A  
HETATM    9  C   UNL     1      -7.393  10.007  67.117  1.00  0.00    -0.091 A  
HETATM   10  O   UNL     1      -6.671  10.773  65.030  1.00  0.00    -0.352 OA 
HETATM   11  H   UNL     1      -5.895  11.150  65.427  1.00  0.00     0.000 HD 
HETATM   12  C   UNL     1      -8.298   9.315  67.914  1.00  0.00    -0.116 A  
HETATM   13  C   UNL     1      -9.426   8.729  67.358  1.00  0.00    -0.183 A  
HETATM   14  O   UNL     1      -8.107   9.183  69.258  1.00  0.00    -0.096 OA 
HETATM   15  H   UNL     1      -8.725   8.711  69.802  1.00  0.00     0.000 HD 
HETATM   16  C   UNL     1      -9.664   8.848  65.987  1.00  0.00    -0.308 A  
ENDBRANCH   6   7
ENDBRANCH   5   6
ENDBRANCH   4   5
ENDBRANCH   3   4
ENDBRANCH   2   3
TORSDOF 5
ENDMDL
MODEL      238
REMARK 921   NORMALIZED FREE ENERGY PREDICTED BY IDOCK:   -2.87 KCAL/MOL
REMARK 922        TOTAL FREE ENERGY PREDICTED BY IDOCK:   -4.12 KCAL/MOL
REMARK 923 INTER-LIGAND FREE ENERGY PREDICTED BY IDOCK:   -3.76 KCAL/MOL
REMARK 924 INTRA-LIGAND FREE ENERGY PREDICTED BY IDOCK:   -0.36 KCAL/MOL
REMARK 927      BINDING AFFINITY PREDICTED BY RF-SCORE:    0.00 PKD
ROOT
HETATM    1  C   UNL     1      -7.460   7.695  70.499  1.00  0.00    -0.079 C  
HETATM    2  C   UNL     1      -8.816   7.067  70.218  1.00  0.00    -0.148 C  
ENDROOT
BRANCH   2   3
HETATM    3  C   UNL     1      -9.501   7.738  69.029  1.00  0.00    -0.150 C  
BRANCH   3   4
HETATM    4  C   UNL     1      -9.320   9.257  69.053  1.00  0.00    -0.151 C  
BRANCH   4   5
HETATM    5  C   UNL     1     -10.039   9.913  67.873  1.00  0.00    -0.210 C  
BRANCH   5   6
HETATM    6  C   UNL     1     -11.428  10.411  68.270  1.00  0.00    -0.218 C  
BRANCH   6   7
HETATM    7  C   UNL     1     -11.488  11.919  68.331  1.00  0.00    -0.357 A  
HETATM    8  C   UNL     1     -11.637  12.635  69.527  1.00  0.00    -0.281 A  
HETATM    9  C   UNL     1     -11.650  14.030  69.539  1.00  0.00    -0.350 A  
HETATM   10  O   UNL     1     -11.783  12.030  70.744  1.00  0.00    -0.402 OA 
HETATM   11  H   UNL     1     -11.884  12.516  71.554  1.00  0.00     0.000 HD 
HETATM   12  C   UNL     1     -11.544  14.723  68.339  1.00  0.00    -0.324 A  
HETATM   13  C   UNL     1     -11.425  14.042  67.137  1.00  0.00    -0.373 A  
HETATM   14  O   UNL     1     -11.560  16.087  68.302  1.00  0.00    -0.338 OA 
HETATM   15  H   UNL     1     -11.487  16.561  67.482  1.00  0.00     0.000 HD 
HETATM   16  C   UNL     1     -11.396  12.646  67.131  1.00  0.00    -0.373 A  
ENDBRANCH   6   7
ENDBRANCH   5   6
ENDBRANCH   4   5
ENDBRANCH   3   4
ENDBRANCH   2   3
TORSDOF 5
ENDMDL
MODEL      239
REMARK 921   NORMALIZED FREE ENERGY PREDICTED BY IDOCK:   -2.86 KCAL/MOL
REMARK 922        TOTAL FREE ENERGY PREDICTED BY IDOCK:   -4.11 KCAL/MOL
REMARK 923 INTER-LIGAND FREE ENERGY PREDICTED BY IDOCK:   -3.58 KCAL/MOL
REMARK 924 INTRA-LIGAND FREE ENERGY PREDICTED BY IDOCK:   -0.52 KCAL/MOL
REMARK 927      BINDING AFFINITY PREDICTED BY RF-SCORE:    0.00 PKD
ROOT
HETATM    1  C   UNL     1     -10.196  11.200  63.332  1.00  0.00    -0.435 C  
HETATM    2  C   UNL     1     -10.493  11.010  64.811  1.00  0.00    -0.384 C  
ENDROOT
BRANCH   2   3
HETATM    3  C   UNL     1     -11.264  12.202  65.377  1.00  0.00    -0.381 C  
BRANCH   3   4
HETATM    4  C   UNL     1     -10.853  12.511  66.817  1.00  0.00    -0.281 C  
BRANCH   4   5
HETATM    5  C   UNL     1     -11.766  11.793  67.813  1.00  0.00    -0.337 C  
BRANCH   5   6
HETATM    6  C   UNL     1     -11.069  11.576  69.156  1.00  0.00    -0.316 C  
BRANCH   6   7
HETATM    7  C   UNL     1     -10.117  10.404  69.111  1.00  0.00    -0.236 A  
HETATM    8  C   UNL     1      -8.724  10.546  69.049  1.00  0.00    -0.156 A  
HETATM    9  C   UNL     1      -7.882   9.434  69.046  1.00  0.00    -0.079 A  
HETATM   10  O   UNL     1      -8.101  11.760  68.983  1.00  0.00    -0.345 OA 
HETATM   11  H   UNL     1      -7.157  11.856  68.941  1.00  0.00     0.000 HD 
HETATM   12  C   UNL     1      -8.436   8.159  69.074  1.00  0.00    -0.129 A  
HETATM   13  C   UNL     1      -9.812   7.986  69.105  1.00  0.00    -0.178 A  
HETATM   14  O   UNL     1      -7.652   7.043  69.065  1.00  0.00    -0.099 OA 
HETATM   15  H   UNL     1      -8.030   6.172  69.085  1.00  0.00     0.000 HD 
HETATM   16  C   UNL     1     -10.650   9.103  69.125  1.00  0.00    -0.224 A  
ENDBRANCH   6   7
ENDBRANCH   5   6
ENDBRANCH   4   5
ENDBRANCH   3   4
ENDBRANCH   2   3
TORSDOF 5
ENDMDL
MODEL      240
REMARK 921   NORMALIZED FREE ENERGY PREDICTED BY IDOCK:   -2.85 KCAL/MOL
REMARK 922        TOTAL FREE ENERGY PREDICTED BY IDOCK:   -4.09 KCAL/MOL
REMARK 923 INTER-LIGAND FREE ENERGY PREDICTED BY IDOCK:   -3.69 KCAL/MOL
REMARK 924 INTRA-LIGAND FREE ENERGY PREDICTED BY IDOCK:   -0.40 KCAL/MOL
REMARK 927      BINDING AFFINITY PREDICTED BY RF-SCORE:    0.00 PKD
ROOT
HETATM    1  C   UNL     1      -6.091  10.105  64.824  1.00  0.00    -0.127 C  
HETATM    2  C   UNL     1      -7.300   9.348  65.353  1.00  0.00    -0.096 C  
ENDROOT
BRANCH   2   3
HETATM    3  C   UNL     1      -7.704   9.849  66.738  1.00  0.00    -0.099 C  
BRANCH   3   4
HETATM    4  C   UNL     1      -9.018   9.223  67.207  1.00  0.00    -0.136 C  
BRANCH   4   5
HETATM    5  C   UNL     1      -9.531   9.911  68.473  1.00  0.00    -0.149 C  
BRANCH   5   6
HETATM    6  C   UNL     1     -11.027  10.214  68.379  1.00  0.00    -0.293 C  
BRANCH   6   7
HETATM    7  C   UNL     1     -11.297  11.700  68.341  1.00  0.00    -0.339 A  
HETATM    8  C   UNL     1     -11.615  12.453  69.479  1.00  0.00    -0.286 A  
HETATM    9  C   UNL     1     -11.821  13.831  69.401  1.00  0.00    -0.392 A  
HETATM   10  O   UNL     1     -11.750  11.904  70.723  1.00  0.00    -0.408 OA 
HETATM   11  H   UNL     1     -11.965  12.415  71.494  1.00  0.00     0.000 HD 
HETATM   12  C   UNL     1     -11.740  14.464  68.166  1.00  0.00    -0.342 A  
HETATM   13  C   UNL     1     -11.456  13.740  67.017  1.00  0.00    -0.368 A  
HETATM   14  O   UNL     1     -11.941  15.807  68.041  1.00  0.00    -0.301 OA 
HETATM   15  H   UNL     1     -11.885  16.240  67.198  1.00  0.00     0.000 HD 
HETATM   16  C   UNL     1     -11.234  12.364  67.103  1.00  0.00    -0.353 A  
ENDBRANCH   6   7
ENDBRANCH   5   6
ENDBRANCH   4   5
ENDBRANCH   3   4
ENDBRANCH   2   3
TORSDOF 5
ENDMDL
MODEL      241
REMARK 921   NORMALIZED FREE ENERGY PREDICTED BY IDOCK:   -2.84 KCAL/MOL
REMARK 922        TOTAL FREE ENERGY PREDICTED BY IDOCK:   -4.08 KCAL/MOL
REMARK 923 INTER-LIGAND FREE ENERGY PREDICTED BY IDOCK:   -3.74 KCAL/MOL
REMARK 924 INTRA-LIGAND FREE ENERGY PREDICTED BY IDOCK:   -0.33 KCAL/MOL
REMARK 927      BINDING AFFINITY PREDICTED BY RF-SCORE:    0.00 PKD
ROOT
HETATM    1  C   UNL     1      -8.206   5.770  64.251  1.00  0.00    -0.106 C  
HETATM    2  C   UNL     1      -8.577   6.531  65.515  1.00  0.00    -0.109 C  
ENDROOT
BRANCH   2   3
HETATM    3  C   UNL     1      -8.779   5.581  66.694  1.00  0.00    -0.116 C  
BRANCH   3   4
HETATM    4  C   UNL     1     -10.258   5.428  67.052  1.00  0.00    -0.274 C  
BRANCH   4   5
HETATM    5  C   UNL     1     -10.440   5.245  68.559  1.00  0.00    -0.147 C  
BRANCH   5   6
HETATM    6  C   UNL     1     -11.307   6.353  69.158  1.00  0.00    -0.366 C  
BRANCH   6   7
HETATM    7  C   UNL     1     -10.911   6.668  70.581  1.00  0.00    -0.329 A  
HETATM    8  C   UNL     1     -11.245   7.869  71.224  1.00  0.00    -0.255 A  
HETATM    9  C   UNL     1     -10.889   8.102  72.552  1.00  0.00    -0.431 A  
HETATM   10  O   UNL     1     -11.925   8.881  70.606  1.00  0.00    -0.448 OA 
HETATM   11  H   UNL     1     -12.151   9.693  71.042  1.00  0.00     0.000 HD 
HETATM   12  C   UNL     1     -10.162   7.138  73.243  1.00  0.00    -0.300 A  
HETATM   13  C   UNL     1      -9.792   5.954  72.624  1.00  0.00    -0.180 A  
HETATM   14  O   UNL     1      -9.786   7.326  74.540  1.00  0.00    -0.413 OA 
HETATM   15  H   UNL     1      -9.290   6.668  75.012  1.00  0.00     0.000 HD 
HETATM   16  C   UNL     1     -10.165   5.718  71.299  1.00  0.00    -0.270 A  
ENDBRANCH   6   7
ENDBRANCH   5   6
ENDBRANCH   4   5
ENDBRANCH   3   4
ENDBRANCH   2   3
TORSDOF 5
ENDMDL
MODEL      242
REMARK 921   NORMALIZED FREE ENERGY PREDICTED BY IDOCK:   -2.84 KCAL/MOL
REMARK 922        TOTAL FREE ENERGY PREDICTED BY IDOCK:   -4.07 KCAL/MOL
REMARK 923 INTER-LIGAND FREE ENERGY PREDICTED BY IDOCK:   -3.69 KCAL/MOL
REMARK 924 INTRA-LIGAND FREE ENERGY PREDICTED BY IDOCK:   -0.38 KCAL/MOL
REMARK 927      BINDING AFFINITY PREDICTED BY RF-SCORE:    0.00 PKD
ROOT
HETATM    1  C   UNL     1      -8.094   3.871  73.388  1.00  0.00    -0.088 C  
HETATM    2  C   UNL     1      -8.076   5.390  73.477  1.00  0.00    -0.113 C  
ENDROOT
BRANCH   2   3
HETATM    3  C   UNL     1      -7.101   5.991  72.465  1.00  0.00    -0.084 C  
BRANCH   3   4
HETATM    4  C   UNL     1      -7.810   6.418  71.179  1.00  0.00    -0.114 C  
BRANCH   4   5
HETATM    5  C   UNL     1      -8.680   7.654  71.417  1.00  0.00    -0.132 C  
BRANCH   5   6
HETATM    6  C   UNL     1     -10.033   7.530  70.717  1.00  0.00    -0.182 C  
BRANCH   6   7
HETATM    7  C   UNL     1     -10.895   8.749  70.940  1.00  0.00    -0.293 A  
HETATM    8  C   UNL     1     -11.803   8.865  72.002  1.00  0.00    -0.368 A  
HETATM    9  C   UNL     1     -12.552  10.026  72.191  1.00  0.00    -0.275 A  
HETATM   10  O   UNL     1     -12.021   7.866  72.909  1.00  0.00    -0.614 OA 
HETATM   11  H   UNL     1     -12.635   7.945  73.628  1.00  0.00     0.000 HD 
HETATM   12  C   UNL     1     -12.419  11.078  71.291  1.00  0.00    -0.370 A  
HETATM   13  C   UNL     1     -11.551  10.981  70.213  1.00  0.00    -0.414 A  
HETATM   14  O   UNL     1     -13.137  12.229  71.431  1.00  0.00    -0.328 OA 
HETATM   15  H   UNL     1     -13.046  12.947  70.817  1.00  0.00     0.000 HD 
HETATM   16  C   UNL     1     -10.791   9.823  70.038  1.00  0.00    -0.319 A  
ENDBRANCH   6   7
ENDBRANCH   5   6
ENDBRANCH   4   5
ENDBRANCH   3   4
ENDBRANCH   2   3
TORSDOF 5
ENDMDL
MODEL      243
REMARK 921   NORMALIZED FREE ENERGY PREDICTED BY IDOCK:   -2.84 KCAL/MOL
REMARK 922        TOTAL FREE ENERGY PREDICTED BY IDOCK:   -4.07 KCAL/MOL
REMARK 923 INTER-LIGAND FREE ENERGY PREDICTED BY IDOCK:   -3.59 KCAL/MOL
REMARK 924 INTRA-LIGAND FREE ENERGY PREDICTED BY IDOCK:   -0.49 KCAL/MOL
REMARK 927      BINDING AFFINITY PREDICTED BY RF-SCORE:    0.00 PKD
ROOT
HETATM    1  C   UNL     1     -11.335   5.131  73.234  1.00  0.00    -0.361 C  
HETATM    2  C   UNL     1     -10.313   6.194  73.606  1.00  0.00    -0.275 C  
ENDROOT
BRANCH   2   3
HETATM    3  C   UNL     1     -10.778   7.584  73.178  1.00  0.00    -0.452 C  
BRANCH   3   4
HETATM    4  C   UNL     1     -11.907   7.512  72.149  1.00  0.00    -0.338 C  
BRANCH   4   5
HETATM    5  C   UNL     1     -11.363   7.664  70.727  1.00  0.00    -0.296 C  
BRANCH   5   6
HETATM    6  C   UNL     1     -11.657   6.426  69.880  1.00  0.00    -0.422 C  
BRANCH   6   7
HETATM    7  C   UNL     1     -10.589   6.194  68.837  1.00  0.00    -0.335 A  
HETATM    8  C   UNL     1      -9.493   5.342  69.035  1.00  0.00    -0.135 A  
HETATM    9  C   UNL     1      -8.550   5.130  68.030  1.00  0.00    -0.103 A  
HETATM   10  O   UNL     1      -9.270   4.676  70.207  1.00  0.00    -0.114 OA 
HETATM   11  H   UNL     1      -8.528   4.098  70.341  1.00  0.00     0.000 HD 
HETATM   12  C   UNL     1      -8.682   5.798  66.818  1.00  0.00    -0.116 A  
HETATM   13  C   UNL     1      -9.739   6.671  66.603  1.00  0.00    -0.210 A  
HETATM   14  O   UNL     1      -7.781   5.627  65.809  1.00  0.00    -0.085 OA 
HETATM   15  H   UNL     1      -7.871   6.084  64.982  1.00  0.00     0.000 HD 
HETATM   16  C   UNL     1     -10.690   6.868  67.607  1.00  0.00    -0.344 A  
ENDBRANCH   6   7
ENDBRANCH   5   6
ENDBRANCH   4   5
ENDBRANCH   3   4
ENDBRANCH   2   3
TORSDOF 5
ENDMDL
MODEL      244
REMARK 921   NORMALIZED FREE ENERGY PREDICTED BY IDOCK:   -2.83 KCAL/MOL
REMARK 922        TOTAL FREE ENERGY PREDICTED BY IDOCK:   -4.06 KCAL/MOL
REMARK 923 INTER-LIGAND FREE ENERGY PREDICTED BY IDOCK:   -3.63 KCAL/MOL
REMARK 924 INTRA-LIGAND FREE ENERGY PREDICTED BY IDOCK:   -0.43 KCAL/MOL
REMARK 927      BINDING AFFINITY PREDICTED BY RF-SCORE:    0.00 PKD
ROOT
HETATM    1  C   UNL     1      -8.255   9.862  67.562  1.00  0.00    -0.114 C  
HETATM    2  C   UNL     1      -9.716   9.921  67.982  1.00  0.00    -0.160 C  
ENDROOT
BRANCH   2   3
HETATM    3  C   UNL     1      -9.856   9.907  69.503  1.00  0.00    -0.241 C  
BRANCH   3   4
HETATM    4  C   UNL     1     -11.243   9.437  69.941  1.00  0.00    -0.180 C  
BRANCH   4   5
HETATM    5  C   UNL     1     -11.401   9.536  71.460  1.00  0.00    -0.456 C  
BRANCH   5   6
HETATM    6  C   UNL     1     -11.941   8.234  72.053  1.00  0.00    -0.405 C  
BRANCH   6   7
HETATM    7  C   UNL     1     -10.852   7.427  72.719  1.00  0.00    -0.374 A  
HETATM    8  C   UNL     1     -11.021   6.096  73.126  1.00  0.00    -0.231 A  
HETATM    9  C   UNL     1      -9.974   5.378  73.705  1.00  0.00    -0.189 A  
HETATM   10  O   UNL     1     -12.201   5.421  72.994  1.00  0.00    -0.533 OA 
HETATM   11  H   UNL     1     -12.315   4.519  73.269  1.00  0.00     0.000 HD 
HETATM   12  C   UNL     1      -8.749   6.003  73.910  1.00  0.00    -0.123 A  
HETATM   13  C   UNL     1      -8.561   7.328  73.546  1.00  0.00    -0.187 A  
HETATM   14  O   UNL     1      -7.701   5.342  74.480  1.00  0.00    -0.091 OA 
HETATM   15  H   UNL     1      -6.864   5.768  74.620  1.00  0.00     0.000 HD 
HETATM   16  C   UNL     1      -9.607   8.038  72.952  1.00  0.00    -0.348 A  
ENDBRANCH   6   7
ENDBRANCH   5   6
ENDBRANCH   4   5
ENDBRANCH   3   4
ENDBRANCH   2   3
TORSDOF 5
ENDMDL
MODEL      245
REMARK 921   NORMALIZED FREE ENERGY PREDICTED BY IDOCK:   -2.83 KCAL/MOL
REMARK 922        TOTAL FREE ENERGY PREDICTED BY IDOCK:   -4.06 KCAL/MOL
REMARK 923 INTER-LIGAND FREE ENERGY PREDICTED BY IDOCK:   -3.47 KCAL/MOL
REMARK 924 INTRA-LIGAND FREE ENERGY PREDICTED BY IDOCK:   -0.59 KCAL/MOL
REMARK 927      BINDING AFFINITY PREDICTED BY RF-SCORE:    0.00 PKD
ROOT
HETATM    1  C   UNL     1      -7.808   4.048  68.817  1.00  0.00    -0.067 C  
HETATM    2  C   UNL     1      -9.111   3.803  68.072  1.00  0.00    -0.187 C  
ENDROOT
BRANCH   2   3
HETATM    3  C   UNL     1      -9.282   4.788  66.917  1.00  0.00    -0.130 C  
BRANCH   3   4
HETATM    4  C   UNL     1     -10.645   5.480  66.959  1.00  0.00    -0.332 C  
BRANCH   4   5
HETATM    5  C   UNL     1     -10.491   6.999  66.857  1.00  0.00    -0.356 C  
BRANCH   5   6
HETATM    6  C   UNL     1      -9.462   7.526  67.856  1.00  0.00    -0.153 C  
BRANCH   6   7
HETATM    7  C   UNL     1     -10.002   7.536  69.266  1.00  0.00    -0.179 A  
HETATM    8  C   UNL     1     -10.938   8.473  69.725  1.00  0.00    -0.127 A  
HETATM    9  C   UNL     1     -11.437   8.422  71.026  1.00  0.00    -0.302 A  
HETATM   10  O   UNL     1     -11.417   9.490  68.947  1.00  0.00    -0.452 OA 
HETATM   11  H   UNL     1     -12.051  10.125  69.257  1.00  0.00     0.000 HD 
HETATM   12  C   UNL     1     -10.974   7.441  71.896  1.00  0.00    -0.233 A  
HETATM   13  C   UNL     1     -10.026   6.518  71.480  1.00  0.00    -0.193 A  
HETATM   14  O   UNL     1     -11.428   7.356  73.179  1.00  0.00    -0.588 OA 
HETATM   15  H   UNL     1     -11.112   6.686  73.773  1.00  0.00     0.000 HD 
HETATM   16  C   UNL     1      -9.541   6.564  70.171  1.00  0.00    -0.171 A  
ENDBRANCH   6   7
ENDBRANCH   5   6
ENDBRANCH   4   5
ENDBRANCH   3   4
ENDBRANCH   2   3
TORSDOF 5
ENDMDL
MODEL      246
REMARK 921   NORMALIZED FREE ENERGY PREDICTED BY IDOCK:   -2.82 KCAL/MOL
REMARK 922        TOTAL FREE ENERGY PREDICTED BY IDOCK:   -4.05 KCAL/MOL
REMARK 923 INTER-LIGAND FREE ENERGY PREDICTED BY IDOCK:   -3.54 KCAL/MOL
REMARK 924 INTRA-LIGAND FREE ENERGY PREDICTED BY IDOCK:   -0.52 KCAL/MOL
REMARK 927      BINDING AFFINITY PREDICTED BY RF-SCORE:    0.00 PKD
ROOT
HETATM    1  C   UNL     1      -5.491   9.760  66.442  1.00  0.00    -0.045 C  
HETATM    2  C   UNL     1      -6.741  10.337  65.796  1.00  0.00    -0.120 C  
ENDROOT
BRANCH   2   3
HETATM    3  C   UNL     1      -7.793   9.255  65.562  1.00  0.00    -0.099 C  
BRANCH   3   4
HETATM    4  C   UNL     1      -7.877   8.281  66.739  1.00  0.00    -0.095 C  
BRANCH   4   5
HETATM    5  C   UNL     1      -9.332   8.038  67.146  1.00  0.00    -0.186 C  
BRANCH   5   6
HETATM    6  C   UNL     1     -10.211   9.249  66.832  1.00  0.00    -0.327 C  
BRANCH   6   7
HETATM    7  C   UNL     1     -10.838   9.826  68.079  1.00  0.00    -0.276 A  
HETATM    8  C   UNL     1     -11.603  11.001  68.082  1.00  0.00    -0.272 A  
HETATM    9  C   UNL     1     -12.193  11.477  69.253  1.00  0.00    -0.245 A  
HETATM   10  O   UNL     1     -11.816  11.754  66.963  1.00  0.00    -0.599 OA 
HETATM   11  H   UNL     1     -12.334  12.550  66.965  1.00  0.00     0.000 HD 
HETATM   12  C   UNL     1     -11.995  10.790  70.445  1.00  0.00    -0.357 A  
HETATM   13  C   UNL     1     -11.219   9.641  70.479  1.00  0.00    -0.359 A  
HETATM   14  O   UNL     1     -12.547  11.222  71.615  1.00  0.00    -0.331 OA 
HETATM   15  H   UNL     1     -12.412  10.753  72.430  1.00  0.00     0.000 HD 
HETATM   16  C   UNL     1     -10.643   9.159  69.301  1.00  0.00    -0.229 A  
ENDBRANCH   6   7
ENDBRANCH   5   6
ENDBRANCH   4   5
ENDBRANCH   3   4
ENDBRANCH   2   3
TORSDOF 5
ENDMDL
MODEL      247
REMARK 921   NORMALIZED FREE ENERGY PREDICTED BY IDOCK:   -2.82 KCAL/MOL
REMARK 922        TOTAL FREE ENERGY PREDICTED BY IDOCK:   -4.05 KCAL/MOL
REMARK 923 INTER-LIGAND FREE ENERGY PREDICTED BY IDOCK:   -3.72 KCAL/MOL
REMARK 924 INTRA-LIGAND FREE ENERGY PREDICTED BY IDOCK:   -0.34 KCAL/MOL
REMARK 927      BINDING AFFINITY PREDICTED BY RF-SCORE:    0.00 PKD
ROOT
HETATM    1  C   UNL     1     -10.751   6.023  73.013  1.00  0.00    -0.279 C  
HETATM    2  C   UNL     1      -9.913   6.858  73.969  1.00  0.00    -0.371 C  
ENDROOT
BRANCH   2   3
HETATM    3  C   UNL     1      -9.295   8.060  73.258  1.00  0.00    -0.344 C  
BRANCH   3   4
HETATM    4  C   UNL     1      -9.927   8.294  71.885  1.00  0.00    -0.299 C  
BRANCH   4   5
HETATM    5  C   UNL     1      -9.054   9.214  71.030  1.00  0.00    -0.305 C  
BRANCH   5   6
HETATM    6  C   UNL     1      -9.045   8.774  69.565  1.00  0.00    -0.146 C  
BRANCH   6   7
HETATM    7  C   UNL     1      -9.401   9.910  68.636  1.00  0.00    -0.149 A  
HETATM    8  C   UNL     1     -10.415   9.825  67.671  1.00  0.00    -0.251 A  
HETATM    9  C   UNL     1     -10.734  10.913  66.858  1.00  0.00    -0.318 A  
HETATM   10  O   UNL     1     -11.145   8.690  67.456  1.00  0.00    -0.457 OA 
HETATM   11  H   UNL     1     -11.832   8.633  66.803  1.00  0.00     0.000 HD 
HETATM   12  C   UNL     1     -10.013  12.095  66.987  1.00  0.00    -0.202 A  
HETATM   13  C   UNL     1      -8.985  12.199  67.912  1.00  0.00    -0.184 A  
HETATM   14  O   UNL     1     -10.285  13.181  66.209  1.00  0.00    -0.280 OA 
HETATM   15  H   UNL     1      -9.793  13.989  66.296  1.00  0.00     0.000 HD 
HETATM   16  C   UNL     1      -8.680  11.113  68.734  1.00  0.00    -0.130 A  
ENDBRANCH   6   7
ENDBRANCH   5   6
ENDBRANCH   4   5
ENDBRANCH   3   4
ENDBRANCH   2   3
TORSDOF 5
ENDMDL
MODEL      248
REMARK 921   NORMALIZED FREE ENERGY PREDICTED BY IDOCK:   -2.80 KCAL/MOL
REMARK 922        TOTAL FREE ENERGY PREDICTED BY IDOCK:   -4.02 KCAL/MOL
REMARK 923 INTER-LIGAND FREE ENERGY PREDICTED BY IDOCK:   -3.45 KCAL/MOL
REMARK 924 INTRA-LIGAND FREE ENERGY PREDICTED BY IDOCK:   -0.56 KCAL/MOL
REMARK 927      BINDING AFFINITY PREDICTED BY RF-SCORE:    0.00 PKD
ROOT
HETATM    1  C   UNL     1      -7.559   6.752  68.399  1.00  0.00    -0.104 C  
HETATM    2  C   UNL     1      -8.638   7.601  67.744  1.00  0.00    -0.121 C  
ENDROOT
BRANCH   2   3
HETATM    3  C   UNL     1      -8.678   9.005  68.344  1.00  0.00    -0.130 C  
BRANCH   3   4
HETATM    4  C   UNL     1     -10.108   9.535  68.453  1.00  0.00    -0.199 C  
BRANCH   4   5
HETATM    5  C   UNL     1     -10.233  10.538  69.601  1.00  0.00    -0.207 C  
BRANCH   5   6
HETATM    6  C   UNL     1     -11.222  10.054  70.663  1.00  0.00    -0.425 C  
BRANCH   6   7
HETATM    7  C   UNL     1     -10.851   8.690  71.194  1.00  0.00    -0.320 A  
HETATM    8  C   UNL     1     -11.763   7.630  71.296  1.00  0.00    -0.284 A  
HETATM    9  C   UNL     1     -11.366   6.376  71.760  1.00  0.00    -0.337 A  
HETATM   10  O   UNL     1     -13.082   7.748  70.961  1.00  0.00    -0.541 OA 
HETATM   11  H   UNL     1     -13.700   7.030  71.029  1.00  0.00     0.000 HD 
HETATM   12  C   UNL     1     -10.048   6.180  72.157  1.00  0.00    -0.183 A  
HETATM   13  C   UNL     1      -9.130   7.218  72.096  1.00  0.00    -0.149 A  
HETATM   14  O   UNL     1      -9.618   4.974  72.624  1.00  0.00    -0.139 OA 
HETATM   15  H   UNL     1      -8.718   4.840  72.895  1.00  0.00     0.000 HD 
HETATM   16  C   UNL     1      -9.528   8.468  71.616  1.00  0.00    -0.316 A  
ENDBRANCH   6   7
ENDBRANCH   5   6
ENDBRANCH   4   5
ENDBRANCH   3   4
ENDBRANCH   2   3
TORSDOF 5
ENDMDL
MODEL      249
REMARK 921   NORMALIZED FREE ENERGY PREDICTED BY IDOCK:   -2.79 KCAL/MOL
REMARK 922        TOTAL FREE ENERGY PREDICTED BY IDOCK:   -4.01 KCAL/MOL
REMARK 923 INTER-LIGAND FREE ENERGY PREDICTED BY IDOCK:   -3.79 KCAL/MOL
REMARK 924 INTRA-LIGAND FREE ENERGY PREDICTED BY IDOCK:   -0.22 KCAL/MOL
REMARK 927      BINDING AFFINITY PREDICTED BY RF-SCORE:    0.00 PKD
ROOT
HETATM    1  C   UNL     1     -12.852  10.552  71.877  1.00  0.00    -0.509 C  
HETATM    2  C   UNL     1     -11.965  10.861  70.680  1.00  0.00    -0.467 C  
ENDROOT
BRANCH   2   3
HETATM    3  C   UNL     1     -11.264   9.603  70.171  1.00  0.00    -0.302 C  
BRANCH   3   4
HETATM    4  C   UNL     1      -9.821   9.886  69.753  1.00  0.00    -0.268 C  
BRANCH   4   5
HETATM    5  C   UNL     1      -9.757  10.384  68.308  1.00  0.00    -0.162 C  
BRANCH   5   6
HETATM    6  C   UNL     1     -10.738   9.628  67.412  1.00  0.00    -0.308 C  
BRANCH   6   7
HETATM    7  C   UNL     1     -10.204   8.273  67.012  1.00  0.00    -0.380 A  
HETATM    8  C   UNL     1      -8.927   8.080  66.466  1.00  0.00    -0.157 A  
HETATM    9  C   UNL     1      -8.462   6.804  66.146  1.00  0.00    -0.135 A  
HETATM   10  O   UNL     1      -8.065   9.107  66.207  1.00  0.00    -0.108 OA 
HETATM   11  H   UNL     1      -7.200   8.976  65.838  1.00  0.00     0.000 HD 
HETATM   12  C   UNL     1      -9.292   5.706  66.343  1.00  0.00    -0.154 A  
HETATM   13  C   UNL     1     -10.571   5.869  66.853  1.00  0.00    -0.384 A  
HETATM   14  O   UNL     1      -8.882   4.442  66.037  1.00  0.00    -0.116 OA 
HETATM   15  H   UNL     1      -9.449   3.692  66.172  1.00  0.00     0.000 HD 
HETATM   16  C   UNL     1     -11.026   7.146  67.188  1.00  0.00    -0.342 A  
ENDBRANCH   6   7
ENDBRANCH   5   6
ENDBRANCH   4   5
ENDBRANCH   3   4
ENDBRANCH   2   3
TORSDOF 5
ENDMDL
MODEL      250
REMARK 921   NORMALIZED FREE ENERGY PREDICTED BY IDOCK:   -2.79 KCAL/MOL
REMARK 922        TOTAL FREE ENERGY PREDICTED BY IDOCK:   -4.01 KCAL/MOL
REMARK 923 INTER-LIGAND FREE ENERGY PREDICTED BY IDOCK:   -3.93 KCAL/MOL
REMARK 924 INTRA-LIGAND FREE ENERGY PREDICTED BY IDOCK:   -0.08 KCAL/MOL
REMARK 927      BINDING AFFINITY PREDICTED BY RF-SCORE:    0.00 PKD
ROOT
HETATM    1  C   UNL     1     -10.964  13.320  68.305  1.00  0.00    -0.280 C  
HETATM    2  C   UNL     1     -11.811  12.288  67.578  1.00  0.00    -0.331 C  
ENDROOT
BRANCH   2   3
HETATM    3  C   UNL     1     -11.154  11.856  66.268  1.00  0.00    -0.364 C  
BRANCH   3   4
HETATM    4  C   UNL     1     -10.386  10.542  66.425  1.00  0.00    -0.283 C  
BRANCH   4   5
HETATM    5  C   UNL     1     -10.789   9.822  67.712  1.00  0.00    -0.306 C  
BRANCH   5   6
HETATM    6  C   UNL     1      -9.992   8.533  67.907  1.00  0.00    -0.225 C  
BRANCH   6   7
HETATM    7  C   UNL     1     -10.212   7.937  69.277  1.00  0.00    -0.216 A  
HETATM    8  C   UNL     1      -9.993   8.645  70.467  1.00  0.00    -0.189 A  
HETATM    9  C   UNL     1     -10.245   8.065  71.711  1.00  0.00    -0.260 A  
HETATM   10  O   UNL     1      -9.520   9.926  70.496  1.00  0.00    -0.356 OA 
HETATM   11  H   UNL     1      -9.372  10.405  71.303  1.00  0.00     0.000 HD 
HETATM   12  C   UNL     1     -10.694   6.750  71.773  1.00  0.00    -0.224 A  
HETATM   13  C   UNL     1     -10.891   6.015  70.613  1.00  0.00    -0.364 A  
HETATM   14  O   UNL     1     -10.946   6.141  72.966  1.00  0.00    -0.251 OA 
HETATM   15  H   UNL     1     -11.253   5.243  73.008  1.00  0.00     0.000 HD 
HETATM   16  C   UNL     1     -10.653   6.605  69.370  1.00  0.00    -0.279 A  
ENDBRANCH   6   7
ENDBRANCH   5   6
ENDBRANCH   4   5
ENDBRANCH   3   4
ENDBRANCH   2   3
TORSDOF 5
ENDMDL
MODEL      251
REMARK 921   NORMALIZED FREE ENERGY PREDICTED BY IDOCK:   -2.78 KCAL/MOL
REMARK 922        TOTAL FREE ENERGY PREDICTED BY IDOCK:   -4.00 KCAL/MOL
REMARK 923 INTER-LIGAND FREE ENERGY PREDICTED BY IDOCK:   -3.60 KCAL/MOL
REMARK 924 INTRA-LIGAND FREE ENERGY PREDICTED BY IDOCK:   -0.40 KCAL/MOL
REMARK 927      BINDING AFFINITY PREDICTED BY RF-SCORE:    0.00 PKD
ROOT
HETATM    1  C   UNL     1     -10.430  12.263  68.658  1.00  0.00    -0.228 C  
HETATM    2  C   UNL     1     -11.690  12.085  67.824  1.00  0.00    -0.379 C  
ENDROOT
BRANCH   2   3
HETATM    3  C   UNL     1     -11.516  12.674  66.426  1.00  0.00    -0.409 C  
BRANCH   3   4
HETATM    4  C   UNL     1     -10.184  12.261  65.798  1.00  0.00    -0.281 C  
BRANCH   4   5
HETATM    5  C   UNL     1     -10.169  10.764  65.481  1.00  0.00    -0.330 C  
BRANCH   5   6
HETATM    6  C   UNL     1      -8.998  10.059  66.164  1.00  0.00    -0.174 C  
BRANCH   6   7
HETATM    7  C   UNL     1      -9.153   8.557  66.136  1.00  0.00    -0.245 A  
HETATM    8  C   UNL     1     -10.089   7.866  66.918  1.00  0.00    -0.291 A  
HETATM    9  C   UNL     1     -10.221   6.480  66.832  1.00  0.00    -0.279 A  
HETATM   10  O   UNL     1     -10.918   8.486  67.809  1.00  0.00    -0.495 OA 
HETATM   11  H   UNL     1     -11.552   8.018  68.339  1.00  0.00     0.000 HD 
HETATM   12  C   UNL     1      -9.389   5.766  65.977  1.00  0.00    -0.117 A  
HETATM   13  C   UNL     1      -8.434   6.419  65.212  1.00  0.00    -0.102 A  
HETATM   14  O   UNL     1      -9.478   4.410  65.865  1.00  0.00    -0.147 OA 
HETATM   15  H   UNL     1      -8.911   3.923  65.281  1.00  0.00     0.000 HD 
HETATM   16  C   UNL     1      -8.316   7.809  65.290  1.00  0.00    -0.128 A  
ENDBRANCH   6   7
ENDBRANCH   5   6
ENDBRANCH   4   5
ENDBRANCH   3   4
ENDBRANCH   2   3
TORSDOF 5
ENDMDL
MODEL      252
REMARK 921   NORMALIZED FREE ENERGY PREDICTED BY IDOCK:   -2.78 KCAL/MOL
REMARK 922        TOTAL FREE ENERGY PREDICTED BY IDOCK:   -4.00 KCAL/MOL
REMARK 923 INTER-LIGAND FREE ENERGY PREDICTED BY IDOCK:   -3.50 KCAL/MOL
REMARK 924 INTRA-LIGAND FREE ENERGY PREDICTED BY IDOCK:   -0.49 KCAL/MOL
REMARK 927      BINDING AFFINITY PREDICTED BY RF-SCORE:    0.00 PKD
ROOT
HETATM    1  C   UNL     1      -8.497   4.368  66.738  1.00  0.00    -0.105 C  
HETATM    2  C   UNL     1      -8.374   5.881  66.647  1.00  0.00    -0.110 C  
ENDROOT
BRANCH   2   3
HETATM    3  C   UNL     1      -9.742   6.554  66.746  1.00  0.00    -0.208 C  
BRANCH   3   4
HETATM    4  C   UNL     1      -9.623   8.078  66.802  1.00  0.00    -0.281 C  
BRANCH   4   5
HETATM    5  C   UNL     1      -8.576   8.507  67.832  1.00  0.00    -0.134 C  
BRANCH   5   6
HETATM    6  C   UNL     1      -9.088   9.651  68.708  1.00  0.00    -0.134 C  
BRANCH   6   7
HETATM    7  C   UNL     1      -9.715   9.144  69.984  1.00  0.00    -0.217 A  
HETATM    8  C   UNL     1      -8.990   8.928  71.164  1.00  0.00    -0.241 A  
HETATM    9  C   UNL     1      -9.618   8.492  72.331  1.00  0.00    -0.356 A  
HETATM   10  O   UNL     1      -7.640   9.118  71.255  1.00  0.00    -0.253 OA 
HETATM   11  H   UNL     1      -7.149   8.973  72.055  1.00  0.00     0.000 HD 
HETATM   12  C   UNL     1     -10.985   8.238  72.316  1.00  0.00    -0.348 A  
HETATM   13  C   UNL     1     -11.724   8.414  71.155  1.00  0.00    -0.315 A  
HETATM   14  O   UNL     1     -11.641   7.804  73.430  1.00  0.00    -0.623 OA 
HETATM   15  H   UNL     1     -12.574   7.631  73.420  1.00  0.00     0.000 HD 
HETATM   16  C   UNL     1     -11.093   8.865  69.994  1.00  0.00    -0.180 A  
ENDBRANCH   6   7
ENDBRANCH   5   6
ENDBRANCH   4   5
ENDBRANCH   3   4
ENDBRANCH   2   3
TORSDOF 5
ENDMDL
MODEL      253
REMARK 921   NORMALIZED FREE ENERGY PREDICTED BY IDOCK:   -2.76 KCAL/MOL
REMARK 922        TOTAL FREE ENERGY PREDICTED BY IDOCK:   -3.97 KCAL/MOL
REMARK 923 INTER-LIGAND FREE ENERGY PREDICTED BY IDOCK:   -3.62 KCAL/MOL
REMARK 924 INTRA-LIGAND FREE ENERGY PREDICTED BY IDOCK:   -0.35 KCAL/MOL
REMARK 927      BINDING AFFINITY PREDICTED BY RF-SCORE:    0.00 PKD
ROOT
HETATM    1  C   UNL     1     -10.992  12.806  68.675  1.00  0.00    -0.295 C  
HETATM    2  C   UNL     1     -11.467  11.413  69.058  1.00  0.00    -0.366 C  
ENDROOT
BRANCH   2   3
HETATM    3  C   UNL     1     -12.184  11.424  70.406  1.00  0.00    -0.450 C  
BRANCH   3   4
HETATM    4  C   UNL     1     -12.823  10.070  70.721  1.00  0.00    -0.341 C  
BRANCH   4   5
HETATM    5  C   UNL     1     -11.759   8.980  70.854  1.00  0.00    -0.327 C  
BRANCH   5   6
HETATM    6  C   UNL     1     -10.651   9.393  71.823  1.00  0.00    -0.133 C  
BRANCH   6   7
HETATM    7  C   UNL     1      -9.983   8.196  72.455  1.00  0.00    -0.372 A  
HETATM    8  C   UNL     1      -8.624   7.894  72.285  1.00  0.00    -0.145 A  
HETATM    9  C   UNL     1      -8.041   6.796  72.918  1.00  0.00    -0.109 A  
HETATM   10  O   UNL     1      -7.790   8.634  71.496  1.00  0.00    -0.119 OA 
HETATM   11  H   UNL     1      -6.869   8.430  71.381  1.00  0.00     0.000 HD 
HETATM   12  C   UNL     1      -8.829   5.968  73.710  1.00  0.00    -0.123 A  
HETATM   13  C   UNL     1     -10.182   6.224  73.874  1.00  0.00    -0.307 A  
HETATM   14  O   UNL     1      -8.304   4.880  74.343  1.00  0.00    -0.101 OA 
HETATM   15  H   UNL     1      -8.841   4.314  74.884  1.00  0.00     0.000 HD 
HETATM   16  C   UNL     1     -10.758   7.333  73.250  1.00  0.00    -0.428 A  
ENDBRANCH   6   7
ENDBRANCH   5   6
ENDBRANCH   4   5
ENDBRANCH   3   4
ENDBRANCH   2   3
TORSDOF 5
ENDMDL
MODEL      254
REMARK 921   NORMALIZED FREE ENERGY PREDICTED BY IDOCK:   -2.75 KCAL/MOL
REMARK 922        TOTAL FREE ENERGY PREDICTED BY IDOCK:   -3.96 KCAL/MOL
REMARK 923 INTER-LIGAND FREE ENERGY PREDICTED BY IDOCK:   -3.70 KCAL/MOL
REMARK 924 INTRA-LIGAND FREE ENERGY PREDICTED BY IDOCK:   -0.27 KCAL/MOL
REMARK 927      BINDING AFFINITY PREDICTED BY RF-SCORE:    0.00 PKD
ROOT
HETATM    1  C   UNL     1     -10.108   3.316  64.352  1.00  0.00    -0.119 C  
HETATM    2  C   UNL     1      -9.577   4.123  65.526  1.00  0.00    -0.188 C  
ENDROOT
BRANCH   2   3
HETATM    3  C   UNL     1     -10.672   4.991  66.142  1.00  0.00    -0.264 C  
BRANCH   3   4
HETATM    4  C   UNL     1     -10.425   5.248  67.629  1.00  0.00    -0.176 C  
BRANCH   4   5
HETATM    5  C   UNL     1     -11.032   6.583  68.063  1.00  0.00    -0.368 C  
BRANCH   5   6
HETATM    6  C   UNL     1      -9.975   7.686  68.125  1.00  0.00    -0.203 C  
BRANCH   6   7
HETATM    7  C   UNL     1     -10.510   8.940  68.776  1.00  0.00    -0.223 A  
HETATM    8  C   UNL     1     -10.577   9.116  70.165  1.00  0.00    -0.228 A  
HETATM    9  C   UNL     1     -11.045  10.306  70.722  1.00  0.00    -0.303 A  
HETATM   10  O   UNL     1     -10.204   8.151  71.058  1.00  0.00    -0.186 OA 
HETATM   11  H   UNL     1     -10.249   8.271  71.999  1.00  0.00     0.000 HD 
HETATM   12  C   UNL     1     -11.481  11.327  69.884  1.00  0.00    -0.293 A  
HETATM   13  C   UNL     1     -11.454  11.170  68.506  1.00  0.00    -0.371 A  
HETATM   14  O   UNL     1     -11.953  12.504  70.384  1.00  0.00    -0.463 OA 
HETATM   15  H   UNL     1     -12.250  13.201  69.812  1.00  0.00     0.000 HD 
HETATM   16  C   UNL     1     -10.970   9.982  67.953  1.00  0.00    -0.311 A  
ENDBRANCH   6   7
ENDBRANCH   5   6
ENDBRANCH   4   5
ENDBRANCH   3   4
ENDBRANCH   2   3
TORSDOF 5
ENDMDL
MODEL      255
REMARK 921   NORMALIZED FREE ENERGY PREDICTED BY IDOCK:   -2.74 KCAL/MOL
REMARK 922        TOTAL FREE ENERGY PREDICTED BY IDOCK:   -3.95 KCAL/MOL
REMARK 923 INTER-LIGAND FREE ENERGY PREDICTED BY IDOCK:   -3.57 KCAL/MOL
REMARK 924 INTRA-LIGAND FREE ENERGY PREDICTED BY IDOCK:   -0.38 KCAL/MOL
REMARK 927      BINDING AFFINITY PREDICTED BY RF-SCORE:    0.00 PKD
ROOT
HETATM    1  C   UNL     1     -12.572  10.654  71.434  1.00  0.00    -0.526 C  
HETATM    2  C   UNL     1     -12.141   9.323  72.029  1.00  0.00    -0.406 C  
ENDROOT
BRANCH   2   3
HETATM    3  C   UNL     1     -11.777   8.320  70.936  1.00  0.00    -0.256 C  
BRANCH   3   4
HETATM    4  C   UNL     1     -10.812   8.921  69.913  1.00  0.00    -0.219 C  
BRANCH   4   5
HETATM    5  C   UNL     1     -10.251   7.839  68.988  1.00  0.00    -0.213 C  
BRANCH   5   6
HETATM    6  C   UNL     1     -10.905   7.888  67.607  1.00  0.00    -0.125 C  
BRANCH   6   7
HETATM    7  C   UNL     1     -10.024   8.577  66.592  1.00  0.00    -0.363 A  
HETATM    8  C   UNL     1      -9.056   7.905  65.834  1.00  0.00    -0.087 A  
HETATM    9  C   UNL     1      -8.289   8.577  64.881  1.00  0.00    -0.171 A  
HETATM   10  O   UNL     1      -8.792   6.572  65.974  1.00  0.00    -0.152 OA 
HETATM   11  H   UNL     1      -8.136   6.117  65.459  1.00  0.00     0.000 HD 
HETATM   12  C   UNL     1      -8.468   9.944  64.701  1.00  0.00    -0.172 A  
HETATM   13  C   UNL     1      -9.398  10.641  65.458  1.00  0.00    -0.245 A  
HETATM   14  O   UNL     1      -7.736  10.642  63.786  1.00  0.00    -0.344 OA 
HETATM   15  H   UNL     1      -7.858  11.576  63.663  1.00  0.00     0.000 HD 
HETATM   16  C   UNL     1     -10.174   9.961  66.399  1.00  0.00    -0.292 A  
ENDBRANCH   6   7
ENDBRANCH   5   6
ENDBRANCH   4   5
ENDBRANCH   3   4
ENDBRANCH   2   3
TORSDOF 5
ENDMDL
MODEL      256
REMARK 921   NORMALIZED FREE ENERGY PREDICTED BY IDOCK:   -2.74 KCAL/MOL
REMARK 922        TOTAL FREE ENERGY PREDICTED BY IDOCK:   -3.94 KCAL/MOL
REMARK 923 INTER-LIGAND FREE ENERGY PREDICTED BY IDOCK:   -3.15 KCAL/MOL
REMARK 924 INTRA-LIGAND FREE ENERGY PREDICTED BY IDOCK:   -0.79 KCAL/MOL
REMARK 927      BINDING AFFINITY PREDICTED BY RF-SCORE:    0.00 PKD
ROOT
HETATM    1  C   UNL     1      -6.822   5.447  66.223  1.00  0.00    -0.059 C  
HETATM    2  C   UNL     1      -8.137   4.851  66.701  1.00  0.00    -0.107 C  
ENDROOT
BRANCH   2   3
HETATM    3  C   UNL     1      -9.322   5.445  65.941  1.00  0.00    -0.155 C  
BRANCH   3   4
HETATM    4  C   UNL     1     -10.636   5.255  66.701  1.00  0.00    -0.334 C  
BRANCH   4   5
HETATM    5  C   UNL     1     -10.912   6.444  67.622  1.00  0.00    -0.441 C  
BRANCH   5   6
HETATM    6  C   UNL     1     -10.533   7.768  66.958  1.00  0.00    -0.419 C  
BRANCH   6   7
HETATM    7  C   UNL     1      -9.666   8.619  67.855  1.00  0.00    -0.192 A  
HETATM    8  C   UNL     1      -9.862   9.995  68.034  1.00  0.00    -0.142 A  
HETATM    9  C   UNL     1      -9.058  10.734  68.902  1.00  0.00    -0.170 A  
HETATM   10  O   UNL     1     -10.831  10.701  67.378  1.00  0.00    -0.262 OA 
HETATM   11  H   UNL     1     -10.964  11.634  67.500  1.00  0.00     0.000 HD 
HETATM   12  C   UNL     1      -8.023  10.100  69.580  1.00  0.00    -0.173 A  
HETATM   13  C   UNL     1      -7.786   8.745  69.401  1.00  0.00    -0.095 A  
HETATM   14  O   UNL     1      -7.207  10.784  70.433  1.00  0.00    -0.467 OA 
HETATM   15  H   UNL     1      -6.501  10.351  70.896  1.00  0.00     0.000 HD 
HETATM   16  C   UNL     1      -8.604   8.006  68.543  1.00  0.00    -0.128 A  
ENDBRANCH   6   7
ENDBRANCH   5   6
ENDBRANCH   4   5
ENDBRANCH   3   4
ENDBRANCH   2   3
TORSDOF 5
ENDMDL
MODEL      257
REMARK 921   NORMALIZED FREE ENERGY PREDICTED BY IDOCK:   -2.71 KCAL/MOL
REMARK 922        TOTAL FREE ENERGY PREDICTED BY IDOCK:   -3.90 KCAL/MOL
REMARK 923 INTER-LIGAND FREE ENERGY PREDICTED BY IDOCK:   -3.44 KCAL/MOL
REMARK 924 INTRA-LIGAND FREE ENERGY PREDICTED BY IDOCK:   -0.46 KCAL/MOL
REMARK 927      BINDING AFFINITY PREDICTED BY RF-SCORE:    0.00 PKD
ROOT
HETATM    1  C   UNL     1     -13.013  10.955  71.356  1.00  0.00    -0.527 C  
HETATM    2  C   UNL     1     -12.168   9.761  71.774  1.00  0.00    -0.449 C  
ENDROOT
BRANCH   2   3
HETATM    3  C   UNL     1     -11.500   9.106  70.566  1.00  0.00    -0.271 C  
BRANCH   3   4
HETATM    4  C   UNL     1     -11.056  10.142  69.532  1.00  0.00    -0.295 C  
BRANCH   4   5
HETATM    5  C   UNL     1     -10.389   9.467  68.332  1.00  0.00    -0.237 C  
BRANCH   5   6
HETATM    6  C   UNL     1      -9.443   8.350  68.772  1.00  0.00    -0.147 C  
BRANCH   6   7
HETATM    7  C   UNL     1      -9.500   7.165  67.837  1.00  0.00    -0.135 A  
HETATM    8  C   UNL     1     -10.311   6.045  68.065  1.00  0.00    -0.202 A  
HETATM    9  C   UNL     1     -10.359   4.989  67.155  1.00  0.00    -0.217 A  
HETATM   10  O   UNL     1     -11.093   5.904  69.177  1.00  0.00    -0.351 OA 
HETATM   11  H   UNL     1     -11.642   5.145  69.331  1.00  0.00     0.000 HD 
HETATM   12  C   UNL     1      -9.565   5.034  66.014  1.00  0.00    -0.168 A  
HETATM   13  C   UNL     1      -8.731   6.116  65.776  1.00  0.00    -0.151 A  
HETATM   14  O   UNL     1      -9.574   4.022  65.101  1.00  0.00    -0.158 OA 
HETATM   15  H   UNL     1      -9.033   4.053  64.321  1.00  0.00     0.000 HD 
HETATM   16  C   UNL     1      -8.698   7.178  66.682  1.00  0.00    -0.131 A  
ENDBRANCH   6   7
ENDBRANCH   5   6
ENDBRANCH   4   5
ENDBRANCH   3   4
ENDBRANCH   2   3
TORSDOF 5
ENDMDL
MODEL      258
REMARK 921   NORMALIZED FREE ENERGY PREDICTED BY IDOCK:   -2.70 KCAL/MOL
REMARK 922        TOTAL FREE ENERGY PREDICTED BY IDOCK:   -3.90 KCAL/MOL
REMARK 923 INTER-LIGAND FREE ENERGY PREDICTED BY IDOCK:   -3.03 KCAL/MOL
REMARK 924 INTRA-LIGAND FREE ENERGY PREDICTED BY IDOCK:   -0.87 KCAL/MOL
REMARK 927      BINDING AFFINITY PREDICTED BY RF-SCORE:    0.00 PKD
ROOT
HETATM    1  C   UNL     1     -11.602   5.770  72.270  1.00  0.00    -0.300 C  
HETATM    2  C   UNL     1     -11.041   6.937  73.068  1.00  0.00    -0.267 C  
ENDROOT
BRANCH   2   3
HETATM    3  C   UNL     1     -11.612   8.267  72.579  1.00  0.00    -0.454 C  
BRANCH   3   4
HETATM    4  C   UNL     1     -11.484   8.416  71.062  1.00  0.00    -0.302 C  
BRANCH   4   5
HETATM    5  C   UNL     1     -10.670   9.661  70.701  1.00  0.00    -0.388 C  
BRANCH   5   6
HETATM    6  C   UNL     1      -9.434   9.302  69.876  1.00  0.00    -0.214 C  
BRANCH   6   7
HETATM    7  C   UNL     1      -8.812   8.003  70.331  1.00  0.00    -0.141 A  
HETATM    8  C   UNL     1      -8.025   7.891  71.486  1.00  0.00    -0.099 A  
HETATM    9  C   UNL     1      -7.501   6.663  71.888  1.00  0.00    -0.091 A  
HETATM   10  O   UNL     1      -7.714   8.957  72.282  1.00  0.00    -0.354 OA 
HETATM   11  H   UNL     1      -7.181   8.881  73.064  1.00  0.00     0.000 HD 
HETATM   12  C   UNL     1      -7.738   5.533  71.113  1.00  0.00    -0.104 A  
HETATM   13  C   UNL     1      -8.488   5.618  69.950  1.00  0.00    -0.121 A  
HETATM   14  O   UNL     1      -7.239   4.313  71.463  1.00  0.00    -0.047 OA 
HETATM   15  H   UNL     1      -7.401   3.541  70.934  1.00  0.00     0.000 HD 
HETATM   16  C   UNL     1      -9.025   6.847  69.560  1.00  0.00    -0.143 A  
ENDBRANCH   6   7
ENDBRANCH   5   6
ENDBRANCH   4   5
ENDBRANCH   3   4
ENDBRANCH   2   3
TORSDOF 5
ENDMDL
MODEL      259
REMARK 921   NORMALIZED FREE ENERGY PREDICTED BY IDOCK:   -2.69 KCAL/MOL
REMARK 922        TOTAL FREE ENERGY PREDICTED BY IDOCK:   -3.88 KCAL/MOL
REMARK 923 INTER-LIGAND FREE ENERGY PREDICTED BY IDOCK:   -3.47 KCAL/MOL
REMARK 924 INTRA-LIGAND FREE ENERGY PREDICTED BY IDOCK:   -0.41 KCAL/MOL
REMARK 927      BINDING AFFINITY PREDICTED BY RF-SCORE:    0.00 PKD
ROOT
HETATM    1  C   UNL     1     -13.627  13.208  72.083  1.00  0.00    -0.637 C  
HETATM    2  C   UNL     1     -12.869  12.200  71.233  1.00  0.00    -0.349 C  
ENDROOT
BRANCH   2   3
HETATM    3  C   UNL     1     -13.121  10.772  71.711  1.00  0.00    -0.573 C  
BRANCH   3   4
HETATM    4  C   UNL     1     -11.850   9.922  71.656  1.00  0.00    -0.374 C  
BRANCH   4   5
HETATM    5  C   UNL     1     -11.393   9.714  70.211  1.00  0.00    -0.311 C  
BRANCH   5   6
HETATM    6  C   UNL     1     -10.153   8.823  70.138  1.00  0.00    -0.203 C  
BRANCH   6   7
HETATM    7  C   UNL     1      -8.895   9.628  69.916  1.00  0.00    -0.240 A  
HETATM    8  C   UNL     1      -7.679   9.347  70.553  1.00  0.00    -0.161 A  
HETATM    9  C   UNL     1      -6.533  10.096  70.289  1.00  0.00    -0.128 A  
HETATM   10  O   UNL     1      -7.532   8.342  71.467  1.00  0.00    -0.074 OA 
HETATM   11  H   UNL     1      -6.708   8.151  71.899  1.00  0.00     0.000 HD 
HETATM   12  C   UNL     1      -6.604  11.162  69.400  1.00  0.00    -0.109 A  
HETATM   13  C   UNL     1      -7.801  11.484  68.776  1.00  0.00    -0.117 A  
HETATM   14  O   UNL     1      -5.511  11.927  69.117  1.00  0.00    -0.051 OA 
HETATM   15  H   UNL     1      -5.560  12.655  68.509  1.00  0.00     0.000 HD 
HETATM   16  C   UNL     1      -8.942  10.720  69.031  1.00  0.00    -0.141 A  
ENDBRANCH   6   7
ENDBRANCH   5   6
ENDBRANCH   4   5
ENDBRANCH   3   4
ENDBRANCH   2   3
TORSDOF 5
ENDMDL
MODEL      260
REMARK 921   NORMALIZED FREE ENERGY PREDICTED BY IDOCK:   -2.69 KCAL/MOL
REMARK 922        TOTAL FREE ENERGY PREDICTED BY IDOCK:   -3.88 KCAL/MOL
REMARK 923 INTER-LIGAND FREE ENERGY PREDICTED BY IDOCK:   -3.65 KCAL/MOL
REMARK 924 INTRA-LIGAND FREE ENERGY PREDICTED BY IDOCK:   -0.23 KCAL/MOL
REMARK 927      BINDING AFFINITY PREDICTED BY RF-SCORE:    0.00 PKD
ROOT
HETATM    1  C   UNL     1      -5.591   9.765  65.852  1.00  0.00    -0.049 C  
HETATM    2  C   UNL     1      -5.444   9.662  64.341  1.00  0.00    -0.066 C  
ENDROOT
BRANCH   2   3
HETATM    3  C   UNL     1      -6.808   9.586  63.657  1.00  0.00    -0.104 C  
BRANCH   3   4
HETATM    4  C   UNL     1      -7.752   8.624  64.378  1.00  0.00    -0.126 C  
BRANCH   4   5
HETATM    5  C   UNL     1      -9.138   9.246  64.555  1.00  0.00    -0.145 C  
BRANCH   5   6
HETATM    6  C   UNL     1      -9.487  10.178  63.394  1.00  0.00    -0.308 C  
BRANCH   6   7
HETATM    7  C   UNL     1     -10.258  11.390  63.859  1.00  0.00    -0.415 A  
HETATM    8  C   UNL     1      -9.829  12.220  64.905  1.00  0.00    -0.118 A  
HETATM    9  C   UNL     1     -10.557  13.350  65.276  1.00  0.00    -0.333 A  
HETATM   10  O   UNL     1      -8.693  11.983  65.626  1.00  0.00    -0.396 OA 
HETATM   11  H   UNL     1      -8.402  12.545  66.334  1.00  0.00     0.000 HD 
HETATM   12  C   UNL     1     -11.745  13.644  64.618  1.00  0.00    -0.388 A  
HETATM   13  C   UNL     1     -12.211  12.825  63.600  1.00  0.00    -0.597 A  
HETATM   14  O   UNL     1     -12.493  14.734  64.952  1.00  0.00    -0.334 OA 
HETATM   15  H   UNL     1     -13.305  14.935  64.503  1.00  0.00     0.000 HD 
HETATM   16  C   UNL     1     -11.471  11.703  63.220  1.00  0.00    -0.266 A  
ENDBRANCH   6   7
ENDBRANCH   5   6
ENDBRANCH   4   5
ENDBRANCH   3   4
ENDBRANCH   2   3
TORSDOF 5
ENDMDL
MODEL      261
REMARK 921   NORMALIZED FREE ENERGY PREDICTED BY IDOCK:   -2.68 KCAL/MOL
REMARK 922        TOTAL FREE ENERGY PREDICTED BY IDOCK:   -3.87 KCAL/MOL
REMARK 923 INTER-LIGAND FREE ENERGY PREDICTED BY IDOCK:   -3.69 KCAL/MOL
REMARK 924 INTRA-LIGAND FREE ENERGY PREDICTED BY IDOCK:   -0.19 KCAL/MOL
REMARK 927      BINDING AFFINITY PREDICTED BY RF-SCORE:    0.00 PKD
ROOT
HETATM    1  C   UNL     1     -13.440  12.605  72.113  1.00  0.00    -0.561 C  
HETATM    2  C   UNL     1     -12.710  12.318  70.810  1.00  0.00    -0.212 C  
ENDROOT
BRANCH   2   3
HETATM    3  C   UNL     1     -12.556  10.816  70.581  1.00  0.00    -0.446 C  
BRANCH   3   4
HETATM    4  C   UNL     1     -11.096  10.424  70.346  1.00  0.00    -0.371 C  
BRANCH   4   5
HETATM    5  C   UNL     1     -10.820   9.008  70.854  1.00  0.00    -0.323 C  
BRANCH   5   6
HETATM    6  C   UNL     1     -11.716   7.980  70.163  1.00  0.00     0.176 C  
BRANCH   6   7
HETATM    7  C   UNL     1     -11.006   6.664  69.958  1.00  0.00    -0.363 A  
HETATM    8  C   UNL     1     -10.620   5.825  71.013  1.00  0.00    -0.253 A  
HETATM    9  C   UNL     1      -9.998   4.600  70.775  1.00  0.00    -0.284 A  
HETATM   10  O   UNL     1     -10.816   6.144  72.328  1.00  0.00    -0.222 OA 
HETATM   11  H   UNL     1     -10.555   5.576  73.043  1.00  0.00     0.000 HD 
HETATM   12  C   UNL     1      -9.728   4.215  69.466  1.00  0.00    -0.183 A  
HETATM   13  C   UNL     1     -10.070   5.037  68.403  1.00  0.00    -0.176 A  
HETATM   14  O   UNL     1      -9.115   3.030  69.186  1.00  0.00    -0.111 OA 
HETATM   15  H   UNL     1      -8.930   2.767  68.292  1.00  0.00     0.000 HD 
HETATM   16  C   UNL     1     -10.708   6.256  68.646  1.00  0.00    -0.357 A  
ENDBRANCH   6   7
ENDBRANCH   5   6
ENDBRANCH   4   5
ENDBRANCH   3   4
ENDBRANCH   2   3
TORSDOF 5
ENDMDL
MODEL      262
REMARK 921   NORMALIZED FREE ENERGY PREDICTED BY IDOCK:   -2.68 KCAL/MOL
REMARK 922        TOTAL FREE ENERGY PREDICTED BY IDOCK:   -3.87 KCAL/MOL
REMARK 923 INTER-LIGAND FREE ENERGY PREDICTED BY IDOCK:   -3.44 KCAL/MOL
REMARK 924 INTRA-LIGAND FREE ENERGY PREDICTED BY IDOCK:   -0.43 KCAL/MOL
REMARK 927      BINDING AFFINITY PREDICTED BY RF-SCORE:    0.00 PKD
ROOT
HETATM    1  C   UNL     1     -11.212  12.970  64.387  1.00  0.00    -0.393 C  
HETATM    2  C   UNL     1     -10.374  14.183  64.761  1.00  0.00    -0.387 C  
ENDROOT
BRANCH   2   3
HETATM    3  C   UNL     1     -11.251  15.326  65.268  1.00  0.00    -0.338 C  
BRANCH   3   4
HETATM    4  C   UNL     1     -11.086  15.543  66.773  1.00  0.00    -0.206 C  
BRANCH   4   5
HETATM    5  C   UNL     1     -11.810  14.453  67.566  1.00  0.00    -0.418 C  
BRANCH   5   6
HETATM    6  C   UNL     1     -10.972  13.972  68.751  1.00  0.00    -0.282 C  
BRANCH   6   7
HETATM    7  C   UNL     1      -9.496  14.191  68.521  1.00  0.00    -0.202 A  
HETATM    8  C   UNL     1      -8.687  13.294  67.809  1.00  0.00    -0.194 A  
HETATM    9  C   UNL     1      -7.335  13.556  67.590  1.00  0.00    -0.180 A  
HETATM   10  O   UNL     1      -9.154  12.118  67.293  1.00  0.00    -0.170 OA 
HETATM   11  H   UNL     1      -8.607  11.511  66.810  1.00  0.00     0.000 HD 
HETATM   12  C   UNL     1      -6.770  14.713  68.114  1.00  0.00    -0.131 A  
HETATM   13  C   UNL     1      -7.538  15.605  68.848  1.00  0.00    -0.173 A  
HETATM   14  O   UNL     1      -5.451  15.007  67.931  1.00  0.00    -0.131 OA 
HETATM   15  H   UNL     1      -5.065  15.797  68.289  1.00  0.00     0.000 HD 
HETATM   16  C   UNL     1      -8.895  15.347  69.051  1.00  0.00    -0.231 A  
ENDBRANCH   6   7
ENDBRANCH   5   6
ENDBRANCH   4   5
ENDBRANCH   3   4
ENDBRANCH   2   3
TORSDOF 5
ENDMDL
MODEL      263
REMARK 921   NORMALIZED FREE ENERGY PREDICTED BY IDOCK:   -2.67 KCAL/MOL
REMARK 922        TOTAL FREE ENERGY PREDICTED BY IDOCK:   -3.86 KCAL/MOL
REMARK 923 INTER-LIGAND FREE ENERGY PREDICTED BY IDOCK:   -3.79 KCAL/MOL
REMARK 924 INTRA-LIGAND FREE ENERGY PREDICTED BY IDOCK:   -0.06 KCAL/MOL
REMARK 927      BINDING AFFINITY PREDICTED BY RF-SCORE:    0.00 PKD
ROOT
HETATM    1  C   UNL     1     -10.681   9.672  68.039  1.00  0.00    -0.284 C  
HETATM    2  C   UNL     1     -10.896  10.874  67.132  1.00  0.00    -0.337 C  
ENDROOT
BRANCH   2   3
HETATM    3  C   UNL     1     -11.859  11.878  67.763  1.00  0.00    -0.289 C  
BRANCH   3   4
HETATM    4  C   UNL     1     -11.498  12.172  69.220  1.00  0.00    -0.363 C  
BRANCH   4   5
HETATM    5  C   UNL     1     -11.054  13.625  69.391  1.00  0.00    -0.193 C  
BRANCH   5   6
HETATM    6  C   UNL     1      -9.969  14.003  68.383  1.00  0.00    -0.236 C  
BRANCH   6   7
HETATM    7  C   UNL     1      -9.671  15.483  68.406  1.00  0.00    -0.203 A  
HETATM    8  C   UNL     1     -10.659  16.468  68.272  1.00  0.00    -0.326 A  
HETATM    9  C   UNL     1     -10.342  17.825  68.336  1.00  0.00    -0.378 A  
HETATM   10  O   UNL     1     -11.979  16.177  68.067  1.00  0.00    -0.091 OA 
HETATM   11  H   UNL     1     -12.648  16.845  67.978  1.00  0.00     0.000 HD 
HETATM   12  C   UNL     1      -9.017  18.209  68.505  1.00  0.00    -0.296 A  
HETATM   13  C   UNL     1      -8.013  17.257  68.610  1.00  0.00    -0.267 A  
HETATM   14  O   UNL     1      -8.659  19.524  68.565  1.00  0.00    -0.348 OA 
HETATM   15  H   UNL     1      -7.754  19.786  68.681  1.00  0.00     0.000 HD 
HETATM   16  C   UNL     1      -8.337  15.900  68.562  1.00  0.00    -0.182 A  
ENDBRANCH   6   7
ENDBRANCH   5   6
ENDBRANCH   4   5
ENDBRANCH   3   4
ENDBRANCH   2   3
TORSDOF 5
ENDMDL
MODEL      264
REMARK 921   NORMALIZED FREE ENERGY PREDICTED BY IDOCK:   -2.66 KCAL/MOL
REMARK 922        TOTAL FREE ENERGY PREDICTED BY IDOCK:   -3.85 KCAL/MOL
REMARK 923 INTER-LIGAND FREE ENERGY PREDICTED BY IDOCK:   -3.07 KCAL/MOL
REMARK 924 INTRA-LIGAND FREE ENERGY PREDICTED BY IDOCK:   -0.77 KCAL/MOL
REMARK 927      BINDING AFFINITY PREDICTED BY RF-SCORE:    0.00 PKD
ROOT
HETATM    1  C   UNL     1      -6.919   6.297  70.460  1.00  0.00    -0.064 C  
HETATM    2  C   UNL     1      -6.149   7.193  71.417  1.00  0.00    -0.037 C  
ENDROOT
BRANCH   2   3
HETATM    3  C   UNL     1      -6.900   7.370  72.736  1.00  0.00    -0.064 C  
BRANCH   3   4
HETATM    4  C   UNL     1      -8.077   8.336  72.593  1.00  0.00    -0.211 C  
BRANCH   4   5
HETATM    5  C   UNL     1      -9.294   7.835  73.372  1.00  0.00    -0.346 C  
BRANCH   5   6
HETATM    6  C   UNL     1     -10.589   8.053  72.589  1.00  0.00    -0.419 C  
BRANCH   6   7
HETATM    7  C   UNL     1     -10.529   7.425  71.217  1.00  0.00    -0.221 A  
HETATM    8  C   UNL     1     -10.547   6.039  71.005  1.00  0.00    -0.246 A  
HETATM    9  C   UNL     1     -10.526   5.503  69.717  1.00  0.00    -0.389 A  
HETATM   10  O   UNL     1     -10.580   5.129  72.024  1.00  0.00    -0.218 OA 
HETATM   11  H   UNL     1     -10.593   4.191  71.880  1.00  0.00     0.000 HD 
HETATM   12  C   UNL     1     -10.454   6.359  68.623  1.00  0.00    -0.223 A  
HETATM   13  C   UNL     1     -10.404   7.733  68.803  1.00  0.00    -0.219 A  
HETATM   14  O   UNL     1     -10.424   5.880  67.347  1.00  0.00    -0.192 OA 
HETATM   15  H   UNL     1     -10.375   6.464  66.600  1.00  0.00     0.000 HD 
HETATM   16  C   UNL     1     -10.442   8.265  70.094  1.00  0.00    -0.225 A  
ENDBRANCH   6   7
ENDBRANCH   5   6
ENDBRANCH   4   5
ENDBRANCH   3   4
ENDBRANCH   2   3
TORSDOF 5
ENDMDL
MODEL      265
REMARK 921   NORMALIZED FREE ENERGY PREDICTED BY IDOCK:   -2.66 KCAL/MOL
REMARK 922        TOTAL FREE ENERGY PREDICTED BY IDOCK:   -3.84 KCAL/MOL
REMARK 923 INTER-LIGAND FREE ENERGY PREDICTED BY IDOCK:   -3.65 KCAL/MOL
REMARK 924 INTRA-LIGAND FREE ENERGY PREDICTED BY IDOCK:   -0.19 KCAL/MOL
REMARK 927      BINDING AFFINITY PREDICTED BY RF-SCORE:    0.00 PKD
ROOT
HETATM    1  C   UNL     1      -7.344  12.404  67.150  1.00  0.00    -0.081 C  
HETATM    2  C   UNL     1      -8.081  11.285  67.869  1.00  0.00    -0.121 C  
ENDROOT
BRANCH   2   3
HETATM    3  C   UNL     1      -9.346  11.803  68.551  1.00  0.00    -0.158 C  
BRANCH   3   4
HETATM    4  C   UNL     1     -10.140  12.739  67.638  1.00  0.00    -0.220 C  
BRANCH   4   5
HETATM    5  C   UNL     1     -11.643  12.599  67.885  1.00  0.00    -0.401 C  
BRANCH   5   6
HETATM    6  C   UNL     1     -12.438  13.645  67.104  1.00  0.00    -0.074 C  
BRANCH   6   7
HETATM    7  C   UNL     1     -11.678  14.943  66.969  1.00  0.00    -0.274 A  
HETATM    8  C   UNL     1     -11.616  15.908  67.984  1.00  0.00    -0.168 A  
HETATM    9  C   UNL     1     -10.871  17.076  67.829  1.00  0.00    -0.269 A  
HETATM   10  O   UNL     1     -12.273  15.779  69.175  1.00  0.00    -0.556 OA 
HETATM   11  H   UNL     1     -12.231  16.432  69.864  1.00  0.00     0.000 HD 
HETATM   12  C   UNL     1     -10.201  17.304  66.632  1.00  0.00    -0.319 A  
HETATM   13  C   UNL     1     -10.268  16.383  65.597  1.00  0.00    -0.349 A  
HETATM   14  O   UNL     1      -9.467  18.436  66.432  1.00  0.00    -0.311 OA 
HETATM   15  H   UNL     1      -9.009  18.591  65.615  1.00  0.00     0.000 HD 
HETATM   16  C   UNL     1     -11.002  15.206  65.764  1.00  0.00    -0.350 A  
ENDBRANCH   6   7
ENDBRANCH   5   6
ENDBRANCH   4   5
ENDBRANCH   3   4
ENDBRANCH   2   3
TORSDOF 5
ENDMDL
MODEL      266
REMARK 921   NORMALIZED FREE ENERGY PREDICTED BY IDOCK:   -2.65 KCAL/MOL
REMARK 922        TOTAL FREE ENERGY PREDICTED BY IDOCK:   -3.82 KCAL/MOL
REMARK 923 INTER-LIGAND FREE ENERGY PREDICTED BY IDOCK:   -3.47 KCAL/MOL
REMARK 924 INTRA-LIGAND FREE ENERGY PREDICTED BY IDOCK:   -0.36 KCAL/MOL
REMARK 927      BINDING AFFINITY PREDICTED BY RF-SCORE:    0.00 PKD
ROOT
HETATM    1  C   UNL     1     -13.205  12.058  71.883  1.00  0.00    -0.469 C  
HETATM    2  C   UNL     1     -12.260  11.184  71.073  1.00  0.00    -0.438 C  
ENDROOT
BRANCH   2   3
HETATM    3  C   UNL     1     -12.604   9.704  71.231  1.00  0.00    -0.443 C  
BRANCH   3   4
HETATM    4  C   UNL     1     -11.383   8.878  71.638  1.00  0.00    -0.407 C  
BRANCH   4   5
HETATM    5  C   UNL     1     -11.131   7.744  70.642  1.00  0.00    -0.264 C  
BRANCH   5   6
HETATM    6  C   UNL     1     -10.631   8.278  69.300  1.00  0.00    -0.191 C  
BRANCH   6   7
HETATM    7  C   UNL     1      -9.683   7.312  68.629  1.00  0.00    -0.146 A  
HETATM    8  C   UNL     1      -9.503   7.250  67.240  1.00  0.00    -0.138 A  
HETATM    9  C   UNL     1      -8.589   6.366  66.667  1.00  0.00    -0.121 A  
HETATM   10  O   UNL     1     -10.201   8.032  66.363  1.00  0.00    -0.466 OA 
HETATM   11  H   UNL     1     -10.079   7.990  65.422  1.00  0.00     0.000 HD 
HETATM   12  C   UNL     1      -7.864   5.508  67.487  1.00  0.00    -0.101 A  
HETATM   13  C   UNL     1      -8.042   5.525  68.862  1.00  0.00    -0.095 A  
HETATM   14  O   UNL     1      -6.965   4.622  66.970  1.00  0.00    -0.055 OA 
HETATM   15  H   UNL     1      -6.470   4.036  67.530  1.00  0.00     0.000 HD 
HETATM   16  C   UNL     1      -8.947   6.423  69.432  1.00  0.00    -0.131 A  
ENDBRANCH   6   7
ENDBRANCH   5   6
ENDBRANCH   4   5
ENDBRANCH   3   4
ENDBRANCH   2   3
TORSDOF 5
ENDMDL
MODEL      267
REMARK 921   NORMALIZED FREE ENERGY PREDICTED BY IDOCK:   -2.63 KCAL/MOL
REMARK 922        TOTAL FREE ENERGY PREDICTED BY IDOCK:   -3.81 KCAL/MOL
REMARK 923 INTER-LIGAND FREE ENERGY PREDICTED BY IDOCK:   -3.48 KCAL/MOL
REMARK 924 INTRA-LIGAND FREE ENERGY PREDICTED BY IDOCK:   -0.32 KCAL/MOL
REMARK 927      BINDING AFFINITY PREDICTED BY RF-SCORE:    0.00 PKD
ROOT
HETATM    1  C   UNL     1      -6.102   8.317  70.988  1.00  0.00    -0.034 C  
HETATM    2  C   UNL     1      -6.051   9.768  70.535  1.00  0.00    -0.078 C  
ENDROOT
BRANCH   2   3
HETATM    3  C   UNL     1      -7.403  10.226  69.991  1.00  0.00    -0.157 C  
BRANCH   3   4
HETATM    4  C   UNL     1      -8.438   9.101  70.025  1.00  0.00    -0.164 C  
BRANCH   4   5
HETATM    5  C   UNL     1      -9.601   9.399  69.077  1.00  0.00    -0.164 C  
BRANCH   5   6
HETATM    6  C   UNL     1     -10.378   8.130  68.726  1.00  0.00    -0.220 C  
BRANCH   6   7
HETATM    7  C   UNL     1     -10.754   7.343  69.960  1.00  0.00    -0.258 A  
HETATM    8  C   UNL     1     -11.768   7.738  70.844  1.00  0.00    -0.265 A  
HETATM    9  C   UNL     1     -12.106   6.960  71.951  1.00  0.00    -0.370 A  
HETATM   10  O   UNL     1     -12.481   8.893  70.691  1.00  0.00    -0.493 OA 
HETATM   11  H   UNL     1     -13.169   9.160  71.290  1.00  0.00     0.000 HD 
HETATM   12  C   UNL     1     -11.403   5.786  72.201  1.00  0.00    -0.258 A  
HETATM   13  C   UNL     1     -10.375   5.386  71.361  1.00  0.00    -0.294 A  
HETATM   14  O   UNL     1     -11.694   4.999  73.275  1.00  0.00    -0.491 OA 
HETATM   15  H   UNL     1     -11.214   4.197  73.446  1.00  0.00     0.000 HD 
HETATM   16  C   UNL     1     -10.051   6.159  70.244  1.00  0.00    -0.237 A  
ENDBRANCH   6   7
ENDBRANCH   5   6
ENDBRANCH   4   5
ENDBRANCH   3   4
ENDBRANCH   2   3
TORSDOF 5
ENDMDL
MODEL      268
REMARK 921   NORMALIZED FREE ENERGY PREDICTED BY IDOCK:   -2.62 KCAL/MOL
REMARK 922        TOTAL FREE ENERGY PREDICTED BY IDOCK:   -3.79 KCAL/MOL
REMARK 923 INTER-LIGAND FREE ENERGY PREDICTED BY IDOCK:   -3.39 KCAL/MOL
REMARK 924 INTRA-LIGAND FREE ENERGY PREDICTED BY IDOCK:   -0.40 KCAL/MOL
REMARK 927      BINDING AFFINITY PREDICTED BY RF-SCORE:    0.00 PKD
ROOT
HETATM    1  C   UNL     1     -10.453  11.825  65.097  1.00  0.00    -0.330 C  
HETATM    2  C   UNL     1      -9.507  10.729  65.565  1.00  0.00    -0.253 C  
ENDROOT
BRANCH   2   3
HETATM    3  C   UNL     1      -9.907  10.204  66.943  1.00  0.00    -0.244 C  
BRANCH   3   4
HETATM    4  C   UNL     1     -11.068  11.001  67.539  1.00  0.00    -0.366 C  
BRANCH   4   5
HETATM    5  C   UNL     1     -11.656  10.285  68.756  1.00  0.00    -0.118 C  
BRANCH   5   6
HETATM    6  C   UNL     1     -10.618  10.123  69.866  1.00  0.00    -0.331 C  
BRANCH   6   7
HETATM    7  C   UNL     1     -10.324   8.669  70.152  1.00  0.00    -0.219 A  
HETATM    8  C   UNL     1     -11.223   7.818  70.811  1.00  0.00    -0.271 A  
HETATM    9  C   UNL     1     -10.923   6.472  71.021  1.00  0.00    -0.314 A  
HETATM   10  O   UNL     1     -12.431   8.239  71.292  1.00  0.00    -0.352 OA 
HETATM   11  H   UNL     1     -13.039   7.662  71.738  1.00  0.00     0.000 HD 
HETATM   12  C   UNL     1      -9.698   5.971  70.595  1.00  0.00    -0.174 A  
HETATM   13  C   UNL     1      -8.777   6.795  69.967  1.00  0.00    -0.141 A  
HETATM   14  O   UNL     1      -9.360   4.664  70.786  1.00  0.00    -0.131 OA 
HETATM   15  H   UNL     1      -8.523   4.321  70.495  1.00  0.00     0.000 HD 
HETATM   16  C   UNL     1      -9.087   8.139  69.745  1.00  0.00    -0.148 A  
ENDBRANCH   6   7
ENDBRANCH   5   6
ENDBRANCH   4   5
ENDBRANCH   3   4
ENDBRANCH   2   3
TORSDOF 5
ENDMDL
MODEL      269
REMARK 921   NORMALIZED FREE ENERGY PREDICTED BY IDOCK:   -2.60 KCAL/MOL
REMARK 922        TOTAL FREE ENERGY PREDICTED BY IDOCK:   -3.77 KCAL/MOL
REMARK 923 INTER-LIGAND FREE ENERGY PREDICTED BY IDOCK:   -3.10 KCAL/MOL
REMARK 924 INTRA-LIGAND FREE ENERGY PREDICTED BY IDOCK:   -0.66 KCAL/MOL
REMARK 927      BINDING AFFINITY PREDICTED BY RF-SCORE:    0.00 PKD
ROOT
HETATM    1  C   UNL     1      -8.027   6.267  68.528  1.00  0.00    -0.105 C  
HETATM    2  C   UNL     1      -9.056   7.379  68.388  1.00  0.00    -0.132 C  
ENDROOT
BRANCH   2   3
HETATM    3  C   UNL     1      -8.997   8.340  69.574  1.00  0.00    -0.150 C  
BRANCH   3   4
HETATM    4  C   UNL     1     -10.382   8.876  69.939  1.00  0.00    -0.215 C  
BRANCH   4   5
HETATM    5  C   UNL     1     -10.471   9.193  71.433  1.00  0.00    -0.414 C  
BRANCH   5   6
HETATM    6  C   UNL     1     -11.359   8.188  72.166  1.00  0.00    -0.399 C  
BRANCH   6   7
HETATM    7  C   UNL     1     -10.636   6.890  72.434  1.00  0.00    -0.240 A  
HETATM    8  C   UNL     1      -9.747   6.711  73.503  1.00  0.00    -0.191 A  
HETATM    9  C   UNL     1      -9.128   5.482  73.733  1.00  0.00    -0.123 A  
HETATM   10  O   UNL     1      -9.421   7.711  74.377  1.00  0.00    -0.384 OA 
HETATM   11  H   UNL     1      -8.819   7.590  75.101  1.00  0.00     0.000 HD 
HETATM   12  C   UNL     1      -9.375   4.422  72.869  1.00  0.00    -0.126 A  
HETATM   13  C   UNL     1     -10.228   4.576  71.785  1.00  0.00    -0.226 A  
HETATM   14  O   UNL     1      -8.788   3.205  73.051  1.00  0.00    -0.083 OA 
HETATM   15  H   UNL     1      -8.957   2.480  72.461  1.00  0.00     0.000 HD 
HETATM   16  C   UNL     1     -10.857   5.804  71.569  1.00  0.00    -0.316 A  
ENDBRANCH   6   7
ENDBRANCH   5   6
ENDBRANCH   4   5
ENDBRANCH   3   4
ENDBRANCH   2   3
TORSDOF 5
ENDMDL
MODEL      270
REMARK 921   NORMALIZED FREE ENERGY PREDICTED BY IDOCK:   -2.60 KCAL/MOL
REMARK 922        TOTAL FREE ENERGY PREDICTED BY IDOCK:   -3.76 KCAL/MOL
REMARK 923 INTER-LIGAND FREE ENERGY PREDICTED BY IDOCK:   -3.87 KCAL/MOL
REMARK 924 INTRA-LIGAND FREE ENERGY PREDICTED BY IDOCK:    0.11 KCAL/MOL
REMARK 927      BINDING AFFINITY PREDICTED BY RF-SCORE:    0.00 PKD
ROOT
HETATM    1  C   UNL     1      -8.358   8.313  68.797  1.00  0.00    -0.124 C  
HETATM    2  C   UNL     1      -9.534   8.521  69.739  1.00  0.00    -0.166 C  
ENDROOT
BRANCH   2   3
HETATM    3  C   UNL     1     -10.394   9.703  69.295  1.00  0.00    -0.223 C  
BRANCH   3   4
HETATM    4  C   UNL     1     -11.016  10.431  70.488  1.00  0.00    -0.270 C  
BRANCH   4   5
HETATM    5  C   UNL     1     -12.156  11.347  70.037  1.00  0.00    -0.417 C  
BRANCH   5   6
HETATM    6  C   UNL     1     -11.624  12.643  69.426  1.00  0.00    -0.369 C  
BRANCH   6   7
HETATM    7  C   UNL     1     -10.914  12.396  68.116  1.00  0.00    -0.263 A  
HETATM    8  C   UNL     1      -9.539  12.605  67.936  1.00  0.00    -0.211 A  
HETATM    9  C   UNL     1      -8.919  12.329  66.717  1.00  0.00    -0.209 A  
HETATM   10  O   UNL     1      -8.724  13.091  68.919  1.00  0.00    -0.372 OA 
HETATM   11  H   UNL     1      -7.793  13.231  68.797  1.00  0.00     0.000 HD 
HETATM   12  C   UNL     1      -9.683  11.866  65.652  1.00  0.00    -0.227 A  
HETATM   13  C   UNL     1     -11.050  11.679  65.791  1.00  0.00    -0.313 A  
HETATM   14  O   UNL     1      -9.121  11.590  64.440  1.00  0.00    -0.405 OA 
HETATM   15  H   UNL     1      -9.643  11.274  63.713  1.00  0.00     0.000 HD 
HETATM   16  C   UNL     1     -11.664  11.941  67.017  1.00  0.00    -0.304 A  
ENDBRANCH   6   7
ENDBRANCH   5   6
ENDBRANCH   4   5
ENDBRANCH   3   4
ENDBRANCH   2   3
TORSDOF 5
ENDMDL
MODEL      271
REMARK 921   NORMALIZED FREE ENERGY PREDICTED BY IDOCK:   -2.59 KCAL/MOL
REMARK 922        TOTAL FREE ENERGY PREDICTED BY IDOCK:   -3.75 KCAL/MOL
REMARK 923 INTER-LIGAND FREE ENERGY PREDICTED BY IDOCK:   -3.31 KCAL/MOL
REMARK 924 INTRA-LIGAND FREE ENERGY PREDICTED BY IDOCK:   -0.44 KCAL/MOL
REMARK 927      BINDING AFFINITY PREDICTED BY RF-SCORE:    0.00 PKD
ROOT
HETATM    1  C   UNL     1     -13.599  13.044  72.166  1.00  0.00    -0.618 C  
HETATM    2  C   UNL     1     -12.570  12.110  71.547  1.00  0.00    -0.267 C  
ENDROOT
BRANCH   2   3
HETATM    3  C   UNL     1     -13.103  10.681  71.456  1.00  0.00    -0.527 C  
BRANCH   3   4
HETATM    4  C   UNL     1     -12.069   9.727  70.858  1.00  0.00    -0.407 C  
BRANCH   4   5
HETATM    5  C   UNL     1     -11.119  10.468  69.916  1.00  0.00    -0.371 C  
BRANCH   5   6
HETATM    6  C   UNL     1     -10.848   9.662  68.645  1.00  0.00    -0.203 C  
BRANCH   6   7
HETATM    7  C   UNL     1      -9.547   8.900  68.731  1.00  0.00    -0.159 A  
HETATM    8  C   UNL     1      -9.479   7.520  68.965  1.00  0.00    -0.145 A  
HETATM    9  C   UNL     1      -8.255   6.851  69.000  1.00  0.00    -0.125 A  
HETATM   10  O   UNL     1     -10.584   6.744  69.179  1.00  0.00    -0.206 OA 
HETATM   11  H   UNL     1     -10.538   5.809  69.337  1.00  0.00     0.000 HD 
HETATM   12  C   UNL     1      -7.079   7.571  68.830  1.00  0.00    -0.080 A  
HETATM   13  C   UNL     1      -7.113   8.943  68.626  1.00  0.00    -0.071 A  
HETATM   14  O   UNL     1      -5.860   6.961  68.863  1.00  0.00    -0.017 OA 
HETATM   15  H   UNL     1      -5.056   7.453  68.746  1.00  0.00     0.000 HD 
HETATM   16  C   UNL     1      -8.341   9.605  68.576  1.00  0.00    -0.117 A  
ENDBRANCH   6   7
ENDBRANCH   5   6
ENDBRANCH   4   5
ENDBRANCH   3   4
ENDBRANCH   2   3
TORSDOF 5
ENDMDL
MODEL      272
REMARK 921   NORMALIZED FREE ENERGY PREDICTED BY IDOCK:   -2.57 KCAL/MOL
REMARK 922        TOTAL FREE ENERGY PREDICTED BY IDOCK:   -3.73 KCAL/MOL
REMARK 923 INTER-LIGAND FREE ENERGY PREDICTED BY IDOCK:   -3.48 KCAL/MOL
REMARK 924 INTRA-LIGAND FREE ENERGY PREDICTED BY IDOCK:   -0.26 KCAL/MOL
REMARK 927      BINDING AFFINITY PREDICTED BY RF-SCORE:    0.00 PKD
ROOT
HETATM    1  C   UNL     1      -7.426   5.099  70.806  1.00  0.00    -0.074 C  
HETATM    2  C   UNL     1      -7.819   6.482  71.303  1.00  0.00    -0.103 C  
ENDROOT
BRANCH   2   3
HETATM    3  C   UNL     1      -8.771   7.171  70.326  1.00  0.00    -0.144 C  
BRANCH   3   4
HETATM    4  C   UNL     1      -8.346   8.612  70.041  1.00  0.00    -0.124 C  
BRANCH   4   5
HETATM    5  C   UNL     1      -9.515   9.429  69.488  1.00  0.00    -0.187 C  
BRANCH   5   6
HETATM    6  C   UNL     1      -9.032  10.716  68.819  1.00  0.00    -0.172 C  
BRANCH   6   7
HETATM    7  C   UNL     1     -10.046  11.251  67.835  1.00  0.00    -0.195 A  
HETATM    8  C   UNL     1     -11.084  12.120  68.197  1.00  0.00    -0.248 A  
HETATM    9  C   UNL     1     -11.976  12.618  67.247  1.00  0.00    -0.321 A  
HETATM   10  O   UNL     1     -11.299  12.530  69.483  1.00  0.00    -0.396 OA 
HETATM   11  H   UNL     1     -12.002  13.119  69.728  1.00  0.00     0.000 HD 
HETATM   12  C   UNL     1     -11.851  12.221  65.920  1.00  0.00    -0.354 A  
HETATM   13  C   UNL     1     -10.852  11.339  65.537  1.00  0.00    -0.244 A  
HETATM   14  O   UNL     1     -12.704  12.676  64.958  1.00  0.00    -0.658 OA 
HETATM   15  H   UNL     1     -12.619  12.406  64.052  1.00  0.00     0.000 HD 
HETATM   16  C   UNL     1      -9.952  10.856  66.489  1.00  0.00    -0.255 A  
ENDBRANCH   6   7
ENDBRANCH   5   6
ENDBRANCH   4   5
ENDBRANCH   3   4
ENDBRANCH   2   3
TORSDOF 5
ENDMDL
MODEL      273
REMARK 921   NORMALIZED FREE ENERGY PREDICTED BY IDOCK:   -2.56 KCAL/MOL
REMARK 922        TOTAL FREE ENERGY PREDICTED BY IDOCK:   -3.71 KCAL/MOL
REMARK 923 INTER-LIGAND FREE ENERGY PREDICTED BY IDOCK:   -3.28 KCAL/MOL
REMARK 924 INTRA-LIGAND FREE ENERGY PREDICTED BY IDOCK:   -0.43 KCAL/MOL
REMARK 927      BINDING AFFINITY PREDICTED BY RF-SCORE:    0.00 PKD
ROOT
HETATM    1  C   UNL     1     -11.052   4.376  73.370  1.00  0.00    -0.394 C  
HETATM    2  C   UNL     1      -9.773   3.568  73.532  1.00  0.00    -0.146 C  
ENDROOT
BRANCH   2   3
HETATM    3  C   UNL     1      -8.585   4.278  72.887  1.00  0.00    -0.101 C  
BRANCH   3   4
HETATM    4  C   UNL     1      -8.925   4.797  71.489  1.00  0.00    -0.162 C  
BRANCH   4   5
HETATM    5  C   UNL     1      -7.669   4.893  70.620  1.00  0.00    -0.066 C  
BRANCH   5   6
HETATM    6  C   UNL     1      -7.792   6.005  69.579  1.00  0.00    -0.099 C  
BRANCH   6   7
HETATM    7  C   UNL     1      -8.735   5.626  68.461  1.00  0.00    -0.110 A  
HETATM    8  C   UNL     1      -9.931   6.308  68.200  1.00  0.00    -0.138 A  
HETATM    9  C   UNL     1     -10.753   5.945  67.133  1.00  0.00    -0.387 A  
HETATM   10  O   UNL     1     -10.374   7.354  68.960  1.00  0.00    -0.201 OA 
HETATM   11  H   UNL     1     -11.184   7.816  68.782  1.00  0.00     0.000 HD 
HETATM   12  C   UNL     1     -10.395   4.867  66.332  1.00  0.00    -0.288 A  
HETATM   13  C   UNL     1      -9.232   4.154  66.584  1.00  0.00    -0.164 A  
HETATM   14  O   UNL     1     -11.172   4.472  65.283  1.00  0.00    -0.920 OA 
HETATM   15  H   UNL     1     -10.927   3.736  64.735  1.00  0.00     0.000 HD 
HETATM   16  C   UNL     1      -8.404   4.532  67.643  1.00  0.00    -0.099 A  
ENDBRANCH   6   7
ENDBRANCH   5   6
ENDBRANCH   4   5
ENDBRANCH   3   4
ENDBRANCH   2   3
TORSDOF 5
ENDMDL
MODEL      274
REMARK 921   NORMALIZED FREE ENERGY PREDICTED BY IDOCK:   -2.54 KCAL/MOL
REMARK 922        TOTAL FREE ENERGY PREDICTED BY IDOCK:   -3.69 KCAL/MOL
REMARK 923 INTER-LIGAND FREE ENERGY PREDICTED BY IDOCK:   -3.46 KCAL/MOL
REMARK 924 INTRA-LIGAND FREE ENERGY PREDICTED BY IDOCK:   -0.22 KCAL/MOL
REMARK 927      BINDING AFFINITY PREDICTED BY RF-SCORE:    0.00 PKD
ROOT
HETATM    1  C   UNL     1      -6.547  12.046  67.424  1.00  0.00    -0.134 C  
HETATM    2  C   UNL     1      -7.109  10.717  66.943  1.00  0.00    -0.109 C  
ENDROOT
BRANCH   2   3
HETATM    3  C   UNL     1      -8.622  10.793  66.751  1.00  0.00    -0.136 C  
BRANCH   3   4
HETATM    4  C   UNL     1      -9.175  12.165  67.141  1.00  0.00    -0.193 C  
BRANCH   4   5
HETATM    5  C   UNL     1      -9.985  12.080  68.436  1.00  0.00    -0.209 C  
BRANCH   5   6
HETATM    6  C   UNL     1     -10.765  13.369  68.694  1.00  0.00    -0.275 C  
BRANCH   6   7
HETATM    7  C   UNL     1     -10.117  14.561  68.031  1.00  0.00    -0.226 A  
HETATM    8  C   UNL     1      -8.957  15.178  68.521  1.00  0.00    -0.186 A  
HETATM    9  C   UNL     1      -8.372  16.254  67.854  1.00  0.00    -0.170 A  
HETATM   10  O   UNL     1      -8.332  14.782  69.670  1.00  0.00    -0.417 OA 
HETATM   11  H   UNL     1      -7.546  15.200  70.002  1.00  0.00     0.000 HD 
HETATM   12  C   UNL     1      -8.967  16.744  66.697  1.00  0.00    -0.250 A  
HETATM   13  C   UNL     1     -10.131  16.173  66.203  1.00  0.00    -0.356 A  
HETATM   14  O   UNL     1      -8.434  17.799  66.016  1.00  0.00    -0.496 OA 
HETATM   15  H   UNL     1      -8.840  18.133  65.225  1.00  0.00     0.000 HD 
HETATM   16  C   UNL     1     -10.704  15.086  66.866  1.00  0.00    -0.308 A  
ENDBRANCH   6   7
ENDBRANCH   5   6
ENDBRANCH   4   5
ENDBRANCH   3   4
ENDBRANCH   2   3
TORSDOF 5
ENDMDL
MODEL      275
REMARK 921   NORMALIZED FREE ENERGY PREDICTED BY IDOCK:   -2.54 KCAL/MOL
REMARK 922        TOTAL FREE ENERGY PREDICTED BY IDOCK:   -3.68 KCAL/MOL
REMARK 923 INTER-LIGAND FREE ENERGY PREDICTED BY IDOCK:   -3.45 KCAL/MOL
REMARK 924 INTRA-LIGAND FREE ENERGY PREDICTED BY IDOCK:   -0.23 KCAL/MOL
REMARK 927      BINDING AFFINITY PREDICTED BY RF-SCORE:    0.00 PKD
ROOT
HETATM    1  C   UNL     1      -5.374  12.330  69.991  1.00  0.00    -0.099 C  
HETATM    2  C   UNL     1      -5.888  11.406  68.897  1.00  0.00    -0.047 C  
ENDROOT
BRANCH   2   3
HETATM    3  C   UNL     1      -7.302  11.790  68.468  1.00  0.00    -0.103 C  
BRANCH   3   4
HETATM    4  C   UNL     1      -8.353  10.861  69.078  1.00  0.00    -0.118 C  
BRANCH   4   5
HETATM    5  C   UNL     1      -8.776   9.782  68.080  1.00  0.00    -0.119 C  
BRANCH   5   6
HETATM    6  C   UNL     1     -10.283   9.818  67.822  1.00  0.00    -0.254 C  
BRANCH   6   7
HETATM    7  C   UNL     1     -11.057  10.191  69.064  1.00  0.00    -0.249 A  
HETATM    8  C   UNL     1     -11.694  11.428  69.231  1.00  0.00    -0.337 A  
HETATM    9  C   UNL     1     -12.429  11.715  70.381  1.00  0.00    -0.304 A  
HETATM   10  O   UNL     1     -11.638  12.427  68.300  1.00  0.00    -0.289 OA 
HETATM   11  H   UNL     1     -12.071  13.265  68.412  1.00  0.00     0.000 HD 
HETATM   12  C   UNL     1     -12.506  10.767  71.396  1.00  0.00    -0.373 A  
HETATM   13  C   UNL     1     -11.861   9.545  71.272  1.00  0.00    -0.450 A  
HETATM   14  O   UNL     1     -13.206  11.006  72.541  1.00  0.00    -0.453 OA 
HETATM   15  H   UNL     1     -13.259  10.359  73.234  1.00  0.00     0.000 HD 
HETATM   16  C   UNL     1     -11.140   9.257  70.112  1.00  0.00    -0.260 A  
ENDBRANCH   6   7
ENDBRANCH   5   6
ENDBRANCH   4   5
ENDBRANCH   3   4
ENDBRANCH   2   3
TORSDOF 5
ENDMDL
MODEL      276
REMARK 921   NORMALIZED FREE ENERGY PREDICTED BY IDOCK:   -2.53 KCAL/MOL
REMARK 922        TOTAL FREE ENERGY PREDICTED BY IDOCK:   -3.68 KCAL/MOL
REMARK 923 INTER-LIGAND FREE ENERGY PREDICTED BY IDOCK:   -2.95 KCAL/MOL
REMARK 924 INTRA-LIGAND FREE ENERGY PREDICTED BY IDOCK:   -0.73 KCAL/MOL
REMARK 927      BINDING AFFINITY PREDICTED BY RF-SCORE:    0.00 PKD
ROOT
HETATM    1  C   UNL     1     -11.931  11.259  69.239  1.00  0.00    -0.411 C  
HETATM    2  C   UNL     1     -10.579  10.655  68.892  1.00  0.00    -0.241 C  
ENDROOT
BRANCH   2   3
HETATM    3  C   UNL     1     -10.554  10.145  67.452  1.00  0.00    -0.329 C  
BRANCH   3   4
HETATM    4  C   UNL     1     -10.094   8.689  67.374  1.00  0.00    -0.292 C  
BRANCH   4   5
HETATM    5  C   UNL     1     -10.947   7.796  68.278  1.00  0.00     0.122 C  
BRANCH   5   6
HETATM    6  C   UNL     1     -10.099   6.735  68.979  1.00  0.00    -0.172 C  
BRANCH   6   7
HETATM    7  C   UNL     1      -9.685   7.173  70.364  1.00  0.00    -0.176 A  
HETATM    8  C   UNL     1      -8.433   7.735  70.651  1.00  0.00    -0.126 A  
HETATM    9  C   UNL     1      -8.108   8.158  71.940  1.00  0.00    -0.170 A  
HETATM   10  O   UNL     1      -7.457   7.900  69.709  1.00  0.00    -0.083 OA 
HETATM   11  H   UNL     1      -6.609   8.281  69.903  1.00  0.00     0.000 HD 
HETATM   12  C   UNL     1      -9.031   7.992  72.966  1.00  0.00    -0.248 A  
HETATM   13  C   UNL     1     -10.266   7.411  72.719  1.00  0.00    -0.287 A  
HETATM   14  O   UNL     1      -8.753   8.384  74.242  1.00  0.00    -0.303 OA 
HETATM   15  H   UNL     1      -9.384   8.271  74.943  1.00  0.00     0.000 HD 
HETATM   16  C   UNL     1     -10.593   7.004  71.424  1.00  0.00    -0.236 A  
ENDBRANCH   6   7
ENDBRANCH   5   6
ENDBRANCH   4   5
ENDBRANCH   3   4
ENDBRANCH   2   3
TORSDOF 5
ENDMDL
MODEL      277
REMARK 921   NORMALIZED FREE ENERGY PREDICTED BY IDOCK:   -2.53 KCAL/MOL
REMARK 922        TOTAL FREE ENERGY PREDICTED BY IDOCK:   -3.67 KCAL/MOL
REMARK 923 INTER-LIGAND FREE ENERGY PREDICTED BY IDOCK:   -3.49 KCAL/MOL
REMARK 924 INTRA-LIGAND FREE ENERGY PREDICTED BY IDOCK:   -0.18 KCAL/MOL
REMARK 927      BINDING AFFINITY PREDICTED BY RF-SCORE:    0.00 PKD
ROOT
HETATM    1  C   UNL     1     -10.728  13.883  64.543  1.00  0.00    -0.382 C  
HETATM    2  C   UNL     1     -12.124  13.505  65.014  1.00  0.00    -0.428 C  
ENDROOT
BRANCH   2   3
HETATM    3  C   UNL     1     -12.103  12.994  66.453  1.00  0.00    -0.428 C  
BRANCH   3   4
HETATM    4  C   UNL     1     -10.970  11.993  66.684  1.00  0.00    -0.330 C  
BRANCH   4   5
HETATM    5  C   UNL     1     -11.272  11.090  67.881  1.00  0.00    -0.375 C  
BRANCH   5   6
HETATM    6  C   UNL     1     -10.043  10.912  68.773  1.00  0.00    -0.205 C  
BRANCH   6   7
HETATM    7  C   UNL     1      -8.758  11.038  67.990  1.00  0.00    -0.138 A  
HETATM    8  C   UNL     1      -8.281  10.040  67.129  1.00  0.00    -0.117 A  
HETATM    9  C   UNL     1      -7.106  10.216  66.398  1.00  0.00    -0.107 A  
HETATM   10  O   UNL     1      -8.916   8.843  66.951  1.00  0.00    -0.124 OA 
HETATM   11  H   UNL     1      -8.592   8.168  66.367  1.00  0.00     0.000 HD 
HETATM   12  C   UNL     1      -6.378  11.391  66.548  1.00  0.00    -0.095 A  
HETATM   13  C   UNL     1      -6.809  12.384  67.416  1.00  0.00    -0.147 A  
HETATM   14  O   UNL     1      -5.220  11.603  65.860  1.00  0.00    -0.468 OA 
HETATM   15  H   UNL     1      -4.723  12.405  65.962  1.00  0.00     0.000 HD 
HETATM   16  C   UNL     1      -7.994  12.210  68.133  1.00  0.00    -0.151 A  
ENDBRANCH   6   7
ENDBRANCH   5   6
ENDBRANCH   4   5
ENDBRANCH   3   4
ENDBRANCH   2   3
TORSDOF 5
ENDMDL
MODEL      278
REMARK 921   NORMALIZED FREE ENERGY PREDICTED BY IDOCK:   -2.51 KCAL/MOL
REMARK 922        TOTAL FREE ENERGY PREDICTED BY IDOCK:   -3.65 KCAL/MOL
REMARK 923 INTER-LIGAND FREE ENERGY PREDICTED BY IDOCK:   -3.42 KCAL/MOL
REMARK 924 INTRA-LIGAND FREE ENERGY PREDICTED BY IDOCK:   -0.23 KCAL/MOL
REMARK 927      BINDING AFFINITY PREDICTED BY RF-SCORE:    0.00 PKD
ROOT
HETATM    1  C   UNL     1      -6.351   3.992  68.759  1.00  0.00    -0.033 C  
HETATM    2  C   UNL     1      -6.121   5.495  68.743  1.00  0.00    -0.025 C  
ENDROOT
BRANCH   2   3
HETATM    3  C   UNL     1      -6.669   6.153  70.008  1.00  0.00    -0.056 C  
BRANCH   3   4
HETATM    4  C   UNL     1      -8.109   6.631  69.821  1.00  0.00    -0.126 C  
BRANCH   4   5
HETATM    5  C   UNL     1      -8.182   8.159  69.815  1.00  0.00    -0.122 C  
BRANCH   5   6
HETATM    6  C   UNL     1      -9.395   8.659  69.029  1.00  0.00    -0.146 C  
BRANCH   6   7
HETATM    7  C   UNL     1     -10.513   9.101  69.942  1.00  0.00    -0.239 A  
HETATM    8  C   UNL     1     -11.145  10.347  69.837  1.00  0.00    -0.305 A  
HETATM    9  C   UNL     1     -12.200  10.698  70.681  1.00  0.00    -0.459 A  
HETATM   10  O   UNL     1     -10.778  11.294  68.923  1.00  0.00    -0.191 OA 
HETATM   11  H   UNL     1     -11.207  12.139  68.851  1.00  0.00     0.000 HD 
HETATM   12  C   UNL     1     -12.612   9.807  71.665  1.00  0.00    -0.416 A  
HETATM   13  C   UNL     1     -11.985   8.578  71.813  1.00  0.00    -0.393 A  
HETATM   14  O   UNL     1     -13.633  10.110  72.516  1.00  0.00    -0.627 OA 
HETATM   15  H   UNL     1     -13.914   9.501  73.188  1.00  0.00     0.000 HD 
HETATM   16  C   UNL     1     -10.941   8.225  70.955  1.00  0.00    -0.280 A  
ENDBRANCH   6   7
ENDBRANCH   5   6
ENDBRANCH   4   5
ENDBRANCH   3   4
ENDBRANCH   2   3
TORSDOF 5
ENDMDL
MODEL      279
REMARK 921   NORMALIZED FREE ENERGY PREDICTED BY IDOCK:   -2.49 KCAL/MOL
REMARK 922        TOTAL FREE ENERGY PREDICTED BY IDOCK:   -3.63 KCAL/MOL
REMARK 923 INTER-LIGAND FREE ENERGY PREDICTED BY IDOCK:   -3.30 KCAL/MOL
REMARK 924 INTRA-LIGAND FREE ENERGY PREDICTED BY IDOCK:   -0.32 KCAL/MOL
REMARK 927      BINDING AFFINITY PREDICTED BY RF-SCORE:    0.00 PKD
ROOT
HETATM    1  C   UNL     1      -9.989  15.479  69.105  1.00  0.00    -0.246 C  
HETATM    2  C   UNL     1     -11.399  14.918  69.213  1.00  0.00    -0.315 C  
ENDROOT
BRANCH   2   3
HETATM    3  C   UNL     1     -11.548  13.634  68.398  1.00  0.00    -0.377 C  
BRANCH   3   4
HETATM    4  C   UNL     1     -10.204  12.932  68.195  1.00  0.00    -0.239 C  
BRANCH   4   5
HETATM    5  C   UNL     1     -10.233  11.517  68.776  1.00  0.00    -0.204 C  
BRANCH   5   6
HETATM    6  C   UNL     1      -9.174  10.624  68.128  1.00  0.00    -0.148 C  
BRANCH   6   7
HETATM    7  C   UNL     1      -9.575   9.168  68.157  1.00  0.00    -0.160 A  
HETATM    8  C   UNL     1      -9.924   8.445  67.008  1.00  0.00    -0.253 A  
HETATM    9  C   UNL     1     -10.252   7.091  67.078  1.00  0.00    -0.330 A  
HETATM   10  O   UNL     1      -9.974   9.003  65.762  1.00  0.00    -0.451 OA 
HETATM   11  H   UNL     1     -10.211   8.512  64.984  1.00  0.00     0.000 HD 
HETATM   12  C   UNL     1     -10.263   6.453  68.313  1.00  0.00    -0.171 A  
HETATM   13  C   UNL     1      -9.950   7.151  69.471  1.00  0.00    -0.165 A  
HETATM   14  O   UNL     1     -10.584   5.133  68.430  1.00  0.00    -0.076 OA 
HETATM   15  H   UNL     1     -10.591   4.698  69.274  1.00  0.00     0.000 HD 
HETATM   16  C   UNL     1      -9.607   8.502  69.394  1.00  0.00    -0.170 A  
ENDBRANCH   6   7
ENDBRANCH   5   6
ENDBRANCH   4   5
ENDBRANCH   3   4
ENDBRANCH   2   3
TORSDOF 5
ENDMDL
MODEL      280
REMARK 921   NORMALIZED FREE ENERGY PREDICTED BY IDOCK:   -2.49 KCAL/MOL
REMARK 922        TOTAL FREE ENERGY PREDICTED BY IDOCK:   -3.62 KCAL/MOL
REMARK 923 INTER-LIGAND FREE ENERGY PREDICTED BY IDOCK:   -3.36 KCAL/MOL
REMARK 924 INTRA-LIGAND FREE ENERGY PREDICTED BY IDOCK:   -0.27 KCAL/MOL
REMARK 927      BINDING AFFINITY PREDICTED BY RF-SCORE:    0.00 PKD
ROOT
HETATM    1  C   UNL     1      -7.199   6.423  68.274  1.00  0.00    -0.085 C  
HETATM    2  C   UNL     1      -7.836   7.375  67.274  1.00  0.00    -0.114 C  
ENDROOT
BRANCH   2   3
HETATM    3  C   UNL     1      -7.745   8.822  67.752  1.00  0.00    -0.102 C  
BRANCH   3   4
HETATM    4  C   UNL     1      -8.967   9.638  67.329  1.00  0.00    -0.146 C  
BRANCH   4   5
HETATM    5  C   UNL     1      -8.684  11.139  67.423  1.00  0.00    -0.133 C  
BRANCH   5   6
HETATM    6  C   UNL     1      -9.364  11.910  66.292  1.00  0.00    -0.234 C  
BRANCH   6   7
HETATM    7  C   UNL     1      -9.520  13.375  66.625  1.00  0.00    -0.264 A  
HETATM    8  C   UNL     1      -9.872  14.346  65.677  1.00  0.00    -0.291 A  
HETATM    9  C   UNL     1     -10.040  15.683  66.039  1.00  0.00    -0.355 A  
HETATM   10  O   UNL     1     -10.068  14.060  64.355  1.00  0.00    -0.706 OA 
HETATM   11  H   UNL     1     -10.308  14.718  63.714  1.00  0.00     0.000 HD 
HETATM   12  C   UNL     1      -9.823  16.065  67.357  1.00  0.00    -0.236 A  
HETATM   13  C   UNL     1      -9.444  15.132  68.311  1.00  0.00    -0.201 A  
HETATM   14  O   UNL     1      -9.968  17.362  67.755  1.00  0.00    -0.280 OA 
HETATM   15  H   UNL     1      -9.820  17.623  68.655  1.00  0.00     0.000 HD 
HETATM   16  C   UNL     1      -9.293  13.792  67.948  1.00  0.00    -0.211 A  
ENDBRANCH   6   7
ENDBRANCH   5   6
ENDBRANCH   4   5
ENDBRANCH   3   4
ENDBRANCH   2   3
TORSDOF 5
ENDMDL
MODEL      281
REMARK 921   NORMALIZED FREE ENERGY PREDICTED BY IDOCK:   -2.49 KCAL/MOL
REMARK 922        TOTAL FREE ENERGY PREDICTED BY IDOCK:   -3.62 KCAL/MOL
REMARK 923 INTER-LIGAND FREE ENERGY PREDICTED BY IDOCK:   -3.70 KCAL/MOL
REMARK 924 INTRA-LIGAND FREE ENERGY PREDICTED BY IDOCK:    0.08 KCAL/MOL
REMARK 927      BINDING AFFINITY PREDICTED BY RF-SCORE:    0.00 PKD
ROOT
HETATM    1  C   UNL     1      -5.153  13.734  67.468  1.00  0.00     0.179 C  
HETATM    2  C   UNL     1      -6.247  12.790  67.944  1.00  0.00    -0.115 C  
ENDROOT
BRANCH   2   3
HETATM    3  C   UNL     1      -7.620  13.455  67.873  1.00  0.00    -0.151 C  
BRANCH   3   4
HETATM    4  C   UNL     1      -7.828  14.451  69.015  1.00  0.00    -0.077 C  
BRANCH   4   5
HETATM    5  C   UNL     1      -9.162  15.184  68.866  1.00  0.00    -0.209 C  
BRANCH   5   6
HETATM    6  C   UNL     1     -10.291  14.224  68.491  1.00  0.00    -0.244 C  
BRANCH   6   7
HETATM    7  C   UNL     1     -11.275  14.045  69.622  1.00  0.00    -0.218 A  
HETATM    8  C   UNL     1     -11.747  15.108  70.406  1.00  0.00    -0.293 A  
HETATM    9  C   UNL     1     -12.685  14.900  71.418  1.00  0.00    -0.408 A  
HETATM   10  O   UNL     1     -11.326  16.398  70.243  1.00  0.00    -0.436 OA 
HETATM   11  H   UNL     1     -11.647  17.117  70.774  1.00  0.00     0.000 HD 
HETATM   12  C   UNL     1     -13.137  13.611  71.674  1.00  0.00    -0.372 A  
HETATM   13  C   UNL     1     -12.666  12.536  70.935  1.00  0.00    -0.270 A  
HETATM   14  O   UNL     1     -14.048  13.360  72.658  1.00  0.00    -0.767 OA 
HETATM   15  H   UNL     1     -14.357  12.479  72.833  1.00  0.00     0.000 HD 
HETATM   16  C   UNL     1     -11.740  12.751  69.912  1.00  0.00    -0.321 A  
ENDBRANCH   6   7
ENDBRANCH   5   6
ENDBRANCH   4   5
ENDBRANCH   3   4
ENDBRANCH   2   3
TORSDOF 5
ENDMDL
MODEL      282
REMARK 921   NORMALIZED FREE ENERGY PREDICTED BY IDOCK:   -2.48 KCAL/MOL
REMARK 922        TOTAL FREE ENERGY PREDICTED BY IDOCK:   -3.61 KCAL/MOL
REMARK 923 INTER-LIGAND FREE ENERGY PREDICTED BY IDOCK:   -3.01 KCAL/MOL
REMARK 924 INTRA-LIGAND FREE ENERGY PREDICTED BY IDOCK:   -0.61 KCAL/MOL
REMARK 927      BINDING AFFINITY PREDICTED BY RF-SCORE:    0.00 PKD
ROOT
HETATM    1  C   UNL     1     -11.018   6.499  67.098  1.00  0.00    -0.480 C  
HETATM    2  C   UNL     1     -11.142   7.756  67.946  1.00  0.00     0.214 C  
ENDROOT
BRANCH   2   3
HETATM    3  C   UNL     1     -10.232   8.867  67.424  1.00  0.00    -0.313 C  
BRANCH   3   4
HETATM    4  C   UNL     1     -10.800  10.254  67.728  1.00  0.00    -0.346 C  
BRANCH   4   5
HETATM    5  C   UNL     1     -10.720  10.563  69.224  1.00  0.00    -0.269 C  
BRANCH   5   6
HETATM    6  C   UNL     1      -9.309  10.337  69.768  1.00  0.00    -0.116 C  
BRANCH   6   7
HETATM    7  C   UNL     1      -9.280   9.254  70.820  1.00  0.00    -0.316 A  
HETATM    8  C   UNL     1      -8.155   8.455  71.069  1.00  0.00    -0.119 A  
HETATM    9  C   UNL     1      -8.162   7.490  72.076  1.00  0.00    -0.115 A  
HETATM   10  O   UNL     1      -6.995   8.557  70.354  1.00  0.00    -0.036 OA 
HETATM   11  H   UNL     1      -6.233   8.016  70.524  1.00  0.00     0.000 HD 
HETATM   12  C   UNL     1      -9.316   7.295  72.827  1.00  0.00    -0.149 A  
HETATM   13  C   UNL     1     -10.454   8.050  72.583  1.00  0.00    -0.408 A  
HETATM   14  O   UNL     1      -9.371   6.358  73.817  1.00  0.00    -0.129 OA 
HETATM   15  H   UNL     1     -10.159   6.225  74.330  1.00  0.00     0.000 HD 
HETATM   16  C   UNL     1     -10.437   9.026  71.585  1.00  0.00    -0.426 A  
ENDBRANCH   6   7
ENDBRANCH   5   6
ENDBRANCH   4   5
ENDBRANCH   3   4
ENDBRANCH   2   3
TORSDOF 5
ENDMDL
MODEL      283
REMARK 921   NORMALIZED FREE ENERGY PREDICTED BY IDOCK:   -2.48 KCAL/MOL
REMARK 922        TOTAL FREE ENERGY PREDICTED BY IDOCK:   -3.61 KCAL/MOL
REMARK 923 INTER-LIGAND FREE ENERGY PREDICTED BY IDOCK:   -3.20 KCAL/MOL
REMARK 924 INTRA-LIGAND FREE ENERGY PREDICTED BY IDOCK:   -0.41 KCAL/MOL
REMARK 927      BINDING AFFINITY PREDICTED BY RF-SCORE:    0.00 PKD
ROOT
HETATM    1  C   UNL     1     -10.778   4.664  65.525  1.00  0.00    -0.176 C  
HETATM    2  C   UNL     1      -9.457   5.174  66.079  1.00  0.00    -0.170 C  
ENDROOT
BRANCH   2   3
HETATM    3  C   UNL     1      -9.643   6.492  66.829  1.00  0.00    -0.198 C  
BRANCH   3   4
HETATM    4  C   UNL     1     -11.043   6.607  67.435  1.00  0.00    -0.398 C  
BRANCH   4   5
HETATM    5  C   UNL     1     -11.047   6.148  68.895  1.00  0.00    -0.417 C  
BRANCH   5   6
HETATM    6  C   UNL     1      -9.628   5.901  69.408  1.00  0.00    -0.171 C  
BRANCH   6   7
HETATM    7  C   UNL     1      -9.431   6.453  70.801  1.00  0.00    -0.179 A  
HETATM    8  C   UNL     1      -8.861   5.714  71.847  1.00  0.00    -0.135 A  
HETATM    9  C   UNL     1      -8.665   6.277  73.108  1.00  0.00    -0.123 A  
HETATM   10  O   UNL     1      -8.469   4.412  71.712  1.00  0.00    -0.106 OA 
HETATM   11  H   UNL     1      -8.082   3.912  72.421  1.00  0.00     0.000 HD 
HETATM   12  C   UNL     1      -9.071   7.586  73.341  1.00  0.00    -0.214 A  
HETATM   13  C   UNL     1      -9.665   8.332  72.334  1.00  0.00    -0.373 A  
HETATM   14  O   UNL     1      -8.906   8.175  74.560  1.00  0.00    -0.353 OA 
HETATM   15  H   UNL     1      -9.183   9.070  74.719  1.00  0.00     0.000 HD 
HETATM   16  C   UNL     1      -9.845   7.769  71.068  1.00  0.00    -0.186 A  
ENDBRANCH   6   7
ENDBRANCH   5   6
ENDBRANCH   4   5
ENDBRANCH   3   4
ENDBRANCH   2   3
TORSDOF 5
ENDMDL
MODEL      284
REMARK 921   NORMALIZED FREE ENERGY PREDICTED BY IDOCK:   -2.45 KCAL/MOL
REMARK 922        TOTAL FREE ENERGY PREDICTED BY IDOCK:   -3.58 KCAL/MOL
REMARK 923 INTER-LIGAND FREE ENERGY PREDICTED BY IDOCK:   -3.10 KCAL/MOL
REMARK 924 INTRA-LIGAND FREE ENERGY PREDICTED BY IDOCK:   -0.48 KCAL/MOL
REMARK 927      BINDING AFFINITY PREDICTED BY RF-SCORE:    0.00 PKD
ROOT
HETATM    1  C   UNL     1     -10.717   4.616  73.452  1.00  0.00    -0.322 C  
HETATM    2  C   UNL     1      -9.963   4.960  72.177  1.00  0.00    -0.235 C  
ENDROOT
BRANCH   2   3
HETATM    3  C   UNL     1     -10.767   5.922  71.303  1.00  0.00    -0.325 C  
BRANCH   3   4
HETATM    4  C   UNL     1     -10.889   7.305  71.944  1.00  0.00    -0.255 C  
BRANCH   4   5
HETATM    5  C   UNL     1      -9.950   8.306  71.270  1.00  0.00    -0.243 C  
BRANCH   5   6
HETATM    6  C   UNL     1      -9.632   7.896  69.832  1.00  0.00    -0.168 C  
BRANCH   6   7
HETATM    7  C   UNL     1      -9.896   9.018  68.856  1.00  0.00    -0.181 A  
HETATM    8  C   UNL     1      -8.985   9.404  67.863  1.00  0.00    -0.123 A  
HETATM    9  C   UNL     1      -9.288  10.423  66.960  1.00  0.00    -0.176 A  
HETATM   10  O   UNL     1      -7.756   8.826  67.714  1.00  0.00    -0.099 OA 
HETATM   11  H   UNL     1      -7.139   9.087  67.041  1.00  0.00     0.000 HD 
HETATM   12  C   UNL     1     -10.503  11.090  67.065  1.00  0.00    -0.240 A  
HETATM   13  C   UNL     1     -11.412  10.751  68.056  1.00  0.00    -0.333 A  
HETATM   14  O   UNL     1     -10.838  12.098  66.209  1.00  0.00    -0.261 OA 
HETATM   15  H   UNL     1     -11.668  12.553  66.281  1.00  0.00     0.000 HD 
HETATM   16  C   UNL     1     -11.112   9.719  68.948  1.00  0.00    -0.139 A  
ENDBRANCH   6   7
ENDBRANCH   5   6
ENDBRANCH   4   5
ENDBRANCH   3   4
ENDBRANCH   2   3
TORSDOF 5
ENDMDL
MODEL      285
REMARK 921   NORMALIZED FREE ENERGY PREDICTED BY IDOCK:   -2.44 KCAL/MOL
REMARK 922        TOTAL FREE ENERGY PREDICTED BY IDOCK:   -3.55 KCAL/MOL
REMARK 923 INTER-LIGAND FREE ENERGY PREDICTED BY IDOCK:   -3.29 KCAL/MOL
REMARK 924 INTRA-LIGAND FREE ENERGY PREDICTED BY IDOCK:   -0.26 KCAL/MOL
REMARK 927      BINDING AFFINITY PREDICTED BY RF-SCORE:    0.00 PKD
ROOT
HETATM    1  C   UNL     1      -5.508  12.316  70.023  1.00  0.00    -0.111 C  
HETATM    2  C   UNL     1      -6.197  11.962  68.714  1.00  0.00    -0.058 C  
ENDROOT
BRANCH   2   3
HETATM    3  C   UNL     1      -7.700  12.223  68.791  1.00  0.00    -0.016 C  
BRANCH   3   4
HETATM    4  C   UNL     1      -8.456  11.525  67.660  1.00  0.00    -0.135 C  
BRANCH   4   5
HETATM    5  C   UNL     1      -9.107  12.545  66.725  1.00  0.00    -0.214 C  
BRANCH   5   6
HETATM    6  C   UNL     1      -8.876  13.977  67.210  1.00  0.00    -0.225 C  
BRANCH   6   7
HETATM    7  C   UNL     1      -9.943  14.419  68.182  1.00  0.00    -0.223 A  
HETATM    8  C   UNL     1      -9.733  15.401  69.160  1.00  0.00    -0.252 A  
HETATM    9  C   UNL     1     -10.760  15.804  70.014  1.00  0.00    -0.347 A  
HETATM   10  O   UNL     1      -8.529  16.019  69.350  1.00  0.00    -0.247 OA 
HETATM   11  H   UNL     1      -8.387  16.684  70.012  1.00  0.00     0.000 HD 
HETATM   12  C   UNL     1     -12.008  15.200  69.914  1.00  0.00    -0.337 A  
HETATM   13  C   UNL     1     -12.238  14.204  68.976  1.00  0.00    -0.274 A  
HETATM   14  O   UNL     1     -13.039  15.556  70.732  1.00  0.00    -0.556 OA 
HETATM   15  H   UNL     1     -13.891  15.143  70.663  1.00  0.00     0.000 HD 
HETATM   16  C   UNL     1     -11.211  13.815  68.112  1.00  0.00    -0.298 A  
ENDBRANCH   6   7
ENDBRANCH   5   6
ENDBRANCH   4   5
ENDBRANCH   3   4
ENDBRANCH   2   3
TORSDOF 5
ENDMDL
MODEL      286
REMARK 921   NORMALIZED FREE ENERGY PREDICTED BY IDOCK:   -2.42 KCAL/MOL
REMARK 922        TOTAL FREE ENERGY PREDICTED BY IDOCK:   -3.53 KCAL/MOL
REMARK 923 INTER-LIGAND FREE ENERGY PREDICTED BY IDOCK:   -3.42 KCAL/MOL
REMARK 924 INTRA-LIGAND FREE ENERGY PREDICTED BY IDOCK:   -0.11 KCAL/MOL
REMARK 927      BINDING AFFINITY PREDICTED BY RF-SCORE:    0.00 PKD
ROOT
HETATM    1  C   UNL     1     -12.069  13.658  68.565  1.00  0.00    -0.321 C  
HETATM    2  C   UNL     1     -11.025  12.557  68.674  1.00  0.00    -0.291 C  
ENDROOT
BRANCH   2   3
HETATM    3  C   UNL     1     -10.685  11.980  67.301  1.00  0.00    -0.269 C  
BRANCH   3   4
HETATM    4  C   UNL     1      -9.518  12.721  66.646  1.00  0.00    -0.249 C  
BRANCH   4   5
HETATM    5  C   UNL     1      -9.069  13.903  67.507  1.00  0.00    -0.201 C  
BRANCH   5   6
HETATM    6  C   UNL     1      -8.202  14.878  66.710  1.00  0.00    -0.086 C  
BRANCH   6   7
HETATM    7  C   UNL     1      -8.319  16.290  67.234  1.00  0.00    -0.203 A  
HETATM    8  C   UNL     1      -9.157  17.256  66.660  1.00  0.00    -0.265 A  
HETATM    9  C   UNL     1      -9.260  18.538  67.200  1.00  0.00    -0.280 A  
HETATM   10  O   UNL     1      -9.914  17.020  65.547  1.00  0.00    -0.567 OA 
HETATM   11  H   UNL     1     -10.482  17.675  65.159  1.00  0.00     0.000 HD 
HETATM   12  C   UNL     1      -8.494  18.874  68.311  1.00  0.00    -0.330 A  
HETATM   13  C   UNL     1      -7.634  17.949  68.883  1.00  0.00    -0.222 A  
HETATM   14  O   UNL     1      -8.557  20.117  68.869  1.00  0.00     0.060 OA 
HETATM   15  H   UNL     1      -8.035  20.346  69.628  1.00  0.00     0.000 HD 
HETATM   16  C   UNL     1      -7.546  16.661  68.349  1.00  0.00    -0.197 A  
ENDBRANCH   6   7
ENDBRANCH   5   6
ENDBRANCH   4   5
ENDBRANCH   3   4
ENDBRANCH   2   3
TORSDOF 5
ENDMDL
MODEL      287
REMARK 921   NORMALIZED FREE ENERGY PREDICTED BY IDOCK:   -2.41 KCAL/MOL
REMARK 922        TOTAL FREE ENERGY PREDICTED BY IDOCK:   -3.52 KCAL/MOL
REMARK 923 INTER-LIGAND FREE ENERGY PREDICTED BY IDOCK:   -3.76 KCAL/MOL
REMARK 924 INTRA-LIGAND FREE ENERGY PREDICTED BY IDOCK:    0.24 KCAL/MOL
REMARK 927      BINDING AFFINITY PREDICTED BY RF-SCORE:    0.00 PKD
ROOT
HETATM    1  C   UNL     1     -11.313   7.066  72.168  1.00  0.00    -0.302 C  
HETATM    2  C   UNL     1     -11.176   7.463  70.706  1.00  0.00    -0.293 C  
ENDROOT
BRANCH   2   3
HETATM    3  C   UNL     1     -11.293   6.247  69.789  1.00  0.00    -0.506 C  
BRANCH   3   4
HETATM    4  C   UNL     1     -10.546   6.457  68.471  1.00  0.00    -0.302 C  
BRANCH   4   5
HETATM    5  C   UNL     1     -10.891   7.815  67.857  1.00  0.00    -0.080 C  
BRANCH   5   6
HETATM    6  C   UNL     1      -9.685   8.431  67.148  1.00  0.00    -0.250 C  
BRANCH   6   7
HETATM    7  C   UNL     1      -9.455   9.862  67.572  1.00  0.00    -0.173 A  
HETATM    8  C   UNL     1     -10.487  10.719  67.978  1.00  0.00    -0.194 A  
HETATM    9  C   UNL     1     -10.223  12.023  68.397  1.00  0.00    -0.211 A  
HETATM   10  O   UNL     1     -11.803  10.350  67.986  1.00  0.00    -0.746 OA 
HETATM   11  H   UNL     1     -12.502  10.930  68.262  1.00  0.00     0.000 HD 
HETATM   12  C   UNL     1      -8.914  12.492  68.384  1.00  0.00    -0.130 A  
HETATM   13  C   UNL     1      -7.875  11.678  67.959  1.00  0.00    -0.128 A  
HETATM   14  O   UNL     1      -8.610  13.762  68.778  1.00  0.00    -0.332 OA 
HETATM   15  H   UNL     1      -7.716  14.083  68.769  1.00  0.00     0.000 HD 
HETATM   16  C   UNL     1      -8.143  10.368  67.556  1.00  0.00    -0.107 A  
ENDBRANCH   6   7
ENDBRANCH   5   6
ENDBRANCH   4   5
ENDBRANCH   3   4
ENDBRANCH   2   3
TORSDOF 5
ENDMDL
MODEL      288
REMARK 921   NORMALIZED FREE ENERGY PREDICTED BY IDOCK:   -2.40 KCAL/MOL
REMARK 922        TOTAL FREE ENERGY PREDICTED BY IDOCK:   -3.51 KCAL/MOL
REMARK 923 INTER-LIGAND FREE ENERGY PREDICTED BY IDOCK:   -3.05 KCAL/MOL
REMARK 924 INTRA-LIGAND FREE ENERGY PREDICTED BY IDOCK:   -0.46 KCAL/MOL
REMARK 927      BINDING AFFINITY PREDICTED BY RF-SCORE:    0.00 PKD
ROOT
HETATM    1  C   UNL     1      -6.766   3.553  69.275  1.00  0.00    -0.037 C  
HETATM    2  C   UNL     1      -7.325   4.375  70.427  1.00  0.00    -0.049 C  
ENDROOT
BRANCH   2   3
HETATM    3  C   UNL     1      -8.368   3.584  71.215  1.00  0.00    -0.086 C  
BRANCH   3   4
HETATM    4  C   UNL     1      -9.753   3.676  70.574  1.00  0.00    -0.210 C  
BRANCH   4   5
HETATM    5  C   UNL     1     -10.301   5.101  70.655  1.00  0.00    -0.305 C  
BRANCH   5   6
HETATM    6  C   UNL     1     -10.463   5.719  69.266  1.00  0.00    -0.358 C  
BRANCH   6   7
HETATM    7  C   UNL     1     -10.497   7.228  69.323  1.00  0.00    -0.221 A  
HETATM    8  C   UNL     1     -10.028   8.048  68.287  1.00  0.00    -0.185 A  
HETATM    9  C   UNL     1     -10.113   9.438  68.369  1.00  0.00    -0.208 A  
HETATM   10  O   UNL     1      -9.458   7.555  67.147  1.00  0.00    -0.141 OA 
HETATM   11  H   UNL     1      -9.141   8.110  66.445  1.00  0.00     0.000 HD 
HETATM   12  C   UNL     1     -10.646  10.023  69.512  1.00  0.00    -0.244 A  
HETATM   13  C   UNL     1     -11.091   9.239  70.566  1.00  0.00    -0.317 A  
HETATM   14  O   UNL     1     -10.742  11.377  69.639  1.00  0.00    -0.439 OA 
HETATM   15  H   UNL     1     -11.106  11.777  70.420  1.00  0.00     0.000 HD 
HETATM   16  C   UNL     1     -11.018   7.847  70.473  1.00  0.00    -0.250 A  
ENDBRANCH   6   7
ENDBRANCH   5   6
ENDBRANCH   4   5
ENDBRANCH   3   4
ENDBRANCH   2   3
TORSDOF 5
ENDMDL
MODEL      289
REMARK 921   NORMALIZED FREE ENERGY PREDICTED BY IDOCK:   -2.40 KCAL/MOL
REMARK 922        TOTAL FREE ENERGY PREDICTED BY IDOCK:   -3.51 KCAL/MOL
REMARK 923 INTER-LIGAND FREE ENERGY PREDICTED BY IDOCK:   -3.14 KCAL/MOL
REMARK 924 INTRA-LIGAND FREE ENERGY PREDICTED BY IDOCK:   -0.37 KCAL/MOL
REMARK 927      BINDING AFFINITY PREDICTED BY RF-SCORE:    0.00 PKD
ROOT
HETATM    1  C   UNL     1      -9.409   4.354  64.798  1.00  0.00    -0.160 C  
HETATM    2  C   UNL     1      -9.100   5.162  66.049  1.00  0.00    -0.149 C  
ENDROOT
BRANCH   2   3
HETATM    3  C   UNL     1     -10.321   5.255  66.963  1.00  0.00    -0.286 C  
BRANCH   3   4
HETATM    4  C   UNL     1     -10.969   6.639  66.906  1.00  0.00    -0.396 C  
BRANCH   4   5
HETATM    5  C   UNL     1     -10.430   7.542  68.017  1.00  0.00    -0.253 C  
BRANCH   5   6
HETATM    6  C   UNL     1      -9.329   8.469  67.501  1.00  0.00    -0.169 C  
BRANCH   6   7
HETATM    7  C   UNL     1      -9.701   9.924  67.659  1.00  0.00    -0.183 A  
HETATM    8  C   UNL     1      -8.762  10.935  67.909  1.00  0.00    -0.131 A  
HETATM    9  C   UNL     1      -9.147  12.271  68.011  1.00  0.00    -0.191 A  
HETATM   10  O   UNL     1      -7.428  10.688  68.073  1.00  0.00    -0.088 OA 
HETATM   11  H   UNL     1      -6.792  11.373  68.242  1.00  0.00     0.000 HD 
HETATM   12  C   UNL     1     -10.491  12.605  67.893  1.00  0.00    -0.218 A  
HETATM   13  C   UNL     1     -11.447  11.624  67.676  1.00  0.00    -0.373 A  
HETATM   14  O   UNL     1     -10.915  13.898  67.994  1.00  0.00    -0.242 OA 
HETATM   15  H   UNL     1     -11.833  14.126  67.913  1.00  0.00     0.000 HD 
HETATM   16  C   UNL     1     -11.055  10.289  67.558  1.00  0.00    -0.302 A  
ENDBRANCH   6   7
ENDBRANCH   5   6
ENDBRANCH   4   5
ENDBRANCH   3   4
ENDBRANCH   2   3
TORSDOF 5
ENDMDL
MODEL      290
REMARK 921   NORMALIZED FREE ENERGY PREDICTED BY IDOCK:   -2.40 KCAL/MOL
REMARK 922        TOTAL FREE ENERGY PREDICTED BY IDOCK:   -3.50 KCAL/MOL
REMARK 923 INTER-LIGAND FREE ENERGY PREDICTED BY IDOCK:   -2.82 KCAL/MOL
REMARK 924 INTRA-LIGAND FREE ENERGY PREDICTED BY IDOCK:   -0.68 KCAL/MOL
REMARK 927      BINDING AFFINITY PREDICTED BY RF-SCORE:    0.00 PKD
ROOT
HETATM    1  C   UNL     1      -8.285   8.874  67.327  1.00  0.00    -0.104 C  
HETATM    2  C   UNL     1      -9.190   7.879  66.616  1.00  0.00    -0.221 C  
ENDROOT
BRANCH   2   3
HETATM    3  C   UNL     1     -10.526   7.731  67.341  1.00  0.00    -0.362 C  
BRANCH   3   4
HETATM    4  C   UNL     1     -10.743   6.304  67.845  1.00  0.00    -0.380 C  
BRANCH   4   5
HETATM    5  C   UNL     1     -11.525   6.300  69.160  1.00  0.00    -0.229 C  
BRANCH   5   6
HETATM    6  C   UNL     1     -10.672   5.781  70.318  1.00  0.00    -0.380 C  
BRANCH   6   7
HETATM    7  C   UNL     1      -9.507   6.697  70.611  1.00  0.00    -0.174 A  
HETATM    8  C   UNL     1      -9.653   8.066  70.876  1.00  0.00    -0.161 A  
HETATM    9  C   UNL     1      -8.551   8.866  71.178  1.00  0.00    -0.263 A  
HETATM   10  O   UNL     1     -10.860   8.705  70.851  1.00  0.00    -0.222 OA 
HETATM   11  H   UNL     1     -10.959   9.633  71.030  1.00  0.00     0.000 HD 
HETATM   12  C   UNL     1      -7.280   8.302  71.188  1.00  0.00    -0.065 A  
HETATM   13  C   UNL     1      -7.101   6.957  70.901  1.00  0.00    -0.068 A  
HETATM   14  O   UNL     1      -6.174   9.047  71.471  1.00  0.00    -0.068 OA 
HETATM   15  H   UNL     1      -5.306   8.662  71.478  1.00  0.00     0.000 HD 
HETATM   16  C   UNL     1      -8.210   6.156  70.615  1.00  0.00    -0.121 A  
ENDBRANCH   6   7
ENDBRANCH   5   6
ENDBRANCH   4   5
ENDBRANCH   3   4
ENDBRANCH   2   3
TORSDOF 5
ENDMDL
MODEL      291
REMARK 921   NORMALIZED FREE ENERGY PREDICTED BY IDOCK:   -2.39 KCAL/MOL
REMARK 922        TOTAL FREE ENERGY PREDICTED BY IDOCK:   -3.49 KCAL/MOL
REMARK 923 INTER-LIGAND FREE ENERGY PREDICTED BY IDOCK:   -2.74 KCAL/MOL
REMARK 924 INTRA-LIGAND FREE ENERGY PREDICTED BY IDOCK:   -0.75 KCAL/MOL
REMARK 927      BINDING AFFINITY PREDICTED BY RF-SCORE:    0.00 PKD
ROOT
HETATM    1  C   UNL     1      -9.346   3.611  69.847  1.00  0.00    -0.246 C  
HETATM    2  C   UNL     1      -9.644   2.830  68.577  1.00  0.00    -0.094 C  
ENDROOT
BRANCH   2   3
HETATM    3  C   UNL     1      -8.373   2.590  67.764  1.00  0.00    -0.091 C  
BRANCH   3   4
HETATM    4  C   UNL     1      -8.472   3.199  66.364  1.00  0.00    -0.109 C  
BRANCH   4   5
HETATM    5  C   UNL     1      -9.495   4.335  66.332  1.00  0.00    -0.191 C  
BRANCH   5   6
HETATM    6  C   UNL     1      -8.813   5.703  66.317  1.00  0.00    -0.137 C  
BRANCH   6   7
HETATM    7  C   UNL     1      -9.109   6.491  67.572  1.00  0.00    -0.115 A  
HETATM    8  C   UNL     1     -10.405   6.856  67.963  1.00  0.00    -0.192 A  
HETATM    9  C   UNL     1     -10.633   7.553  69.149  1.00  0.00    -0.204 A  
HETATM   10  O   UNL     1     -11.516   6.567  67.222  1.00  0.00    -0.754 OA 
HETATM   11  H   UNL     1     -12.394   6.814  67.488  1.00  0.00     0.000 HD 
HETATM   12  C   UNL     1      -9.553   7.920  69.944  1.00  0.00    -0.168 A  
HETATM   13  C   UNL     1      -8.257   7.599  69.568  1.00  0.00    -0.129 A  
HETATM   14  O   UNL     1      -9.728   8.608  71.108  1.00  0.00    -0.187 OA 
HETATM   15  H   UNL     1      -8.991   8.858  71.652  1.00  0.00     0.000 HD 
HETATM   16  C   UNL     1      -8.035   6.887  68.388  1.00  0.00    -0.122 A  
ENDBRANCH   6   7
ENDBRANCH   5   6
ENDBRANCH   4   5
ENDBRANCH   3   4
ENDBRANCH   2   3
TORSDOF 5
ENDMDL
MODEL      292
REMARK 921   NORMALIZED FREE ENERGY PREDICTED BY IDOCK:   -2.38 KCAL/MOL
REMARK 922        TOTAL FREE ENERGY PREDICTED BY IDOCK:   -3.49 KCAL/MOL
REMARK 923 INTER-LIGAND FREE ENERGY PREDICTED BY IDOCK:   -3.21 KCAL/MOL
REMARK 924 INTRA-LIGAND FREE ENERGY PREDICTED BY IDOCK:   -0.28 KCAL/MOL
REMARK 927      BINDING AFFINITY PREDICTED BY RF-SCORE:    0.00 PKD
ROOT
HETATM    1  C   UNL     1      -7.384   6.213  72.991  1.00  0.00    -0.092 C  
HETATM    2  C   UNL     1      -8.769   6.841  73.035  1.00  0.00    -0.132 C  
ENDROOT
BRANCH   2   3
HETATM    3  C   UNL     1      -9.168   7.398  71.670  1.00  0.00    -0.154 C  
BRANCH   3   4
HETATM    4  C   UNL     1      -8.573   8.785  71.427  1.00  0.00    -0.254 C  
BRANCH   4   5
HETATM    5  C   UNL     1      -9.551   9.674  70.657  1.00  0.00    -0.214 C  
BRANCH   5   6
HETATM    6  C   UNL     1      -9.197   9.741  69.171  1.00  0.00    -0.177 C  
BRANCH   6   7
HETATM    7  C   UNL     1      -9.831  10.935  68.497  1.00  0.00    -0.188 A  
HETATM    8  C   UNL     1      -9.168  12.157  68.316  1.00  0.00    -0.192 A  
HETATM    9  C   UNL     1      -9.780  13.222  67.654  1.00  0.00    -0.219 A  
HETATM   10  O   UNL     1      -7.901  12.393  68.771  1.00  0.00    -0.267 OA 
HETATM   11  H   UNL     1      -7.452  13.220  68.648  1.00  0.00     0.000 HD 
HETATM   12  C   UNL     1     -11.084  13.079  67.192  1.00  0.00    -0.273 A  
HETATM   13  C   UNL     1     -11.776  11.892  67.382  1.00  0.00    -0.326 A  
HETATM   14  O   UNL     1     -11.725  14.094  66.546  1.00  0.00    -0.361 OA 
HETATM   15  H   UNL     1     -12.615  13.997  66.230  1.00  0.00     0.000 HD 
HETATM   16  C   UNL     1     -11.152  10.823  68.031  1.00  0.00    -0.359 A  
ENDBRANCH   6   7
ENDBRANCH   5   6
ENDBRANCH   4   5
ENDBRANCH   3   4
ENDBRANCH   2   3
TORSDOF 5
ENDMDL
MODEL      293
REMARK 921   NORMALIZED FREE ENERGY PREDICTED BY IDOCK:   -2.37 KCAL/MOL
REMARK 922        TOTAL FREE ENERGY PREDICTED BY IDOCK:   -3.47 KCAL/MOL
REMARK 923 INTER-LIGAND FREE ENERGY PREDICTED BY IDOCK:   -2.90 KCAL/MOL
REMARK 924 INTRA-LIGAND FREE ENERGY PREDICTED BY IDOCK:   -0.58 KCAL/MOL
REMARK 927      BINDING AFFINITY PREDICTED BY RF-SCORE:    0.00 PKD
ROOT
HETATM    1  C   UNL     1      -9.632   9.026  71.526  1.00  0.00    -0.340 C  
HETATM    2  C   UNL     1     -10.962   8.314  71.336  1.00  0.00    -0.301 C  
ENDROOT
BRANCH   2   3
HETATM    3  C   UNL     1     -11.120   7.809  69.903  1.00  0.00    -0.142 C  
BRANCH   3   4
HETATM    4  C   UNL     1     -11.512   6.332  69.863  1.00  0.00    -0.459 C  
BRANCH   4   5
HETATM    5  C   UNL     1     -10.340   5.442  70.279  1.00  0.00    -0.357 C  
BRANCH   5   6
HETATM    6  C   UNL     1      -9.157   5.589  69.323  1.00  0.00    -0.132 C  
BRANCH   6   7
HETATM    7  C   UNL     1      -9.350   4.782  68.061  1.00  0.00    -0.168 A  
HETATM    8  C   UNL     1      -9.124   3.401  67.990  1.00  0.00    -0.162 A  
HETATM    9  C   UNL     1      -9.351   2.690  66.811  1.00  0.00    -0.044 A  
HETATM   10  O   UNL     1      -8.668   2.665  69.047  1.00  0.00    -0.068 OA 
HETATM   11  H   UNL     1      -8.515   1.729  68.998  1.00  0.00     0.000 HD 
HETATM   12  C   UNL     1      -9.781   3.369  65.677  1.00  0.00    -0.014 A  
HETATM   13  C   UNL     1      -9.985   4.740  65.708  1.00  0.00    -0.225 A  
HETATM   14  O   UNL     1     -10.009   2.716  64.501  1.00  0.00    -0.316 OA 
HETATM   15  H   UNL     1     -10.302   3.180  63.726  1.00  0.00     0.000 HD 
HETATM   16  C   UNL     1      -9.771   5.445  66.895  1.00  0.00    -0.166 A  
ENDBRANCH   6   7
ENDBRANCH   5   6
ENDBRANCH   4   5
ENDBRANCH   3   4
ENDBRANCH   2   3
TORSDOF 5
ENDMDL
MODEL      294
REMARK 921   NORMALIZED FREE ENERGY PREDICTED BY IDOCK:   -2.37 KCAL/MOL
REMARK 922        TOTAL FREE ENERGY PREDICTED BY IDOCK:   -3.47 KCAL/MOL
REMARK 923 INTER-LIGAND FREE ENERGY PREDICTED BY IDOCK:   -2.91 KCAL/MOL
REMARK 924 INTRA-LIGAND FREE ENERGY PREDICTED BY IDOCK:   -0.56 KCAL/MOL
REMARK 927      BINDING AFFINITY PREDICTED BY RF-SCORE:    0.00 PKD
ROOT
HETATM    1  C   UNL     1      -5.985  11.056  66.984  1.00  0.00    -0.077 C  
HETATM    2  C   UNL     1      -7.448  11.200  66.595  1.00  0.00    -0.146 C  
ENDROOT
BRANCH   2   3
HETATM    3  C   UNL     1      -8.353  11.168  67.826  1.00  0.00    -0.123 C  
BRANCH   3   4
HETATM    4  C   UNL     1      -9.832  11.123  67.441  1.00  0.00    -0.195 C  
BRANCH   4   5
HETATM    5  C   UNL     1     -10.499   9.854  67.974  1.00  0.00    -0.266 C  
BRANCH   5   6
HETATM    6  C   UNL     1      -9.464   8.810  68.392  1.00  0.00    -0.148 C  
BRANCH   6   7
HETATM    7  C   UNL     1      -9.673   7.495  67.680  1.00  0.00    -0.182 A  
HETATM    8  C   UNL     1     -10.687   6.589  68.021  1.00  0.00    -0.283 A  
HETATM    9  C   UNL     1     -10.865   5.401  67.311  1.00  0.00    -0.052 A  
HETATM   10  O   UNL     1     -11.554   6.796  69.057  1.00  0.00    -0.587 OA 
HETATM   11  H   UNL     1     -12.241   6.182  69.287  1.00  0.00     0.000 HD 
HETATM   12  C   UNL     1     -10.002   5.095  66.265  1.00  0.00    -0.210 A  
HETATM   13  C   UNL     1      -8.970   5.958  65.924  1.00  0.00    -0.149 A  
HETATM   14  O   UNL     1     -10.133   3.943  65.549  1.00  0.00    -0.353 OA 
HETATM   15  H   UNL     1      -9.544   3.734  64.834  1.00  0.00     0.000 HD 
HETATM   16  C   UNL     1      -8.806   7.153  66.627  1.00  0.00    -0.142 A  
ENDBRANCH   6   7
ENDBRANCH   5   6
ENDBRANCH   4   5
ENDBRANCH   3   4
ENDBRANCH   2   3
TORSDOF 5
ENDMDL
MODEL      295
REMARK 921   NORMALIZED FREE ENERGY PREDICTED BY IDOCK:   -2.36 KCAL/MOL
REMARK 922        TOTAL FREE ENERGY PREDICTED BY IDOCK:   -3.46 KCAL/MOL
REMARK 923 INTER-LIGAND FREE ENERGY PREDICTED BY IDOCK:   -2.82 KCAL/MOL
REMARK 924 INTRA-LIGAND FREE ENERGY PREDICTED BY IDOCK:   -0.64 KCAL/MOL
REMARK 927      BINDING AFFINITY PREDICTED BY RF-SCORE:    0.00 PKD
ROOT
HETATM    1  C   UNL     1     -11.561   8.669  72.109  1.00  0.00    -0.440 C  
HETATM    2  C   UNL     1     -11.791   9.358  70.773  1.00  0.00    -0.323 C  
ENDROOT
BRANCH   2   3
HETATM    3  C   UNL     1     -10.827  10.527  70.580  1.00  0.00    -0.066 C  
BRANCH   3   4
HETATM    4  C   UNL     1     -11.385  11.569  69.609  1.00  0.00    -0.329 C  
BRANCH   4   5
HETATM    5  C   UNL     1     -11.610  10.961  68.223  1.00  0.00    -0.335 C  
BRANCH   5   6
HETATM    6  C   UNL     1     -10.353  11.055  67.359  1.00  0.00    -0.242 C  
BRANCH   6   7
HETATM    7  C   UNL     1      -9.468   9.842  67.520  1.00  0.00    -0.170 A  
HETATM    8  C   UNL     1      -8.139   9.913  67.961  1.00  0.00    -0.108 A  
HETATM    9  C   UNL     1      -7.370   8.761  68.130  1.00  0.00    -0.087 A  
HETATM   10  O   UNL     1      -7.510  11.092  68.246  1.00  0.00    -0.084 OA 
HETATM   11  H   UNL     1      -6.610  11.140  68.545  1.00  0.00     0.000 HD 
HETATM   12  C   UNL     1      -7.922   7.522  67.827  1.00  0.00    -0.118 A  
HETATM   13  C   UNL     1      -9.224   7.422  67.361  1.00  0.00    -0.146 A  
HETATM   14  O   UNL     1      -7.206   6.370  67.970  1.00  0.00    -0.082 OA 
HETATM   15  H   UNL     1      -7.582   5.523  67.764  1.00  0.00     0.000 HD 
HETATM   16  C   UNL     1      -9.995   8.577  67.208  1.00  0.00    -0.289 A  
ENDBRANCH   6   7
ENDBRANCH   5   6
ENDBRANCH   4   5
ENDBRANCH   3   4
ENDBRANCH   2   3
TORSDOF 5
ENDMDL
MODEL      296
REMARK 921   NORMALIZED FREE ENERGY PREDICTED BY IDOCK:   -2.35 KCAL/MOL
REMARK 922        TOTAL FREE ENERGY PREDICTED BY IDOCK:   -3.44 KCAL/MOL
REMARK 923 INTER-LIGAND FREE ENERGY PREDICTED BY IDOCK:   -2.95 KCAL/MOL
REMARK 924 INTRA-LIGAND FREE ENERGY PREDICTED BY IDOCK:   -0.49 KCAL/MOL
REMARK 927      BINDING AFFINITY PREDICTED BY RF-SCORE:    0.00 PKD
ROOT
HETATM    1  C   UNL     1      -8.075   9.957  67.483  1.00  0.00    -0.110 C  
HETATM    2  C   UNL     1      -9.491  10.164  67.999  1.00  0.00    -0.156 C  
ENDROOT
BRANCH   2   3
HETATM    3  C   UNL     1      -9.578   9.891  69.499  1.00  0.00    -0.242 C  
BRANCH   3   4
HETATM    4  C   UNL     1     -10.999   9.523  69.928  1.00  0.00    -0.263 C  
BRANCH   4   5
HETATM    5  C   UNL     1     -11.012   8.946  71.344  1.00  0.00    -0.380 C  
BRANCH   5   6
HETATM    6  C   UNL     1     -11.614   7.541  71.372  1.00  0.00    -0.302 C  
BRANCH   6   7
HETATM    7  C   UNL     1     -10.553   6.473  71.249  1.00  0.00    -0.268 A  
HETATM    8  C   UNL     1     -10.314   5.759  70.066  1.00  0.00    -0.259 A  
HETATM    9  C   UNL     1      -9.298   4.807  69.988  1.00  0.00    -0.213 A  
HETATM   10  O   UNL     1     -11.049   5.936  68.928  1.00  0.00    -0.315 OA 
HETATM   11  H   UNL     1     -10.887   5.452  68.126  1.00  0.00     0.000 HD 
HETATM   12  C   UNL     1      -8.527   4.538  71.113  1.00  0.00    -0.106 A  
HETATM   13  C   UNL     1      -8.759   5.207  72.306  1.00  0.00    -0.127 A  
HETATM   14  O   UNL     1      -7.528   3.610  71.086  1.00  0.00    -0.042 OA 
HETATM   15  H   UNL     1      -7.001   3.427  71.854  1.00  0.00     0.000 HD 
HETATM   16  C   UNL     1      -9.767   6.172  72.374  1.00  0.00    -0.169 A  
ENDBRANCH   6   7
ENDBRANCH   5   6
ENDBRANCH   4   5
ENDBRANCH   3   4
ENDBRANCH   2   3
TORSDOF 5
ENDMDL
MODEL      297
REMARK 921   NORMALIZED FREE ENERGY PREDICTED BY IDOCK:   -2.34 KCAL/MOL
REMARK 922        TOTAL FREE ENERGY PREDICTED BY IDOCK:   -3.43 KCAL/MOL
REMARK 923 INTER-LIGAND FREE ENERGY PREDICTED BY IDOCK:   -3.03 KCAL/MOL
REMARK 924 INTRA-LIGAND FREE ENERGY PREDICTED BY IDOCK:   -0.39 KCAL/MOL
REMARK 927      BINDING AFFINITY PREDICTED BY RF-SCORE:    0.00 PKD
ROOT
HETATM    1  C   UNL     1      -7.150   4.823  66.872  1.00  0.00    -0.075 C  
HETATM    2  C   UNL     1      -8.645   5.088  66.953  1.00  0.00    -0.105 C  
ENDROOT
BRANCH   2   3
HETATM    3  C   UNL     1      -8.988   6.486  66.441  1.00  0.00    -0.158 C  
BRANCH   3   4
HETATM    4  C   UNL     1     -10.457   6.835  66.686  1.00  0.00    -0.213 C  
BRANCH   4   5
HETATM    5  C   UNL     1     -10.921   6.323  68.051  1.00  0.00    -0.418 C  
BRANCH   5   6
HETATM    6  C   UNL     1     -10.315   7.139  69.192  1.00  0.00    -0.205 C  
BRANCH   6   7
HETATM    7  C   UNL     1     -10.543   6.484  70.534  1.00  0.00    -0.282 A  
HETATM    8  C   UNL     1      -9.732   5.457  71.036  1.00  0.00    -0.179 A  
HETATM    9  C   UNL     1      -9.960   4.906  72.298  1.00  0.00    -0.232 A  
HETATM   10  O   UNL     1      -8.684   4.926  70.339  1.00  0.00    -0.097 OA 
HETATM   11  H   UNL     1      -8.135   4.231  70.679  1.00  0.00     0.000 HD 
HETATM   12  C   UNL     1     -11.029   5.364  73.059  1.00  0.00    -0.297 A  
HETATM   13  C   UNL     1     -11.867   6.358  72.576  1.00  0.00    -0.174 A  
HETATM   14  O   UNL     1     -11.294   4.850  74.294  1.00  0.00    -0.246 OA 
HETATM   15  H   UNL     1     -12.025   5.162  74.814  1.00  0.00     0.000 HD 
HETATM   16  C   UNL     1     -11.626   6.917  71.319  1.00  0.00    -0.352 A  
ENDBRANCH   6   7
ENDBRANCH   5   6
ENDBRANCH   4   5
ENDBRANCH   3   4
ENDBRANCH   2   3
TORSDOF 5
ENDMDL
MODEL      298
REMARK 921   NORMALIZED FREE ENERGY PREDICTED BY IDOCK:   -2.28 KCAL/MOL
REMARK 922        TOTAL FREE ENERGY PREDICTED BY IDOCK:   -3.35 KCAL/MOL
REMARK 923 INTER-LIGAND FREE ENERGY PREDICTED BY IDOCK:   -2.67 KCAL/MOL
REMARK 924 INTRA-LIGAND FREE ENERGY PREDICTED BY IDOCK:   -0.68 KCAL/MOL
REMARK 927      BINDING AFFINITY PREDICTED BY RF-SCORE:    0.00 PKD
ROOT
HETATM    1  C   UNL     1      -6.921   6.290  69.968  1.00  0.00    -0.066 C  
HETATM    2  C   UNL     1      -6.427   6.983  71.229  1.00  0.00    -0.041 C  
ENDROOT
BRANCH   2   3
HETATM    3  C   UNL     1      -5.971   5.967  72.275  1.00  0.00    -0.037 C  
BRANCH   3   4
HETATM    4  C   UNL     1      -7.126   5.517  73.171  1.00  0.00    -0.082 C  
BRANCH   4   5
HETATM    5  C   UNL     1      -7.593   4.110  72.796  1.00  0.00    -0.075 C  
BRANCH   5   6
HETATM    6  C   UNL     1      -9.098   3.944  73.008  1.00  0.00    -0.120 C  
BRANCH   6   7
HETATM    7  C   UNL     1      -9.890   4.975  72.240  1.00  0.00    -0.214 A  
HETATM    8  C   UNL     1     -10.161   4.872  70.868  1.00  0.00    -0.222 A  
HETATM    9  C   UNL     1     -10.928   5.831  70.207  1.00  0.00    -0.347 A  
HETATM   10  O   UNL     1      -9.697   3.847  70.092  1.00  0.00    -0.196 OA 
HETATM   11  H   UNL     1      -9.881   3.777  69.163  1.00  0.00     0.000 HD 
HETATM   12  C   UNL     1     -11.408   6.927  70.915  1.00  0.00    -0.304 A  
HETATM   13  C   UNL     1     -11.131   7.072  72.267  1.00  0.00    -0.287 A  
HETATM   14  O   UNL     1     -12.156   7.893  70.310  1.00  0.00    -0.462 OA 
HETATM   15  H   UNL     1     -12.484   8.641  70.793  1.00  0.00     0.000 HD 
HETATM   16  C   UNL     1     -10.376   6.101  72.928  1.00  0.00    -0.217 A  
ENDBRANCH   6   7
ENDBRANCH   5   6
ENDBRANCH   4   5
ENDBRANCH   3   4
ENDBRANCH   2   3
TORSDOF 5
ENDMDL
MODEL      299
REMARK 921   NORMALIZED FREE ENERGY PREDICTED BY IDOCK:   -2.28 KCAL/MOL
REMARK 922        TOTAL FREE ENERGY PREDICTED BY IDOCK:   -3.35 KCAL/MOL
REMARK 923 INTER-LIGAND FREE ENERGY PREDICTED BY IDOCK:   -2.86 KCAL/MOL
REMARK 924 INTRA-LIGAND FREE ENERGY PREDICTED BY IDOCK:   -0.49 KCAL/MOL
REMARK 927      BINDING AFFINITY PREDICTED BY RF-SCORE:    0.00 PKD
ROOT
HETATM    1  C   UNL     1      -7.827   4.029  68.837  1.00  0.00    -0.057 C  
HETATM    2  C   UNL     1      -9.010   3.717  67.934  1.00  0.00    -0.158 C  
ENDROOT
BRANCH   2   3
HETATM    3  C   UNL     1      -9.175   4.782  66.851  1.00  0.00    -0.130 C  
BRANCH   3   4
HETATM    4  C   UNL     1     -10.643   5.154  66.638  1.00  0.00    -0.295 C  
BRANCH   4   5
HETATM    5  C   UNL     1     -10.889   6.626  66.973  1.00  0.00    -0.467 C  
BRANCH   5   6
HETATM    6  C   UNL     1     -10.478   6.950  68.410  1.00  0.00    -0.235 C  
BRANCH   6   7
HETATM    7  C   UNL     1      -9.910   8.345  68.530  1.00  0.00    -0.186 A  
HETATM    8  C   UNL     1      -8.615   8.686  68.116  1.00  0.00    -0.141 A  
HETATM    9  C   UNL     1      -8.145   9.996  68.213  1.00  0.00    -0.104 A  
HETATM   10  O   UNL     1      -7.733   7.777  67.603  1.00  0.00    -0.116 OA 
HETATM   11  H   UNL     1      -6.856   8.008  67.322  1.00  0.00     0.000 HD 
HETATM   12  C   UNL     1      -8.966  10.976  68.758  1.00  0.00    -0.149 A  
HETATM   13  C   UNL     1     -10.242  10.663  69.204  1.00  0.00    -0.238 A  
HETATM   14  O   UNL     1      -8.547  12.268  68.879  1.00  0.00    -0.365 OA 
HETATM   15  H   UNL     1      -9.108  12.938  69.252  1.00  0.00     0.000 HD 
HETATM   16  C   UNL     1     -10.713   9.353  69.090  1.00  0.00    -0.216 A  
ENDBRANCH   6   7
ENDBRANCH   5   6
ENDBRANCH   4   5
ENDBRANCH   3   4
ENDBRANCH   2   3
TORSDOF 5
ENDMDL
MODEL      300
REMARK 921   NORMALIZED FREE ENERGY PREDICTED BY IDOCK:   -2.22 KCAL/MOL
REMARK 922        TOTAL FREE ENERGY PREDICTED BY IDOCK:   -3.27 KCAL/MOL
REMARK 923 INTER-LIGAND FREE ENERGY PREDICTED BY IDOCK:   -2.86 KCAL/MOL
REMARK 924 INTRA-LIGAND FREE ENERGY PREDICTED BY IDOCK:   -0.41 KCAL/MOL
REMARK 927      BINDING AFFINITY PREDICTED BY RF-SCORE:    0.00 PKD
ROOT
HETATM    1  C   UNL     1     -10.245   3.596  72.325  1.00  0.00    -0.188 C  
HETATM    2  C   UNL     1     -10.863   4.512  73.370  1.00  0.00    -0.350 C  
ENDROOT
BRANCH   2   3
HETATM    3  C   UNL     1     -10.695   5.981  72.988  1.00  0.00    -0.279 C  
BRANCH   3   4
HETATM    4  C   UNL     1     -10.422   6.151  71.493  1.00  0.00    -0.268 C  
BRANCH   4   5
HETATM    5  C   UNL     1      -9.693   7.467  71.215  1.00  0.00    -0.171 C  
BRANCH   5   6
HETATM    6  C   UNL     1     -10.250   8.165  69.975  1.00  0.00    -0.202 C  
BRANCH   6   7
HETATM    7  C   UNL     1      -9.799   7.490  68.701  1.00  0.00    -0.169 A  
HETATM    8  C   UNL     1     -10.622   6.642  67.947  1.00  0.00    -0.247 A  
HETATM    9  C   UNL     1     -10.174   6.069  66.756  1.00  0.00    -0.268 A  
HETATM   10  O   UNL     1     -11.896   6.316  68.319  1.00  0.00    -0.191 OA 
HETATM   11  H   UNL     1     -12.453   5.742  67.807  1.00  0.00     0.000 HD 
HETATM   12  C   UNL     1      -8.877   6.320  66.324  1.00  0.00    -0.147 A  
HETATM   13  C   UNL     1      -8.029   7.131  67.065  1.00  0.00    -0.113 A  
HETATM   14  O   UNL     1      -8.393   5.776  65.171  1.00  0.00    -0.139 OA 
HETATM   15  H   UNL     1      -7.507   5.947  64.876  1.00  0.00     0.000 HD 
HETATM   16  C   UNL     1      -8.487   7.715  68.247  1.00  0.00    -0.125 A  
ENDBRANCH   6   7
ENDBRANCH   5   6
ENDBRANCH   4   5
ENDBRANCH   3   4
ENDBRANCH   2   3
TORSDOF 5
ENDMDL
MODEL      301
REMARK 921   NORMALIZED FREE ENERGY PREDICTED BY IDOCK:   -2.22 KCAL/MOL
REMARK 922        TOTAL FREE ENERGY PREDICTED BY IDOCK:   -3.27 KCAL/MOL
REMARK 923 INTER-LIGAND FREE ENERGY PREDICTED BY IDOCK:   -2.31 KCAL/MOL
REMARK 924 INTRA-LIGAND FREE ENERGY PREDICTED BY IDOCK:   -0.96 KCAL/MOL
REMARK 927      BINDING AFFINITY PREDICTED BY RF-SCORE:    0.00 PKD
ROOT
HETATM    1  C   UNL     1      -8.310   8.750  67.469  1.00  0.00    -0.109 C  
HETATM    2  C   UNL     1      -9.506   7.945  66.983  1.00  0.00    -0.222 C  
ENDROOT
BRANCH   2   3
HETATM    3  C   UNL     1     -10.592   7.866  68.054  1.00  0.00    -0.194 C  
BRANCH   3   4
HETATM    4  C   UNL     1     -11.132   6.444  68.211  1.00  0.00    -0.359 C  
BRANCH   4   5
HETATM    5  C   UNL     1     -11.377   6.111  69.684  1.00  0.00    -0.442 C  
BRANCH   5   6
HETATM    6  C   UNL     1     -10.305   5.167  70.231  1.00  0.00    -0.331 C  
BRANCH   6   7
HETATM    7  C   UNL     1      -8.994   5.881  70.462  1.00  0.00    -0.151 A  
HETATM    8  C   UNL     1      -7.817   5.570  69.767  1.00  0.00    -0.082 A  
HETATM    9  C   UNL     1      -6.637   6.280  69.988  1.00  0.00    -0.048 A  
HETATM   10  O   UNL     1      -7.739   4.563  68.846  1.00  0.00    -0.069 OA 
HETATM   11  H   UNL     1      -6.941   4.353  68.375  1.00  0.00     0.000 HD 
HETATM   12  C   UNL     1      -6.620   7.296  70.936  1.00  0.00    -0.044 A  
HETATM   13  C   UNL     1      -7.761   7.607  71.661  1.00  0.00    -0.086 A  
HETATM   14  O   UNL     1      -5.488   8.013  71.191  1.00  0.00    -0.033 OA 
HETATM   15  H   UNL     1      -5.476   8.707  71.838  1.00  0.00     0.000 HD 
HETATM   16  C   UNL     1      -8.944   6.904  71.425  1.00  0.00    -0.141 A  
ENDBRANCH   6   7
ENDBRANCH   5   6
ENDBRANCH   4   5
ENDBRANCH   3   4
ENDBRANCH   2   3
TORSDOF 5
ENDMDL
MODEL      302
REMARK 921   NORMALIZED FREE ENERGY PREDICTED BY IDOCK:   -2.21 KCAL/MOL
REMARK 922        TOTAL FREE ENERGY PREDICTED BY IDOCK:   -3.26 KCAL/MOL
REMARK 923 INTER-LIGAND FREE ENERGY PREDICTED BY IDOCK:   -2.60 KCAL/MOL
REMARK 924 INTRA-LIGAND FREE ENERGY PREDICTED BY IDOCK:   -0.65 KCAL/MOL
REMARK 927      BINDING AFFINITY PREDICTED BY RF-SCORE:    0.00 PKD
ROOT
HETATM    1  C   UNL     1      -9.678   8.853  71.356  1.00  0.00    -0.370 C  
HETATM    2  C   UNL     1     -10.917   8.051  70.987  1.00  0.00    -0.263 C  
ENDROOT
BRANCH   2   3
HETATM    3  C   UNL     1     -10.885   7.629  69.519  1.00  0.00    -0.171 C  
BRANCH   3   4
HETATM    4  C   UNL     1     -11.196   6.141  69.350  1.00  0.00    -0.466 C  
BRANCH   4   5
HETATM    5  C   UNL     1     -10.079   5.278  69.941  1.00  0.00    -0.333 C  
BRANCH   5   6
HETATM    6  C   UNL     1      -8.706   5.709  69.426  1.00  0.00    -0.109 C  
BRANCH   6   7
HETATM    7  C   UNL     1      -8.541   5.415  67.954  1.00  0.00    -0.104 A  
HETATM    8  C   UNL     1      -8.244   6.401  67.002  1.00  0.00    -0.113 A  
HETATM    9  C   UNL     1      -8.065   6.078  65.657  1.00  0.00    -0.126 A  
HETATM   10  O   UNL     1      -8.118   7.725  67.315  1.00  0.00    -0.115 OA 
HETATM   11  H   UNL     1      -7.917   8.393  66.670  1.00  0.00     0.000 HD 
HETATM   12  C   UNL     1      -8.212   4.757  65.247  1.00  0.00    -0.120 A  
HETATM   13  C   UNL     1      -8.535   3.765  66.161  1.00  0.00    -0.110 A  
HETATM   14  O   UNL     1      -8.053   4.396  63.942  1.00  0.00    -0.088 OA 
HETATM   15  H   UNL     1      -8.154   3.494  63.661  1.00  0.00     0.000 HD 
HETATM   16  C   UNL     1      -8.698   4.091  67.509  1.00  0.00    -0.116 A  
ENDBRANCH   6   7
ENDBRANCH   5   6
ENDBRANCH   4   5
ENDBRANCH   3   4
ENDBRANCH   2   3
TORSDOF 5
ENDMDL
MODEL      303
REMARK 921   NORMALIZED FREE ENERGY PREDICTED BY IDOCK:   -2.19 KCAL/MOL
REMARK 922        TOTAL FREE ENERGY PREDICTED BY IDOCK:   -3.24 KCAL/MOL
REMARK 923 INTER-LIGAND FREE ENERGY PREDICTED BY IDOCK:   -2.89 KCAL/MOL
REMARK 924 INTRA-LIGAND FREE ENERGY PREDICTED BY IDOCK:   -0.34 KCAL/MOL
REMARK 927      BINDING AFFINITY PREDICTED BY RF-SCORE:    0.00 PKD
ROOT
HETATM    1  C   UNL     1     -10.806  13.742  64.645  1.00  0.00    -0.416 C  
HETATM    2  C   UNL     1     -12.200  13.230  64.975  1.00  0.00    -0.477 C  
ENDROOT
BRANCH   2   3
HETATM    3  C   UNL     1     -12.254  12.642  66.384  1.00  0.00    -0.174 C  
BRANCH   3   4
HETATM    4  C   UNL     1     -11.107  11.662  66.635  1.00  0.00    -0.364 C  
BRANCH   4   5
HETATM    5  C   UNL     1     -10.168  12.185  67.724  1.00  0.00    -0.207 C  
BRANCH   5   6
HETATM    6  C   UNL     1      -8.712  11.829  67.427  1.00  0.00    -0.162 C  
BRANCH   6   7
HETATM    7  C   UNL     1      -8.582  10.450  66.825  1.00  0.00    -0.125 A  
HETATM    8  C   UNL     1      -8.667   9.271  67.578  1.00  0.00    -0.115 A  
HETATM    9  C   UNL     1      -8.578   8.017  66.974  1.00  0.00    -0.127 A  
HETATM   10  O   UNL     1      -8.833   9.264  68.935  1.00  0.00    -0.132 OA 
HETATM   11  H   UNL     1      -8.891   8.465  69.445  1.00  0.00     0.000 HD 
HETATM   12  C   UNL     1      -8.371   7.934  65.601  1.00  0.00    -0.142 A  
HETATM   13  C   UNL     1      -8.253   9.084  64.834  1.00  0.00    -0.154 A  
HETATM   14  O   UNL     1      -8.270   6.731  64.968  1.00  0.00    -0.134 OA 
HETATM   15  H   UNL     1      -8.129   6.674  64.031  1.00  0.00     0.000 HD 
HETATM   16  C   UNL     1      -8.359  10.336  65.441  1.00  0.00    -0.164 A  
ENDBRANCH   6   7
ENDBRANCH   5   6
ENDBRANCH   4   5
ENDBRANCH   3   4
ENDBRANCH   2   3
TORSDOF 5
ENDMDL
MODEL      304
REMARK 921   NORMALIZED FREE ENERGY PREDICTED BY IDOCK:   -2.16 KCAL/MOL
REMARK 922        TOTAL FREE ENERGY PREDICTED BY IDOCK:   -3.20 KCAL/MOL
REMARK 923 INTER-LIGAND FREE ENERGY PREDICTED BY IDOCK:   -2.91 KCAL/MOL
REMARK 924 INTRA-LIGAND FREE ENERGY PREDICTED BY IDOCK:   -0.29 KCAL/MOL
REMARK 927      BINDING AFFINITY PREDICTED BY RF-SCORE:    0.00 PKD
ROOT
HETATM    1  C   UNL     1     -10.540  12.221  68.607  1.00  0.00    -0.249 C  
HETATM    2  C   UNL     1     -11.729  11.627  67.868  1.00  0.00    -0.329 C  
ENDROOT
BRANCH   2   3
HETATM    3  C   UNL     1     -11.776  12.106  66.418  1.00  0.00    -0.394 C  
BRANCH   3   4
HETATM    4  C   UNL     1     -10.381  12.162  65.794  1.00  0.00    -0.289 C  
BRANCH   4   5
HETATM    5  C   UNL     1      -9.873  10.757  65.463  1.00  0.00    -0.309 C  
BRANCH   5   6
HETATM    6  C   UNL     1      -9.455  10.644  63.997  1.00  0.00    -0.329 C  
BRANCH   6   7
HETATM    7  C   UNL     1      -8.323   9.661  63.810  1.00  0.00    -0.173 A  
HETATM    8  C   UNL     1      -7.140   9.972  63.126  1.00  0.00    -0.130 A  
HETATM    9  C   UNL     1      -6.106   9.042  63.010  1.00  0.00    -0.090 A  
HETATM   10  O   UNL     1      -6.919  11.181  62.530  1.00  0.00    -0.372 OA 
HETATM   11  H   UNL     1      -6.117  11.392  62.067  1.00  0.00     0.000 HD 
HETATM   12  C   UNL     1      -6.263   7.774  63.556  1.00  0.00    -0.062 A  
HETATM   13  C   UNL     1      -7.435   7.427  64.212  1.00  0.00    -0.098 A  
HETATM   14  O   UNL     1      -5.283   6.831  63.460  1.00  0.00    -0.026 OA 
HETATM   15  H   UNL     1      -5.390   5.965  63.833  1.00  0.00     0.000 HD 
HETATM   16  C   UNL     1      -8.461   8.366  64.340  1.00  0.00    -0.056 A  
ENDBRANCH   6   7
ENDBRANCH   5   6
ENDBRANCH   4   5
ENDBRANCH   3   4
ENDBRANCH   2   3
TORSDOF 5
ENDMDL
MODEL      305
REMARK 921   NORMALIZED FREE ENERGY PREDICTED BY IDOCK:   -2.13 KCAL/MOL
REMARK 922        TOTAL FREE ENERGY PREDICTED BY IDOCK:   -3.16 KCAL/MOL
REMARK 923 INTER-LIGAND FREE ENERGY PREDICTED BY IDOCK:   -3.07 KCAL/MOL
REMARK 924 INTRA-LIGAND FREE ENERGY PREDICTED BY IDOCK:   -0.09 KCAL/MOL
REMARK 927      BINDING AFFINITY PREDICTED BY RF-SCORE:    0.00 PKD
ROOT
HETATM    1  C   UNL     1      -8.665   7.777  71.539  1.00  0.00    -0.140 C  
HETATM    2  C   UNL     1      -8.525   8.332  70.130  1.00  0.00    -0.126 C  
ENDROOT
BRANCH   2   3
HETATM    3  C   UNL     1      -7.835   7.330  69.206  1.00  0.00    -0.116 C  
BRANCH   3   4
HETATM    4  C   UNL     1      -7.844   7.800  67.751  1.00  0.00    -0.123 C  
BRANCH   4   5
HETATM    5  C   UNL     1      -8.666   6.853  66.874  1.00  0.00    -0.118 C  
BRANCH   5   6
HETATM    6  C   UNL     1     -10.088   7.374  66.667  1.00  0.00    -0.253 C  
BRANCH   6   7
HETATM    7  C   UNL     1     -10.168   8.872  66.840  1.00  0.00    -0.347 A  
HETATM    8  C   UNL     1      -9.746   9.783  65.860  1.00  0.00    -0.266 A  
HETATM    9  C   UNL     1      -9.873  11.159  66.049  1.00  0.00    -0.270 A  
HETATM   10  O   UNL     1      -9.186   9.396  64.676  1.00  0.00    -0.363 OA 
HETATM   11  H   UNL     1      -8.900  10.013  64.012  1.00  0.00     0.000 HD 
HETATM   12  C   UNL     1     -10.399  11.639  67.243  1.00  0.00    -0.204 A  
HETATM   13  C   UNL     1     -10.798  10.763  68.242  1.00  0.00    -0.276 A  
HETATM   14  O   UNL     1     -10.535  12.976  67.474  1.00  0.00    -0.225 OA 
HETATM   15  H   UNL     1     -10.895  13.304  68.289  1.00  0.00     0.000 HD 
HETATM   16  C   UNL     1     -10.684   9.386  68.043  1.00  0.00    -0.246 A  
ENDBRANCH   6   7
ENDBRANCH   5   6
ENDBRANCH   4   5
ENDBRANCH   3   4
ENDBRANCH   2   3
TORSDOF 5
ENDMDL
MODEL      306
REMARK 921   NORMALIZED FREE ENERGY PREDICTED BY IDOCK:   -2.13 KCAL/MOL
REMARK 922        TOTAL FREE ENERGY PREDICTED BY IDOCK:   -3.16 KCAL/MOL
REMARK 923 INTER-LIGAND FREE ENERGY PREDICTED BY IDOCK:   -2.51 KCAL/MOL
REMARK 924 INTRA-LIGAND FREE ENERGY PREDICTED BY IDOCK:   -0.65 KCAL/MOL
REMARK 927      BINDING AFFINITY PREDICTED BY RF-SCORE:    0.00 PKD
ROOT
HETATM    1  C   UNL     1      -8.611   8.959  69.870  1.00  0.00    -0.137 C  
HETATM    2  C   UNL     1      -8.535   7.527  69.363  1.00  0.00    -0.133 C  
ENDROOT
BRANCH   2   3
HETATM    3  C   UNL     1      -7.355   7.338  68.412  1.00  0.00    -0.103 C  
BRANCH   3   4
HETATM    4  C   UNL     1      -7.692   7.795  66.992  1.00  0.00    -0.104 C  
BRANCH   4   5
HETATM    5  C   UNL     1      -6.756   8.916  66.539  1.00  0.00    -0.075 C  
BRANCH   5   6
HETATM    6  C   UNL     1      -7.447   9.861  65.556  1.00  0.00    -0.126 C  
BRANCH   6   7
HETATM    7  C   UNL     1      -8.584  10.613  66.204  1.00  0.00    -0.163 A  
HETATM    8  C   UNL     1      -8.405  11.795  66.937  1.00  0.00    -0.170 A  
HETATM    9  C   UNL     1      -9.490  12.476  67.489  1.00  0.00    -0.185 A  
HETATM   10  O   UNL     1      -7.178  12.352  67.166  1.00  0.00    -0.246 OA 
HETATM   11  H   UNL     1      -7.057  13.152  67.662  1.00  0.00     0.000 HD 
HETATM   12  C   UNL     1     -10.771  11.958  67.335  1.00  0.00    -0.232 A  
HETATM   13  C   UNL     1     -10.976  10.775  66.640  1.00  0.00    -0.173 A  
HETATM   14  O   UNL     1     -11.861  12.585  67.862  1.00  0.00    -0.351 OA 
HETATM   15  H   UNL     1     -12.736  12.232  67.757  1.00  0.00     0.000 HD 
HETATM   16  C   UNL     1      -9.888  10.105  66.076  1.00  0.00    -0.308 A  
ENDBRANCH   6   7
ENDBRANCH   5   6
ENDBRANCH   4   5
ENDBRANCH   3   4
ENDBRANCH   2   3
TORSDOF 5
ENDMDL
MODEL      307
REMARK 921   NORMALIZED FREE ENERGY PREDICTED BY IDOCK:   -2.13 KCAL/MOL
REMARK 922        TOTAL FREE ENERGY PREDICTED BY IDOCK:   -3.16 KCAL/MOL
REMARK 923 INTER-LIGAND FREE ENERGY PREDICTED BY IDOCK:   -3.26 KCAL/MOL
REMARK 924 INTRA-LIGAND FREE ENERGY PREDICTED BY IDOCK:    0.10 KCAL/MOL
REMARK 927      BINDING AFFINITY PREDICTED BY RF-SCORE:    0.00 PKD
ROOT
HETATM    1  C   UNL     1      -6.413  13.226  67.497  1.00  0.00    -0.143 C  
HETATM    2  C   UNL     1      -7.385  12.079  67.727  1.00  0.00    -0.113 C  
ENDROOT
BRANCH   2   3
HETATM    3  C   UNL     1      -8.777  12.420  67.197  1.00  0.00    -0.195 C  
BRANCH   3   4
HETATM    4  C   UNL     1      -9.643  13.088  68.265  1.00  0.00    -0.213 C  
BRANCH   4   5
HETATM    5  C   UNL     1     -11.129  12.827  68.008  1.00  0.00    -0.284 C  
BRANCH   5   6
HETATM    6  C   UNL     1     -11.806  14.035  67.360  1.00  0.00    -0.445 C  
BRANCH   6   7
HETATM    7  C   UNL     1     -10.801  15.069  66.912  1.00  0.00    -0.315 A  
HETATM    8  C   UNL     1     -10.240  15.090  65.627  1.00  0.00    -0.360 A  
HETATM    9  C   UNL     1      -9.342  16.087  65.246  1.00  0.00     0.553 A  
HETATM   10  O   UNL     1     -10.521  14.150  64.676  1.00  0.00    -0.492 OA 
HETATM   11  H   UNL     1     -10.142  14.165  63.806  1.00  0.00     0.000 HD 
HETATM   12  C   UNL     1      -8.972  17.061  66.166  1.00  0.00    -0.208 A  
HETATM   13  C   UNL     1      -9.487  17.049  67.454  1.00  0.00    -0.242 A  
HETATM   14  O   UNL     1      -8.092  18.050  65.840  1.00  0.00    -0.519 OA 
HETATM   15  H   UNL     1      -7.840  18.716  66.468  1.00  0.00     0.000 HD 
HETATM   16  C   UNL     1     -10.399  16.058  67.826  1.00  0.00    -0.279 A  
ENDBRANCH   6   7
ENDBRANCH   5   6
ENDBRANCH   4   5
ENDBRANCH   3   4
ENDBRANCH   2   3
TORSDOF 5
ENDMDL
MODEL      308
REMARK 921   NORMALIZED FREE ENERGY PREDICTED BY IDOCK:   -2.10 KCAL/MOL
REMARK 922        TOTAL FREE ENERGY PREDICTED BY IDOCK:   -3.12 KCAL/MOL
REMARK 923 INTER-LIGAND FREE ENERGY PREDICTED BY IDOCK:   -3.04 KCAL/MOL
REMARK 924 INTRA-LIGAND FREE ENERGY PREDICTED BY IDOCK:   -0.08 KCAL/MOL
REMARK 927      BINDING AFFINITY PREDICTED BY RF-SCORE:    0.00 PKD
ROOT
HETATM    1  C   UNL     1     -11.264   4.418  73.450  1.00  0.00    -0.386 C  
HETATM    2  C   UNL     1      -9.836   4.073  73.845  1.00  0.00    -0.156 C  
ENDROOT
BRANCH   2   3
HETATM    3  C   UNL     1      -8.829   4.929  73.078  1.00  0.00    -0.113 C  
BRANCH   3   4
HETATM    4  C   UNL     1      -9.326   5.268  71.673  1.00  0.00    -0.178 C  
BRANCH   4   5
HETATM    5  C   UNL     1      -8.202   5.866  70.824  1.00  0.00    -0.124 C  
BRANCH   5   6
HETATM    6  C   UNL     1      -8.021   7.358  71.105  1.00  0.00    -0.100 C  
BRANCH   6   7
HETATM    7  C   UNL     1      -8.950   8.204  70.268  1.00  0.00    -0.146 A  
HETATM    8  C   UNL     1      -8.731   9.565  70.012  1.00  0.00    -0.221 A  
HETATM    9  C   UNL     1      -9.598  10.299  69.203  1.00  0.00    -0.229 A  
HETATM   10  O   UNL     1      -7.675  10.260  70.532  1.00  0.00    -0.438 OA 
HETATM   11  H   UNL     1      -7.526  11.182  70.359  1.00  0.00     0.000 HD 
HETATM   12  C   UNL     1     -10.718   9.677  68.664  1.00  0.00    -0.201 A  
HETATM   13  C   UNL     1     -10.978   8.340  68.923  1.00  0.00     0.119 A  
HETATM   14  O   UNL     1     -11.597  10.356  67.873  1.00  0.00    -0.669 OA 
HETATM   15  H   UNL     1     -12.362   9.932  67.504  1.00  0.00     0.000 HD 
HETATM   16  C   UNL     1     -10.098   7.605  69.721  1.00  0.00    -0.196 A  
ENDBRANCH   6   7
ENDBRANCH   5   6
ENDBRANCH   4   5
ENDBRANCH   3   4
ENDBRANCH   2   3
TORSDOF 5
ENDMDL
MODEL      309
REMARK 921   NORMALIZED FREE ENERGY PREDICTED BY IDOCK:   -2.10 KCAL/MOL
REMARK 922        TOTAL FREE ENERGY PREDICTED BY IDOCK:   -3.11 KCAL/MOL
REMARK 923 INTER-LIGAND FREE ENERGY PREDICTED BY IDOCK:   -2.30 KCAL/MOL
REMARK 924 INTRA-LIGAND FREE ENERGY PREDICTED BY IDOCK:   -0.81 KCAL/MOL
REMARK 927      BINDING AFFINITY PREDICTED BY RF-SCORE:    0.00 PKD
ROOT
HETATM    1  C   UNL     1      -8.316   8.823  67.531  1.00  0.00    -0.109 C  
HETATM    2  C   UNL     1      -9.565   8.201  66.924  1.00  0.00    -0.269 C  
ENDROOT
BRANCH   2   3
HETATM    3  C   UNL     1     -10.637   7.966  67.987  1.00  0.00    -0.194 C  
BRANCH   3   4
HETATM    4  C   UNL     1     -11.152   6.526  67.964  1.00  0.00    -0.332 C  
BRANCH   4   5
HETATM    5  C   UNL     1     -10.715   5.768  69.218  1.00  0.00    -0.386 C  
BRANCH   5   6
HETATM    6  C   UNL     1     -10.107   4.410  68.868  1.00  0.00     0.025 C  
BRANCH   6   7
HETATM    7  C   UNL     1      -9.000   4.536  67.848  1.00  0.00    -0.133 A  
HETATM    8  C   UNL     1      -9.193   4.332  66.475  1.00  0.00    -0.149 A  
HETATM    9  C   UNL     1      -8.148   4.495  65.565  1.00  0.00    -0.109 A  
HETATM   10  O   UNL     1     -10.393   3.959  65.938  1.00  0.00    -0.432 OA 
HETATM   11  H   UNL     1     -10.524   3.822  65.008  1.00  0.00     0.000 HD 
HETATM   12  C   UNL     1      -6.884   4.838  66.031  1.00  0.00    -0.058 A  
HETATM   13  C   UNL     1      -6.655   5.017  67.388  1.00  0.00    -0.053 A  
HETATM   14  O   UNL     1      -5.832   5.001  65.179  1.00  0.00    -0.017 OA 
HETATM   15  H   UNL     1      -4.969   5.234  65.498  1.00  0.00     0.000 HD 
HETATM   16  C   UNL     1      -7.708   4.868  68.293  1.00  0.00    -0.082 A  
ENDBRANCH   6   7
ENDBRANCH   5   6
ENDBRANCH   4   5
ENDBRANCH   3   4
ENDBRANCH   2   3
TORSDOF 5
ENDMDL
MODEL      310
REMARK 921   NORMALIZED FREE ENERGY PREDICTED BY IDOCK:   -2.09 KCAL/MOL
REMARK 922        TOTAL FREE ENERGY PREDICTED BY IDOCK:   -3.11 KCAL/MOL
REMARK 923 INTER-LIGAND FREE ENERGY PREDICTED BY IDOCK:   -2.43 KCAL/MOL
REMARK 924 INTRA-LIGAND FREE ENERGY PREDICTED BY IDOCK:   -0.68 KCAL/MOL
REMARK 927      BINDING AFFINITY PREDICTED BY RF-SCORE:    0.00 PKD
ROOT
HETATM    1  C   UNL     1      -8.247   4.225  69.292  1.00  0.00    -0.077 C  
HETATM    2  C   UNL     1      -8.229   4.199  67.771  1.00  0.00    -0.094 C  
ENDROOT
BRANCH   2   3
HETATM    3  C   UNL     1      -6.803   4.309  67.233  1.00  0.00    -0.052 C  
BRANCH   3   4
HETATM    4  C   UNL     1      -6.693   5.360  66.128  1.00  0.00    -0.057 C  
BRANCH   4   5
HETATM    5  C   UNL     1      -7.907   6.291  66.135  1.00  0.00    -0.105 C  
BRANCH   5   6
HETATM    6  C   UNL     1      -7.553   7.668  66.695  1.00  0.00    -0.097 C  
BRANCH   6   7
HETATM    7  C   UNL     1      -8.761   8.366  67.273  1.00  0.00    -0.130 A  
HETATM    8  C   UNL     1      -9.625   9.166  66.512  1.00  0.00    -0.227 A  
HETATM    9  C   UNL     1     -10.750   9.762  67.081  1.00  0.00    -0.273 A  
HETATM   10  O   UNL     1      -9.429   9.419  65.184  1.00  0.00    -0.363 OA 
HETATM   11  H   UNL     1     -10.015   9.960  64.668  1.00  0.00     0.000 HD 
HETATM   12  C   UNL     1     -11.004   9.585  68.437  1.00  0.00    -0.069 A  
HETATM   13  C   UNL     1     -10.150   8.825  69.223  1.00  0.00    -0.206 A  
HETATM   14  O   UNL     1     -12.087  10.155  69.038  1.00  0.00    -0.545 OA 
HETATM   15  H   UNL     1     -12.260  10.034  69.964  1.00  0.00     0.000 HD 
HETATM   16  C   UNL     1      -9.034   8.217  68.644  1.00  0.00    -0.137 A  
ENDBRANCH   6   7
ENDBRANCH   5   6
ENDBRANCH   4   5
ENDBRANCH   3   4
ENDBRANCH   2   3
TORSDOF 5
ENDMDL
MODEL      311
REMARK 921   NORMALIZED FREE ENERGY PREDICTED BY IDOCK:   -2.05 KCAL/MOL
REMARK 922        TOTAL FREE ENERGY PREDICTED BY IDOCK:   -3.05 KCAL/MOL
REMARK 923 INTER-LIGAND FREE ENERGY PREDICTED BY IDOCK:   -3.03 KCAL/MOL
REMARK 924 INTRA-LIGAND FREE ENERGY PREDICTED BY IDOCK:   -0.03 KCAL/MOL
REMARK 927      BINDING AFFINITY PREDICTED BY RF-SCORE:    0.00 PKD
ROOT
HETATM    1  C   UNL     1     -11.811  10.649  69.212  1.00  0.00    -0.309 C  
HETATM    2  C   UNL     1     -10.599   9.869  68.726  1.00  0.00    -0.246 C  
ENDROOT
BRANCH   2   3
HETATM    3  C   UNL     1     -10.936   9.037  67.490  1.00  0.00     0.027 C  
BRANCH   3   4
HETATM    4  C   UNL     1      -9.898   7.941  67.243  1.00  0.00    -0.256 C  
BRANCH   4   5
HETATM    5  C   UNL     1     -10.041   6.811  68.264  1.00  0.00    -0.173 C  
BRANCH   5   6
HETATM    6  C   UNL     1      -9.403   7.183  69.603  1.00  0.00    -0.149 C  
BRANCH   6   7
HETATM    7  C   UNL     1      -9.922   6.321  70.730  1.00  0.00    -0.220 A  
HETATM    8  C   UNL     1     -11.244   6.374  71.192  1.00  0.00    -0.302 A  
HETATM    9  C   UNL     1     -11.688   5.532  72.212  1.00  0.00    -0.127 A  
HETATM   10  O   UNL     1     -12.174   7.241  70.692  1.00  0.00    -0.521 OA 
HETATM   11  H   UNL     1     -13.070   7.277  71.006  1.00  0.00     0.000 HD 
HETATM   12  C   UNL     1     -10.796   4.645  72.802  1.00  0.00    -0.185 A  
HETATM   13  C   UNL     1      -9.473   4.591  72.386  1.00  0.00    -0.176 A  
HETATM   14  O   UNL     1     -11.183   3.809  73.807  1.00  0.00    -0.225 OA 
HETATM   15  H   UNL     1     -10.574   3.203  74.210  1.00  0.00     0.000 HD 
HETATM   16  C   UNL     1      -9.037   5.424  71.354  1.00  0.00    -0.163 A  
ENDBRANCH   6   7
ENDBRANCH   5   6
ENDBRANCH   4   5
ENDBRANCH   3   4
ENDBRANCH   2   3
TORSDOF 5
ENDMDL
MODEL      312
REMARK 921   NORMALIZED FREE ENERGY PREDICTED BY IDOCK:   -2.04 KCAL/MOL
REMARK 922        TOTAL FREE ENERGY PREDICTED BY IDOCK:   -3.04 KCAL/MOL
REMARK 923 INTER-LIGAND FREE ENERGY PREDICTED BY IDOCK:   -2.65 KCAL/MOL
REMARK 924 INTRA-LIGAND FREE ENERGY PREDICTED BY IDOCK:   -0.39 KCAL/MOL
REMARK 927      BINDING AFFINITY PREDICTED BY RF-SCORE:    0.00 PKD
ROOT
HETATM    1  C   UNL     1      -5.975  12.579  69.390  1.00  0.00    -0.101 C  
HETATM    2  C   UNL     1      -6.888  12.710  68.180  1.00  0.00    -0.090 C  
ENDROOT
BRANCH   2   3
HETATM    3  C   UNL     1      -7.962  11.624  68.177  1.00  0.00    -0.141 C  
BRANCH   3   4
HETATM    4  C   UNL     1      -9.308  12.158  67.686  1.00  0.00    -0.187 C  
BRANCH   4   5
HETATM    5  C   UNL     1     -10.060  11.094  66.885  1.00  0.00    -0.250 C  
BRANCH   5   6
HETATM    6  C   UNL     1     -10.037  11.400  65.387  1.00  0.00    -0.308 C  
BRANCH   6   7
HETATM    7  C   UNL     1      -9.094  10.486  64.642  1.00  0.00    -0.248 A  
HETATM    8  C   UNL     1      -9.018  10.435  63.243  1.00  0.00    -0.232 A  
HETATM    9  C   UNL     1      -8.105   9.601  62.598  1.00  0.00    -0.131 A  
HETATM   10  O   UNL     1      -9.821  11.180  62.425  1.00  0.00    -0.571 OA 
HETATM   11  H   UNL     1      -9.768  11.145  61.478  1.00  0.00     0.000 HD 
HETATM   12  C   UNL     1      -7.276   8.781  63.355  1.00  0.00    -0.094 A  
HETATM   13  C   UNL     1      -7.349   8.788  64.740  1.00  0.00    -0.093 A  
HETATM   14  O   UNL     1      -6.374   7.945  62.767  1.00  0.00    -0.074 OA 
HETATM   15  H   UNL     1      -5.807   7.385  63.285  1.00  0.00     0.000 HD 
HETATM   16  C   UNL     1      -8.253   9.637  65.382  1.00  0.00    -0.129 A  
ENDBRANCH   6   7
ENDBRANCH   5   6
ENDBRANCH   4   5
ENDBRANCH   3   4
ENDBRANCH   2   3
TORSDOF 5
ENDMDL
MODEL      313
REMARK 921   NORMALIZED FREE ENERGY PREDICTED BY IDOCK:   -2.04 KCAL/MOL
REMARK 922        TOTAL FREE ENERGY PREDICTED BY IDOCK:   -3.04 KCAL/MOL
REMARK 923 INTER-LIGAND FREE ENERGY PREDICTED BY IDOCK:   -2.43 KCAL/MOL
REMARK 924 INTRA-LIGAND FREE ENERGY PREDICTED BY IDOCK:   -0.61 KCAL/MOL
REMARK 927      BINDING AFFINITY PREDICTED BY RF-SCORE:    0.00 PKD
ROOT
HETATM    1  C   UNL     1      -5.936  10.243  70.932  1.00  0.00    -0.054 C  
HETATM    2  C   UNL     1      -6.484  10.802  69.628  1.00  0.00    -0.103 C  
ENDROOT
BRANCH   2   3
HETATM    3  C   UNL     1      -6.633   9.705  68.575  1.00  0.00    -0.052 C  
BRANCH   3   4
HETATM    4  C   UNL     1      -6.224   8.336  69.121  1.00  0.00    -0.039 C  
BRANCH   4   5
HETATM    5  C   UNL     1      -7.240   7.263  68.726  1.00  0.00    -0.090 C  
BRANCH   5   6
HETATM    6  C   UNL     1      -8.649   7.843  68.603  1.00  0.00    -0.128 C  
BRANCH   6   7
HETATM    7  C   UNL     1      -9.560   7.341  69.698  1.00  0.00    -0.155 A  
HETATM    8  C   UNL     1     -10.009   6.016  69.777  1.00  0.00    -0.175 A  
HETATM    9  C   UNL     1     -10.821   5.588  70.827  1.00  0.00    -0.249 A  
HETATM   10  O   UNL     1      -9.696   5.066  68.846  1.00  0.00    -0.143 OA 
HETATM   11  H   UNL     1      -9.999   4.168  68.900  1.00  0.00     0.000 HD 
HETATM   12  C   UNL     1     -11.218   6.500  71.798  1.00  0.00    -0.269 A  
HETATM   13  C   UNL     1     -10.814   7.826  71.731  1.00  0.00    -0.277 A  
HETATM   14  O   UNL     1     -12.017   6.129  72.839  1.00  0.00    -0.496 OA 
HETATM   15  H   UNL     1     -12.288   6.752  73.502  1.00  0.00     0.000 HD 
HETATM   16  C   UNL     1      -9.988   8.245  70.686  1.00  0.00    -0.204 A  
ENDBRANCH   6   7
ENDBRANCH   5   6
ENDBRANCH   4   5
ENDBRANCH   3   4
ENDBRANCH   2   3
TORSDOF 5
ENDMDL
MODEL      314
REMARK 921   NORMALIZED FREE ENERGY PREDICTED BY IDOCK:   -2.04 KCAL/MOL
REMARK 922        TOTAL FREE ENERGY PREDICTED BY IDOCK:   -3.04 KCAL/MOL
REMARK 923 INTER-LIGAND FREE ENERGY PREDICTED BY IDOCK:   -2.59 KCAL/MOL
REMARK 924 INTRA-LIGAND FREE ENERGY PREDICTED BY IDOCK:   -0.45 KCAL/MOL
REMARK 927      BINDING AFFINITY PREDICTED BY RF-SCORE:    0.00 PKD
ROOT
HETATM    1  C   UNL     1      -5.405   9.770  67.265  1.00  0.00    -0.039 C  
HETATM    2  C   UNL     1      -6.095   9.346  65.977  1.00  0.00    -0.063 C  
ENDROOT
BRANCH   2   3
HETATM    3  C   UNL     1      -7.455  10.024  65.829  1.00  0.00    -0.121 C  
BRANCH   3   4
HETATM    4  C   UNL     1      -8.002  10.499  67.175  1.00  0.00    -0.116 C  
BRANCH   4   5
HETATM    5  C   UNL     1      -8.578   9.330  67.976  1.00  0.00    -0.121 C  
BRANCH   5   6
HETATM    6  C   UNL     1      -9.841   8.770  67.322  1.00  0.00    -0.260 C  
BRANCH   6   7
HETATM    7  C   UNL     1      -9.756   7.276  67.123  1.00  0.00    -0.218 A  
HETATM    8  C   UNL     1     -10.500   6.356  67.875  1.00  0.00    -0.222 A  
HETATM    9  C   UNL     1     -10.416   4.985  67.631  1.00  0.00    -0.074 A  
HETATM   10  O   UNL     1     -11.341   6.728  68.886  1.00  0.00    -0.526 OA 
HETATM   11  H   UNL     1     -11.846   6.104  69.395  1.00  0.00     0.000 HD 
HETATM   12  C   UNL     1      -9.555   4.519  66.644  1.00  0.00    -0.190 A  
HETATM   13  C   UNL     1      -8.783   5.403  65.904  1.00  0.00    -0.145 A  
HETATM   14  O   UNL     1      -9.435   3.187  66.376  1.00  0.00    -0.332 OA 
HETATM   15  H   UNL     1      -8.847   2.869  65.702  1.00  0.00     0.000 HD 
HETATM   16  C   UNL     1      -8.883   6.775  66.141  1.00  0.00    -0.161 A  
ENDBRANCH   6   7
ENDBRANCH   5   6
ENDBRANCH   4   5
ENDBRANCH   3   4
ENDBRANCH   2   3
TORSDOF 5
ENDMDL
MODEL      315
REMARK 921   NORMALIZED FREE ENERGY PREDICTED BY IDOCK:   -2.03 KCAL/MOL
REMARK 922        TOTAL FREE ENERGY PREDICTED BY IDOCK:   -3.02 KCAL/MOL
REMARK 923 INTER-LIGAND FREE ENERGY PREDICTED BY IDOCK:   -2.94 KCAL/MOL
REMARK 924 INTRA-LIGAND FREE ENERGY PREDICTED BY IDOCK:   -0.08 KCAL/MOL
REMARK 927      BINDING AFFINITY PREDICTED BY RF-SCORE:    0.00 PKD
ROOT
HETATM    1  C   UNL     1      -5.404  12.034  71.667  1.00  0.00     0.161 C  
HETATM    2  C   UNL     1      -5.128  12.174  70.178  1.00  0.00    -0.084 C  
ENDROOT
BRANCH   2   3
HETATM    3  C   UNL     1      -6.408  12.012  69.360  1.00  0.00    -0.116 C  
BRANCH   3   4
HETATM    4  C   UNL     1      -7.296  13.254  69.443  1.00  0.00     0.313 C  
BRANCH   4   5
HETATM    5  C   UNL     1      -7.652  13.768  68.047  1.00  0.00    -0.145 C  
BRANCH   5   6
HETATM    6  C   UNL     1      -8.297  12.674  67.195  1.00  0.00    -0.172 C  
BRANCH   6   7
HETATM    7  C   UNL     1      -9.645  13.098  66.663  1.00  0.00    -0.260 A  
HETATM    8  C   UNL     1      -9.839  14.255  65.895  1.00  0.00    -0.298 A  
HETATM    9  C   UNL     1     -11.097  14.588  65.394  1.00  0.00    -0.345 A  
HETATM   10  O   UNL     1      -8.831  15.126  65.592  1.00  0.00    -0.253 OA 
HETATM   11  H   UNL     1      -8.963  15.909  65.071  1.00  0.00     0.000 HD 
HETATM   12  C   UNL     1     -12.186  13.775  65.687  1.00  0.00    -0.454 A  
HETATM   13  C   UNL     1     -12.031  12.640  66.470  1.00  0.00    -0.401 A  
HETATM   14  O   UNL     1     -13.436  14.065  65.225  1.00  0.00    -0.622 OA 
HETATM   15  H   UNL     1     -14.179  13.510  65.424  1.00  0.00     0.000 HD 
HETATM   16  C   UNL     1     -10.766  12.302  66.955  1.00  0.00    -0.263 A  
ENDBRANCH   6   7
ENDBRANCH   5   6
ENDBRANCH   4   5
ENDBRANCH   3   4
ENDBRANCH   2   3
TORSDOF 5
ENDMDL
MODEL      316
REMARK 921   NORMALIZED FREE ENERGY PREDICTED BY IDOCK:   -2.02 KCAL/MOL
REMARK 922        TOTAL FREE ENERGY PREDICTED BY IDOCK:   -3.01 KCAL/MOL
REMARK 923 INTER-LIGAND FREE ENERGY PREDICTED BY IDOCK:   -3.01 KCAL/MOL
REMARK 924 INTRA-LIGAND FREE ENERGY PREDICTED BY IDOCK:    0.00 KCAL/MOL
REMARK 927      BINDING AFFINITY PREDICTED BY RF-SCORE:    0.00 PKD
ROOT
HETATM    1  C   UNL     1      -8.538   4.977  66.847  1.00  0.00    -0.105 C  
HETATM    2  C   UNL     1      -7.768   4.435  68.041  1.00  0.00    -0.080 C  
ENDROOT
BRANCH   2   3
HETATM    3  C   UNL     1      -8.032   5.268  69.294  1.00  0.00    -0.088 C  
BRANCH   3   4
HETATM    4  C   UNL     1      -9.153   4.672  70.146  1.00  0.00    -0.154 C  
BRANCH   4   5
HETATM    5  C   UNL     1     -10.464   5.431  69.935  1.00  0.00    -0.378 C  
BRANCH   5   6
HETATM    6  C   UNL     1     -10.366   6.871  70.440  1.00  0.00    -0.221 C  
BRANCH   6   7
HETATM    7  C   UNL     1     -10.118   7.845  69.313  1.00  0.00    -0.197 A  
HETATM    8  C   UNL     1     -10.657   7.688  68.029  1.00  0.00    -0.151 A  
HETATM    9  C   UNL     1     -10.431   8.633  67.028  1.00  0.00    -0.354 A  
HETATM   10  O   UNL     1     -11.422   6.615  67.668  1.00  0.00    -0.687 OA 
HETATM   11  H   UNL     1     -11.788   6.509  66.797  1.00  0.00     0.000 HD 
HETATM   12  C   UNL     1      -9.631   9.738  67.301  1.00  0.00    -0.157 A  
HETATM   13  C   UNL     1      -9.060   9.905  68.554  1.00  0.00    -0.125 A  
HETATM   14  O   UNL     1      -9.376  10.683  66.352  1.00  0.00    -0.163 OA 
HETATM   15  H   UNL     1      -8.831  11.437  66.538  1.00  0.00     0.000 HD 
HETATM   16  C   UNL     1      -9.302   8.964  69.557  1.00  0.00    -0.155 A  
ENDBRANCH   6   7
ENDBRANCH   5   6
ENDBRANCH   4   5
ENDBRANCH   3   4
ENDBRANCH   2   3
TORSDOF 5
ENDMDL
MODEL      317
REMARK 921   NORMALIZED FREE ENERGY PREDICTED BY IDOCK:   -1.99 KCAL/MOL
REMARK 922        TOTAL FREE ENERGY PREDICTED BY IDOCK:   -2.98 KCAL/MOL
REMARK 923 INTER-LIGAND FREE ENERGY PREDICTED BY IDOCK:   -2.61 KCAL/MOL
REMARK 924 INTRA-LIGAND FREE ENERGY PREDICTED BY IDOCK:   -0.37 KCAL/MOL
REMARK 927      BINDING AFFINITY PREDICTED BY RF-SCORE:    0.00 PKD
ROOT
HETATM    1  C   UNL     1      -9.072   8.427  72.023  1.00  0.00    -0.296 C  
HETATM    2  C   UNL     1     -10.514   8.911  71.995  1.00  0.00    -0.383 C  
ENDROOT
BRANCH   2   3
HETATM    3  C   UNL     1     -11.244   8.402  70.753  1.00  0.00    -0.290 C  
BRANCH   3   4
HETATM    4  C   UNL     1     -11.001   9.304  69.543  1.00  0.00    -0.169 C  
BRANCH   4   5
HETATM    5  C   UNL     1     -10.369   8.518  68.393  1.00  0.00    -0.241 C  
BRANCH   5   6
HETATM    6  C   UNL     1      -9.274   9.328  67.697  1.00  0.00    -0.139 C  
BRANCH   6   7
HETATM    7  C   UNL     1      -8.801   8.658  66.428  1.00  0.00    -0.167 A  
HETATM    8  C   UNL     1      -8.847   9.274  65.170  1.00  0.00    -0.198 A  
HETATM    9  C   UNL     1      -8.365   8.630  64.030  1.00  0.00    -0.125 A  
HETATM   10  O   UNL     1      -9.362  10.524  64.971  1.00  0.00    -0.188 OA 
HETATM   11  H   UNL     1      -9.392  10.942  64.119  1.00  0.00     0.000 HD 
HETATM   12  C   UNL     1      -7.858   7.340  64.139  1.00  0.00    -0.118 A  
HETATM   13  C   UNL     1      -7.828   6.693  65.365  1.00  0.00    -0.111 A  
HETATM   14  O   UNL     1      -7.383   6.669  63.051  1.00  0.00    -0.061 OA 
HETATM   15  H   UNL     1      -7.036   5.788  63.124  1.00  0.00     0.000 HD 
HETATM   16  C   UNL     1      -8.296   7.348  66.506  1.00  0.00    -0.124 A  
ENDBRANCH   6   7
ENDBRANCH   5   6
ENDBRANCH   4   5
ENDBRANCH   3   4
ENDBRANCH   2   3
TORSDOF 5
ENDMDL
MODEL      318
REMARK 921   NORMALIZED FREE ENERGY PREDICTED BY IDOCK:   -1.93 KCAL/MOL
REMARK 922        TOTAL FREE ENERGY PREDICTED BY IDOCK:   -2.90 KCAL/MOL
REMARK 923 INTER-LIGAND FREE ENERGY PREDICTED BY IDOCK:   -2.92 KCAL/MOL
REMARK 924 INTRA-LIGAND FREE ENERGY PREDICTED BY IDOCK:    0.03 KCAL/MOL
REMARK 927      BINDING AFFINITY PREDICTED BY RF-SCORE:    0.00 PKD
ROOT
HETATM    1  C   UNL     1      -6.966   9.406  71.698  1.00  0.00     0.231 C  
HETATM    2  C   UNL     1      -8.084   8.453  71.305  1.00  0.00    -0.152 C  
ENDROOT
BRANCH   2   3
HETATM    3  C   UNL     1      -7.687   7.599  70.103  1.00  0.00    -0.091 C  
BRANCH   3   4
HETATM    4  C   UNL     1      -7.419   8.453  68.863  1.00  0.00    -0.091 C  
BRANCH   4   5
HETATM    5  C   UNL     1      -8.305   9.700  68.855  1.00  0.00    -0.116 C  
BRANCH   5   6
HETATM    6  C   UNL     1      -9.773   9.343  68.622  1.00  0.00    -0.160 C  
BRANCH   6   7
HETATM    7  C   UNL     1     -10.700  10.228  69.420  1.00  0.00    -0.272 A  
HETATM    8  C   UNL     1     -11.394   9.789  70.557  1.00  0.00    -0.314 A  
HETATM    9  C   UNL     1     -12.212  10.654  71.284  1.00  0.00    -0.447 A  
HETATM   10  O   UNL     1     -11.326   8.506  71.022  1.00  0.00    -0.259 OA 
HETATM   11  H   UNL     1     -11.795   8.209  71.792  1.00  0.00     0.000 HD 
HETATM   12  C   UNL     1     -12.367  11.968  70.857  1.00  0.00    -0.285 A  
HETATM   13  C   UNL     1     -11.717  12.423  69.719  1.00  0.00    -0.361 A  
HETATM   14  O   UNL     1     -13.162  12.846  71.532  1.00  0.00    -0.349 OA 
HETATM   15  H   UNL     1     -13.267  13.744  71.241  1.00  0.00     0.000 HD 
HETATM   16  C   UNL     1     -10.886  11.558  69.003  1.00  0.00    -0.258 A  
ENDBRANCH   6   7
ENDBRANCH   5   6
ENDBRANCH   4   5
ENDBRANCH   3   4
ENDBRANCH   2   3
TORSDOF 5
ENDMDL
MODEL      319
REMARK 921   NORMALIZED FREE ENERGY PREDICTED BY IDOCK:   -1.91 KCAL/MOL
REMARK 922        TOTAL FREE ENERGY PREDICTED BY IDOCK:   -2.87 KCAL/MOL
REMARK 923 INTER-LIGAND FREE ENERGY PREDICTED BY IDOCK:   -2.49 KCAL/MOL
REMARK 924 INTRA-LIGAND FREE ENERGY PREDICTED BY IDOCK:   -0.38 KCAL/MOL
REMARK 927      BINDING AFFINITY PREDICTED BY RF-SCORE:    0.00 PKD
ROOT
HETATM    1  C   UNL     1      -5.517   9.667  67.116  1.00  0.00    -0.043 C  
HETATM    2  C   UNL     1      -6.786   9.536  66.289  1.00  0.00    -0.086 C  
ENDROOT
BRANCH   2   3
HETATM    3  C   UNL     1      -7.808  10.605  66.671  1.00  0.00    -0.135 C  
BRANCH   3   4
HETATM    4  C   UNL     1      -7.441  11.297  67.984  1.00  0.00    -0.095 C  
BRANCH   4   5
HETATM    5  C   UNL     1      -8.309  12.537  68.211  1.00  0.00    -0.167 C  
BRANCH   5   6
HETATM    6  C   UNL     1      -7.919  13.674  67.266  1.00  0.00    -0.129 C  
BRANCH   6   7
HETATM    7  C   UNL     1      -8.688  14.939  67.565  1.00  0.00    -0.197 A  
HETATM    8  C   UNL     1      -8.078  16.125  67.997  1.00  0.00    -0.146 A  
HETATM    9  C   UNL     1      -8.824  17.281  68.225  1.00  0.00    -0.258 A  
HETATM   10  O   UNL     1      -6.735  16.232  68.227  1.00  0.00    -0.125 OA 
HETATM   11  H   UNL     1      -6.322  17.035  68.519  1.00  0.00     0.000 HD 
HETATM   12  C   UNL     1     -10.203  17.249  68.051  1.00  0.00    -0.332 A  
HETATM   13  C   UNL     1     -10.838  16.082  67.653  1.00  0.00    -0.311 A  
HETATM   14  O   UNL     1     -10.974  18.353  68.269  1.00  0.00    -0.238 OA 
HETATM   15  H   UNL     1     -11.915  18.331  68.150  1.00  0.00     0.000 HD 
HETATM   16  C   UNL     1     -10.085  14.932  67.410  1.00  0.00    -0.228 A  
ENDBRANCH   6   7
ENDBRANCH   5   6
ENDBRANCH   4   5
ENDBRANCH   3   4
ENDBRANCH   2   3
TORSDOF 5
ENDMDL
MODEL      320
REMARK 921   NORMALIZED FREE ENERGY PREDICTED BY IDOCK:   -1.90 KCAL/MOL
REMARK 922        TOTAL FREE ENERGY PREDICTED BY IDOCK:   -2.87 KCAL/MOL
REMARK 923 INTER-LIGAND FREE ENERGY PREDICTED BY IDOCK:   -2.40 KCAL/MOL
REMARK 924 INTRA-LIGAND FREE ENERGY PREDICTED BY IDOCK:   -0.47 KCAL/MOL
REMARK 927      BINDING AFFINITY PREDICTED BY RF-SCORE:    0.00 PKD
ROOT
HETATM    1  C   UNL     1      -9.871   7.249  70.855  1.00  0.00    -0.184 C  
HETATM    2  C   UNL     1     -10.491   7.484  69.486  1.00  0.00    -0.227 C  
ENDROOT
BRANCH   2   3
HETATM    3  C   UNL     1     -10.630   6.176  68.709  1.00  0.00    -0.330 C  
BRANCH   3   4
HETATM    4  C   UNL     1     -11.146   6.411  67.289  1.00  0.00    -0.416 C  
BRANCH   4   5
HETATM    5  C   UNL     1     -10.101   7.137  66.439  1.00  0.00    -0.051 C  
BRANCH   5   6
HETATM    6  C   UNL     1      -8.743   6.437  66.502  1.00  0.00    -0.133 C  
BRANCH   6   7
HETATM    7  C   UNL     1      -8.735   5.155  65.705  1.00  0.00    -0.143 A  
HETATM    8  C   UNL     1      -8.673   5.121  64.304  1.00  0.00    -0.071 A  
HETATM    9  C   UNL     1      -8.631   3.911  63.611  1.00  0.00    -0.096 A  
HETATM   10  O   UNL     1      -8.656   6.247  63.531  1.00  0.00    -0.328 OA 
HETATM   11  H   UNL     1      -8.613   6.224  62.583  1.00  0.00     0.000 HD 
HETATM   12  C   UNL     1      -8.683   2.716  64.320  1.00  0.00    -0.093 A  
HETATM   13  C   UNL     1      -8.775   2.718  65.704  1.00  0.00    -0.128 A  
HETATM   14  O   UNL     1      -8.652   1.510  63.684  1.00  0.00    -0.075 OA 
HETATM   15  H   UNL     1      -8.687   0.694  64.168  1.00  0.00     0.000 HD 
HETATM   16  C   UNL     1      -8.800   3.932  66.395  1.00  0.00    -0.125 A  
ENDBRANCH   6   7
ENDBRANCH   5   6
ENDBRANCH   4   5
ENDBRANCH   3   4
ENDBRANCH   2   3
TORSDOF 5
ENDMDL
MODEL      321
REMARK 921   NORMALIZED FREE ENERGY PREDICTED BY IDOCK:   -1.90 KCAL/MOL
REMARK 922        TOTAL FREE ENERGY PREDICTED BY IDOCK:   -2.86 KCAL/MOL
REMARK 923 INTER-LIGAND FREE ENERGY PREDICTED BY IDOCK:   -2.57 KCAL/MOL
REMARK 924 INTRA-LIGAND FREE ENERGY PREDICTED BY IDOCK:   -0.30 KCAL/MOL
REMARK 927      BINDING AFFINITY PREDICTED BY RF-SCORE:    0.00 PKD
ROOT
HETATM    1  C   UNL     1     -11.558  12.065  69.092  1.00  0.00    -0.370 C  
HETATM    2  C   UNL     1     -11.902  10.742  69.760  1.00  0.00    -0.409 C  
ENDROOT
BRANCH   2   3
HETATM    3  C   UNL     1     -10.653  10.064  70.321  1.00  0.00    -0.354 C  
BRANCH   3   4
HETATM    4  C   UNL     1     -10.200   8.895  69.445  1.00  0.00    -0.210 C  
BRANCH   4   5
HETATM    5  C   UNL     1      -9.144   8.052  70.160  1.00  0.00    -0.151 C  
BRANCH   5   6
HETATM    6  C   UNL     1      -9.702   6.691  70.578  1.00  0.00    -0.187 C  
BRANCH   6   7
HETATM    7  C   UNL     1      -8.867   6.050  71.660  1.00  0.00    -0.139 A  
HETATM    8  C   UNL     1      -9.415   5.310  72.717  1.00  0.00    -0.142 A  
HETATM    9  C   UNL     1      -8.602   4.704  73.676  1.00  0.00    -0.104 A  
HETATM   10  O   UNL     1     -10.760   5.136  72.887  1.00  0.00    -0.213 OA 
HETATM   11  H   UNL     1     -11.131   4.634  73.603  1.00  0.00     0.000 HD 
HETATM   12  C   UNL     1      -7.223   4.863  73.599  1.00  0.00    -0.082 A  
HETATM   13  C   UNL     1      -6.653   5.614  72.581  1.00  0.00    -0.067 A  
HETATM   14  O   UNL     1      -6.389   4.296  74.517  1.00  0.00    -0.046 OA 
HETATM   15  H   UNL     1      -5.447   4.403  74.464  1.00  0.00     0.000 HD 
HETATM   16  C   UNL     1      -7.470   6.205  71.615  1.00  0.00    -0.094 A  
ENDBRANCH   6   7
ENDBRANCH   5   6
ENDBRANCH   4   5
ENDBRANCH   3   4
ENDBRANCH   2   3
TORSDOF 5
ENDMDL
MODEL      322
REMARK 921   NORMALIZED FREE ENERGY PREDICTED BY IDOCK:   -1.88 KCAL/MOL
REMARK 922        TOTAL FREE ENERGY PREDICTED BY IDOCK:   -2.83 KCAL/MOL
REMARK 923 INTER-LIGAND FREE ENERGY PREDICTED BY IDOCK:   -2.51 KCAL/MOL
REMARK 924 INTRA-LIGAND FREE ENERGY PREDICTED BY IDOCK:   -0.32 KCAL/MOL
REMARK 927      BINDING AFFINITY PREDICTED BY RF-SCORE:    0.00 PKD
ROOT
HETATM    1  C   UNL     1      -7.148  11.196  66.117  1.00  0.00     0.003 C  
HETATM    2  C   UNL     1      -8.560  11.434  66.628  1.00  0.00    -0.170 C  
ENDROOT
BRANCH   2   3
HETATM    3  C   UNL     1      -8.654  11.187  68.132  1.00  0.00    -0.140 C  
BRANCH   3   4
HETATM    4  C   UNL     1      -9.631  10.058  68.462  1.00  0.00    -0.157 C  
BRANCH   4   5
HETATM    5  C   UNL     1     -10.090  10.140  69.919  1.00  0.00    -0.268 C  
BRANCH   5   6
HETATM    6  C   UNL     1     -10.948   8.934  70.304  1.00  0.00    -0.266 C  
BRANCH   6   7
HETATM    7  C   UNL     1     -10.295   8.101  71.381  1.00  0.00    -0.258 A  
HETATM    8  C   UNL     1      -9.299   7.150  71.118  1.00  0.00    -0.157 A  
HETATM    9  C   UNL     1      -8.697   6.428  72.149  1.00  0.00    -0.132 A  
HETATM   10  O   UNL     1      -8.858   6.860  69.857  1.00  0.00    -0.141 OA 
HETATM   11  H   UNL     1      -8.184   6.216  69.680  1.00  0.00     0.000 HD 
HETATM   12  C   UNL     1      -9.113   6.634  73.460  1.00  0.00    -0.128 A  
HETATM   13  C   UNL     1     -10.117   7.547  73.748  1.00  0.00    -0.265 A  
HETATM   14  O   UNL     1      -8.559   5.946  74.498  1.00  0.00    -0.117 OA 
HETATM   15  H   UNL     1      -8.843   6.087  75.393  1.00  0.00     0.000 HD 
HETATM   16  C   UNL     1     -10.705   8.279  72.714  1.00  0.00    -0.313 A  
ENDBRANCH   6   7
ENDBRANCH   5   6
ENDBRANCH   4   5
ENDBRANCH   3   4
ENDBRANCH   2   3
TORSDOF 5
ENDMDL
MODEL      323
REMARK 921   NORMALIZED FREE ENERGY PREDICTED BY IDOCK:   -1.86 KCAL/MOL
REMARK 922        TOTAL FREE ENERGY PREDICTED BY IDOCK:   -2.81 KCAL/MOL
REMARK 923 INTER-LIGAND FREE ENERGY PREDICTED BY IDOCK:   -2.45 KCAL/MOL
REMARK 924 INTRA-LIGAND FREE ENERGY PREDICTED BY IDOCK:   -0.35 KCAL/MOL
REMARK 927      BINDING AFFINITY PREDICTED BY RF-SCORE:    0.00 PKD
ROOT
HETATM    1  C   UNL     1      -7.513   5.767  64.443  1.00  0.00    -0.075 C  
HETATM    2  C   UNL     1      -7.907   7.236  64.474  1.00  0.00    -0.121 C  
ENDROOT
BRANCH   2   3
HETATM    3  C   UNL     1      -8.956   7.505  65.552  1.00  0.00     0.056 C  
BRANCH   3   4
HETATM    4  C   UNL     1      -8.837   8.921  66.118  1.00  0.00    -0.193 C  
BRANCH   4   5
HETATM    5  C   UNL     1      -8.699   8.891  67.641  1.00  0.00    -0.124 C  
BRANCH   5   6
HETATM    6  C   UNL     1      -9.892   8.198  68.299  1.00  0.00    -0.191 C  
BRANCH   6   7
HETATM    7  C   UNL     1      -9.675   7.992  69.780  1.00  0.00    -0.176 A  
HETATM    8  C   UNL     1      -9.913   8.988  70.737  1.00  0.00    -0.245 A  
HETATM    9  C   UNL     1      -9.734   8.741  72.098  1.00  0.00    -0.335 A  
HETATM   10  O   UNL     1     -10.324  10.251  70.413  1.00  0.00    -0.423 OA 
HETATM   11  H   UNL     1     -10.486  10.925  71.062  1.00  0.00     0.000 HD 
HETATM   12  C   UNL     1      -9.282   7.493  72.512  1.00  0.00    -0.147 A  
HETATM   13  C   UNL     1      -9.009   6.497  71.585  1.00  0.00    -0.143 A  
HETATM   14  O   UNL     1      -9.085   7.209  73.831  1.00  0.00    -0.177 OA 
HETATM   15  H   UNL     1      -8.777   6.357  74.113  1.00  0.00     0.000 HD 
HETATM   16  C   UNL     1      -9.206   6.744  70.225  1.00  0.00    -0.156 A  
ENDBRANCH   6   7
ENDBRANCH   5   6
ENDBRANCH   4   5
ENDBRANCH   3   4
ENDBRANCH   2   3
TORSDOF 5
ENDMDL
MODEL      324
REMARK 921   NORMALIZED FREE ENERGY PREDICTED BY IDOCK:   -1.84 KCAL/MOL
REMARK 922        TOTAL FREE ENERGY PREDICTED BY IDOCK:   -2.79 KCAL/MOL
REMARK 923 INTER-LIGAND FREE ENERGY PREDICTED BY IDOCK:   -2.29 KCAL/MOL
REMARK 924 INTRA-LIGAND FREE ENERGY PREDICTED BY IDOCK:   -0.50 KCAL/MOL
REMARK 927      BINDING AFFINITY PREDICTED BY RF-SCORE:    0.00 PKD
ROOT
HETATM    1  C   UNL     1      -5.834  10.255  67.229  1.00  0.00    -0.049 C  
HETATM    2  C   UNL     1      -6.638  10.536  65.970  1.00  0.00    -0.127 C  
ENDROOT
BRANCH   2   3
HETATM    3  C   UNL     1      -7.656   9.429  65.705  1.00  0.00    -0.095 C  
BRANCH   3   4
HETATM    4  C   UNL     1      -8.389   9.015  66.981  1.00  0.00    -0.116 C  
BRANCH   4   5
HETATM    5  C   UNL     1      -8.067   7.566  67.353  1.00  0.00    -0.116 C  
BRANCH   5   6
HETATM    6  C   UNL     1      -7.467   6.805  66.171  1.00  0.00    -0.081 C  
BRANCH   6   7
HETATM    7  C   UNL     1      -8.445   5.812  65.588  1.00  0.00    -0.149 A  
HETATM    8  C   UNL     1      -8.257   5.185  64.348  1.00  0.00    -0.130 A  
HETATM    9  C   UNL     1      -9.170   4.247  63.866  1.00  0.00    -0.143 A  
HETATM   10  O   UNL     1      -7.191   5.447  63.535  1.00  0.00    -0.046 OA 
HETATM   11  H   UNL     1      -7.063   5.022  62.695  1.00  0.00     0.000 HD 
HETATM   12  C   UNL     1     -10.303   3.950  64.614  1.00  0.00    -0.202 A  
HETATM   13  C   UNL     1     -10.531   4.576  65.831  1.00  0.00    -0.262 A  
HETATM   14  O   UNL     1     -11.225   3.045  64.179  1.00  0.00    -0.602 OA 
HETATM   15  H   UNL     1     -11.999   2.841  64.690  1.00  0.00     0.000 HD 
HETATM   16  C   UNL     1      -9.606   5.503  66.317  1.00  0.00    -0.173 A  
ENDBRANCH   6   7
ENDBRANCH   5   6
ENDBRANCH   4   5
ENDBRANCH   3   4
ENDBRANCH   2   3
TORSDOF 5
ENDMDL
MODEL      325
REMARK 921   NORMALIZED FREE ENERGY PREDICTED BY IDOCK:   -1.82 KCAL/MOL
REMARK 922        TOTAL FREE ENERGY PREDICTED BY IDOCK:   -2.76 KCAL/MOL
REMARK 923 INTER-LIGAND FREE ENERGY PREDICTED BY IDOCK:   -2.29 KCAL/MOL
REMARK 924 INTRA-LIGAND FREE ENERGY PREDICTED BY IDOCK:   -0.47 KCAL/MOL
REMARK 927      BINDING AFFINITY PREDICTED BY RF-SCORE:    0.00 PKD
ROOT
HETATM    1  C   UNL     1      -6.039  10.180  70.708  1.00  0.00    -0.084 C  
HETATM    2  C   UNL     1      -6.275  10.724  69.307  1.00  0.00    -0.052 C  
ENDROOT
BRANCH   2   3
HETATM    3  C   UNL     1      -6.607   9.600  68.326  1.00  0.00    -0.057 C  
BRANCH   3   4
HETATM    4  C   UNL     1      -7.002   8.313  69.051  1.00  0.00    -0.061 C  
BRANCH   4   5
HETATM    5  C   UNL     1      -7.970   7.484  68.205  1.00  0.00    -0.123 C  
BRANCH   5   6
HETATM    6  C   UNL     1      -9.140   8.329  67.701  1.00  0.00    -0.139 C  
BRANCH   6   7
HETATM    7  C   UNL     1      -9.953   8.898  68.840  1.00  0.00    -0.199 A  
HETATM    8  C   UNL     1     -10.530   8.106  69.843  1.00  0.00    -0.226 A  
HETATM    9  C   UNL     1     -11.244   8.678  70.896  1.00  0.00    -0.311 A  
HETATM   10  O   UNL     1     -10.444   6.742  69.858  1.00  0.00    -0.196 OA 
HETATM   11  H   UNL     1     -10.834   6.206  70.538  1.00  0.00     0.000 HD 
HETATM   12  C   UNL     1     -11.411  10.058  70.937  1.00  0.00    -0.371 A  
HETATM   13  C   UNL     1     -10.878  10.865  69.942  1.00  0.00    -0.205 A  
HETATM   14  O   UNL     1     -12.107  10.660  71.943  1.00  0.00    -0.048 OA 
HETATM   15  H   UNL     1     -12.222  11.603  71.971  1.00  0.00     0.000 HD 
HETATM   16  C   UNL     1     -10.151  10.288  68.899  1.00  0.00    -0.216 A  
ENDBRANCH   6   7
ENDBRANCH   5   6
ENDBRANCH   4   5
ENDBRANCH   3   4
ENDBRANCH   2   3
TORSDOF 5
ENDMDL
MODEL      326
REMARK 921   NORMALIZED FREE ENERGY PREDICTED BY IDOCK:   -1.81 KCAL/MOL
REMARK 922        TOTAL FREE ENERGY PREDICTED BY IDOCK:   -2.74 KCAL/MOL
REMARK 923 INTER-LIGAND FREE ENERGY PREDICTED BY IDOCK:   -2.37 KCAL/MOL
REMARK 924 INTRA-LIGAND FREE ENERGY PREDICTED BY IDOCK:   -0.37 KCAL/MOL
REMARK 927      BINDING AFFINITY PREDICTED BY RF-SCORE:    0.00 PKD
ROOT
HETATM    1  C   UNL     1      -5.948  10.436  64.170  1.00  0.00    -0.103 C  
HETATM    2  C   UNL     1      -6.868   9.299  63.749  1.00  0.00    -0.092 C  
ENDROOT
BRANCH   2   3
HETATM    3  C   UNL     1      -6.848   8.164  64.770  1.00  0.00    -0.067 C  
BRANCH   3   4
HETATM    4  C   UNL     1      -7.946   7.135  64.496  1.00  0.00    -0.104 C  
BRANCH   4   5
HETATM    5  C   UNL     1      -7.875   5.980  65.496  1.00  0.00    -0.105 C  
BRANCH   5   6
HETATM    6  C   UNL     1      -9.182   5.832  66.275  1.00  0.00    -0.168 C  
BRANCH   6   7
HETATM    7  C   UNL     1      -9.246   6.778  67.450  1.00  0.00    -0.130 A  
HETATM    8  C   UNL     1     -10.448   7.194  68.039  1.00  0.00    -0.201 A  
HETATM    9  C   UNL     1     -10.457   8.041  69.147  1.00  0.00    -0.217 A  
HETATM   10  O   UNL     1     -11.676   6.813  67.575  1.00  0.00    -0.548 OA 
HETATM   11  H   UNL     1     -12.490   7.095  67.973  1.00  0.00     0.000 HD 
HETATM   12  C   UNL     1      -9.251   8.505  69.660  1.00  0.00    -0.157 A  
HETATM   13  C   UNL     1      -8.047   8.135  69.081  1.00  0.00    -0.121 A  
HETATM   14  O   UNL     1      -9.212   9.341  70.737  1.00  0.00    -0.240 OA 
HETATM   15  H   UNL     1      -8.388   9.658  71.088  1.00  0.00     0.000 HD 
HETATM   16  C   UNL     1      -8.042   7.274  67.981  1.00  0.00    -0.120 A  
ENDBRANCH   6   7
ENDBRANCH   5   6
ENDBRANCH   4   5
ENDBRANCH   3   4
ENDBRANCH   2   3
TORSDOF 5
ENDMDL
MODEL      327
REMARK 921   NORMALIZED FREE ENERGY PREDICTED BY IDOCK:   -1.79 KCAL/MOL
REMARK 922        TOTAL FREE ENERGY PREDICTED BY IDOCK:   -2.73 KCAL/MOL
REMARK 923 INTER-LIGAND FREE ENERGY PREDICTED BY IDOCK:   -1.89 KCAL/MOL
REMARK 924 INTRA-LIGAND FREE ENERGY PREDICTED BY IDOCK:   -0.83 KCAL/MOL
REMARK 927      BINDING AFFINITY PREDICTED BY RF-SCORE:    0.00 PKD
ROOT
HETATM    1  C   UNL     1      -9.492   4.194  69.120  1.00  0.00    -0.248 C  
HETATM    2  C   UNL     1      -8.930   3.809  67.760  1.00  0.00    -0.161 C  
ENDROOT
BRANCH   2   3
HETATM    3  C   UNL     1      -7.405   3.895  67.746  1.00  0.00    -0.067 C  
BRANCH   3   4
HETATM    4  C   UNL     1      -6.906   4.957  66.766  1.00  0.00    -0.062 C  
BRANCH   4   5
HETATM    5  C   UNL     1      -7.887   6.128  66.680  1.00  0.00    -0.104 C  
BRANCH   5   6
HETATM    6  C   UNL     1      -7.413   7.319  67.513  1.00  0.00    -0.101 C  
BRANCH   6   7
HETATM    7  C   UNL     1      -8.226   7.481  68.775  1.00  0.00    -0.129 A  
HETATM    8  C   UNL     1      -7.670   7.427  70.061  1.00  0.00    -0.095 A  
HETATM    9  C   UNL     1      -8.455   7.618  71.198  1.00  0.00    -0.116 A  
HETATM   10  O   UNL     1      -6.346   7.181  70.290  1.00  0.00    -0.033 OA 
HETATM   11  H   UNL     1      -5.969   7.145  71.161  1.00  0.00     0.000 HD 
HETATM   12  C   UNL     1      -9.821   7.837  71.055  1.00  0.00    -0.174 A  
HETATM   13  C   UNL     1     -10.405   7.866  69.798  1.00  0.00    -0.219 A  
HETATM   14  O   UNL     1     -10.628   8.022  72.139  1.00  0.00    -0.233 OA 
HETATM   15  H   UNL     1     -11.561   8.172  72.041  1.00  0.00     0.000 HD 
HETATM   16  C   UNL     1      -9.612   7.690  68.661  1.00  0.00    -0.152 A  
ENDBRANCH   6   7
ENDBRANCH   5   6
ENDBRANCH   4   5
ENDBRANCH   3   4
ENDBRANCH   2   3
TORSDOF 5
ENDMDL
MODEL      328
REMARK 921   NORMALIZED FREE ENERGY PREDICTED BY IDOCK:   -1.78 KCAL/MOL
REMARK 922        TOTAL FREE ENERGY PREDICTED BY IDOCK:   -2.70 KCAL/MOL
REMARK 923 INTER-LIGAND FREE ENERGY PREDICTED BY IDOCK:   -2.32 KCAL/MOL
REMARK 924 INTRA-LIGAND FREE ENERGY PREDICTED BY IDOCK:   -0.39 KCAL/MOL
REMARK 927      BINDING AFFINITY PREDICTED BY RF-SCORE:    0.00 PKD
ROOT
HETATM    1  C   UNL     1     -11.532  10.775  69.136  1.00  0.00    -0.368 C  
HETATM    2  C   UNL     1     -10.347   9.971  68.623  1.00  0.00    -0.211 C  
ENDROOT
BRANCH   2   3
HETATM    3  C   UNL     1     -10.440   9.751  67.114  1.00  0.00    -0.316 C  
BRANCH   3   4
HETATM    4  C   UNL     1      -9.691   8.491  66.677  1.00  0.00    -0.318 C  
BRANCH   4   5
HETATM    5  C   UNL     1     -10.166   7.270  67.467  1.00  0.00    -0.284 C  
BRANCH   5   6
HETATM    6  C   UNL     1     -10.091   5.995  66.626  1.00  0.00    -0.226 C  
BRANCH   6   7
HETATM    7  C   UNL     1      -9.288   4.916  67.313  1.00  0.00    -0.142 A  
HETATM    8  C   UNL     1      -7.894   4.810  67.208  1.00  0.00    -0.094 A  
HETATM    9  C   UNL     1      -7.190   3.818  67.890  1.00  0.00    -0.059 A  
HETATM   10  O   UNL     1      -7.139   5.650  66.440  1.00  0.00    -0.069 OA 
HETATM   11  H   UNL     1      -6.195   5.579  66.369  1.00  0.00     0.000 HD 
HETATM   12  C   UNL     1      -7.887   2.897  68.666  1.00  0.00    -0.054 A  
HETATM   13  C   UNL     1      -9.269   2.958  68.765  1.00  0.00    -0.230 A  
HETATM   14  O   UNL     1      -7.241   1.906  69.344  1.00  0.00    -0.039 OA 
HETATM   15  H   UNL     1      -7.717   1.277  69.874  1.00  0.00     0.000 HD 
HETATM   16  C   UNL     1      -9.968   3.964  68.093  1.00  0.00     0.093 A  
ENDBRANCH   6   7
ENDBRANCH   5   6
ENDBRANCH   4   5
ENDBRANCH   3   4
ENDBRANCH   2   3
TORSDOF 5
ENDMDL
MODEL      329
REMARK 921   NORMALIZED FREE ENERGY PREDICTED BY IDOCK:   -1.74 KCAL/MOL
REMARK 922        TOTAL FREE ENERGY PREDICTED BY IDOCK:   -2.65 KCAL/MOL
REMARK 923 INTER-LIGAND FREE ENERGY PREDICTED BY IDOCK:   -2.27 KCAL/MOL
REMARK 924 INTRA-LIGAND FREE ENERGY PREDICTED BY IDOCK:   -0.38 KCAL/MOL
REMARK 927      BINDING AFFINITY PREDICTED BY RF-SCORE:    0.00 PKD
ROOT
HETATM    1  C   UNL     1     -13.426  10.833  71.117  1.00  0.00     0.069 C  
HETATM    2  C   UNL     1     -13.344   9.546  71.923  1.00  0.00    -0.518 C  
ENDROOT
BRANCH   2   3
HETATM    3  C   UNL     1     -13.469   8.319  71.020  1.00  0.00     0.096 C  
BRANCH   3   4
HETATM    4  C   UNL     1     -12.972   7.051  71.714  1.00  0.00    -0.356 C  
BRANCH   4   5
HETATM    5  C   UNL     1     -12.029   6.262  70.804  1.00  0.00    -0.111 C  
BRANCH   5   6
HETATM    6  C   UNL     1     -10.568   6.447  71.215  1.00  0.00    -0.275 C  
BRANCH   6   7
HETATM    7  C   UNL     1     -10.057   5.273  72.016  1.00  0.00    -0.247 A  
HETATM    8  C   UNL     1      -9.446   4.154  71.435  1.00  0.00    -0.160 A  
HETATM    9  C   UNL     1      -8.956   3.108  72.218  1.00  0.00    -0.131 A  
HETATM   10  O   UNL     1      -9.295   4.004  70.085  1.00  0.00    -0.133 OA 
HETATM   11  H   UNL     1      -8.880   3.246  69.691  1.00  0.00     0.000 HD 
HETATM   12  C   UNL     1      -9.103   3.164  73.599  1.00  0.00    -0.082 A  
HETATM   13  C   UNL     1      -9.730   4.245  74.201  1.00  0.00    -0.147 A  
HETATM   14  O   UNL     1      -8.646   2.162  74.404  1.00  0.00    -0.058 OA 
HETATM   15  H   UNL     1      -8.746   2.199  75.347  1.00  0.00     0.000 HD 
HETATM   16  C   UNL     1     -10.204   5.296  73.414  1.00  0.00    -0.220 A  
ENDBRANCH   6   7
ENDBRANCH   5   6
ENDBRANCH   4   5
ENDBRANCH   3   4
ENDBRANCH   2   3
TORSDOF 5
ENDMDL
MODEL      330
REMARK 921   NORMALIZED FREE ENERGY PREDICTED BY IDOCK:   -1.73 KCAL/MOL
REMARK 922        TOTAL FREE ENERGY PREDICTED BY IDOCK:   -2.64 KCAL/MOL
REMARK 923 INTER-LIGAND FREE ENERGY PREDICTED BY IDOCK:   -2.35 KCAL/MOL
REMARK 924 INTRA-LIGAND FREE ENERGY PREDICTED BY IDOCK:   -0.29 KCAL/MOL
REMARK 927      BINDING AFFINITY PREDICTED BY RF-SCORE:    0.00 PKD
ROOT
HETATM    1  C   UNL     1     -11.564  12.065  69.092  1.00  0.00    -0.370 C  
HETATM    2  C   UNL     1     -11.939  10.745  69.748  1.00  0.00    -0.397 C  
ENDROOT
BRANCH   2   3
HETATM    3  C   UNL     1     -10.707  10.037  70.310  1.00  0.00    -0.367 C  
BRANCH   3   4
HETATM    4  C   UNL     1     -10.275   8.865  69.428  1.00  0.00    -0.210 C  
BRANCH   4   5
HETATM    5  C   UNL     1      -9.247   7.989  70.146  1.00  0.00    -0.152 C  
BRANCH   5   6
HETATM    6  C   UNL     1      -9.842   6.640  70.548  1.00  0.00    -0.190 C  
BRANCH   6   7
HETATM    7  C   UNL     1      -8.940   5.491  70.162  1.00  0.00    -0.154 A  
HETATM    8  C   UNL     1      -9.162   4.682  69.039  1.00  0.00    -0.129 A  
HETATM    9  C   UNL     1      -8.282   3.655  68.701  1.00  0.00    -0.084 A  
HETATM   10  O   UNL     1     -10.240   4.834  68.213  1.00  0.00    -0.093 OA 
HETATM   11  H   UNL     1     -10.390   4.287  67.451  1.00  0.00     0.000 HD 
HETATM   12  C   UNL     1      -7.179   3.408  69.511  1.00  0.00    -0.045 A  
HETATM   13  C   UNL     1      -6.949   4.172  70.646  1.00  0.00    -0.033 A  
HETATM   14  O   UNL     1      -6.295   2.409  69.224  1.00  0.00    -0.028 OA 
HETATM   15  H   UNL     1      -5.542   2.241  69.777  1.00  0.00     0.000 HD 
HETATM   16  C   UNL     1      -7.825   5.210  70.970  1.00  0.00    -0.097 A  
ENDBRANCH   6   7
ENDBRANCH   5   6
ENDBRANCH   4   5
ENDBRANCH   3   4
ENDBRANCH   2   3
TORSDOF 5
ENDMDL
MODEL      331
REMARK 921   NORMALIZED FREE ENERGY PREDICTED BY IDOCK:   -1.66 KCAL/MOL
REMARK 922        TOTAL FREE ENERGY PREDICTED BY IDOCK:   -2.55 KCAL/MOL
REMARK 923 INTER-LIGAND FREE ENERGY PREDICTED BY IDOCK:   -1.98 KCAL/MOL
REMARK 924 INTRA-LIGAND FREE ENERGY PREDICTED BY IDOCK:   -0.58 KCAL/MOL
REMARK 927      BINDING AFFINITY PREDICTED BY RF-SCORE:    0.00 PKD
ROOT
HETATM    1  C   UNL     1      -8.828  10.309  69.330  1.00  0.00    -0.186 C  
HETATM    2  C   UNL     1      -8.544   9.844  67.910  1.00  0.00    -0.125 C  
ENDROOT
BRANCH   2   3
HETATM    3  C   UNL     1      -9.176  10.783  66.883  1.00  0.00    -0.172 C  
BRANCH   3   4
HETATM    4  C   UNL     1      -9.524  10.053  65.585  1.00  0.00    -0.278 C  
BRANCH   4   5
HETATM    5  C   UNL     1      -8.370   9.156  65.135  1.00  0.00    -0.160 C  
BRANCH   5   6
HETATM    6  C   UNL     1      -8.830   7.713  64.928  1.00  0.00     0.316 C  
BRANCH   6   7
HETATM    7  C   UNL     1      -9.060   7.003  66.241  1.00  0.00    -0.178 A  
HETATM    8  C   UNL     1      -8.038   6.370  66.962  1.00  0.00    -0.112 A  
HETATM    9  C   UNL     1      -8.290   5.758  68.190  1.00  0.00    -0.107 A  
HETATM   10  O   UNL     1      -6.746   6.302  66.520  1.00  0.00    -0.056 OA 
HETATM   11  H   UNL     1      -6.054   5.873  67.009  1.00  0.00     0.000 HD 
HETATM   12  C   UNL     1      -9.585   5.748  68.694  1.00  0.00    -0.127 A  
HETATM   13  C   UNL     1     -10.623   6.341  67.990  1.00  0.00    -0.326 A  
HETATM   14  O   UNL     1      -9.880   5.155  69.886  1.00  0.00    -0.177 OA 
HETATM   15  H   UNL     1     -10.765   5.149  70.231  1.00  0.00     0.000 HD 
HETATM   16  C   UNL     1     -10.362   6.967  66.769  1.00  0.00    -0.287 A  
ENDBRANCH   6   7
ENDBRANCH   5   6
ENDBRANCH   4   5
ENDBRANCH   3   4
ENDBRANCH   2   3
TORSDOF 5
ENDMDL
MODEL      332
REMARK 921   NORMALIZED FREE ENERGY PREDICTED BY IDOCK:   -1.61 KCAL/MOL
REMARK 922        TOTAL FREE ENERGY PREDICTED BY IDOCK:   -2.48 KCAL/MOL
REMARK 923 INTER-LIGAND FREE ENERGY PREDICTED BY IDOCK:   -1.87 KCAL/MOL
REMARK 924 INTRA-LIGAND FREE ENERGY PREDICTED BY IDOCK:   -0.61 KCAL/MOL
REMARK 927      BINDING AFFINITY PREDICTED BY RF-SCORE:    0.00 PKD
ROOT
HETATM    1  C   UNL     1     -11.431  10.733  69.090  1.00  0.00    -0.368 C  
HETATM    2  C   UNL     1     -10.179  10.032  68.584  1.00  0.00    -0.198 C  
ENDROOT
BRANCH   2   3
HETATM    3  C   UNL     1     -10.321   9.640  67.114  1.00  0.00    -0.319 C  
BRANCH   3   4
HETATM    4  C   UNL     1      -9.314   8.561  66.715  1.00  0.00    -0.232 C  
BRANCH   4   5
HETATM    5  C   UNL     1      -9.466   7.319  67.595  1.00  0.00    -0.149 C  
BRANCH   5   6
HETATM    6  C   UNL     1      -8.121   6.629  67.828  1.00  0.00    -0.116 C  
BRANCH   6   7
HETATM    7  C   UNL     1      -7.512   7.020  69.153  1.00  0.00    -0.095 A  
HETATM    8  C   UNL     1      -6.532   8.014  69.286  1.00  0.00    -0.036 A  
HETATM    9  C   UNL     1      -6.024   8.367  70.536  1.00  0.00    -0.031 A  
HETATM   10  O   UNL     1      -6.009   8.691  68.221  1.00  0.00    -0.041 OA 
HETATM   11  H   UNL     1      -5.345   9.365  68.311  1.00  0.00     0.000 HD 
HETATM   12  C   UNL     1      -6.476   7.700  71.669  1.00  0.00    -0.039 A  
HETATM   13  C   UNL     1      -7.423   6.692  71.566  1.00  0.00    -0.088 A  
HETATM   14  O   UNL     1      -6.002   8.007  72.911  1.00  0.00    -0.052 OA 
HETATM   15  H   UNL     1      -6.310   7.552  73.685  1.00  0.00     0.000 HD 
HETATM   16  C   UNL     1      -7.940   6.353  70.314  1.00  0.00    -0.112 A  
ENDBRANCH   6   7
ENDBRANCH   5   6
ENDBRANCH   4   5
ENDBRANCH   3   4
ENDBRANCH   2   3
TORSDOF 5
ENDMDL
MODEL      333
REMARK 921   NORMALIZED FREE ENERGY PREDICTED BY IDOCK:   -1.55 KCAL/MOL
REMARK 922        TOTAL FREE ENERGY PREDICTED BY IDOCK:   -2.41 KCAL/MOL
REMARK 923 INTER-LIGAND FREE ENERGY PREDICTED BY IDOCK:   -1.92 KCAL/MOL
REMARK 924 INTRA-LIGAND FREE ENERGY PREDICTED BY IDOCK:   -0.48 KCAL/MOL
REMARK 927      BINDING AFFINITY PREDICTED BY RF-SCORE:    0.00 PKD
ROOT
HETATM    1  C   UNL     1     -10.933   3.919  64.394  1.00  0.00    -0.046 C  
HETATM    2  C   UNL     1      -9.520   4.414  64.661  1.00  0.00    -0.144 C  
ENDROOT
BRANCH   2   3
HETATM    3  C   UNL     1      -9.518   5.572  65.658  1.00  0.00    -0.018 C  
BRANCH   3   4
HETATM    4  C   UNL     1     -10.647   5.441  66.681  1.00  0.00    -0.359 C  
BRANCH   4   5
HETATM    5  C   UNL     1     -10.249   4.497  67.817  1.00  0.00     0.022 C  
BRANCH   5   6
HETATM    6  C   UNL     1      -8.899   4.885  68.421  1.00  0.00    -0.115 C  
BRANCH   6   7
HETATM    7  C   UNL     1      -9.054   5.515  69.785  1.00  0.00    -0.157 A  
HETATM    8  C   UNL     1      -9.182   6.896  69.983  1.00  0.00    -0.155 A  
HETATM    9  C   UNL     1      -9.359   7.431  71.260  1.00  0.00    -0.158 A  
HETATM   10  O   UNL     1      -9.138   7.803  68.962  1.00  0.00    -0.145 OA 
HETATM   11  H   UNL     1      -9.226   8.739  69.097  1.00  0.00     0.000 HD 
HETATM   12  C   UNL     1      -9.379   6.580  72.359  1.00  0.00    -0.136 A  
HETATM   13  C   UNL     1      -9.224   5.211  72.197  1.00  0.00    -0.154 A  
HETATM   14  O   UNL     1      -9.542   7.058  73.626  1.00  0.00    -0.180 OA 
HETATM   15  H   UNL     1      -9.555   6.477  74.377  1.00  0.00     0.000 HD 
HETATM   16  C   UNL     1      -9.063   4.679  70.916  1.00  0.00    -0.181 A  
ENDBRANCH   6   7
ENDBRANCH   5   6
ENDBRANCH   4   5
ENDBRANCH   3   4
ENDBRANCH   2   3
TORSDOF 5
ENDMDL
MODEL      334
REMARK 921   NORMALIZED FREE ENERGY PREDICTED BY IDOCK:   -1.51 KCAL/MOL
REMARK 922        TOTAL FREE ENERGY PREDICTED BY IDOCK:   -2.36 KCAL/MOL
REMARK 923 INTER-LIGAND FREE ENERGY PREDICTED BY IDOCK:   -1.96 KCAL/MOL
REMARK 924 INTRA-LIGAND FREE ENERGY PREDICTED BY IDOCK:   -0.40 KCAL/MOL
REMARK 927      BINDING AFFINITY PREDICTED BY RF-SCORE:    0.00 PKD
ROOT
HETATM    1  C   UNL     1      -9.252   4.294  69.944  1.00  0.00    -0.208 C  
HETATM    2  C   UNL     1      -9.198   3.855  68.489  1.00  0.00    -0.212 C  
ENDROOT
BRANCH   2   3
HETATM    3  C   UNL     1      -7.758   3.790  67.984  1.00  0.00    -0.066 C  
BRANCH   3   4
HETATM    4  C   UNL     1      -7.548   4.674  66.754  1.00  0.00    -0.087 C  
BRANCH   4   5
HETATM    5  C   UNL     1      -8.580   5.803  66.708  1.00  0.00    -0.112 C  
BRANCH   5   6
HETATM    6  C   UNL     1      -8.908   6.203  65.269  1.00  0.00     0.029 C  
BRANCH   6   7
HETATM    7  C   UNL     1      -8.270   7.519  64.893  1.00  0.00    -0.086 A  
HETATM    8  C   UNL     1      -8.787   8.763  65.282  1.00  0.00    -0.162 A  
HETATM    9  C   UNL     1      -8.143   9.953  64.941  1.00  0.00    -0.145 A  
HETATM   10  O   UNL     1      -9.940   8.899  66.003  1.00  0.00    -0.390 OA 
HETATM   11  H   UNL     1     -10.289   9.741  66.266  1.00  0.00     0.000 HD 
HETATM   12  C   UNL     1      -6.984   9.906  64.176  1.00  0.00    -0.128 A  
HETATM   13  C   UNL     1      -6.465   8.692  63.751  1.00  0.00    -0.080 A  
HETATM   14  O   UNL     1      -6.325  11.043  63.813  1.00  0.00    -0.247 OA 
HETATM   15  H   UNL     1      -5.532  11.012  63.291  1.00  0.00     0.000 HD 
HETATM   16  C   UNL     1      -7.104   7.502  64.108  1.00  0.00    -0.064 A  
ENDBRANCH   6   7
ENDBRANCH   5   6
ENDBRANCH   4   5
ENDBRANCH   3   4
ENDBRANCH   2   3
TORSDOF 5
ENDMDL
MODEL      335
REMARK 921   NORMALIZED FREE ENERGY PREDICTED BY IDOCK:   -1.51 KCAL/MOL
REMARK 922        TOTAL FREE ENERGY PREDICTED BY IDOCK:   -2.36 KCAL/MOL
REMARK 923 INTER-LIGAND FREE ENERGY PREDICTED BY IDOCK:   -1.70 KCAL/MOL
REMARK 924 INTRA-LIGAND FREE ENERGY PREDICTED BY IDOCK:   -0.65 KCAL/MOL
REMARK 927      BINDING AFFINITY PREDICTED BY RF-SCORE:    0.00 PKD
ROOT
HETATM    1  C   UNL     1      -9.447   8.123  66.289  1.00  0.00    -0.259 C  
HETATM    2  C   UNL     1      -8.402   9.034  66.916  1.00  0.00    -0.119 C  
ENDROOT
BRANCH   2   3
HETATM    3  C   UNL     1      -7.339   8.227  67.659  1.00  0.00    -0.093 C  
BRANCH   3   4
HETATM    4  C   UNL     1      -7.470   6.728  67.386  1.00  0.00    -0.096 C  
BRANCH   4   5
HETATM    5  C   UNL     1      -6.761   5.910  68.467  1.00  0.00    -0.057 C  
BRANCH   5   6
HETATM    6  C   UNL     1      -7.762   5.204  69.382  1.00  0.00    -0.076 C  
BRANCH   6   7
HETATM    7  C   UNL     1      -8.059   6.015  70.621  1.00  0.00    -0.116 A  
HETATM    8  C   UNL     1      -7.213   6.050  71.738  1.00  0.00    -0.088 A  
HETATM    9  C   UNL     1      -7.510   6.843  72.847  1.00  0.00    -0.082 A  
HETATM   10  O   UNL     1      -6.061   5.320  71.824  1.00  0.00    -0.024 OA 
HETATM   11  H   UNL     1      -5.488   5.344  72.581  1.00  0.00     0.000 HD 
HETATM   12  C   UNL     1      -8.683   7.590  72.857  1.00  0.00    -0.137 A  
HETATM   13  C   UNL     1      -9.554   7.552  71.779  1.00  0.00    -0.178 A  
HETATM   14  O   UNL     1      -9.018   8.373  73.922  1.00  0.00    -0.226 OA 
HETATM   15  H   UNL     1      -9.818   8.883  73.929  1.00  0.00     0.000 HD 
HETATM   16  C   UNL     1      -9.244   6.769  70.664  1.00  0.00    -0.155 A  
ENDBRANCH   6   7
ENDBRANCH   5   6
ENDBRANCH   4   5
ENDBRANCH   3   4
ENDBRANCH   2   3
TORSDOF 5
ENDMDL
MODEL      336
REMARK 921   NORMALIZED FREE ENERGY PREDICTED BY IDOCK:   -1.49 KCAL/MOL
REMARK 922        TOTAL FREE ENERGY PREDICTED BY IDOCK:   -2.33 KCAL/MOL
REMARK 923 INTER-LIGAND FREE ENERGY PREDICTED BY IDOCK:   -1.80 KCAL/MOL
REMARK 924 INTRA-LIGAND FREE ENERGY PREDICTED BY IDOCK:   -0.53 KCAL/MOL
REMARK 927      BINDING AFFINITY PREDICTED BY RF-SCORE:    0.00 PKD
ROOT
HETATM    1  C   UNL     1      -9.699   4.753  65.627  1.00  0.00    -0.188 C  
HETATM    2  C   UNL     1      -8.322   4.742  66.273  1.00  0.00    -0.111 C  
ENDROOT
BRANCH   2   3
HETATM    3  C   UNL     1      -7.986   6.102  66.882  1.00  0.00    -0.105 C  
BRANCH   3   4
HETATM    4  C   UNL     1      -8.538   7.253  66.040  1.00  0.00    -0.160 C  
BRANCH   4   5
HETATM    5  C   UNL     1      -9.192   8.315  66.926  1.00  0.00    -0.197 C  
BRANCH   5   6
HETATM    6  C   UNL     1      -9.750   7.705  68.212  1.00  0.00    -0.166 C  
BRANCH   6   7
HETATM    7  C   UNL     1      -8.986   8.167  69.430  1.00  0.00    -0.147 A  
HETATM    8  C   UNL     1      -9.042   7.512  70.668  1.00  0.00    -0.155 A  
HETATM    9  C   UNL     1      -8.290   7.954  71.756  1.00  0.00    -0.144 A  
HETATM   10  O   UNL     1      -9.828   6.417  70.896  1.00  0.00    -0.182 OA 
HETATM   11  H   UNL     1      -9.866   5.973  71.734  1.00  0.00     0.000 HD 
HETATM   12  C   UNL     1      -7.492   9.084  71.620  1.00  0.00     0.055 A  
HETATM   13  C   UNL     1      -7.439   9.772  70.416  1.00  0.00    -0.161 A  
HETATM   14  O   UNL     1      -6.745   9.557  72.658  1.00  0.00    -0.034 OA 
HETATM   15  H   UNL     1      -6.200  10.329  72.565  1.00  0.00     0.000 HD 
HETATM   16  C   UNL     1      -8.181   9.315  69.325  1.00  0.00    -0.108 A  
ENDBRANCH   6   7
ENDBRANCH   5   6
ENDBRANCH   4   5
ENDBRANCH   3   4
ENDBRANCH   2   3
TORSDOF 5
ENDMDL
MODEL      337
REMARK 921   NORMALIZED FREE ENERGY PREDICTED BY IDOCK:   -1.40 KCAL/MOL
REMARK 922        TOTAL FREE ENERGY PREDICTED BY IDOCK:   -2.22 KCAL/MOL
REMARK 923 INTER-LIGAND FREE ENERGY PREDICTED BY IDOCK:   -1.82 KCAL/MOL
REMARK 924 INTRA-LIGAND FREE ENERGY PREDICTED BY IDOCK:   -0.39 KCAL/MOL
REMARK 927      BINDING AFFINITY PREDICTED BY RF-SCORE:    0.00 PKD
ROOT
HETATM    1  C   UNL     1      -9.607   4.095  69.169  1.00  0.00    -0.243 C  
HETATM    2  C   UNL     1      -9.323   3.611  67.755  1.00  0.00    -0.242 C  
ENDROOT
BRANCH   2   3
HETATM    3  C   UNL     1      -7.821   3.494  67.502  1.00  0.00    -0.078 C  
BRANCH   3   4
HETATM    4  C   UNL     1      -7.372   4.377  66.337  1.00  0.00    -0.081 C  
BRANCH   4   5
HETATM    5  C   UNL     1      -8.289   5.592  66.185  1.00  0.00    -0.119 C  
BRANCH   5   6
HETATM    6  C   UNL     1      -8.422   6.014  64.722  1.00  0.00    -0.032 C  
BRANCH   6   7
HETATM    7  C   UNL     1      -7.683   7.300  64.440  1.00  0.00    -0.120 A  
HETATM    8  C   UNL     1      -6.606   7.388  63.546  1.00  0.00    -0.053 A  
HETATM    9  C   UNL     1      -5.976   8.606  63.289  1.00  0.00    -0.081 A  
HETATM   10  O   UNL     1      -6.101   6.307  62.880  1.00  0.00    -0.025 OA 
HETATM   11  H   UNL     1      -5.371   6.367  62.274  1.00  0.00     0.000 HD 
HETATM   12  C   UNL     1      -6.403   9.749  63.954  1.00  0.00    -0.118 A  
HETATM   13  C   UNL     1      -7.447   9.688  64.866  1.00  0.00    -0.118 A  
HETATM   14  O   UNL     1      -5.813  10.959  63.740  1.00  0.00    -0.374 OA 
HETATM   15  H   UNL     1      -6.105  11.741  64.194  1.00  0.00     0.000 HD 
HETATM   16  C   UNL     1      -8.085   8.470  65.108  1.00  0.00    -0.142 A  
ENDBRANCH   6   7
ENDBRANCH   5   6
ENDBRANCH   4   5
ENDBRANCH   3   4
ENDBRANCH   2   3
TORSDOF 5
ENDMDL
MODEL      338
REMARK 921   NORMALIZED FREE ENERGY PREDICTED BY IDOCK:   -1.30 KCAL/MOL
REMARK 922        TOTAL FREE ENERGY PREDICTED BY IDOCK:   -2.08 KCAL/MOL
REMARK 923 INTER-LIGAND FREE ENERGY PREDICTED BY IDOCK:   -1.71 KCAL/MOL
REMARK 924 INTRA-LIGAND FREE ENERGY PREDICTED BY IDOCK:   -0.37 KCAL/MOL
REMARK 927      BINDING AFFINITY PREDICTED BY RF-SCORE:    0.00 PKD
ROOT
HETATM    1  C   UNL     1      -8.707   8.142  67.021  1.00  0.00    -0.136 C  
HETATM    2  C   UNL     1      -7.550   8.367  67.983  1.00  0.00    -0.098 C  
ENDROOT
BRANCH   2   3
HETATM    3  C   UNL     1      -7.140   7.065  68.669  1.00  0.00    -0.092 C  
BRANCH   3   4
HETATM    4  C   UNL     1      -7.134   5.887  67.694  1.00  0.00    -0.074 C  
BRANCH   4   5
HETATM    5  C   UNL     1      -6.830   4.576  68.421  1.00  0.00    -0.051 C  
BRANCH   5   6
HETATM    6  C   UNL     1      -8.083   3.995  69.075  1.00  0.00    -0.075 C  
BRANCH   6   7
HETATM    7  C   UNL     1      -8.397   4.673  70.388  1.00  0.00    -0.082 A  
HETATM    8  C   UNL     1      -9.630   5.278  70.666  1.00  0.00    -0.176 A  
HETATM    9  C   UNL     1      -9.887   5.861  71.907  1.00  0.00    -0.188 A  
HETATM   10  O   UNL     1     -10.648   5.347  69.757  1.00  0.00    -0.309 OA 
HETATM   11  H   UNL     1     -11.484   5.757  69.945  1.00  0.00     0.000 HD 
HETATM   12  C   UNL     1      -8.892   5.868  72.877  1.00  0.00    -0.123 A  
HETATM   13  C   UNL     1      -7.651   5.303  72.621  1.00  0.00    -0.097 A  
HETATM   14  O   UNL     1      -9.096   6.433  74.101  1.00  0.00    -0.141 OA 
HETATM   15  H   UNL     1      -8.416   6.437  74.764  1.00  0.00     0.000 HD 
HETATM   16  C   UNL     1      -7.404   4.707  71.383  1.00  0.00    -0.068 A  
ENDBRANCH   6   7
ENDBRANCH   5   6
ENDBRANCH   4   5
ENDBRANCH   3   4
ENDBRANCH   2   3
TORSDOF 5
ENDMDL
MODEL      339
REMARK 921   NORMALIZED FREE ENERGY PREDICTED BY IDOCK:   -1.21 KCAL/MOL
REMARK 922        TOTAL FREE ENERGY PREDICTED BY IDOCK:   -1.97 KCAL/MOL
REMARK 923 INTER-LIGAND FREE ENERGY PREDICTED BY IDOCK:   -2.21 KCAL/MOL
REMARK 924 INTRA-LIGAND FREE ENERGY PREDICTED BY IDOCK:    0.24 KCAL/MOL
REMARK 927      BINDING AFFINITY PREDICTED BY RF-SCORE:    0.00 PKD
ROOT
HETATM    1  C   UNL     1      -6.026  10.259  71.176  1.00  0.00     0.041 C  
HETATM    2  C   UNL     1      -6.059  11.118  69.921  1.00  0.00    -0.121 C  
ENDROOT
BRANCH   2   3
HETATM    3  C   UNL     1      -6.140  10.257  68.662  1.00  0.00    -0.047 C  
BRANCH   3   4
HETATM    4  C   UNL     1      -6.763   8.890  68.949  1.00  0.00    -0.053 C  
BRANCH   4   5
HETATM    5  C   UNL     1      -7.568   8.392  67.747  1.00  0.00    -0.102 C  
BRANCH   5   6
HETATM    6  C   UNL     1      -8.976   8.989  67.729  1.00  0.00    -0.132 C  
BRANCH   6   7
HETATM    7  C   UNL     1      -9.173   9.926  66.561  1.00  0.00    -0.190 A  
HETATM    8  C   UNL     1      -8.427   9.846  65.377  1.00  0.00    -0.147 A  
HETATM    9  C   UNL     1      -8.669  10.710  64.309  1.00  0.00    -0.140 A  
HETATM   10  O   UNL     1      -7.423   8.938  65.188  1.00  0.00    -0.093 OA 
HETATM   11  H   UNL     1      -6.918   8.883  64.386  1.00  0.00     0.000 HD 
HETATM   12  C   UNL     1      -9.648  11.689  64.432  1.00  0.00    -0.108 A  
HETATM   13  C   UNL     1     -10.382  11.812  65.602  1.00  0.00    -0.293 A  
HETATM   14  O   UNL     1      -9.914  12.560  63.417  1.00  0.00    -0.559 OA 
HETATM   15  H   UNL     1     -10.583  13.229  63.500  1.00  0.00     0.000 HD 
HETATM   16  C   UNL     1     -10.147  10.934  66.663  1.00  0.00    -0.264 A  
ENDBRANCH   6   7
ENDBRANCH   5   6
ENDBRANCH   4   5
ENDBRANCH   3   4
ENDBRANCH   2   3
TORSDOF 5
ENDMDL
MODEL      340
REMARK 921   NORMALIZED FREE ENERGY PREDICTED BY IDOCK:   -1.06 KCAL/MOL
REMARK 922        TOTAL FREE ENERGY PREDICTED BY IDOCK:   -1.78 KCAL/MOL
REMARK 923 INTER-LIGAND FREE ENERGY PREDICTED BY IDOCK:   -1.26 KCAL/MOL
REMARK 924 INTRA-LIGAND FREE ENERGY PREDICTED BY IDOCK:   -0.51 KCAL/MOL
REMARK 927      BINDING AFFINITY PREDICTED BY RF-SCORE:    0.00 PKD
ROOT
HETATM    1  C   UNL     1      -5.974  10.706  64.122  1.00  0.00     0.032 C  
HETATM    2  C   UNL     1      -6.834   9.671  63.414  1.00  0.00    -0.108 C  
ENDROOT
BRANCH   2   3
HETATM    3  C   UNL     1      -6.804   8.331  64.147  1.00  0.00    -0.067 C  
BRANCH   3   4
HETATM    4  C   UNL     1      -7.927   7.404  63.681  1.00  0.00    -0.074 C  
BRANCH   4   5
HETATM    5  C   UNL     1      -7.739   5.992  64.240  1.00  0.00    -0.105 C  
BRANCH   5   6
HETATM    6  C   UNL     1      -8.855   5.624  65.219  1.00  0.00    -0.083 C  
BRANCH   6   7
HETATM    7  C   UNL     1      -8.446   5.866  66.652  1.00  0.00    -0.111 A  
HETATM    8  C   UNL     1      -8.762   7.038  67.354  1.00  0.00    -0.120 A  
HETATM    9  C   UNL     1      -8.395   7.203  68.690  1.00  0.00    -0.125 A  
HETATM   10  O   UNL     1      -9.434   8.086  66.791  1.00  0.00    -0.174 OA 
HETATM   11  H   UNL     1      -9.648   8.879  67.267  1.00  0.00     0.000 HD 
HETATM   12  C   UNL     1      -7.675   6.200  69.329  1.00  0.00    -0.099 A  
HETATM   13  C   UNL     1      -7.322   5.042  68.651  1.00  0.00    -0.062 A  
HETATM   14  O   UNL     1      -7.288   6.320  70.631  1.00  0.00    -0.078 OA 
HETATM   15  H   UNL     1      -6.797   5.635  71.067  1.00  0.00     0.000 HD 
HETATM   16  C   UNL     1      -7.706   4.874  67.319  1.00  0.00    -0.091 A  
ENDBRANCH   6   7
ENDBRANCH   5   6
ENDBRANCH   4   5
ENDBRANCH   3   4
ENDBRANCH   2   3
TORSDOF 5
ENDMDL
MODEL      341
REMARK 921   NORMALIZED FREE ENERGY PREDICTED BY IDOCK:   -1.06 KCAL/MOL
REMARK 922        TOTAL FREE ENERGY PREDICTED BY IDOCK:   -1.77 KCAL/MOL
REMARK 923 INTER-LIGAND FREE ENERGY PREDICTED BY IDOCK:   -1.35 KCAL/MOL
REMARK 924 INTRA-LIGAND FREE ENERGY PREDICTED BY IDOCK:   -0.42 KCAL/MOL
REMARK 927      BINDING AFFINITY PREDICTED BY RF-SCORE:    0.00 PKD
ROOT
HETATM    1  C   UNL     1      -5.263  11.700  70.155  1.00  0.00    -0.087 C  
HETATM    2  C   UNL     1      -6.091  11.266  68.956  1.00  0.00    -0.052 C  
ENDROOT
BRANCH   2   3
HETATM    3  C   UNL     1      -7.508  11.832  69.029  1.00  0.00    -0.030 C  
BRANCH   3   4
HETATM    4  C   UNL     1      -8.250  11.677  67.700  1.00  0.00    -0.141 C  
BRANCH   4   5
HETATM    5  C   UNL     1      -9.247  12.819  67.494  1.00  0.00    -0.191 C  
BRANCH   5   6
HETATM    6  C   UNL     1     -10.027  13.120  68.774  1.00  0.00    -0.038 C  
BRANCH   6   7
HETATM    7  C   UNL     1     -10.374  14.586  68.888  1.00  0.00    -0.237 A  
HETATM    8  C   UNL     1     -11.202  15.104  69.893  1.00  0.00    -0.283 A  
HETATM    9  C   UNL     1     -11.466  16.471  69.981  1.00  0.00     0.049 A  
HETATM   10  O   UNL     1     -11.805  14.322  70.839  1.00  0.00    -0.394 OA 
HETATM   11  H   UNL     1     -12.366  14.673  71.520  1.00  0.00     0.000 HD 
HETATM   12  C   UNL     1     -10.922  17.333  69.036  1.00  0.00     0.098 A  
HETATM   13  C   UNL     1     -10.124  16.846  68.011  1.00  0.00    -0.293 A  
HETATM   14  O   UNL     1     -11.159  18.675  69.077  1.00  0.00     0.462 OA 
HETATM   15  H   UNL     1     -10.787  19.264  68.432  1.00  0.00     0.000 HD 
HETATM   16  C   UNL     1      -9.849  15.479  67.937  1.00  0.00    -0.216 A  
ENDBRANCH   6   7
ENDBRANCH   5   6
ENDBRANCH   4   5
ENDBRANCH   3   4
ENDBRANCH   2   3
TORSDOF 5
ENDMDL
MODEL      342
REMARK 921   NORMALIZED FREE ENERGY PREDICTED BY IDOCK:   -0.95 KCAL/MOL
REMARK 922        TOTAL FREE ENERGY PREDICTED BY IDOCK:   -1.63 KCAL/MOL
REMARK 923 INTER-LIGAND FREE ENERGY PREDICTED BY IDOCK:   -2.34 KCAL/MOL
REMARK 924 INTRA-LIGAND FREE ENERGY PREDICTED BY IDOCK:    0.71 KCAL/MOL
REMARK 927      BINDING AFFINITY PREDICTED BY RF-SCORE:    0.00 PKD
ROOT
HETATM    1  C   UNL     1      -6.239  11.165  70.282  1.00  0.00    -0.134 C  
HETATM    2  C   UNL     1      -6.981  10.423  69.181  1.00  0.00    -0.071 C  
ENDROOT
BRANCH   2   3
HETATM    3  C   UNL     1      -8.392  10.041  69.625  1.00  0.00    -0.188 C  
BRANCH   3   4
HETATM    4  C   UNL     1      -8.522   8.537  69.871  1.00  0.00    -0.125 C  
BRANCH   4   5
HETATM    5  C   UNL     1      -7.975   7.739  68.686  1.00  0.00    -0.122 C  
BRANCH   5   6
HETATM    6  C   UNL     1      -8.840   6.515  68.387  1.00  0.00    -0.123 C  
BRANCH   6   7
HETATM    7  C   UNL     1      -9.316   5.841  69.652  1.00  0.00    -0.166 A  
HETATM    8  C   UNL     1     -10.376   6.328  70.431  1.00  0.00    -0.208 A  
HETATM    9  C   UNL     1     -10.804   5.652  71.573  1.00  0.00    -0.297 A  
HETATM   10  O   UNL     1     -11.048   7.480  70.137  1.00  0.00    -0.260 OA 
HETATM   11  H   UNL     1     -11.767   7.809  70.664  1.00  0.00     0.000 HD 
HETATM   12  C   UNL     1     -10.149   4.490  71.965  1.00  0.00    -0.196 A  
HETATM   13  C   UNL     1      -9.078   4.000  71.231  1.00  0.00    -0.177 A  
HETATM   14  O   UNL     1     -10.529   3.800  73.078  1.00  0.00    -0.162 OA 
HETATM   15  H   UNL     1     -10.082   3.006  73.345  1.00  0.00     0.000 HD 
HETATM   16  C   UNL     1      -8.663   4.672  70.079  1.00  0.00    -0.113 A  
ENDBRANCH   6   7
ENDBRANCH   5   6
ENDBRANCH   4   5
ENDBRANCH   3   4
ENDBRANCH   2   3
TORSDOF 5
ENDMDL
MODEL      343
REMARK 921   NORMALIZED FREE ENERGY PREDICTED BY IDOCK:   -0.62 KCAL/MOL
REMARK 922        TOTAL FREE ENERGY PREDICTED BY IDOCK:   -1.21 KCAL/MOL
REMARK 923 INTER-LIGAND FREE ENERGY PREDICTED BY IDOCK:   -0.87 KCAL/MOL
REMARK 924 INTRA-LIGAND FREE ENERGY PREDICTED BY IDOCK:   -0.34 KCAL/MOL
REMARK 927      BINDING AFFINITY PREDICTED BY RF-SCORE:    0.00 PKD
ROOT
HETATM    1  C   UNL     1     -13.562  10.846  70.982  1.00  0.00     0.477 C  
HETATM    2  C   UNL     1     -13.361   9.505  71.672  1.00  0.00    -0.485 C  
ENDROOT
BRANCH   2   3
HETATM    3  C   UNL     1     -13.493   8.349  70.683  1.00  0.00     0.704 C  
BRANCH   3   4
HETATM    4  C   UNL     1     -12.843   7.070  71.215  1.00  0.00    -0.376 C  
BRANCH   4   5
HETATM    5  C   UNL     1     -12.068   6.350  70.111  1.00  0.00     0.105 C  
BRANCH   5   6
HETATM    6  C   UNL     1     -10.565   6.606  70.224  1.00  0.00    -0.265 C  
BRANCH   6   7
HETATM    7  C   UNL     1      -9.763   5.342  70.021  1.00  0.00    -0.248 A  
HETATM    8  C   UNL     1      -9.139   5.013  68.810  1.00  0.00    -0.109 A  
HETATM    9  C   UNL     1      -8.378   3.851  68.680  1.00  0.00    -0.091 A  
HETATM   10  O   UNL     1      -9.236   5.787  67.688  1.00  0.00    -0.107 OA 
HETATM   11  H   UNL     1      -8.813   5.564  66.867  1.00  0.00     0.000 HD 
HETATM   12  C   UNL     1      -8.259   2.988  69.763  1.00  0.00    -0.044 A  
HETATM   13  C   UNL     1      -8.889   3.272  70.966  1.00  0.00    -0.142 A  
HETATM   14  O   UNL     1      -7.532   1.838  69.680  1.00  0.00    -0.042 OA 
HETATM   15  H   UNL     1      -7.450   1.249  70.420  1.00  0.00     0.000 HD 
HETATM   16  C   UNL     1      -9.637   4.445  71.096  1.00  0.00    -0.245 A  
ENDBRANCH   6   7
ENDBRANCH   5   6
ENDBRANCH   4   5
ENDBRANCH   3   4
ENDBRANCH   2   3
TORSDOF 5
ENDMDL
MODEL      344
REMARK 921   NORMALIZED FREE ENERGY PREDICTED BY IDOCK:   -0.41 KCAL/MOL
REMARK 922        TOTAL FREE ENERGY PREDICTED BY IDOCK:   -0.94 KCAL/MOL
REMARK 923 INTER-LIGAND FREE ENERGY PREDICTED BY IDOCK:   -1.47 KCAL/MOL
REMARK 924 INTRA-LIGAND FREE ENERGY PREDICTED BY IDOCK:    0.54 KCAL/MOL
REMARK 927      BINDING AFFINITY PREDICTED BY RF-SCORE:    0.00 PKD
ROOT
HETATM    1  C   UNL     1      -5.654  11.452  70.352  1.00  0.00    -0.139 C  
HETATM    2  C   UNL     1      -6.059  11.723  68.911  1.00  0.00    -0.054 C  
ENDROOT
BRANCH   2   3
HETATM    3  C   UNL     1      -7.564  11.953  68.793  1.00  0.00    -0.090 C  
BRANCH   3   4
HETATM    4  C   UNL     1      -8.358  10.684  69.109  1.00  0.00    -0.140 C  
BRANCH   4   5
HETATM    5  C   UNL     1      -7.872   9.508  68.261  1.00  0.00    -0.086 C  
BRANCH   5   6
HETATM    6  C   UNL     1      -9.038   8.645  67.777  1.00  0.00    -0.143 C  
BRANCH   6   7
HETATM    7  C   UNL     1      -8.592   7.247  67.421  1.00  0.00    -0.121 A  
HETATM    8  C   UNL     1      -7.409   6.671  67.905  1.00  0.00    -0.096 A  
HETATM    9  C   UNL     1      -7.055   5.362  67.578  1.00  0.00    -0.067 A  
HETATM   10  O   UNL     1      -6.529   7.339  68.710  1.00  0.00    -0.037 OA 
HETATM   11  H   UNL     1      -5.728   6.948  69.037  1.00  0.00     0.000 HD 
HETATM   12  C   UNL     1      -7.876   4.624  66.733  1.00  0.00    -0.099 A  
HETATM   13  C   UNL     1      -9.037   5.177  66.215  1.00  0.00    -0.136 A  
HETATM   14  O   UNL     1      -7.566   3.343  66.380  1.00  0.00    -0.076 OA 
HETATM   15  H   UNL     1      -8.127   2.839  65.803  1.00  0.00     0.000 HD 
HETATM   16  C   UNL     1      -9.396   6.483  66.558  1.00  0.00    -0.188 A  
ENDBRANCH   6   7
ENDBRANCH   5   6
ENDBRANCH   4   5
ENDBRANCH   3   4
ENDBRANCH   2   3
TORSDOF 5
ENDMDL
MODEL      345
REMARK 921   NORMALIZED FREE ENERGY PREDICTED BY IDOCK:   -0.38 KCAL/MOL
REMARK 922        TOTAL FREE ENERGY PREDICTED BY IDOCK:   -0.89 KCAL/MOL
REMARK 923 INTER-LIGAND FREE ENERGY PREDICTED BY IDOCK:   -2.64 KCAL/MOL
REMARK 924 INTRA-LIGAND FREE ENERGY PREDICTED BY IDOCK:    1.75 KCAL/MOL
REMARK 927      BINDING AFFINITY PREDICTED BY RF-SCORE:    0.00 PKD
ROOT
HETATM    1  C   UNL     1      -5.447  13.483  67.654  1.00  0.00    -0.012 C  
HETATM    2  C   UNL     1      -6.258  12.213  67.451  1.00  0.00    -0.142 C  
ENDROOT
BRANCH   2   3
HETATM    3  C   UNL     1      -7.669  12.531  66.957  1.00  0.00    -0.044 C  
BRANCH   3   4
HETATM    4  C   UNL     1      -8.709  12.361  68.064  1.00  0.00    -0.186 C  
BRANCH   4   5
HETATM    5  C   UNL     1      -9.977  13.157  67.751  1.00  0.00    -0.227 C  
BRANCH   5   6
HETATM    6  C   UNL     1     -10.821  12.468  66.678  1.00  0.00    -0.277 C  
BRANCH   6   7
HETATM    7  C   UNL     1     -10.083  11.317  66.038  1.00  0.00    -0.283 A  
HETATM    8  C   UNL     1      -9.832  10.104  66.695  1.00  0.00    -0.200 A  
HETATM    9  C   UNL     1      -9.178   9.053  66.050  1.00  0.00    -0.284 A  
HETATM   10  O   UNL     1     -10.197   9.869  67.990  1.00  0.00    -0.164 OA 
HETATM   11  H   UNL     1     -10.027   9.047  68.435  1.00  0.00     0.000 HD 
HETATM   12  C   UNL     1      -8.740   9.223  64.742  1.00  0.00    -0.188 A  
HETATM   13  C   UNL     1      -8.947  10.422  64.076  1.00  0.00    -0.249 A  
HETATM   14  O   UNL     1      -8.090   8.226  64.075  1.00  0.00    -0.149 OA 
HETATM   15  H   UNL     1      -7.791   8.341  63.181  1.00  0.00     0.000 HD 
HETATM   16  C   UNL     1      -9.617  11.465  64.720  1.00  0.00    -0.239 A  
ENDBRANCH   6   7
ENDBRANCH   5   6
ENDBRANCH   4   5
ENDBRANCH   3   4
ENDBRANCH   2   3
TORSDOF 5
ENDMDL
MODEL      346
REMARK 921   NORMALIZED FREE ENERGY PREDICTED BY IDOCK:   -0.26 KCAL/MOL
REMARK 922        TOTAL FREE ENERGY PREDICTED BY IDOCK:   -0.75 KCAL/MOL
REMARK 923 INTER-LIGAND FREE ENERGY PREDICTED BY IDOCK:   -1.99 KCAL/MOL
REMARK 924 INTRA-LIGAND FREE ENERGY PREDICTED BY IDOCK:    1.25 KCAL/MOL
REMARK 927      BINDING AFFINITY PREDICTED BY RF-SCORE:    0.00 PKD
ROOT
HETATM    1  C   UNL     1      -5.401  11.830  70.181  1.00  0.00    -0.100 C  
HETATM    2  C   UNL     1      -6.058  10.989  69.097  1.00  0.00    -0.045 C  
ENDROOT
BRANCH   2   3
HETATM    3  C   UNL     1      -7.155  11.772  68.379  1.00  0.00    -0.085 C  
BRANCH   3   4
HETATM    4  C   UNL     1      -8.174  10.843  67.718  1.00  0.00    -0.116 C  
BRANCH   4   5
HETATM    5  C   UNL     1      -8.466  11.284  66.282  1.00  0.00    -0.156 C  
BRANCH   5   6
HETATM    6  C   UNL     1      -9.561  12.351  66.235  1.00  0.00    -0.245 C  
BRANCH   6   7
HETATM    7  C   UNL     1     -10.538  12.203  67.377  1.00  0.00    -0.253 A  
HETATM    8  C   UNL     1     -11.442  13.207  67.750  1.00  0.00    -0.313 A  
HETATM    9  C   UNL     1     -12.353  13.012  68.789  1.00  0.00     0.140 A  
HETATM   10  O   UNL     1     -11.493  14.429  67.140  1.00  0.00    -0.330 OA 
HETATM   11  H   UNL     1     -12.105  15.109  67.392  1.00  0.00     0.000 HD 
HETATM   12  C   UNL     1     -12.343  11.810  69.488  1.00  0.00    -0.058 A  
HETATM   13  C   UNL     1     -11.440  10.809  69.161  1.00  0.00    -0.368 A  
HETATM   14  O   UNL     1     -13.210  11.578  70.515  1.00  0.00     0.161 OA 
HETATM   15  H   UNL     1     -13.204  10.758  70.992  1.00  0.00     0.000 HD 
HETATM   16  C   UNL     1     -10.542  11.003  68.110  1.00  0.00    -0.226 A  
ENDBRANCH   6   7
ENDBRANCH   5   6
ENDBRANCH   4   5
ENDBRANCH   3   4
ENDBRANCH   2   3
TORSDOF 5
ENDMDL
MODEL      347
REMARK 921   NORMALIZED FREE ENERGY PREDICTED BY IDOCK:    0.33 KCAL/MOL
REMARK 922        TOTAL FREE ENERGY PREDICTED BY IDOCK:    0.02 KCAL/MOL
REMARK 923 INTER-LIGAND FREE ENERGY PREDICTED BY IDOCK:    0.49 KCAL/MOL
REMARK 924 INTRA-LIGAND FREE ENERGY PREDICTED BY IDOCK:   -0.47 KCAL/MOL
REMARK 927      BINDING AFFINITY PREDICTED BY RF-SCORE:    0.00 PKD
ROOT
HETATM    1  C   UNL     1      -5.160  13.877  66.976  1.00  0.00     1.116 C  
HETATM    2  C   UNL     1      -6.222  13.383  67.947  1.00  0.00    -0.147 C  
ENDROOT
BRANCH   2   3
HETATM    3  C   UNL     1      -7.535  14.143  67.765  1.00  0.00    -0.174 C  
BRANCH   3   4
HETATM    4  C   UNL     1      -7.866  14.356  66.287  1.00  0.00     1.667 C  
BRANCH   4   5
HETATM    5  C   UNL     1      -9.358  14.638  66.096  1.00  0.00    -0.265 C  
BRANCH   5   6
HETATM    6  C   UNL     1      -9.993  15.186  67.374  1.00  0.00    -0.226 C  
BRANCH   6   7
HETATM    7  C   UNL     1     -10.224  16.676  67.291  1.00  0.00    -0.290 A  
HETATM    8  C   UNL     1     -10.723  17.437  68.357  1.00  0.00    -0.301 A  
HETATM    9  C   UNL     1     -10.886  18.818  68.247  1.00  0.00     0.083 A  
HETATM   10  O   UNL     1     -11.087  16.891  69.556  1.00  0.00    -0.341 OA 
HETATM   11  H   UNL     1     -11.425  17.407  70.279  1.00  0.00     0.000 HD 
HETATM   12  C   UNL     1     -10.576  19.448  67.048  1.00  0.00    -0.478 A  
HETATM   13  C   UNL     1     -10.108  18.718  65.966  1.00  0.00    -0.353 A  
HETATM   14  O   UNL     1     -10.726  20.795  66.892  1.00  0.00     0.489 OA 
HETATM   15  H   UNL     1     -10.514  21.225  66.073  1.00  0.00     0.000 HD 
HETATM   16  C   UNL     1      -9.931  17.338  66.086  1.00  0.00    -0.288 A  
ENDBRANCH   6   7
ENDBRANCH   5   6
ENDBRANCH   4   5
ENDBRANCH   3   4
ENDBRANCH   2   3
TORSDOF 5
ENDMDL
MODEL      348
REMARK 921   NORMALIZED FREE ENERGY PREDICTED BY IDOCK:    0.50 KCAL/MOL
REMARK 922        TOTAL FREE ENERGY PREDICTED BY IDOCK:    0.24 KCAL/MOL
REMARK 923 INTER-LIGAND FREE ENERGY PREDICTED BY IDOCK:    0.34 KCAL/MOL
REMARK 924 INTRA-LIGAND FREE ENERGY PREDICTED BY IDOCK:   -0.09 KCAL/MOL
REMARK 927      BINDING AFFINITY PREDICTED BY RF-SCORE:    0.00 PKD
ROOT
HETATM    1  C   UNL     1      -6.126  12.448  72.417  1.00  0.00     2.768 C  
HETATM    2  C   UNL     1      -5.315  12.322  71.136  1.00  0.00    -0.103 C  
ENDROOT
BRANCH   2   3
HETATM    3  C   UNL     1      -6.224  12.266  69.910  1.00  0.00    -0.110 C  
BRANCH   3   4
HETATM    4  C   UNL     1      -6.679  13.660  69.476  1.00  0.00    -0.023 C  
BRANCH   4   5
HETATM    5  C   UNL     1      -6.458  13.867  67.977  1.00  0.00    -0.147 C  
BRANCH   5   6
HETATM    6  C   UNL     1      -7.774  14.137  67.248  1.00  0.00    -0.132 C  
BRANCH   6   7
HETATM    7  C   UNL     1      -8.350  15.485  67.611  1.00  0.00    -0.167 A  
HETATM    8  C   UNL     1      -7.619  16.679  67.537  1.00  0.00    -0.155 A  
HETATM    9  C   UNL     1      -8.204  17.907  67.848  1.00  0.00    -0.246 A  
HETATM   10  O   UNL     1      -6.303  16.725  67.170  1.00  0.00    -0.153 OA 
HETATM   11  H   UNL     1      -5.808  17.534  67.120  1.00  0.00     0.000 HD 
HETATM   12  C   UNL     1      -9.529  17.945  68.267  1.00  0.00    -0.300 A  
HETATM   13  C   UNL     1     -10.269  16.777  68.378  1.00  0.00    -0.296 A  
HETATM   14  O   UNL     1     -10.140  19.121  68.588  1.00  0.00    -0.391 OA 
HETATM   15  H   UNL     1     -11.045  19.147  68.874  1.00  0.00     0.000 HD 
HETATM   16  C   UNL     1      -9.684  15.552  68.051  1.00  0.00    -0.207 A  
ENDBRANCH   6   7
ENDBRANCH   5   6
ENDBRANCH   4   5
ENDBRANCH   3   4
ENDBRANCH   2   3
TORSDOF 5
ENDMDL
MODEL      349
REMARK 921   NORMALIZED FREE ENERGY PREDICTED BY IDOCK:   10.72 KCAL/MOL
REMARK 922        TOTAL FREE ENERGY PREDICTED BY IDOCK:   13.44 KCAL/MOL
REMARK 923 INTER-LIGAND FREE ENERGY PREDICTED BY IDOCK:   13.86 KCAL/MOL
REMARK 924 INTRA-LIGAND FREE ENERGY PREDICTED BY IDOCK:   -0.42 KCAL/MOL
REMARK 927      BINDING AFFINITY PREDICTED BY RF-SCORE:    0.00 PKD
ROOT
HETATM    1  C   UNL     1      -5.810  12.933  64.054  1.00  0.00    11.862 C  
HETATM    2  C   UNL     1      -6.608  11.906  63.267  1.00  0.00     3.505 C  
ENDROOT
BRANCH   2   3
HETATM    3  C   UNL     1      -6.472  10.512  63.878  1.00  0.00     0.057 C  
BRANCH   3   4
HETATM    4  C   UNL     1      -7.396   9.501  63.198  1.00  0.00    -0.110 C  
BRANCH   4   5
HETATM    5  C   UNL     1      -7.105   8.080  63.684  1.00  0.00    -0.078 C  
BRANCH   5   6
HETATM    6  C   UNL     1      -8.374   7.387  64.180  1.00  0.00     0.131 C  
BRANCH   6   7
HETATM    7  C   UNL     1      -8.672   7.725  65.621  1.00  0.00    -0.132 A  
HETATM    8  C   UNL     1      -9.537   8.760  66.005  1.00  0.00    -0.226 A  
HETATM    9  C   UNL     1      -9.811   9.013  67.349  1.00  0.00    -0.244 A  
HETATM   10  O   UNL     1     -10.157   9.585  65.109  1.00  0.00    -0.373 OA 
HETATM   11  H   UNL     1     -10.743  10.285  65.369  1.00  0.00     0.000 HD 
HETATM   12  C   UNL     1      -9.191   8.244  68.328  1.00  0.00    -0.134 A  
HETATM   13  C   UNL     1      -8.308   7.233  67.980  1.00  0.00    -0.123 A  
HETATM   14  O   UNL     1      -9.423   8.461  69.655  1.00  0.00    -0.164 OA 
HETATM   15  H   UNL     1      -9.001   7.935  70.323  1.00  0.00     0.000 HD 
HETATM   16  C   UNL     1      -8.050   6.973  66.632  1.00  0.00    -0.110 A  
ENDBRANCH   6   7
ENDBRANCH   5   6
ENDBRANCH   4   5
ENDBRANCH   3   4
ENDBRANCH   2   3
TORSDOF 5
ENDMDL
MODEL      350
REMARK 921   NORMALIZED FREE ENERGY PREDICTED BY IDOCK:   10.83 KCAL/MOL
REMARK 922        TOTAL FREE ENERGY PREDICTED BY IDOCK:   13.59 KCAL/MOL
REMARK 923 INTER-LIGAND FREE ENERGY PREDICTED BY IDOCK:   14.10 KCAL/MOL
REMARK 924 INTRA-LIGAND FREE ENERGY PREDICTED BY IDOCK:   -0.51 KCAL/MOL
REMARK 927      BINDING AFFINITY PREDICTED BY RF-SCORE:    0.00 PKD
ROOT
HETATM    1  C   UNL     1      -5.127  13.133  64.693  1.00  0.00    10.454 C  
HETATM    2  C   UNL     1      -6.055  12.130  64.025  1.00  0.00     5.938 C  
ENDROOT
BRANCH   2   3
HETATM    3  C   UNL     1      -5.894  10.738  64.634  1.00  0.00     0.061 C  
BRANCH   3   4
HETATM    4  C   UNL     1      -6.933   9.757  64.088  1.00  0.00    -0.123 C  
BRANCH   4   5
HETATM    5  C   UNL     1      -7.364   8.760  65.166  1.00  0.00    -0.088 C  
BRANCH   5   6
HETATM    6  C   UNL     1      -8.879   8.770  65.365  1.00  0.00    -0.221 C  
BRANCH   6   7
HETATM    7  C   UNL     1      -9.307   9.822  66.361  1.00  0.00    -0.218 A  
HETATM    8  C   UNL     1      -9.685  11.121  65.993  1.00  0.00    -0.226 A  
HETATM    9  C   UNL     1     -10.108  12.049  66.945  1.00  0.00    -0.224 A  
HETATM   10  O   UNL     1      -9.660  11.567  64.702  1.00  0.00    -0.297 OA 
HETATM   11  H   UNL     1      -9.916  12.447  64.453  1.00  0.00     0.000 HD 
HETATM   12  C   UNL     1     -10.127  11.688  68.288  1.00  0.00    -0.202 A  
HETATM   13  C   UNL     1      -9.731  10.420  68.685  1.00  0.00    -0.178 A  
HETATM   14  O   UNL     1     -10.526  12.564  69.254  1.00  0.00    -0.433 OA 
HETATM   15  H   UNL     1     -10.540  12.318  70.171  1.00  0.00     0.000 HD 
HETATM   16  C   UNL     1      -9.324   9.489  67.727  1.00  0.00    -0.143 A  
ENDBRANCH   6   7
ENDBRANCH   5   6
ENDBRANCH   4   5
ENDBRANCH   3   4
ENDBRANCH   2   3
TORSDOF 5
ENDMDL
MODEL      351
REMARK 921   NORMALIZED FREE ENERGY PREDICTED BY IDOCK:   31.16 KCAL/MOL
REMARK 922        TOTAL FREE ENERGY PREDICTED BY IDOCK:   39.87 KCAL/MOL
REMARK 923 INTER-LIGAND FREE ENERGY PREDICTED BY IDOCK:   40.25 KCAL/MOL
REMARK 924 INTRA-LIGAND FREE ENERGY PREDICTED BY IDOCK:   -0.38 KCAL/MOL
REMARK 927      BINDING AFFINITY PREDICTED BY RF-SCORE:    0.00 PKD
ROOT
HETATM    1  C   UNL     1      -7.941  10.437  73.151  1.00  0.00     8.349 C  
HETATM    2  C   UNL     1      -8.566  10.859  71.831  1.00  0.00     9.868 C  
ENDROOT
BRANCH   2   3
HETATM    3  C   UNL     1      -7.842  12.067  71.238  1.00  0.00     8.800 C  
BRANCH   3   4
HETATM    4  C   UNL     1      -8.480  13.385  71.681  1.00  0.00    12.030 C  
BRANCH   4   5
HETATM    5  C   UNL     1      -9.230  14.047  70.524  1.00  0.00     3.351 C  
BRANCH   5   6
HETATM    6  C   UNL     1      -8.318  14.263  69.316  1.00  0.00     0.223 C  
BRANCH   6   7
HETATM    7  C   UNL     1      -9.101  14.649  68.084  1.00  0.00    -0.187 A  
HETATM    8  C   UNL     1      -8.656  15.603  67.158  1.00  0.00    -0.210 A  
HETATM    9  C   UNL     1      -9.397  15.902  66.014  1.00  0.00    -0.385 A  
HETATM   10  O   UNL     1      -7.491  16.301  67.308  1.00  0.00    -0.144 OA 
HETATM   11  H   UNL     1      -7.190  16.946  66.680  1.00  0.00     0.000 HD 
HETATM   12  C   UNL     1     -10.614  15.264  65.803  1.00  0.00    -0.347 A  
HETATM   13  C   UNL     1     -11.095  14.337  66.717  1.00  0.00    -0.316 A  
HETATM   14  O   UNL     1     -11.375  15.529  64.703  1.00  0.00    -0.547 OA 
HETATM   15  H   UNL     1     -12.206  15.094  64.559  1.00  0.00     0.000 HD 
HETATM   16  C   UNL     1     -10.342  14.030  67.852  1.00  0.00    -0.239 A  
ENDBRANCH   6   7
ENDBRANCH   5   6
ENDBRANCH   4   5
ENDBRANCH   3   4
ENDBRANCH   2   3
TORSDOF 5
ENDMDL
