MODEL        1
REMARK 921   NORMALIZED FREE ENERGY PREDICTED BY IDOCK:   -4.57 KCAL/MOL
REMARK 922        TOTAL FREE ENERGY PREDICTED BY IDOCK:   -5.37 KCAL/MOL
REMARK 923 INTER-LIGAND FREE ENERGY PREDICTED BY IDOCK:   -5.11 KCAL/MOL
REMARK 924 INTRA-LIGAND FREE ENERGY PREDICTED BY IDOCK:   -0.26 KCAL/MOL
REMARK 927      BINDING AFFINITY PREDICTED BY RF-SCORE:    0.00 PKD
ROOT
HETATM    1  N   UNL     1     -11.509  16.263  63.900  1.00  0.00    -1.539 NA 
HETATM    2  C   UNL     1     -11.273  15.466  65.108  1.00  0.00    -0.350 C  
HETATM    3  H2  UNL     1     -11.837  15.682  63.128  1.00  0.00     0.000 HD 
HETATM    4  H1  UNL     1     -12.148  17.038  64.080  1.00  0.00     0.000 HD 
ENDROOT
BRANCH   2   5
HETATM    5  C   UNL     1     -10.315  14.303  64.840  1.00  0.00    -0.429 C  
BRANCH   5   6
HETATM    6  C   UNL     1     -10.993  13.171  64.149  1.00  0.00    -0.390 A  
HETATM    7  C   UNL     1     -10.439  12.053  63.563  1.00  0.00    -0.464 A  
HETATM    8  N   UNL     1     -11.497  11.344  63.068  1.00  0.00    -0.852 NA 
HETATM    9  C   UNL     1     -12.634  12.039  63.365  1.00  0.00    -0.469 A  
HETATM   10  H   UNL     1     -11.447  10.456  62.567  1.00  0.00     0.000 HD 
HETATM   11  N   UNL     1     -12.363  13.143  64.023  1.00  0.00    -0.615 NA 
ENDBRANCH   5   6
ENDBRANCH   2   5
TORSDOF 2
ENDMDL
MODEL        2
REMARK 921   NORMALIZED FREE ENERGY PREDICTED BY IDOCK:   -4.20 KCAL/MOL
REMARK 922        TOTAL FREE ENERGY PREDICTED BY IDOCK:   -4.95 KCAL/MOL
REMARK 923 INTER-LIGAND FREE ENERGY PREDICTED BY IDOCK:   -4.66 KCAL/MOL
REMARK 924 INTRA-LIGAND FREE ENERGY PREDICTED BY IDOCK:   -0.29 KCAL/MOL
REMARK 927      BINDING AFFINITY PREDICTED BY RF-SCORE:    0.00 PKD
ROOT
HETATM    1  N   UNL     1     -11.736  16.367  63.944  1.00  0.00    -1.527 NA 
HETATM    2  C   UNL     1     -10.964  16.333  65.190  1.00  0.00    -0.274 C  
HETATM    3  H2  UNL     1     -12.526  15.722  63.977  1.00  0.00     0.000 HD 
HETATM    4  H1  UNL     1     -12.037  17.314  63.713  1.00  0.00     0.000 HD 
ENDROOT
BRANCH   2   5
HETATM    5  C   UNL     1     -10.512  14.913  65.536  1.00  0.00    -0.380 C  
BRANCH   5   6
HETATM    6  C   UNL     1     -11.484  13.888  65.063  1.00  0.00    -0.339 A  
HETATM    7  C   UNL     1     -12.619  13.412  65.685  1.00  0.00    -0.438 A  
HETATM    8  N   UNL     1     -13.136  12.481  64.828  1.00  0.00    -0.814 NA 
HETATM    9  C   UNL     1     -12.316  12.425  63.738  1.00  0.00    -0.528 A  
HETATM   10  H   UNL     1     -13.981  11.928  64.977  1.00  0.00     0.000 HD 
HETATM   11  N   UNL     1     -11.315  13.266  63.846  1.00  0.00    -0.363 NA 
ENDBRANCH   5   6
ENDBRANCH   2   5
TORSDOF 2
ENDMDL
MODEL        3
REMARK 921   NORMALIZED FREE ENERGY PREDICTED BY IDOCK:   -3.90 KCAL/MOL
REMARK 922        TOTAL FREE ENERGY PREDICTED BY IDOCK:   -4.62 KCAL/MOL
REMARK 923 INTER-LIGAND FREE ENERGY PREDICTED BY IDOCK:   -4.32 KCAL/MOL
REMARK 924 INTRA-LIGAND FREE ENERGY PREDICTED BY IDOCK:   -0.30 KCAL/MOL
REMARK 927      BINDING AFFINITY PREDICTED BY RF-SCORE:    0.00 PKD
ROOT
HETATM    1  N   UNL     1     -11.827  11.533  67.343  1.00  0.00    -0.620 NA 
HETATM    2  C   UNL     1     -11.546  12.927  67.698  1.00  0.00    -0.355 C  
HETATM    3  H2  UNL     1     -11.443  11.297  66.428  1.00  0.00     0.000 HD 
HETATM    4  H1  UNL     1     -11.500  10.888  68.062  1.00  0.00     0.000 HD 
ENDROOT
BRANCH   2   5
HETATM    5  C   UNL     1     -12.037  13.895  66.619  1.00  0.00    -0.485 C  
BRANCH   5   6
HETATM    6  C   UNL     1     -11.931  13.308  65.255  1.00  0.00    -0.388 A  
HETATM    7  C   UNL     1     -10.882  13.368  64.361  1.00  0.00    -0.406 A  
HETATM    8  N   UNL     1     -11.306  12.677  63.261  1.00  0.00    -0.750 NA 
HETATM    9  C   UNL     1     -12.570  12.228  63.518  1.00  0.00    -0.476 A  
HETATM   10  H   UNL     1     -10.775  12.524  62.403  1.00  0.00     0.000 HD 
HETATM   11  N   UNL     1     -12.972  12.587  64.716  1.00  0.00    -0.842 NA 
ENDBRANCH   5   6
ENDBRANCH   2   5
TORSDOF 2
ENDMDL
MODEL        4
REMARK 921   NORMALIZED FREE ENERGY PREDICTED BY IDOCK:   -3.80 KCAL/MOL
REMARK 922        TOTAL FREE ENERGY PREDICTED BY IDOCK:   -4.50 KCAL/MOL
REMARK 923 INTER-LIGAND FREE ENERGY PREDICTED BY IDOCK:   -4.24 KCAL/MOL
REMARK 924 INTRA-LIGAND FREE ENERGY PREDICTED BY IDOCK:   -0.26 KCAL/MOL
REMARK 927      BINDING AFFINITY PREDICTED BY RF-SCORE:    0.00 PKD
ROOT
HETATM    1  N   UNL     1     -11.749  16.219  63.737  1.00  0.00    -1.488 NA 
HETATM    2  C   UNL     1     -11.657  15.032  64.592  1.00  0.00    -0.386 C  
HETATM    3  H2  UNL     1     -10.888  16.366  63.209  1.00  0.00     0.000 HD 
HETATM    4  H1  UNL     1     -12.561  16.177  63.121  1.00  0.00     0.000 HD 
ENDROOT
BRANCH   2   5
HETATM    5  C   UNL     1     -10.439  15.095  65.517  1.00  0.00    -0.400 C  
BRANCH   5   6
HETATM    6  C   UNL     1     -10.430  16.334  66.342  1.00  0.00    -0.294 A  
HETATM    7  C   UNL     1     -10.708  16.488  67.684  1.00  0.00    -0.311 A  
HETATM    8  N   UNL     1     -10.565  17.824  67.932  1.00  0.00    -0.396 NA 
HETATM    9  C   UNL     1     -10.211  18.424  66.758  1.00  0.00    -0.388 A  
HETATM   10  H   UNL     1     -10.698  18.289  68.830  1.00  0.00     0.000 HD 
HETATM   11  N   UNL     1     -10.114  17.551  65.782  1.00  0.00    -0.583 NA 
ENDBRANCH   5   6
ENDBRANCH   2   5
TORSDOF 2
ENDMDL
MODEL        5
REMARK 921   NORMALIZED FREE ENERGY PREDICTED BY IDOCK:   -3.73 KCAL/MOL
REMARK 922        TOTAL FREE ENERGY PREDICTED BY IDOCK:   -4.42 KCAL/MOL
REMARK 923 INTER-LIGAND FREE ENERGY PREDICTED BY IDOCK:   -4.39 KCAL/MOL
REMARK 924 INTRA-LIGAND FREE ENERGY PREDICTED BY IDOCK:   -0.03 KCAL/MOL
REMARK 927      BINDING AFFINITY PREDICTED BY RF-SCORE:    0.00 PKD
ROOT
HETATM    1  N   UNL     1     -11.736  16.302  63.768  1.00  0.00    -1.488 NA 
HETATM    2  C   UNL     1     -11.234  15.332  64.745  1.00  0.00    -0.396 C  
HETATM    3  H2  UNL     1     -12.587  16.758  64.098  1.00  0.00     0.000 HD 
HETATM    4  H1  UNL     1     -11.021  16.986  63.515  1.00  0.00     0.000 HD 
ENDROOT
BRANCH   2   5
HETATM    5  C   UNL     1     -12.305  14.306  65.124  1.00  0.00    -0.427 C  
BRANCH   5   6
HETATM    6  C   UNL     1     -12.070  13.729  66.477  1.00  0.00    -0.443 A  
HETATM    7  C   UNL     1     -11.884  14.377  67.680  1.00  0.00    -0.378 A  
HETATM    8  N   UNL     1     -11.700  13.384  68.600  1.00  0.00    -0.328 NA 
HETATM    9  C   UNL     1     -11.779  12.192  67.940  1.00  0.00    -0.336 A  
HETATM   10  H   UNL     1     -11.533  13.511  69.599  1.00  0.00     0.000 HD 
HETATM   11  N   UNL     1     -12.009  12.366  66.659  1.00  0.00    -0.596 NA 
ENDBRANCH   5   6
ENDBRANCH   2   5
TORSDOF 2
ENDMDL
MODEL        6
REMARK 921   NORMALIZED FREE ENERGY PREDICTED BY IDOCK:   -3.65 KCAL/MOL
REMARK 922        TOTAL FREE ENERGY PREDICTED BY IDOCK:   -4.34 KCAL/MOL
REMARK 923 INTER-LIGAND FREE ENERGY PREDICTED BY IDOCK:   -4.28 KCAL/MOL
REMARK 924 INTRA-LIGAND FREE ENERGY PREDICTED BY IDOCK:   -0.06 KCAL/MOL
REMARK 927      BINDING AFFINITY PREDICTED BY RF-SCORE:    0.00 PKD
ROOT
HETATM    1  N   UNL     1     -12.151  10.895  68.280  1.00  0.00    -0.810 NA 
HETATM    2  C   UNL     1     -11.068  11.732  67.753  1.00  0.00    -0.243 C  
HETATM    3  H2  UNL     1     -12.715  10.499  67.528  1.00  0.00     0.000 HD 
HETATM    4  H1  UNL     1     -11.795  10.168  68.901  1.00  0.00     0.000 HD 
ENDROOT
BRANCH   2   5
HETATM    5  C   UNL     1     -11.600  12.823  66.821  1.00  0.00    -0.431 C  
BRANCH   5   6
HETATM    6  C   UNL     1     -11.679  12.359  65.409  1.00  0.00    -0.402 A  
HETATM    7  C   UNL     1     -10.744  11.670  64.665  1.00  0.00    -0.315 A  
HETATM    8  N   UNL     1     -11.312  11.505  63.433  1.00  0.00    -0.778 NA 
HETATM    9  C   UNL     1     -12.548  12.085  63.470  1.00  0.00    -0.507 A  
HETATM   10  H   UNL     1     -10.890  11.035  62.633  1.00  0.00     0.000 HD 
HETATM   11  N   UNL     1     -12.801  12.603  64.649  1.00  0.00    -0.792 NA 
ENDBRANCH   5   6
ENDBRANCH   2   5
TORSDOF 2
ENDMDL
MODEL        7
REMARK 921   NORMALIZED FREE ENERGY PREDICTED BY IDOCK:   -3.63 KCAL/MOL
REMARK 922        TOTAL FREE ENERGY PREDICTED BY IDOCK:   -4.32 KCAL/MOL
REMARK 923 INTER-LIGAND FREE ENERGY PREDICTED BY IDOCK:   -4.02 KCAL/MOL
REMARK 924 INTRA-LIGAND FREE ENERGY PREDICTED BY IDOCK:   -0.30 KCAL/MOL
REMARK 927      BINDING AFFINITY PREDICTED BY RF-SCORE:    0.00 PKD
ROOT
HETATM    1  N   UNL     1      -9.733  12.421  64.219  1.00  0.00    -0.543 NA 
HETATM    2  C   UNL     1     -10.788  11.695  63.505  1.00  0.00    -0.425 C  
HETATM    3  H2  UNL     1      -9.908  12.440  65.224  1.00  0.00     0.000 HD 
HETATM    4  H1  UNL     1      -8.808  12.045  64.009  1.00  0.00     0.000 HD 
ENDROOT
BRANCH   2   5
HETATM    5  C   UNL     1     -12.175  12.260  63.819  1.00  0.00    -0.642 C  
BRANCH   5   6
HETATM    6  C   UNL     1     -12.242  12.839  65.189  1.00  0.00    -0.477 A  
HETATM    7  C   UNL     1     -12.674  14.088  65.586  1.00  0.00    -0.481 A  
HETATM    8  N   UNL     1     -12.518  14.109  66.944  1.00  0.00    -0.549 NA 
HETATM    9  C   UNL     1     -12.010  12.898  67.318  1.00  0.00    -0.309 A  
HETATM   10  H   UNL     1     -12.741  14.888  67.564  1.00  0.00     0.000 HD 
HETATM   11  N   UNL     1     -11.839  12.108  66.284  1.00  0.00    -0.594 NA 
ENDBRANCH   5   6
ENDBRANCH   2   5
TORSDOF 2
ENDMDL
MODEL        8
REMARK 921   NORMALIZED FREE ENERGY PREDICTED BY IDOCK:   -3.62 KCAL/MOL
REMARK 922        TOTAL FREE ENERGY PREDICTED BY IDOCK:   -4.31 KCAL/MOL
REMARK 923 INTER-LIGAND FREE ENERGY PREDICTED BY IDOCK:   -4.10 KCAL/MOL
REMARK 924 INTRA-LIGAND FREE ENERGY PREDICTED BY IDOCK:   -0.21 KCAL/MOL
REMARK 927      BINDING AFFINITY PREDICTED BY RF-SCORE:    0.00 PKD
ROOT
HETATM    1  N   UNL     1      -9.355  14.083  65.978  1.00  0.00    -0.514 NA 
HETATM    2  C   UNL     1     -10.245  14.553  67.045  1.00  0.00    -0.262 C  
HETATM    3  H2  UNL     1      -9.698  14.360  65.058  1.00  0.00     0.000 HD 
HETATM    4  H1  UNL     1      -8.394  14.393  66.126  1.00  0.00     0.000 HD 
ENDROOT
BRANCH   2   5
HETATM    5  C   UNL     1     -11.687  14.089  66.823  1.00  0.00    -0.430 C  
BRANCH   5   6
HETATM    6  C   UNL     1     -11.949  13.748  65.397  1.00  0.00    -0.379 A  
HETATM    7  C   UNL     1     -12.262  14.584  64.346  1.00  0.00    -0.458 A  
HETATM    8  N   UNL     1     -12.410  13.762  63.264  1.00  0.00    -1.124 NA 
HETATM    9  C   UNL     1     -12.185  12.483  63.684  1.00  0.00    -0.550 A  
HETATM   10  H   UNL     1     -12.646  14.053  62.314  1.00  0.00     0.000 HD 
HETATM   11  N   UNL     1     -11.897  12.442  64.964  1.00  0.00    -0.382 NA 
ENDBRANCH   5   6
ENDBRANCH   2   5
TORSDOF 2
ENDMDL
MODEL        9
REMARK 921   NORMALIZED FREE ENERGY PREDICTED BY IDOCK:   -3.62 KCAL/MOL
REMARK 922        TOTAL FREE ENERGY PREDICTED BY IDOCK:   -4.31 KCAL/MOL
REMARK 923 INTER-LIGAND FREE ENERGY PREDICTED BY IDOCK:   -4.26 KCAL/MOL
REMARK 924 INTRA-LIGAND FREE ENERGY PREDICTED BY IDOCK:   -0.04 KCAL/MOL
REMARK 927      BINDING AFFINITY PREDICTED BY RF-SCORE:    0.00 PKD
ROOT
HETATM    1  N   UNL     1     -12.076  10.864  68.221  1.00  0.00    -0.810 NA 
HETATM    2  C   UNL     1     -11.744  12.106  67.515  1.00  0.00    -0.315 C  
HETATM    3  H2  UNL     1     -11.269  10.243  68.282  1.00  0.00     0.000 HD 
HETATM    4  H1  UNL     1     -12.473  11.050  69.142  1.00  0.00     0.000 HD 
ENDROOT
BRANCH   2   5
HETATM    5  C   UNL     1     -11.147  11.828  66.133  1.00  0.00    -0.358 C  
BRANCH   5   6
HETATM    6  C   UNL     1     -11.633  12.797  65.112  1.00  0.00    -0.338 A  
HETATM    7  C   UNL     1     -11.917  12.586  63.779  1.00  0.00    -0.517 A  
HETATM    8  N   UNL     1     -12.315  13.803  63.299  1.00  0.00    -1.124 NA 
HETATM    9  C   UNL     1     -12.262  14.691  64.334  1.00  0.00    -0.452 A  
HETATM   10  H   UNL     1     -12.599  14.009  62.341  1.00  0.00     0.000 HD 
HETATM   11  N   UNL     1     -11.861  14.113  65.443  1.00  0.00    -0.349 NA 
ENDBRANCH   5   6
ENDBRANCH   2   5
TORSDOF 2
ENDMDL
MODEL       10
REMARK 921   NORMALIZED FREE ENERGY PREDICTED BY IDOCK:   -3.62 KCAL/MOL
REMARK 922        TOTAL FREE ENERGY PREDICTED BY IDOCK:   -4.30 KCAL/MOL
REMARK 923 INTER-LIGAND FREE ENERGY PREDICTED BY IDOCK:   -4.00 KCAL/MOL
REMARK 924 INTRA-LIGAND FREE ENERGY PREDICTED BY IDOCK:   -0.30 KCAL/MOL
REMARK 927      BINDING AFFINITY PREDICTED BY RF-SCORE:    0.00 PKD
ROOT
HETATM    1  N   UNL     1     -11.952  12.379  67.380  1.00  0.00    -0.520 NA 
HETATM    2  C   UNL     1     -12.057  13.753  66.881  1.00  0.00    -0.413 C  
HETATM    3  H2  UNL     1     -11.414  11.791  66.744  1.00  0.00     0.000 HD 
HETATM    4  H1  UNL     1     -11.571  12.350  68.326  1.00  0.00     0.000 HD 
ENDROOT
BRANCH   2   5
HETATM    5  C   UNL     1     -12.629  13.796  65.462  1.00  0.00    -0.551 C  
BRANCH   5   6
HETATM    6  C   UNL     1     -11.859  12.932  64.525  1.00  0.00    -0.375 A  
HETATM    7  C   UNL     1     -12.317  12.158  63.479  1.00  0.00    -0.574 A  
HETATM    8  N   UNL     1     -11.204  11.563  62.956  1.00  0.00    -0.823 NA 
HETATM    9  C   UNL     1     -10.130  11.987  63.685  1.00  0.00    -0.415 A  
HETATM   10  H   UNL     1     -11.180  10.919  62.165  1.00  0.00     0.000 HD 
HETATM   11  N   UNL     1     -10.492  12.819  64.634  1.00  0.00    -0.333 NA 
ENDBRANCH   5   6
ENDBRANCH   2   5
TORSDOF 2
ENDMDL
MODEL       11
REMARK 921   NORMALIZED FREE ENERGY PREDICTED BY IDOCK:   -3.60 KCAL/MOL
REMARK 922        TOTAL FREE ENERGY PREDICTED BY IDOCK:   -4.28 KCAL/MOL
REMARK 923 INTER-LIGAND FREE ENERGY PREDICTED BY IDOCK:   -4.02 KCAL/MOL
REMARK 924 INTRA-LIGAND FREE ENERGY PREDICTED BY IDOCK:   -0.26 KCAL/MOL
REMARK 927      BINDING AFFINITY PREDICTED BY RF-SCORE:    0.00 PKD
ROOT
HETATM    1  N   UNL     1     -14.276   8.908  73.212  1.00  0.00    -1.237 NA 
HETATM    2  C   UNL     1     -13.935   8.694  71.802  1.00  0.00    -0.434 C  
HETATM    3  H2  UNL     1     -14.109   9.874  73.494  1.00  0.00     0.000 HD 
HETATM    4  H1  UNL     1     -15.233   8.621  73.416  1.00  0.00     0.000 HD 
ENDROOT
BRANCH   2   5
HETATM    5  C   UNL     1     -12.498   9.125  71.497  1.00  0.00    -0.418 C  
BRANCH   5   6
HETATM    6  C   UNL     1     -12.417  10.562  71.117  1.00  0.00    -0.412 A  
HETATM    7  C   UNL     1     -11.695  11.154  70.101  1.00  0.00    -0.353 A  
HETATM    8  N   UNL     1     -11.966  12.490  70.198  1.00  0.00    -0.458 NA 
HETATM    9  C   UNL     1     -12.825  12.661  71.245  1.00  0.00    -0.250 A  
HETATM   10  H   UNL     1     -11.593  13.226  69.597  1.00  0.00     0.000 HD 
HETATM   11  N   UNL     1     -13.121  11.516  71.815  1.00  0.00    -0.459 NA 
ENDBRANCH   5   6
ENDBRANCH   2   5
TORSDOF 2
ENDMDL
MODEL       12
REMARK 921   NORMALIZED FREE ENERGY PREDICTED BY IDOCK:   -3.56 KCAL/MOL
REMARK 922        TOTAL FREE ENERGY PREDICTED BY IDOCK:   -4.24 KCAL/MOL
REMARK 923 INTER-LIGAND FREE ENERGY PREDICTED BY IDOCK:   -3.99 KCAL/MOL
REMARK 924 INTRA-LIGAND FREE ENERGY PREDICTED BY IDOCK:   -0.24 KCAL/MOL
REMARK 927      BINDING AFFINITY PREDICTED BY RF-SCORE:    0.00 PKD
ROOT
HETATM    1  N   UNL     1      -8.776  11.698  62.723  1.00  0.00    -0.640 NA 
HETATM    2  C   UNL     1      -9.716  10.630  63.077  1.00  0.00    -0.323 C  
HETATM    3  H2  UNL     1      -8.188  11.955  63.515  1.00  0.00     0.000 HD 
HETATM    4  H1  UNL     1      -8.216  11.451  61.907  1.00  0.00     0.000 HD 
ENDROOT
BRANCH   2   5
HETATM    5  C   UNL     1     -10.558  11.002  64.301  1.00  0.00    -0.402 C  
BRANCH   5   6
HETATM    6  C   UNL     1     -11.173  12.350  64.164  1.00  0.00    -0.376 A  
HETATM    7  C   UNL     1     -12.226  12.750  63.367  1.00  0.00    -0.504 A  
HETATM    8  N   UNL     1     -12.378  14.086  63.614  1.00  0.00    -1.059 NA 
HETATM    9  C   UNL     1     -11.435  14.444  64.534  1.00  0.00    -0.345 A  
HETATM   10  H   UNL     1     -13.071  14.702  63.188  1.00  0.00     0.000 HD 
HETATM   11  N   UNL     1     -10.698  13.419  64.891  1.00  0.00    -0.347 NA 
ENDBRANCH   5   6
ENDBRANCH   2   5
TORSDOF 2
ENDMDL
MODEL       13
REMARK 921   NORMALIZED FREE ENERGY PREDICTED BY IDOCK:   -3.56 KCAL/MOL
REMARK 922        TOTAL FREE ENERGY PREDICTED BY IDOCK:   -4.24 KCAL/MOL
REMARK 923 INTER-LIGAND FREE ENERGY PREDICTED BY IDOCK:   -4.16 KCAL/MOL
REMARK 924 INTRA-LIGAND FREE ENERGY PREDICTED BY IDOCK:   -0.08 KCAL/MOL
REMARK 927      BINDING AFFINITY PREDICTED BY RF-SCORE:    0.00 PKD
ROOT
HETATM    1  N   UNL     1     -11.554  16.560  64.008  1.00  0.00    -1.544 NA 
HETATM    2  C   UNL     1     -10.684  16.138  65.111  1.00  0.00    -0.371 C  
HETATM    3  H2  UNL     1     -11.404  17.540  63.769  1.00  0.00     0.000 HD 
HETATM    4  H1  UNL     1     -11.446  15.957  63.192  1.00  0.00     0.000 HD 
ENDROOT
BRANCH   2   5
HETATM    5  C   UNL     1     -10.846  17.042  66.335  1.00  0.00     0.048 C  
BRANCH   5   6
HETATM    6  C   UNL     1     -10.042  18.290  66.216  1.00  0.00    -0.380 A  
HETATM    7  C   UNL     1     -10.470  19.583  65.997  1.00  0.00    -0.516 A  
HETATM    8  N   UNL     1      -9.332  20.338  65.962  1.00  0.00    -0.622 NA 
HETATM    9  C   UNL     1      -8.274  19.498  66.159  1.00  0.00    -0.326 A  
HETATM   10  H   UNL     1      -9.282  21.347  65.816  1.00  0.00     0.000 HD 
HETATM   11  N   UNL     1      -8.670  18.257  66.322  1.00  0.00    -0.450 NA 
ENDBRANCH   5   6
ENDBRANCH   2   5
TORSDOF 2
ENDMDL
MODEL       14
REMARK 921   NORMALIZED FREE ENERGY PREDICTED BY IDOCK:   -3.56 KCAL/MOL
REMARK 922        TOTAL FREE ENERGY PREDICTED BY IDOCK:   -4.24 KCAL/MOL
REMARK 923 INTER-LIGAND FREE ENERGY PREDICTED BY IDOCK:   -4.02 KCAL/MOL
REMARK 924 INTRA-LIGAND FREE ENERGY PREDICTED BY IDOCK:   -0.21 KCAL/MOL
REMARK 927      BINDING AFFINITY PREDICTED BY RF-SCORE:    0.00 PKD
ROOT
HETATM    1  N   UNL     1     -12.409  11.592  63.045  1.00  0.00    -0.956 NA 
HETATM    2  C   UNL     1     -11.457  12.589  63.546  1.00  0.00    -0.496 C  
HETATM    3  H2  UNL     1     -13.154  12.029  62.501  1.00  0.00     0.000 HD 
HETATM    4  H1  UNL     1     -11.940  10.859  62.512  1.00  0.00     0.000 HD 
ENDROOT
BRANCH   2   5
HETATM    5  C   UNL     1     -12.159  13.689  64.345  1.00  0.00    -0.470 C  
BRANCH   5   6
HETATM    6  C   UNL     1     -12.037  13.475  65.813  1.00  0.00    -0.433 A  
HETATM    7  C   UNL     1     -12.005  14.408  66.829  1.00  0.00    -0.399 A  
HETATM    8  N   UNL     1     -11.871  13.683  67.980  1.00  0.00    -0.354 NA 
HETATM    9  C   UNL     1     -11.829  12.364  67.633  1.00  0.00    -0.295 A  
HETATM   10  H   UNL     1     -11.813  14.060  68.927  1.00  0.00     0.000 HD 
HETATM   11  N   UNL     1     -11.933  12.205  66.334  1.00  0.00    -0.621 NA 
ENDBRANCH   5   6
ENDBRANCH   2   5
TORSDOF 2
ENDMDL
MODEL       15
REMARK 921   NORMALIZED FREE ENERGY PREDICTED BY IDOCK:   -3.50 KCAL/MOL
REMARK 922        TOTAL FREE ENERGY PREDICTED BY IDOCK:   -4.17 KCAL/MOL
REMARK 923 INTER-LIGAND FREE ENERGY PREDICTED BY IDOCK:   -3.87 KCAL/MOL
REMARK 924 INTRA-LIGAND FREE ENERGY PREDICTED BY IDOCK:   -0.30 KCAL/MOL
REMARK 927      BINDING AFFINITY PREDICTED BY RF-SCORE:    0.00 PKD
ROOT
HETATM    1  N   UNL     1     -12.063  10.518  68.774  1.00  0.00    -0.772 NA 
HETATM    2  C   UNL     1     -11.782  11.582  69.744  1.00  0.00    -0.353 C  
HETATM    3  H2  UNL     1     -13.057  10.471  68.550  1.00  0.00     0.000 HD 
HETATM    4  H1  UNL     1     -11.496  10.618  67.932  1.00  0.00     0.000 HD 
ENDROOT
BRANCH   2   5
HETATM    5  C   UNL     1     -12.633  11.432  71.008  1.00  0.00    -0.487 C  
BRANCH   5   6
HETATM    6  C   UNL     1     -12.474  10.089  71.630  1.00  0.00    -0.418 A  
HETATM    7  C   UNL     1     -13.405   9.325  72.302  1.00  0.00    -0.477 A  
HETATM    8  N   UNL     1     -12.740   8.191  72.675  1.00  0.00    -0.596 NA 
HETATM    9  C   UNL     1     -11.456   8.300  72.226  1.00  0.00    -0.384 A  
HETATM   10  H   UNL     1     -13.132   7.405  73.195  1.00  0.00     0.000 HD 
HETATM   11  N   UNL     1     -11.266   9.430  71.585  1.00  0.00    -0.382 NA 
ENDBRANCH   5   6
ENDBRANCH   2   5
TORSDOF 2
ENDMDL
MODEL       16
REMARK 921   NORMALIZED FREE ENERGY PREDICTED BY IDOCK:   -3.48 KCAL/MOL
REMARK 922        TOTAL FREE ENERGY PREDICTED BY IDOCK:   -4.15 KCAL/MOL
REMARK 923 INTER-LIGAND FREE ENERGY PREDICTED BY IDOCK:   -3.89 KCAL/MOL
REMARK 924 INTRA-LIGAND FREE ENERGY PREDICTED BY IDOCK:   -0.25 KCAL/MOL
REMARK 927      BINDING AFFINITY PREDICTED BY RF-SCORE:    0.00 PKD
ROOT
HETATM    1  N   UNL     1     -12.366  11.488  63.124  1.00  0.00    -0.932 NA 
HETATM    2  C   UNL     1     -11.066  11.649  63.783  1.00  0.00    -0.420 C  
HETATM    3  H2  UNL     1     -12.818  12.389  62.966  1.00  0.00     0.000 HD 
HETATM    4  H1  UNL     1     -12.285  10.955  62.257  1.00  0.00     0.000 HD 
ENDROOT
BRANCH   2   5
HETATM    5  C   UNL     1     -11.188  12.448  65.083  1.00  0.00    -0.356 C  
BRANCH   5   6
HETATM    6  C   UNL     1     -11.273  13.913  64.830  1.00  0.00    -0.356 A  
HETATM    7  C   UNL     1     -10.323  14.889  65.043  1.00  0.00    -0.370 A  
HETATM    8  N   UNL     1     -10.915  16.059  64.655  1.00  0.00    -0.842 NA 
HETATM    9  C   UNL     1     -12.176  15.759  64.227  1.00  0.00     0.093 A  
HETATM   10  H   UNL     1     -10.491  16.987  64.681  1.00  0.00     0.000 HD 
HETATM   11  N   UNL     1     -12.420  14.472  64.314  1.00  0.00    -0.710 NA 
ENDBRANCH   5   6
ENDBRANCH   2   5
TORSDOF 2
ENDMDL
MODEL       17
REMARK 921   NORMALIZED FREE ENERGY PREDICTED BY IDOCK:   -3.46 KCAL/MOL
REMARK 922        TOTAL FREE ENERGY PREDICTED BY IDOCK:   -4.13 KCAL/MOL
REMARK 923 INTER-LIGAND FREE ENERGY PREDICTED BY IDOCK:   -3.82 KCAL/MOL
REMARK 924 INTRA-LIGAND FREE ENERGY PREDICTED BY IDOCK:   -0.31 KCAL/MOL
REMARK 927      BINDING AFFINITY PREDICTED BY RF-SCORE:    0.00 PKD
ROOT
HETATM    1  N   UNL     1     -12.447  14.334  63.330  1.00  0.00    -1.101 NA 
HETATM    2  C   UNL     1     -12.102  12.926  63.555  1.00  0.00    -0.555 C  
HETATM    3  H2  UNL     1     -11.846  14.956  63.872  1.00  0.00     0.000 HD 
HETATM    4  H1  UNL     1     -12.431  14.571  62.338  1.00  0.00     0.000 HD 
ENDROOT
BRANCH   2   5
HETATM    5  C   UNL     1     -12.126  12.570  65.043  1.00  0.00    -0.504 C  
BRANCH   5   6
HETATM    6  C   UNL     1     -11.572  13.664  65.887  1.00  0.00    -0.328 A  
HETATM    7  C   UNL     1     -12.101  14.241  67.023  1.00  0.00    -0.390 A  
HETATM    8  N   UNL     1     -11.201  15.200  67.393  1.00  0.00    -0.327 NA 
HETATM    9  C   UNL     1     -10.176  15.174  66.490  1.00  0.00    -0.276 A  
HETATM   10  H   UNL     1     -11.280  15.823  68.198  1.00  0.00     0.000 HD 
HETATM   11  N   UNL     1     -10.368  14.253  65.574  1.00  0.00    -0.335 NA 
ENDBRANCH   5   6
ENDBRANCH   2   5
TORSDOF 2
ENDMDL
MODEL       18
REMARK 921   NORMALIZED FREE ENERGY PREDICTED BY IDOCK:   -3.46 KCAL/MOL
REMARK 922        TOTAL FREE ENERGY PREDICTED BY IDOCK:   -4.13 KCAL/MOL
REMARK 923 INTER-LIGAND FREE ENERGY PREDICTED BY IDOCK:   -3.87 KCAL/MOL
REMARK 924 INTRA-LIGAND FREE ENERGY PREDICTED BY IDOCK:   -0.26 KCAL/MOL
REMARK 927      BINDING AFFINITY PREDICTED BY RF-SCORE:    0.00 PKD
ROOT
HETATM    1  N   UNL     1     -11.167  14.783  65.712  1.00  0.00    -0.334 NA 
HETATM    2  C   UNL     1     -11.123  13.993  66.946  1.00  0.00    -0.304 C  
HETATM    3  H2  UNL     1     -12.115  14.835  65.336  1.00  0.00     0.000 HD 
HETATM    4  H1  UNL     1     -10.769  15.713  65.845  1.00  0.00     0.000 HD 
ENDROOT
BRANCH   2   5
HETATM    5  C   UNL     1     -11.720  12.598  66.745  1.00  0.00    -0.460 C  
BRANCH   5   6
HETATM    6  C   UNL     1     -11.790  12.224  65.306  1.00  0.00    -0.355 A  
HETATM    7  C   UNL     1     -10.862  11.555  64.535  1.00  0.00    -0.327 A  
HETATM    8  N   UNL     1     -11.415  11.482  63.287  1.00  0.00    -0.852 NA 
HETATM    9  C   UNL     1     -12.634  12.096  63.341  1.00  0.00    -0.463 A  
HETATM   10  H   UNL     1     -10.994  11.049  62.465  1.00  0.00     0.000 HD 
HETATM   11  N   UNL     1     -12.892  12.547  64.546  1.00  0.00    -0.772 NA 
ENDBRANCH   5   6
ENDBRANCH   2   5
TORSDOF 2
ENDMDL
MODEL       19
REMARK 921   NORMALIZED FREE ENERGY PREDICTED BY IDOCK:   -3.44 KCAL/MOL
REMARK 922        TOTAL FREE ENERGY PREDICTED BY IDOCK:   -4.11 KCAL/MOL
REMARK 923 INTER-LIGAND FREE ENERGY PREDICTED BY IDOCK:   -3.86 KCAL/MOL
REMARK 924 INTRA-LIGAND FREE ENERGY PREDICTED BY IDOCK:   -0.25 KCAL/MOL
REMARK 927      BINDING AFFINITY PREDICTED BY RF-SCORE:    0.00 PKD
ROOT
HETATM    1  N   UNL     1     -12.313  15.047  73.921  1.00  0.00    -0.561 NA 
HETATM    2  C   UNL     1     -13.227  16.017  73.309  1.00  0.00    -0.553 C  
HETATM    3  H2  UNL     1     -11.631  14.701  73.246  1.00  0.00     0.000 HD 
HETATM    4  H1  UNL     1     -11.857  15.430  74.749  1.00  0.00     0.000 HD 
ENDROOT
BRANCH   2   5
HETATM    5  C   UNL     1     -13.912  15.443  72.067  1.00  0.00    -0.640 C  
BRANCH   5   6
HETATM    6  C   UNL     1     -13.336  14.127  71.672  1.00  0.00    -0.364 A  
HETATM    7  C   UNL     1     -12.405  13.843  70.695  1.00  0.00    -0.381 A  
HETATM    8  N   UNL     1     -12.236  12.488  70.741  1.00  0.00    -0.449 NA 
HETATM    9  C   UNL     1     -13.052  12.005  71.724  1.00  0.00    -0.355 A  
HETATM   10  H   UNL     1     -11.614  11.937  70.149  1.00  0.00     0.000 HD 
HETATM   11  N   UNL     1     -13.723  12.970  72.308  1.00  0.00    -0.557 NA 
ENDBRANCH   5   6
ENDBRANCH   2   5
TORSDOF 2
ENDMDL
MODEL       20
REMARK 921   NORMALIZED FREE ENERGY PREDICTED BY IDOCK:   -3.42 KCAL/MOL
REMARK 922        TOTAL FREE ENERGY PREDICTED BY IDOCK:   -4.08 KCAL/MOL
REMARK 923 INTER-LIGAND FREE ENERGY PREDICTED BY IDOCK:   -4.05 KCAL/MOL
REMARK 924 INTRA-LIGAND FREE ENERGY PREDICTED BY IDOCK:   -0.03 KCAL/MOL
REMARK 927      BINDING AFFINITY PREDICTED BY RF-SCORE:    0.00 PKD
ROOT
HETATM    1  N   UNL     1     -12.832  16.310  74.537  1.00  0.00    -0.971 NA 
HETATM    2  C   UNL     1     -12.989  15.972  73.119  1.00  0.00    -0.527 C  
HETATM    3  H2  UNL     1     -12.243  17.134  74.660  1.00  0.00     0.000 HD 
HETATM    4  H1  UNL     1     -13.735  16.425  74.998  1.00  0.00     0.000 HD 
ENDROOT
BRANCH   2   5
HETATM    5  C   UNL     1     -11.635  15.799  72.426  1.00  0.00    -0.510 C  
BRANCH   5   6
HETATM    6  C   UNL     1     -11.786  15.504  70.974  1.00  0.00    -0.382 A  
HETATM    7  C   UNL     1     -12.547  14.532  70.359  1.00  0.00    -0.346 A  
HETATM    8  N   UNL     1     -12.318  14.689  69.020  1.00  0.00    -0.583 NA 
HETATM    9  C   UNL     1     -11.446  15.729  68.871  1.00  0.00    -0.378 A  
HETATM   10  H   UNL     1     -12.725  14.130  68.269  1.00  0.00     0.000 HD 
HETATM   11  N   UNL     1     -11.112  16.246  70.031  1.00  0.00    -0.357 NA 
ENDBRANCH   5   6
ENDBRANCH   2   5
TORSDOF 2
ENDMDL
MODEL       21
REMARK 921   NORMALIZED FREE ENERGY PREDICTED BY IDOCK:   -3.41 KCAL/MOL
REMARK 922        TOTAL FREE ENERGY PREDICTED BY IDOCK:   -4.07 KCAL/MOL
REMARK 923 INTER-LIGAND FREE ENERGY PREDICTED BY IDOCK:   -4.00 KCAL/MOL
REMARK 924 INTRA-LIGAND FREE ENERGY PREDICTED BY IDOCK:   -0.06 KCAL/MOL
REMARK 927      BINDING AFFINITY PREDICTED BY RF-SCORE:    0.00 PKD
ROOT
HETATM    1  N   UNL     1     -12.177  11.621  63.125  1.00  0.00    -0.966 NA 
HETATM    2  C   UNL     1     -11.726  12.047  64.453  1.00  0.00    -0.320 C  
HETATM    3  H2  UNL     1     -12.251  12.412  62.485  1.00  0.00     0.000 HD 
HETATM    4  H1  UNL     1     -11.581  10.886  62.742  1.00  0.00     0.000 HD 
ENDROOT
BRANCH   2   5
HETATM    5  C   UNL     1     -12.620  13.148  65.027  1.00  0.00    -0.499 C  
BRANCH   5   6
HETATM    6  C   UNL     1     -12.077  14.507  64.750  1.00  0.00    -0.445 A  
HETATM    7  C   UNL     1     -12.404  15.385  63.737  1.00  0.00     0.471 A  
HETATM    8  N   UNL     1     -11.607  16.478  63.937  1.00  0.00    -1.578 NA 
HETATM    9  C   UNL     1     -10.842  16.233  65.040  1.00  0.00    -0.320 A  
HETATM   10  H   UNL     1     -11.589  17.323  63.365  1.00  0.00     0.000 HD 
HETATM   11  N   UNL     1     -11.106  15.056  65.557  1.00  0.00    -0.346 NA 
ENDBRANCH   5   6
ENDBRANCH   2   5
TORSDOF 2
ENDMDL
MODEL       22
REMARK 921   NORMALIZED FREE ENERGY PREDICTED BY IDOCK:   -3.34 KCAL/MOL
REMARK 922        TOTAL FREE ENERGY PREDICTED BY IDOCK:   -3.99 KCAL/MOL
REMARK 923 INTER-LIGAND FREE ENERGY PREDICTED BY IDOCK:   -3.95 KCAL/MOL
REMARK 924 INTRA-LIGAND FREE ENERGY PREDICTED BY IDOCK:   -0.04 KCAL/MOL
REMARK 927      BINDING AFFINITY PREDICTED BY RF-SCORE:    0.00 PKD
ROOT
HETATM    1  N   UNL     1     -12.092  14.221  68.234  1.00  0.00    -0.549 NA 
HETATM    2  C   UNL     1     -11.848  14.761  69.576  1.00  0.00    -0.326 C  
HETATM    3  H2  UNL     1     -13.064  14.352  67.951  1.00  0.00     0.000 HD 
HETATM    4  H1  UNL     1     -11.448  14.614  67.548  1.00  0.00     0.000 HD 
ENDROOT
BRANCH   2   5
HETATM    5  C   UNL     1     -12.814  14.172  70.606  1.00  0.00    -0.356 C  
BRANCH   5   6
HETATM    6  C   UNL     1     -12.913  15.021  71.826  1.00  0.00    -0.347 A  
HETATM    7  C   UNL     1     -14.035  15.408  72.527  1.00  0.00    -0.543 A  
HETATM    8  N   UNL     1     -13.570  16.186  73.550  1.00  0.00    -0.866 NA 
HETATM    9  C   UNL     1     -12.211  16.243  73.439  1.00  0.00    -0.516 A  
HETATM   10  H   UNL     1     -14.136  16.642  74.267  1.00  0.00     0.000 HD 
HETATM   11  N   UNL     1     -11.783  15.544  72.413  1.00  0.00    -0.447 NA 
ENDBRANCH   5   6
ENDBRANCH   2   5
TORSDOF 2
ENDMDL
MODEL       23
REMARK 921   NORMALIZED FREE ENERGY PREDICTED BY IDOCK:   -3.31 KCAL/MOL
REMARK 922        TOTAL FREE ENERGY PREDICTED BY IDOCK:   -3.96 KCAL/MOL
REMARK 923 INTER-LIGAND FREE ENERGY PREDICTED BY IDOCK:   -3.67 KCAL/MOL
REMARK 924 INTRA-LIGAND FREE ENERGY PREDICTED BY IDOCK:   -0.29 KCAL/MOL
REMARK 927      BINDING AFFINITY PREDICTED BY RF-SCORE:    0.00 PKD
ROOT
HETATM    1  N   UNL     1     -12.274  14.779  68.218  1.00  0.00    -0.591 NA 
HETATM    2  C   UNL     1     -11.898  13.372  68.051  1.00  0.00    -0.357 C  
HETATM    3  H2  UNL     1     -12.745  15.140  67.388  1.00  0.00     0.000 HD 
HETATM    4  H1  UNL     1     -12.835  14.922  69.057  1.00  0.00     0.000 HD 
ENDROOT
BRANCH   2   5
HETATM    5  C   UNL     1     -11.055  13.157  66.791  1.00  0.00    -0.314 C  
BRANCH   5   6
HETATM    6  C   UNL     1     -11.321  14.198  65.760  1.00  0.00    -0.317 A  
HETATM    7  C   UNL     1     -12.177  14.154  64.680  1.00  0.00    -0.445 A  
HETATM    8  N   UNL     1     -12.030  15.361  64.054  1.00  0.00    -0.949 NA 
HETATM    9  C   UNL     1     -11.111  16.081  64.761  1.00  0.00    -0.365 A  
HETATM   10  H   UNL     1     -12.519  15.667  63.212  1.00  0.00     0.000 HD 
HETATM   11  N   UNL     1     -10.670  15.411  65.800  1.00  0.00    -0.335 NA 
ENDBRANCH   5   6
ENDBRANCH   2   5
TORSDOF 2
ENDMDL
MODEL       24
REMARK 921   NORMALIZED FREE ENERGY PREDICTED BY IDOCK:   -3.26 KCAL/MOL
REMARK 922        TOTAL FREE ENERGY PREDICTED BY IDOCK:   -3.91 KCAL/MOL
REMARK 923 INTER-LIGAND FREE ENERGY PREDICTED BY IDOCK:   -3.67 KCAL/MOL
REMARK 924 INTRA-LIGAND FREE ENERGY PREDICTED BY IDOCK:   -0.24 KCAL/MOL
REMARK 927      BINDING AFFINITY PREDICTED BY RF-SCORE:    0.00 PKD
ROOT
HETATM    1  N   UNL     1     -12.310  10.746  68.839  1.00  0.00    -0.786 NA 
HETATM    2  C   UNL     1     -11.250  11.756  68.930  1.00  0.00    -0.253 C  
HETATM    3  H2  UNL     1     -12.743  10.743  67.916  1.00  0.00     0.000 HD 
HETATM    4  H1  UNL     1     -11.969   9.819  69.094  1.00  0.00     0.000 HD 
ENDROOT
BRANCH   2   5
HETATM    5  C   UNL     1     -11.761  13.147  68.548  1.00  0.00    -0.387 C  
BRANCH   5   6
HETATM    6  C   UNL     1     -11.947  13.287  67.078  1.00  0.00    -0.365 A  
HETATM    7  C   UNL     1     -11.957  14.431  66.307  1.00  0.00    -0.376 A  
HETATM    8  N   UNL     1     -12.175  14.002  65.028  1.00  0.00    -0.412 NA 
HETATM    9  C   UNL     1     -12.288  12.642  65.064  1.00  0.00    -0.497 A  
HETATM   10  H   UNL     1     -12.243  14.591  64.197  1.00  0.00     0.000 HD 
HETATM   11  N   UNL     1     -12.147  12.180  66.284  1.00  0.00    -0.589 NA 
ENDBRANCH   5   6
ENDBRANCH   2   5
TORSDOF 2
ENDMDL
MODEL       25
REMARK 921   NORMALIZED FREE ENERGY PREDICTED BY IDOCK:   -3.26 KCAL/MOL
REMARK 922        TOTAL FREE ENERGY PREDICTED BY IDOCK:   -3.90 KCAL/MOL
REMARK 923 INTER-LIGAND FREE ENERGY PREDICTED BY IDOCK:   -3.69 KCAL/MOL
REMARK 924 INTRA-LIGAND FREE ENERGY PREDICTED BY IDOCK:   -0.22 KCAL/MOL
REMARK 927      BINDING AFFINITY PREDICTED BY RF-SCORE:    0.00 PKD
ROOT
HETATM    1  N   UNL     1     -11.584  15.092  68.448  1.00  0.00    -0.332 NA 
HETATM    2  C   UNL     1     -11.021  14.858  69.781  1.00  0.00    -0.258 C  
HETATM    3  H2  UNL     1     -11.187  15.928  68.017  1.00  0.00     0.000 HD 
HETATM    4  H1  UNL     1     -11.475  14.276  67.845  1.00  0.00     0.000 HD 
ENDROOT
BRANCH   2   5
HETATM    5  C   UNL     1     -11.183  16.082  70.686  1.00  0.00    -0.395 C  
BRANCH   5   6
HETATM    6  C   UNL     1     -12.354  15.951  71.596  1.00  0.00    -0.459 A  
HETATM    7  C   UNL     1     -12.430  16.175  72.954  1.00  0.00    -0.475 A  
HETATM    8  N   UNL     1     -13.725  15.899  73.294  1.00  0.00    -0.710 NA 
HETATM    9  C   UNL     1     -14.378  15.525  72.154  1.00  0.00    -0.499 A  
HETATM   10  H   UNL     1     -14.130  15.960  74.228  1.00  0.00     0.000 HD 
HETATM   11  N   UNL     1     -13.580  15.553  71.112  1.00  0.00    -0.561 NA 
ENDBRANCH   5   6
ENDBRANCH   2   5
TORSDOF 2
ENDMDL
MODEL       26
REMARK 921   NORMALIZED FREE ENERGY PREDICTED BY IDOCK:   -3.24 KCAL/MOL
REMARK 922        TOTAL FREE ENERGY PREDICTED BY IDOCK:   -3.88 KCAL/MOL
REMARK 923 INTER-LIGAND FREE ENERGY PREDICTED BY IDOCK:   -3.60 KCAL/MOL
REMARK 924 INTRA-LIGAND FREE ENERGY PREDICTED BY IDOCK:   -0.28 KCAL/MOL
REMARK 927      BINDING AFFINITY PREDICTED BY RF-SCORE:    0.00 PKD
ROOT
HETATM    1  N   UNL     1     -14.021   9.025  73.118  1.00  0.00    -1.215 NA 
HETATM    2  C   UNL     1     -13.528   9.685  71.906  1.00  0.00    -0.413 C  
HETATM    3  H2  UNL     1     -13.547   9.374  73.952  1.00  0.00     0.000 HD 
HETATM    4  H1  UNL     1     -15.034   9.106  73.205  1.00  0.00     0.000 HD 
ENDROOT
BRANCH   2   5
HETATM    5  C   UNL     1     -12.007   9.565  71.775  1.00  0.00    -0.443 C  
BRANCH   5   6
HETATM    6  C   UNL     1     -11.550   8.152  71.883  1.00  0.00    -0.306 A  
HETATM    7  C   UNL     1     -11.528   7.168  70.916  1.00  0.00    -0.297 A  
HETATM    8  N   UNL     1     -11.027   6.060  71.541  1.00  0.00    -0.269 NA 
HETATM    9  C   UNL     1     -10.766   6.401  72.837  1.00  0.00    -0.249 A  
HETATM   10  H   UNL     1     -10.876   5.145  71.116  1.00  0.00     0.000 HD 
HETATM   11  N   UNL     1     -11.064   7.658  73.073  1.00  0.00    -0.405 NA 
ENDBRANCH   5   6
ENDBRANCH   2   5
TORSDOF 2
ENDMDL
MODEL       27
REMARK 921   NORMALIZED FREE ENERGY PREDICTED BY IDOCK:   -3.23 KCAL/MOL
REMARK 922        TOTAL FREE ENERGY PREDICTED BY IDOCK:   -3.87 KCAL/MOL
REMARK 923 INTER-LIGAND FREE ENERGY PREDICTED BY IDOCK:   -3.62 KCAL/MOL
REMARK 924 INTRA-LIGAND FREE ENERGY PREDICTED BY IDOCK:   -0.25 KCAL/MOL
REMARK 927      BINDING AFFINITY PREDICTED BY RF-SCORE:    0.00 PKD
ROOT
HETATM    1  N   UNL     1      -9.061  12.888  66.037  1.00  0.00    -0.444 NA 
HETATM    2  C   UNL     1     -10.391  12.313  65.812  1.00  0.00    -0.258 C  
HETATM    3  H2  UNL     1      -8.953  13.214  66.997  1.00  0.00     0.000 HD 
HETATM    4  H1  UNL     1      -8.320  12.235  65.780  1.00  0.00     0.000 HD 
ENDROOT
BRANCH   2   5
HETATM    5  C   UNL     1     -11.502  13.293  66.198  1.00  0.00    -0.359 C  
BRANCH   5   6
HETATM    6  C   UNL     1     -11.440  14.547  65.398  1.00  0.00    -0.348 A  
HETATM    7  C   UNL     1     -11.894  14.787  64.118  1.00  0.00    -0.214 A  
HETATM    8  N   UNL     1     -11.579  16.092  63.862  1.00  0.00    -1.469 NA 
HETATM    9  C   UNL     1     -10.959  16.591  64.972  1.00  0.00    -0.210 A  
HETATM   10  H   UNL     1     -11.772  16.601  62.999  1.00  0.00     0.000 HD 
HETATM   11  N   UNL     1     -10.867  15.686  65.918  1.00  0.00    -0.318 NA 
ENDBRANCH   5   6
ENDBRANCH   2   5
TORSDOF 2
ENDMDL
MODEL       28
REMARK 921   NORMALIZED FREE ENERGY PREDICTED BY IDOCK:   -3.20 KCAL/MOL
REMARK 922        TOTAL FREE ENERGY PREDICTED BY IDOCK:   -3.83 KCAL/MOL
REMARK 923 INTER-LIGAND FREE ENERGY PREDICTED BY IDOCK:   -3.57 KCAL/MOL
REMARK 924 INTRA-LIGAND FREE ENERGY PREDICTED BY IDOCK:   -0.26 KCAL/MOL
REMARK 927      BINDING AFFINITY PREDICTED BY RF-SCORE:    0.00 PKD
ROOT
HETATM    1  N   UNL     1     -11.597  12.670  67.745  1.00  0.00    -0.328 NA 
HETATM    2  C   UNL     1     -11.756  14.094  68.057  1.00  0.00    -0.359 C  
HETATM    3  H2  UNL     1     -10.645  12.353  67.927  1.00  0.00     0.000 HD 
HETATM    4  H1  UNL     1     -12.282  12.098  68.240  1.00  0.00     0.000 HD 
ENDROOT
BRANCH   2   5
HETATM    5  C   UNL     1     -10.730  14.953  67.315  1.00  0.00    -0.294 C  
BRANCH   5   6
HETATM    6  C   UNL     1     -11.183  15.298  65.939  1.00  0.00    -0.237 A  
HETATM    7  C   UNL     1     -10.850  16.387  65.161  1.00  0.00    -0.275 A  
HETATM    8  N   UNL     1     -11.548  16.224  63.996  1.00  0.00    -1.504 NA 
HETATM    9  C   UNL     1     -12.264  15.066  64.104  1.00  0.00    -0.211 A  
HETATM   10  H   UNL     1     -11.536  16.853  63.193  1.00  0.00     0.000 HD 
HETATM   11  N   UNL     1     -12.059  14.481  65.261  1.00  0.00    -0.361 NA 
ENDBRANCH   5   6
ENDBRANCH   2   5
TORSDOF 2
ENDMDL
MODEL       29
REMARK 921   NORMALIZED FREE ENERGY PREDICTED BY IDOCK:   -3.19 KCAL/MOL
REMARK 922        TOTAL FREE ENERGY PREDICTED BY IDOCK:   -3.82 KCAL/MOL
REMARK 923 INTER-LIGAND FREE ENERGY PREDICTED BY IDOCK:   -3.56 KCAL/MOL
REMARK 924 INTRA-LIGAND FREE ENERGY PREDICTED BY IDOCK:   -0.27 KCAL/MOL
REMARK 927      BINDING AFFINITY PREDICTED BY RF-SCORE:    0.00 PKD
ROOT
HETATM    1  N   UNL     1     -10.311  15.288  70.287  1.00  0.00    -0.496 NA 
HETATM    2  C   UNL     1     -11.337  15.867  71.161  1.00  0.00    -0.382 C  
HETATM    3  H2  UNL     1     -10.539  15.429  69.302  1.00  0.00     0.000 HD 
HETATM    4  H1  UNL     1      -9.382  15.646  70.509  1.00  0.00     0.000 HD 
ENDROOT
BRANCH   2   5
HETATM    5  C   UNL     1     -12.731  15.331  70.827  1.00  0.00    -0.491 C  
BRANCH   5   6
HETATM    6  C   UNL     1     -12.892  13.907  71.231  1.00  0.00    -0.360 A  
HETATM    7  C   UNL     1     -13.606  13.376  72.284  1.00  0.00    -0.605 A  
HETATM    8  N   UNL     1     -13.412  12.025  72.208  1.00  0.00    -0.551 NA 
HETATM    9  C   UNL     1     -12.604  11.786  71.133  1.00  0.00    -0.309 A  
HETATM   10  H   UNL     1     -13.799  11.324  72.840  1.00  0.00     0.000 HD 
HETATM   11  N   UNL     1     -12.279  12.900  70.519  1.00  0.00    -0.361 NA 
ENDBRANCH   5   6
ENDBRANCH   2   5
TORSDOF 2
ENDMDL
MODEL       30
REMARK 921   NORMALIZED FREE ENERGY PREDICTED BY IDOCK:   -3.16 KCAL/MOL
REMARK 922        TOTAL FREE ENERGY PREDICTED BY IDOCK:   -3.79 KCAL/MOL
REMARK 923 INTER-LIGAND FREE ENERGY PREDICTED BY IDOCK:   -3.50 KCAL/MOL
REMARK 924 INTRA-LIGAND FREE ENERGY PREDICTED BY IDOCK:   -0.30 KCAL/MOL
REMARK 927      BINDING AFFINITY PREDICTED BY RF-SCORE:    0.00 PKD
ROOT
HETATM    1  N   UNL     1      -9.043  12.252  65.729  1.00  0.00    -0.436 NA 
HETATM    2  C   UNL     1      -9.676  11.057  65.163  1.00  0.00    -0.254 C  
HETATM    3  H2  UNL     1      -9.386  12.445  66.670  1.00  0.00     0.000 HD 
HETATM    4  H1  UNL     1      -8.026  12.184  65.709  1.00  0.00     0.000 HD 
ENDROOT
BRANCH   2   5
HETATM    5  C   UNL     1     -11.203  11.159  65.192  1.00  0.00     0.008 C  
BRANCH   5   6
HETATM    6  C   UNL     1     -11.685  12.457  64.643  1.00  0.00    -0.365 A  
HETATM    7  C   UNL     1     -11.955  12.802  63.335  1.00  0.00    -0.535 A  
HETATM    8  N   UNL     1     -12.355  14.108  63.383  1.00  0.00    -1.144 NA 
HETATM    9  C   UNL     1     -12.316  14.503  64.689  1.00  0.00    -0.403 A  
HETATM   10  H   UNL     1     -12.632  14.683  62.587  1.00  0.00     0.000 HD 
HETATM   11  N   UNL     1     -11.923  13.528  65.474  1.00  0.00    -0.367 NA 
ENDBRANCH   5   6
ENDBRANCH   2   5
TORSDOF 2
ENDMDL
MODEL       31
REMARK 921   NORMALIZED FREE ENERGY PREDICTED BY IDOCK:   -3.14 KCAL/MOL
REMARK 922        TOTAL FREE ENERGY PREDICTED BY IDOCK:   -3.77 KCAL/MOL
REMARK 923 INTER-LIGAND FREE ENERGY PREDICTED BY IDOCK:   -3.51 KCAL/MOL
REMARK 924 INTRA-LIGAND FREE ENERGY PREDICTED BY IDOCK:   -0.26 KCAL/MOL
REMARK 927      BINDING AFFINITY PREDICTED BY RF-SCORE:    0.00 PKD
ROOT
HETATM    1  N   UNL     1     -14.273   8.876  73.226  1.00  0.00    -1.237 NA 
HETATM    2  C   UNL     1     -14.336   8.538  71.800  1.00  0.00    -0.437 C  
HETATM    3  H2  UNL     1     -13.310   8.906  73.560  1.00  0.00     0.000 HD 
HETATM    4  H1  UNL     1     -14.765   9.747  73.428  1.00  0.00     0.000 HD 
ENDROOT
BRANCH   2   5
HETATM    5  C   UNL     1     -13.598   7.232  71.497  1.00  0.00    -0.442 C  
BRANCH   5   6
HETATM    6  C   UNL     1     -12.146   7.455  71.254  1.00  0.00    -0.328 A  
HETATM    7  C   UNL     1     -11.294   6.789  70.399  1.00  0.00    -0.347 A  
HETATM    8  N   UNL     1     -10.074   7.381  70.572  1.00  0.00    -0.191 NA 
HETATM    9  C   UNL     1     -10.224   8.366  71.505  1.00  0.00    -0.228 A  
HETATM   10  H   UNL     1      -9.210   7.132  70.091  1.00  0.00     0.000 HD 
HETATM   11  N   UNL     1     -11.463   8.441  71.931  1.00  0.00    -0.295 NA 
ENDBRANCH   5   6
ENDBRANCH   2   5
TORSDOF 2
ENDMDL
MODEL       32
REMARK 921   NORMALIZED FREE ENERGY PREDICTED BY IDOCK:   -3.13 KCAL/MOL
REMARK 922        TOTAL FREE ENERGY PREDICTED BY IDOCK:   -3.75 KCAL/MOL
REMARK 923 INTER-LIGAND FREE ENERGY PREDICTED BY IDOCK:   -3.70 KCAL/MOL
REMARK 924 INTRA-LIGAND FREE ENERGY PREDICTED BY IDOCK:   -0.06 KCAL/MOL
REMARK 927      BINDING AFFINITY PREDICTED BY RF-SCORE:    0.00 PKD
ROOT
HETATM    1  N   UNL     1     -10.296  14.368  68.216  1.00  0.00    -0.234 NA 
HETATM    2  C   UNL     1     -11.038  13.225  67.677  1.00  0.00    -0.269 C  
HETATM    3  H2  UNL     1     -10.919  15.034  68.675  1.00  0.00     0.000 HD 
HETATM    4  H1  UNL     1      -9.545  14.069  68.840  1.00  0.00     0.000 HD 
ENDROOT
BRANCH   2   5
HETATM    5  C   UNL     1     -12.164  13.672  66.742  1.00  0.00    -0.416 C  
BRANCH   5   6
HETATM    6  C   UNL     1     -11.925  13.241  65.336  1.00  0.00    -0.395 A  
HETATM    7  C   UNL     1     -10.784  13.362  64.571  1.00  0.00    -0.419 A  
HETATM    8  N   UNL     1     -11.104  12.818  63.359  1.00  0.00    -0.622 NA 
HETATM    9  C   UNL     1     -12.399  12.392  63.428  1.00  0.00    -0.499 A  
HETATM   10  H   UNL     1     -10.486  12.743  62.550  1.00  0.00     0.000 HD 
HETATM   11  N   UNL     1     -12.920  12.627  64.610  1.00  0.00    -0.844 NA 
ENDBRANCH   5   6
ENDBRANCH   2   5
TORSDOF 2
ENDMDL
MODEL       33
REMARK 921   NORMALIZED FREE ENERGY PREDICTED BY IDOCK:   -3.12 KCAL/MOL
REMARK 922        TOTAL FREE ENERGY PREDICTED BY IDOCK:   -3.75 KCAL/MOL
REMARK 923 INTER-LIGAND FREE ENERGY PREDICTED BY IDOCK:   -3.72 KCAL/MOL
REMARK 924 INTRA-LIGAND FREE ENERGY PREDICTED BY IDOCK:   -0.03 KCAL/MOL
REMARK 927      BINDING AFFINITY PREDICTED BY RF-SCORE:    0.00 PKD
ROOT
HETATM    1  N   UNL     1     -11.545  16.290  63.791  1.00  0.00    -1.482 NA 
HETATM    2  C   UNL     1     -11.283  15.529  65.016  1.00  0.00    -0.358 C  
HETATM    3  H2  UNL     1     -12.492  16.670  63.783  1.00  0.00     0.000 HD 
HETATM    4  H1  UNL     1     -10.849  17.022  63.647  1.00  0.00     0.000 HD 
ENDROOT
BRANCH   2   5
HETATM    5  C   UNL     1     -12.327  14.430  65.233  1.00  0.00    -0.372 C  
BRANCH   5   6
HETATM    6  C   UNL     1     -11.751  13.242  65.920  1.00  0.00    -0.365 A  
HETATM    7  C   UNL     1     -11.423  12.009  65.398  1.00  0.00    -0.305 A  
HETATM    8  N   UNL     1     -10.944  11.285  66.454  1.00  0.00    -0.262 NA 
HETATM    9  C   UNL     1     -10.995  12.087  67.558  1.00  0.00    -0.253 A  
HETATM   10  H   UNL     1     -10.610  10.321  66.423  1.00  0.00     0.000 HD 
HETATM   11  N   UNL     1     -11.470  13.275  67.268  1.00  0.00    -0.320 NA 
ENDBRANCH   5   6
ENDBRANCH   2   5
TORSDOF 2
ENDMDL
MODEL       34
REMARK 921   NORMALIZED FREE ENERGY PREDICTED BY IDOCK:   -3.11 KCAL/MOL
REMARK 922        TOTAL FREE ENERGY PREDICTED BY IDOCK:   -3.74 KCAL/MOL
REMARK 923 INTER-LIGAND FREE ENERGY PREDICTED BY IDOCK:   -3.69 KCAL/MOL
REMARK 924 INTRA-LIGAND FREE ENERGY PREDICTED BY IDOCK:   -0.05 KCAL/MOL
REMARK 927      BINDING AFFINITY PREDICTED BY RF-SCORE:    0.00 PKD
ROOT
HETATM    1  N   UNL     1     -13.542  10.091  72.350  1.00  0.00    -0.599 NA 
HETATM    2  C   UNL     1     -13.074  11.257  71.595  1.00  0.00    -0.408 C  
HETATM    3  H2  UNL     1     -14.554  10.110  72.476  1.00  0.00     0.000 HD 
HETATM    4  H1  UNL     1     -13.236   9.217  71.921  1.00  0.00     0.000 HD 
ENDROOT
BRANCH   2   5
HETATM    5  C   UNL     1     -13.532  12.568  72.240  1.00  0.00    -0.490 C  
BRANCH   5   6
HETATM    6  C   UNL     1     -13.226  13.746  71.383  1.00  0.00    -0.305 A  
HETATM    7  C   UNL     1     -13.830  14.986  71.360  1.00  0.00    -0.479 A  
HETATM    8  N   UNL     1     -13.177  15.688  70.386  1.00  0.00    -0.748 NA 
HETATM    9  C   UNL     1     -12.218  14.869  69.862  1.00  0.00    -0.309 A  
HETATM   10  H   UNL     1     -13.371  16.648  70.101  1.00  0.00     0.000 HD 
HETATM   11  N   UNL     1     -12.218  13.694  70.447  1.00  0.00    -0.353 NA 
ENDBRANCH   5   6
ENDBRANCH   2   5
TORSDOF 2
ENDMDL
MODEL       35
REMARK 921   NORMALIZED FREE ENERGY PREDICTED BY IDOCK:   -3.11 KCAL/MOL
REMARK 922        TOTAL FREE ENERGY PREDICTED BY IDOCK:   -3.73 KCAL/MOL
REMARK 923 INTER-LIGAND FREE ENERGY PREDICTED BY IDOCK:   -3.69 KCAL/MOL
REMARK 924 INTRA-LIGAND FREE ENERGY PREDICTED BY IDOCK:   -0.05 KCAL/MOL
REMARK 927      BINDING AFFINITY PREDICTED BY RF-SCORE:    0.00 PKD
ROOT
HETATM    1  N   UNL     1     -14.130   8.896  73.144  1.00  0.00    -1.225 NA 
HETATM    2  C   UNL     1     -13.485   9.714  72.112  1.00  0.00    -0.429 C  
HETATM    3  H2  UNL     1     -13.458   8.584  73.846  1.00  0.00     0.000 HD 
HETATM    4  H1  UNL     1     -14.917   9.384  73.573  1.00  0.00     0.000 HD 
ENDROOT
BRANCH   2   5
HETATM    5  C   UNL     1     -12.304   8.983  71.468  1.00  0.00    -0.397 C  
BRANCH   5   6
HETATM    6  C   UNL     1     -11.522   9.874  70.567  1.00  0.00    -0.318 A  
HETATM    7  C   UNL     1     -10.183   9.822  70.240  1.00  0.00    -0.289 A  
HETATM    8  N   UNL     1      -9.979  10.873  69.390  1.00  0.00    -0.421 NA 
HETATM    9  C   UNL     1     -11.175  11.512  69.231  1.00  0.00    -0.272 A  
HETATM   10  H   UNL     1      -9.094  11.131  68.953  1.00  0.00     0.000 HD 
HETATM   11  N   UNL     1     -12.126  10.930  69.923  1.00  0.00    -0.333 NA 
ENDBRANCH   5   6
ENDBRANCH   2   5
TORSDOF 2
ENDMDL
MODEL       36
REMARK 921   NORMALIZED FREE ENERGY PREDICTED BY IDOCK:   -3.09 KCAL/MOL
REMARK 922        TOTAL FREE ENERGY PREDICTED BY IDOCK:   -3.71 KCAL/MOL
REMARK 923 INTER-LIGAND FREE ENERGY PREDICTED BY IDOCK:   -3.45 KCAL/MOL
REMARK 924 INTRA-LIGAND FREE ENERGY PREDICTED BY IDOCK:   -0.26 KCAL/MOL
REMARK 927      BINDING AFFINITY PREDICTED BY RF-SCORE:    0.00 PKD
ROOT
HETATM    1  N   UNL     1      -9.055  20.242  65.961  1.00  0.00    -0.601 NA 
HETATM    2  C   UNL     1     -10.454  19.831  66.120  1.00  0.00    -0.509 C  
HETATM    3  H2  UNL     1      -8.430  19.437  65.939  1.00  0.00     0.000 HD 
HETATM    4  H1  UNL     1      -8.929  20.835  65.140  1.00  0.00     0.000 HD 
ENDROOT
BRANCH   2   5
HETATM    5  C   UNL     1     -10.644  18.942  67.351  1.00  0.00    -0.534 C  
BRANCH   5   6
HETATM    6  C   UNL     1     -10.404  17.505  67.044  1.00  0.00    -0.324 A  
HETATM    7  C   UNL     1     -10.772  16.388  67.764  1.00  0.00    -0.328 A  
HETATM    8  N   UNL     1     -10.299  15.325  67.047  1.00  0.00    -0.272 NA 
HETATM    9  C   UNL     1      -9.675  15.821  65.939  1.00  0.00    -0.354 A  
HETATM   10  H   UNL     1     -10.395  14.340  67.295  1.00  0.00     0.000 HD 
HETATM   11  N   UNL     1      -9.728  17.132  65.904  1.00  0.00    -0.529 NA 
ENDBRANCH   5   6
ENDBRANCH   2   5
TORSDOF 2
ENDMDL
MODEL       37
REMARK 921   NORMALIZED FREE ENERGY PREDICTED BY IDOCK:   -3.05 KCAL/MOL
REMARK 922        TOTAL FREE ENERGY PREDICTED BY IDOCK:   -3.67 KCAL/MOL
REMARK 923 INTER-LIGAND FREE ENERGY PREDICTED BY IDOCK:   -3.42 KCAL/MOL
REMARK 924 INTRA-LIGAND FREE ENERGY PREDICTED BY IDOCK:   -0.25 KCAL/MOL
REMARK 927      BINDING AFFINITY PREDICTED BY RF-SCORE:    0.00 PKD
ROOT
HETATM    1  N   UNL     1     -13.505   6.854  72.018  1.00  0.00    -0.539 NA 
HETATM    2  C   UNL     1     -14.382   8.001  71.763  1.00  0.00    -0.478 C  
HETATM    3  H2  UNL     1     -13.270   6.777  73.008  1.00  0.00     0.000 HD 
HETATM    4  H1  UNL     1     -13.908   5.987  71.663  1.00  0.00     0.000 HD 
ENDROOT
BRANCH   2   5
HETATM    5  C   UNL     1     -13.778   9.303  72.297  1.00  0.00    -0.527 C  
BRANCH   5   6
HETATM    6  C   UNL     1     -12.501   9.646  71.612  1.00  0.00    -0.407 A  
HETATM    7  C   UNL     1     -12.231  10.681  70.742  1.00  0.00    -0.375 A  
HETATM    8  N   UNL     1     -10.916  10.532  70.401  1.00  0.00    -0.436 NA 
HETATM    9  C   UNL     1     -10.442   9.436  71.062  1.00  0.00    -0.322 A  
HETATM   10  H   UNL     1     -10.386  11.131  69.767  1.00  0.00     0.000 HD 
HETATM   11  N   UNL     1     -11.371   8.884  71.806  1.00  0.00    -0.338 NA 
ENDBRANCH   5   6
ENDBRANCH   2   5
TORSDOF 2
ENDMDL
MODEL       38
REMARK 921   NORMALIZED FREE ENERGY PREDICTED BY IDOCK:   -2.98 KCAL/MOL
REMARK 922        TOTAL FREE ENERGY PREDICTED BY IDOCK:   -3.59 KCAL/MOL
REMARK 923 INTER-LIGAND FREE ENERGY PREDICTED BY IDOCK:   -3.52 KCAL/MOL
REMARK 924 INTRA-LIGAND FREE ENERGY PREDICTED BY IDOCK:   -0.07 KCAL/MOL
REMARK 927      BINDING AFFINITY PREDICTED BY RF-SCORE:    0.00 PKD
ROOT
HETATM    1  N   UNL     1     -13.699  15.553  70.784  1.00  0.00    -0.859 NA 
HETATM    2  C   UNL     1     -12.389  15.265  70.192  1.00  0.00    -0.353 C  
HETATM    3  H2  UNL     1     -13.829  15.052  71.663  1.00  0.00     0.000 HD 
HETATM    4  H1  UNL     1     -13.847  16.555  70.901  1.00  0.00     0.000 HD 
ENDROOT
BRANCH   2   5
HETATM    5  C   UNL     1     -12.167  13.761  70.016  1.00  0.00    -0.407 C  
BRANCH   5   6
HETATM    6  C   UNL     1     -12.064  13.377  68.581  1.00  0.00    -0.246 A  
HETATM    7  C   UNL     1     -11.911  12.125  68.024  1.00  0.00    -0.285 A  
HETATM    8  N   UNL     1     -11.861  12.335  66.674  1.00  0.00    -0.594 NA 
HETATM    9  C   UNL     1     -11.984  13.678  66.462  1.00  0.00    -0.424 A  
HETATM   10  H   UNL     1     -11.751  11.618  65.956  1.00  0.00     0.000 HD 
HETATM   11  N   UNL     1     -12.115  14.333  67.592  1.00  0.00    -0.354 NA 
ENDBRANCH   5   6
ENDBRANCH   2   5
TORSDOF 2
ENDMDL
MODEL       39
REMARK 921   NORMALIZED FREE ENERGY PREDICTED BY IDOCK:   -2.97 KCAL/MOL
REMARK 922        TOTAL FREE ENERGY PREDICTED BY IDOCK:   -3.58 KCAL/MOL
REMARK 923 INTER-LIGAND FREE ENERGY PREDICTED BY IDOCK:   -3.29 KCAL/MOL
REMARK 924 INTRA-LIGAND FREE ENERGY PREDICTED BY IDOCK:   -0.29 KCAL/MOL
REMARK 927      BINDING AFFINITY PREDICTED BY RF-SCORE:    0.00 PKD
ROOT
HETATM    1  N   UNL     1     -11.799   6.805  69.689  1.00  0.00    -0.646 NA 
HETATM    2  C   UNL     1     -11.558   6.357  71.064  1.00  0.00    -0.325 C  
HETATM    3  H2  UNL     1     -10.969   7.243  69.288  1.00  0.00     0.000 HD 
HETATM    4  H1  UNL     1     -12.140   6.044  69.100  1.00  0.00     0.000 HD 
ENDROOT
BRANCH   2   5
HETATM    5  C   UNL     1     -11.047   7.497  71.948  1.00  0.00    -0.277 C  
BRANCH   5   6
HETATM    6  C   UNL     1     -11.917   8.703  71.860  1.00  0.00    -0.356 A  
HETATM    7  C   UNL     1     -13.067   8.999  72.561  1.00  0.00    -0.385 A  
HETATM    8  N   UNL     1     -13.473  10.216  72.091  1.00  0.00    -0.534 NA 
HETATM    9  C   UNL     1     -12.574  10.611  71.142  1.00  0.00    -0.423 A  
HETATM   10  H   UNL     1     -14.297  10.736  72.395  1.00  0.00     0.000 HD 
HETATM   11  N   UNL     1     -11.621   9.723  70.985  1.00  0.00    -0.345 NA 
ENDBRANCH   5   6
ENDBRANCH   2   5
TORSDOF 2
ENDMDL
MODEL       40
REMARK 921   NORMALIZED FREE ENERGY PREDICTED BY IDOCK:   -2.93 KCAL/MOL
REMARK 922        TOTAL FREE ENERGY PREDICTED BY IDOCK:   -3.54 KCAL/MOL
REMARK 923 INTER-LIGAND FREE ENERGY PREDICTED BY IDOCK:   -3.30 KCAL/MOL
REMARK 924 INTRA-LIGAND FREE ENERGY PREDICTED BY IDOCK:   -0.23 KCAL/MOL
REMARK 927      BINDING AFFINITY PREDICTED BY RF-SCORE:    0.00 PKD
ROOT
HETATM    1  N   UNL     1      -9.716  13.387  68.590  1.00  0.00    -0.390 NA 
HETATM    2  C   UNL     1     -10.950  14.171  68.702  1.00  0.00    -0.258 C  
HETATM    3  H2  UNL     1      -9.375  13.364  67.629  1.00  0.00     0.000 HD 
HETATM    4  H1  UNL     1      -8.998  13.723  69.232  1.00  0.00     0.000 HD 
ENDROOT
BRANCH   2   5
HETATM    5  C   UNL     1     -12.028  13.668  67.739  1.00  0.00    -0.387 C  
BRANCH   5   6
HETATM    6  C   UNL     1     -11.805  14.155  66.350  1.00  0.00    -0.423 A  
HETATM    7  C   UNL     1     -12.320  13.672  65.165  1.00  0.00    -0.452 A  
HETATM    8  N   UNL     1     -11.791  14.471  64.190  1.00  0.00    -0.674 NA 
HETATM    9  C   UNL     1     -10.990  15.392  64.802  1.00  0.00    -0.393 A  
HETATM   10  H   UNL     1     -11.962  14.392  63.187  1.00  0.00     0.000 HD 
HETATM   11  N   UNL     1     -10.984  15.232  66.105  1.00  0.00    -0.325 NA 
ENDBRANCH   5   6
ENDBRANCH   2   5
TORSDOF 2
ENDMDL
MODEL       41
REMARK 921   NORMALIZED FREE ENERGY PREDICTED BY IDOCK:   -2.90 KCAL/MOL
REMARK 922        TOTAL FREE ENERGY PREDICTED BY IDOCK:   -3.50 KCAL/MOL
REMARK 923 INTER-LIGAND FREE ENERGY PREDICTED BY IDOCK:   -3.47 KCAL/MOL
REMARK 924 INTRA-LIGAND FREE ENERGY PREDICTED BY IDOCK:   -0.03 KCAL/MOL
REMARK 927      BINDING AFFINITY PREDICTED BY RF-SCORE:    0.00 PKD
ROOT
HETATM    1  N   UNL     1     -12.004  12.740  70.287  1.00  0.00    -0.499 NA 
HETATM    2  C   UNL     1     -12.256  11.296  70.336  1.00  0.00    -0.365 C  
HETATM    3  H2  UNL     1     -11.531  13.065  71.130  1.00  0.00     0.000 HD 
HETATM    4  H1  UNL     1     -11.490  13.003  69.446  1.00  0.00     0.000 HD 
ENDROOT
BRANCH   2   5
HETATM    5  C   UNL     1     -13.028  10.901  71.597  1.00  0.00    -0.569 C  
BRANCH   5   6
HETATM    6  C   UNL     1     -13.053   9.425  71.795  1.00  0.00    -0.409 A  
HETATM    7  C   UNL     1     -12.034   8.582  72.187  1.00  0.00    -0.383 A  
HETATM    8  N   UNL     1     -12.585   7.332  72.200  1.00  0.00    -0.505 NA 
HETATM    9  C   UNL     1     -13.892   7.454  71.825  1.00  0.00    -0.330 A  
HETATM   10  H   UNL     1     -12.106   6.464  72.445  1.00  0.00     0.000 HD 
HETATM   11  N   UNL     1     -14.206   8.705  71.581  1.00  0.00    -0.414 NA 
ENDBRANCH   5   6
ENDBRANCH   2   5
TORSDOF 2
ENDMDL
MODEL       42
REMARK 921   NORMALIZED FREE ENERGY PREDICTED BY IDOCK:   -2.90 KCAL/MOL
REMARK 922        TOTAL FREE ENERGY PREDICTED BY IDOCK:   -3.50 KCAL/MOL
REMARK 923 INTER-LIGAND FREE ENERGY PREDICTED BY IDOCK:   -3.45 KCAL/MOL
REMARK 924 INTRA-LIGAND FREE ENERGY PREDICTED BY IDOCK:   -0.05 KCAL/MOL
REMARK 927      BINDING AFFINITY PREDICTED BY RF-SCORE:    0.00 PKD
ROOT
HETATM    1  N   UNL     1     -12.699   8.902  71.095  1.00  0.00    -0.478 NA 
HETATM    2  C   UNL     1     -13.052  10.240  71.582  1.00  0.00    -0.449 C  
HETATM    3  H2  UNL     1     -11.699   8.723  71.188  1.00  0.00     0.000 HD 
HETATM    4  H1  UNL     1     -13.252   8.177  71.553  1.00  0.00     0.000 HD 
ENDROOT
BRANCH   2   5
HETATM    5  C   UNL     1     -12.223  11.327  70.894  1.00  0.00    -0.460 C  
BRANCH   5   6
HETATM    6  C   UNL     1     -12.670  12.695  71.280  1.00  0.00    -0.257 A  
HETATM    7  C   UNL     1     -12.307  13.912  70.743  1.00  0.00    -0.378 A  
HETATM    8  N   UNL     1     -12.996  14.845  71.467  1.00  0.00    -0.318 NA 
HETATM    9  C   UNL     1     -13.738  14.177  72.398  1.00  0.00    -0.544 A  
HETATM   10  H   UNL     1     -12.961  15.856  71.336  1.00  0.00     0.000 HD 
HETATM   11  N   UNL     1     -13.569  12.878  72.306  1.00  0.00    -0.565 NA 
ENDBRANCH   5   6
ENDBRANCH   2   5
TORSDOF 2
ENDMDL
MODEL       43
REMARK 921   NORMALIZED FREE ENERGY PREDICTED BY IDOCK:   -2.86 KCAL/MOL
REMARK 922        TOTAL FREE ENERGY PREDICTED BY IDOCK:   -3.45 KCAL/MOL
REMARK 923 INTER-LIGAND FREE ENERGY PREDICTED BY IDOCK:   -3.42 KCAL/MOL
REMARK 924 INTRA-LIGAND FREE ENERGY PREDICTED BY IDOCK:   -0.03 KCAL/MOL
REMARK 927      BINDING AFFINITY PREDICTED BY RF-SCORE:    0.00 PKD
ROOT
HETATM    1  N   UNL     1     -11.406  16.553  64.189  1.00  0.00    -1.452 NA 
HETATM    2  C   UNL     1     -10.420  15.940  65.083  1.00  0.00    -0.335 C  
HETATM    3  H2  UNL     1     -11.399  17.570  64.268  1.00  0.00     0.000 HD 
HETATM    4  H1  UNL     1     -11.276  16.253  63.222  1.00  0.00     0.000 HD 
ENDROOT
BRANCH   2   5
HETATM    5  C   UNL     1     -10.615  16.389  66.533  1.00  0.00    -0.235 C  
BRANCH   5   6
HETATM    6  C   UNL     1     -10.772  15.232  67.458  1.00  0.00    -0.285 A  
HETATM    7  C   UNL     1      -9.849  14.274  67.817  1.00  0.00    -0.223 A  
HETATM    8  N   UNL     1     -10.508  13.442  68.679  1.00  0.00    -0.287 NA 
HETATM    9  C   UNL     1     -11.782  13.915  68.812  1.00  0.00    -0.357 A  
HETATM   10  H   UNL     1     -10.119  12.618  69.139  1.00  0.00     0.000 HD 
HETATM   11  N   UNL     1     -11.971  14.997  68.094  1.00  0.00    -0.248 NA 
ENDBRANCH   5   6
ENDBRANCH   2   5
TORSDOF 2
ENDMDL
MODEL       44
REMARK 921   NORMALIZED FREE ENERGY PREDICTED BY IDOCK:   -2.83 KCAL/MOL
REMARK 922        TOTAL FREE ENERGY PREDICTED BY IDOCK:   -3.42 KCAL/MOL
REMARK 923 INTER-LIGAND FREE ENERGY PREDICTED BY IDOCK:   -3.26 KCAL/MOL
REMARK 924 INTRA-LIGAND FREE ENERGY PREDICTED BY IDOCK:   -0.16 KCAL/MOL
REMARK 927      BINDING AFFINITY PREDICTED BY RF-SCORE:    0.00 PKD
ROOT
HETATM    1  N   UNL     1      -7.998  10.687  64.469  1.00  0.00    -0.356 NA 
HETATM    2  C   UNL     1      -9.180  10.413  65.291  1.00  0.00    -0.199 C  
HETATM    3  H2  UNL     1      -7.314  11.249  64.975  1.00  0.00     0.000 HD 
HETATM    4  H1  UNL     1      -7.582   9.827  64.111  1.00  0.00     0.000 HD 
ENDROOT
BRANCH   2   5
HETATM    5  C   UNL     1      -9.806  11.703  65.829  1.00  0.00    -0.268 C  
BRANCH   5   6
HETATM    6  C   UNL     1     -11.075  12.041  65.127  1.00  0.00    -0.318 A  
HETATM    7  C   UNL     1     -12.233  12.587  65.638  1.00  0.00    -0.335 A  
HETATM    8  N   UNL     1     -13.088  12.680  64.575  1.00  0.00    -0.820 NA 
HETATM    9  C   UNL     1     -12.433  12.200  63.477  1.00  0.00    -0.555 A  
HETATM   10  H   UNL     1     -14.041  13.043  64.598  1.00  0.00     0.000 HD 
HETATM   11  N   UNL     1     -11.214  11.814  63.776  1.00  0.00    -0.410 NA 
ENDBRANCH   5   6
ENDBRANCH   2   5
TORSDOF 2
ENDMDL
MODEL       45
REMARK 921   NORMALIZED FREE ENERGY PREDICTED BY IDOCK:   -2.83 KCAL/MOL
REMARK 922        TOTAL FREE ENERGY PREDICTED BY IDOCK:   -3.42 KCAL/MOL
REMARK 923 INTER-LIGAND FREE ENERGY PREDICTED BY IDOCK:   -3.12 KCAL/MOL
REMARK 924 INTRA-LIGAND FREE ENERGY PREDICTED BY IDOCK:   -0.29 KCAL/MOL
REMARK 927      BINDING AFFINITY PREDICTED BY RF-SCORE:    0.00 PKD
ROOT
HETATM    1  N   UNL     1     -12.346  11.483  63.024  1.00  0.00    -0.935 NA 
HETATM    2  C   UNL     1     -11.877  12.733  63.631  1.00  0.00    -0.532 C  
HETATM    3  H2  UNL     1     -12.824  10.894  63.707  1.00  0.00     0.000 HD 
HETATM    4  H1  UNL     1     -12.932  11.658  62.208  1.00  0.00     0.000 HD 
ENDROOT
BRANCH   2   5
HETATM    5  C   UNL     1     -10.998  12.471  64.856  1.00  0.00    -0.335 C  
BRANCH   5   6
HETATM    6  C   UNL     1     -10.321  11.147  64.783  1.00  0.00    -0.325 A  
HETATM    7  C   UNL     1     -10.400  10.079  65.652  1.00  0.00    -0.101 A  
HETATM    8  N   UNL     1      -9.577   9.123  65.125  1.00  0.00    -0.446 NA 
HETATM    9  C   UNL     1      -9.040   9.630  63.977  1.00  0.00    -0.200 A  
HETATM   10  H   UNL     1      -9.398   8.198  65.518  1.00  0.00     0.000 HD 
HETATM   11  N   UNL     1      -9.474  10.846  63.740  1.00  0.00    -0.251 NA 
ENDBRANCH   5   6
ENDBRANCH   2   5
TORSDOF 2
ENDMDL
MODEL       46
REMARK 921   NORMALIZED FREE ENERGY PREDICTED BY IDOCK:   -2.82 KCAL/MOL
REMARK 922        TOTAL FREE ENERGY PREDICTED BY IDOCK:   -3.41 KCAL/MOL
REMARK 923 INTER-LIGAND FREE ENERGY PREDICTED BY IDOCK:   -3.14 KCAL/MOL
REMARK 924 INTRA-LIGAND FREE ENERGY PREDICTED BY IDOCK:   -0.27 KCAL/MOL
REMARK 927      BINDING AFFINITY PREDICTED BY RF-SCORE:    0.00 PKD
ROOT
HETATM    1  N   UNL     1     -11.665  12.038  67.265  1.00  0.00    -0.548 NA 
HETATM    2  C   UNL     1     -11.876  12.206  65.824  1.00  0.00    -0.274 C  
HETATM    3  H2  UNL     1     -12.510  12.257  67.793  1.00  0.00     0.000 HD 
HETATM    4  H1  UNL     1     -11.318  11.105  67.488  1.00  0.00     0.000 HD 
ENDROOT
BRANCH   2   5
HETATM    5  C   UNL     1     -12.397  13.606  65.489  1.00  0.00    -0.519 C  
BRANCH   5   6
HETATM    6  C   UNL     1     -11.398  14.663  65.810  1.00  0.00    -0.340 A  
HETATM    7  C   UNL     1     -10.554  15.349  64.962  1.00  0.00    -0.420 A  
HETATM    8  N   UNL     1      -9.842  16.193  65.768  1.00  0.00    -0.421 NA 
HETATM    9  C   UNL     1     -10.270  15.997  67.049  1.00  0.00    -0.282 A  
HETATM   10  H   UNL     1      -9.122  16.851  65.466  1.00  0.00     0.000 HD 
HETATM   11  N   UNL     1     -11.213  15.086  67.107  1.00  0.00    -0.337 NA 
ENDBRANCH   5   6
ENDBRANCH   2   5
TORSDOF 2
ENDMDL
MODEL       47
REMARK 921   NORMALIZED FREE ENERGY PREDICTED BY IDOCK:   -2.81 KCAL/MOL
REMARK 922        TOTAL FREE ENERGY PREDICTED BY IDOCK:   -3.40 KCAL/MOL
REMARK 923 INTER-LIGAND FREE ENERGY PREDICTED BY IDOCK:   -3.35 KCAL/MOL
REMARK 924 INTRA-LIGAND FREE ENERGY PREDICTED BY IDOCK:   -0.05 KCAL/MOL
REMARK 927      BINDING AFFINITY PREDICTED BY RF-SCORE:    0.00 PKD
ROOT
HETATM    1  N   UNL     1     -10.153  14.609  69.090  1.00  0.00    -0.339 NA 
HETATM    2  C   UNL     1     -11.061  13.594  68.547  1.00  0.00    -0.275 C  
HETATM    3  H2  UNL     1     -10.668  15.383  69.510  1.00  0.00     0.000 HD 
HETATM    4  H1  UNL     1      -9.486  14.205  69.748  1.00  0.00     0.000 HD 
ENDROOT
BRANCH   2   5
HETATM    5  C   UNL     1     -12.061  14.200  67.560  1.00  0.00    -0.363 C  
BRANCH   5   6
HETATM    6  C   UNL     1     -11.698  13.902  66.147  1.00  0.00    -0.376 A  
HETATM    7  C   UNL     1     -10.448  13.777  65.577  1.00  0.00    -0.318 A  
HETATM    8  N   UNL     1     -10.679  13.513  64.256  1.00  0.00    -0.547 NA 
HETATM    9  C   UNL     1     -12.032  13.486  64.072  1.00  0.00    -0.449 A  
HETATM   10  H   UNL     1      -9.969  13.363  63.538  1.00  0.00     0.000 HD 
HETATM   11  N   UNL     1     -12.674  13.710  65.195  1.00  0.00    -0.682 NA 
ENDBRANCH   5   6
ENDBRANCH   2   5
TORSDOF 2
ENDMDL
MODEL       48
REMARK 921   NORMALIZED FREE ENERGY PREDICTED BY IDOCK:   -2.80 KCAL/MOL
REMARK 922        TOTAL FREE ENERGY PREDICTED BY IDOCK:   -3.39 KCAL/MOL
REMARK 923 INTER-LIGAND FREE ENERGY PREDICTED BY IDOCK:   -3.12 KCAL/MOL
REMARK 924 INTRA-LIGAND FREE ENERGY PREDICTED BY IDOCK:   -0.27 KCAL/MOL
REMARK 927      BINDING AFFINITY PREDICTED BY RF-SCORE:    0.00 PKD
ROOT
HETATM    1  N   UNL     1     -14.387  15.301  70.990  1.00  0.00    -0.819 NA 
HETATM    2  C   UNL     1     -12.990  15.610  71.309  1.00  0.00    -0.492 C  
HETATM    3  H2  UNL     1     -14.460  14.470  70.403  1.00  0.00     0.000 HD 
HETATM    4  H1  UNL     1     -14.955  15.213  71.833  1.00  0.00     0.000 HD 
ENDROOT
BRANCH   2   5
HETATM    5  C   UNL     1     -12.138  15.743  70.044  1.00  0.00    -0.344 C  
BRANCH   5   6
HETATM    6  C   UNL     1     -11.691  14.418  69.533  1.00  0.00    -0.313 A  
HETATM    7  C   UNL     1     -10.818  14.132  68.504  1.00  0.00    -0.252 A  
HETATM    8  N   UNL     1     -10.767  12.767  68.444  1.00  0.00    -0.243 NA 
HETATM    9  C   UNL     1     -11.591  12.281  69.418  1.00  0.00    -0.314 A  
HETATM   10  H   UNL     1     -10.213  12.213  67.790  1.00  0.00     0.000 HD 
HETATM   11  N   UNL     1     -12.157  13.252  70.096  1.00  0.00    -0.348 NA 
ENDBRANCH   5   6
ENDBRANCH   2   5
TORSDOF 2
ENDMDL
MODEL       49
REMARK 921   NORMALIZED FREE ENERGY PREDICTED BY IDOCK:   -2.77 KCAL/MOL
REMARK 922        TOTAL FREE ENERGY PREDICTED BY IDOCK:   -3.36 KCAL/MOL
REMARK 923 INTER-LIGAND FREE ENERGY PREDICTED BY IDOCK:   -3.32 KCAL/MOL
REMARK 924 INTRA-LIGAND FREE ENERGY PREDICTED BY IDOCK:   -0.04 KCAL/MOL
REMARK 927      BINDING AFFINITY PREDICTED BY RF-SCORE:    0.00 PKD
ROOT
HETATM    1  N   UNL     1     -11.433   6.587  67.303  1.00  0.00    -0.743 NA 
HETATM    2  C   UNL     1     -10.727   6.925  68.543  1.00  0.00    -0.207 C  
HETATM    3  H2  UNL     1     -12.443   6.567  67.443  1.00  0.00     0.000 HD 
HETATM    4  H1  UNL     1     -11.175   7.214  66.540  1.00  0.00     0.000 HD 
ENDROOT
BRANCH   2   5
HETATM    5  C   UNL     1     -11.113   5.986  69.687  1.00  0.00    -0.474 C  
BRANCH   5   6
HETATM    6  C   UNL     1     -11.439   6.732  70.934  1.00  0.00    -0.334 A  
HETATM    7  C   UNL     1     -12.672   7.102  71.430  1.00  0.00    -0.391 A  
HETATM    8  N   UNL     1     -12.407   7.772  72.591  1.00  0.00    -0.575 NA 
HETATM    9  C   UNL     1     -11.052   7.784  72.759  1.00  0.00    -0.398 A  
HETATM   10  H   UNL     1     -13.097   8.187  73.219  1.00  0.00     0.000 HD 
HETATM   11  N   UNL     1     -10.441   7.159  71.780  1.00  0.00    -0.198 NA 
ENDBRANCH   5   6
ENDBRANCH   2   5
TORSDOF 2
ENDMDL
MODEL       50
REMARK 921   NORMALIZED FREE ENERGY PREDICTED BY IDOCK:   -2.74 KCAL/MOL
REMARK 922        TOTAL FREE ENERGY PREDICTED BY IDOCK:   -3.32 KCAL/MOL
REMARK 923 INTER-LIGAND FREE ENERGY PREDICTED BY IDOCK:   -3.04 KCAL/MOL
REMARK 924 INTRA-LIGAND FREE ENERGY PREDICTED BY IDOCK:   -0.28 KCAL/MOL
REMARK 927      BINDING AFFINITY PREDICTED BY RF-SCORE:    0.00 PKD
ROOT
HETATM    1  N   UNL     1     -12.343  10.536  68.907  1.00  0.00    -0.735 NA 
HETATM    2  C   UNL     1     -11.670  11.036  70.110  1.00  0.00    -0.356 C  
HETATM    3  H2  UNL     1     -13.320  10.307  69.095  1.00  0.00     0.000 HD 
HETATM    4  H1  UNL     1     -12.256  11.189  68.129  1.00  0.00     0.000 HD 
ENDROOT
BRANCH   2   5
HETATM    5  C   UNL     1     -11.800  10.056  71.279  1.00  0.00    -0.471 C  
BRANCH   5   6
HETATM    6  C   UNL     1     -11.628   8.643  70.842  1.00  0.00    -0.269 A  
HETATM    7  C   UNL     1     -12.291   7.513  71.272  1.00  0.00    -0.327 A  
HETATM    8  N   UNL     1     -11.745   6.482  70.560  1.00  0.00    -0.395 NA 
HETATM    9  C   UNL     1     -10.791   7.009  69.738  1.00  0.00    -0.248 A  
HETATM   10  H   UNL     1     -12.004   5.497  70.630  1.00  0.00     0.000 HD 
HETATM   11  N   UNL     1     -10.701   8.311  69.880  1.00  0.00    -0.240 NA 
ENDBRANCH   5   6
ENDBRANCH   2   5
TORSDOF 2
ENDMDL
MODEL       51
REMARK 921   NORMALIZED FREE ENERGY PREDICTED BY IDOCK:   -2.73 KCAL/MOL
REMARK 922        TOTAL FREE ENERGY PREDICTED BY IDOCK:   -3.31 KCAL/MOL
REMARK 923 INTER-LIGAND FREE ENERGY PREDICTED BY IDOCK:   -3.25 KCAL/MOL
REMARK 924 INTRA-LIGAND FREE ENERGY PREDICTED BY IDOCK:   -0.06 KCAL/MOL
REMARK 927      BINDING AFFINITY PREDICTED BY RF-SCORE:    0.00 PKD
ROOT
HETATM    1  N   UNL     1     -13.250  11.000  72.175  1.00  0.00    -0.583 NA 
HETATM    2  C   UNL     1     -13.086  10.524  70.797  1.00  0.00    -0.257 C  
HETATM    3  H2  UNL     1     -13.115  12.009  72.239  1.00  0.00     0.000 HD 
HETATM    4  H1  UNL     1     -14.149  10.718  72.566  1.00  0.00     0.000 HD 
ENDROOT
BRANCH   2   5
HETATM    5  C   UNL     1     -11.737  10.946  70.210  1.00  0.00    -0.437 C  
BRANCH   5   6
HETATM    6  C   UNL     1     -11.874  12.091  69.267  1.00  0.00    -0.318 A  
HETATM    7  C   UNL     1     -12.043  13.431  69.544  1.00  0.00    -0.278 A  
HETATM    8  N   UNL     1     -12.122  14.044  68.325  1.00  0.00    -0.512 NA 
HETATM    9  C   UNL     1     -12.000  13.077  67.370  1.00  0.00    -0.316 A  
HETATM   10  H   UNL     1     -12.250  15.043  68.160  1.00  0.00     0.000 HD 
HETATM   11  N   UNL     1     -11.841  11.889  67.906  1.00  0.00    -0.552 NA 
ENDBRANCH   5   6
ENDBRANCH   2   5
TORSDOF 2
ENDMDL
MODEL       52
REMARK 921   NORMALIZED FREE ENERGY PREDICTED BY IDOCK:   -2.72 KCAL/MOL
REMARK 922        TOTAL FREE ENERGY PREDICTED BY IDOCK:   -3.30 KCAL/MOL
REMARK 923 INTER-LIGAND FREE ENERGY PREDICTED BY IDOCK:   -3.24 KCAL/MOL
REMARK 924 INTRA-LIGAND FREE ENERGY PREDICTED BY IDOCK:   -0.05 KCAL/MOL
REMARK 927      BINDING AFFINITY PREDICTED BY RF-SCORE:    0.00 PKD
ROOT
HETATM    1  N   UNL     1      -9.760  10.383  69.800  1.00  0.00    -0.416 NA 
HETATM    2  C   UNL     1     -11.144  10.736  69.470  1.00  0.00    -0.278 C  
HETATM    3  H2  UNL     1      -9.102  11.069  69.431  1.00  0.00     0.000 HD 
HETATM    4  H1  UNL     1      -9.635  10.249  70.804  1.00  0.00     0.000 HD 
ENDROOT
BRANCH   2   5
HETATM    5  C   UNL     1     -11.332  10.937  67.965  1.00  0.00    -0.382 C  
BRANCH   5   6
HETATM    6  C   UNL     1     -11.643  12.354  67.626  1.00  0.00    -0.357 A  
HETATM    7  C   UNL     1     -11.777  13.440  68.466  1.00  0.00    -0.357 A  
HETATM    8  N   UNL     1     -12.073  14.494  67.648  1.00  0.00    -0.588 NA 
HETATM    9  C   UNL     1     -12.107  14.023  66.367  1.00  0.00    -0.455 A  
HETATM   10  H   UNL     1     -12.239  15.457  67.941  1.00  0.00     0.000 HD 
HETATM   11  N   UNL     1     -11.845  12.738  66.320  1.00  0.00    -0.411 NA 
ENDBRANCH   5   6
ENDBRANCH   2   5
TORSDOF 2
ENDMDL
MODEL       53
REMARK 921   NORMALIZED FREE ENERGY PREDICTED BY IDOCK:   -2.70 KCAL/MOL
REMARK 922        TOTAL FREE ENERGY PREDICTED BY IDOCK:   -3.28 KCAL/MOL
REMARK 923 INTER-LIGAND FREE ENERGY PREDICTED BY IDOCK:   -3.24 KCAL/MOL
REMARK 924 INTRA-LIGAND FREE ENERGY PREDICTED BY IDOCK:   -0.04 KCAL/MOL
REMARK 927      BINDING AFFINITY PREDICTED BY RF-SCORE:    0.00 PKD
ROOT
HETATM    1  N   UNL     1     -10.559  15.203  70.362  1.00  0.00    -0.508 NA 
HETATM    2  C   UNL     1     -11.449  14.160  69.843  1.00  0.00    -0.226 C  
HETATM    3  H2  UNL     1     -10.019  14.869  71.161  1.00  0.00     0.000 HD 
HETATM    4  H1  UNL     1      -9.952  15.578  69.633  1.00  0.00     0.000 HD 
ENDROOT
BRANCH   2   5
HETATM    5  C   UNL     1     -12.360  13.599  70.937  1.00  0.00    -0.450 C  
BRANCH   5   6
HETATM    6  C   UNL     1     -12.481  12.117  70.854  1.00  0.00    -0.279 A  
HETATM    7  C   UNL     1     -12.035  11.261  69.869  1.00  0.00    -0.365 A  
HETATM    8  N   UNL     1     -12.413  10.013  70.277  1.00  0.00    -0.512 NA 
HETATM    9  C   UNL     1     -13.061  10.149  71.472  1.00  0.00    -0.429 A  
HETATM   10  H   UNL     1     -12.243   9.138  69.780  1.00  0.00     0.000 HD 
HETATM   11  N   UNL     1     -13.112  11.405  71.850  1.00  0.00    -0.473 NA 
ENDBRANCH   5   6
ENDBRANCH   2   5
TORSDOF 2
ENDMDL
MODEL       54
REMARK 921   NORMALIZED FREE ENERGY PREDICTED BY IDOCK:   -2.70 KCAL/MOL
REMARK 922        TOTAL FREE ENERGY PREDICTED BY IDOCK:   -3.27 KCAL/MOL
REMARK 923 INTER-LIGAND FREE ENERGY PREDICTED BY IDOCK:   -3.21 KCAL/MOL
REMARK 924 INTRA-LIGAND FREE ENERGY PREDICTED BY IDOCK:   -0.07 KCAL/MOL
REMARK 927      BINDING AFFINITY PREDICTED BY RF-SCORE:    0.00 PKD
ROOT
HETATM    1  N   UNL     1      -5.961  20.599  71.844  1.00  0.00    -0.746 NA 
HETATM    2  C   UNL     1      -5.810  19.870  70.580  1.00  0.00    -0.302 C  
HETATM    3  H2  UNL     1      -6.706  21.294  71.786  1.00  0.00     0.000 HD 
HETATM    4  H1  UNL     1      -6.104  19.964  72.629  1.00  0.00     0.000 HD 
ENDROOT
BRANCH   2   5
HETATM    5  C   UNL     1      -5.596  20.822  69.401  1.00  0.00    -0.408 C  
BRANCH   5   6
HETATM    6  C   UNL     1      -6.526  20.531  68.275  1.00  0.00    -0.303 A  
HETATM    7  C   UNL     1      -6.560  21.081  67.011  1.00  0.00    -0.343 A  
HETATM    8  N   UNL     1      -7.610  20.472  66.381  1.00  0.00    -0.499 NA 
HETATM    9  C   UNL     1      -8.164  19.591  67.264  1.00  0.00    -0.288 A  
HETATM   10  H   UNL     1      -7.922  20.645  65.425  1.00  0.00     0.000 HD 
HETATM   11  N   UNL     1      -7.529  19.598  68.413  1.00  0.00    -0.317 NA 
ENDBRANCH   5   6
ENDBRANCH   2   5
TORSDOF 2
ENDMDL
MODEL       55
REMARK 921   NORMALIZED FREE ENERGY PREDICTED BY IDOCK:   -2.69 KCAL/MOL
REMARK 922        TOTAL FREE ENERGY PREDICTED BY IDOCK:   -3.27 KCAL/MOL
REMARK 923 INTER-LIGAND FREE ENERGY PREDICTED BY IDOCK:   -3.01 KCAL/MOL
REMARK 924 INTRA-LIGAND FREE ENERGY PREDICTED BY IDOCK:   -0.25 KCAL/MOL
REMARK 927      BINDING AFFINITY PREDICTED BY RF-SCORE:    0.00 PKD
ROOT
HETATM    1  N   UNL     1      -6.682  21.368  66.587  1.00  0.00    -0.756 NA 
HETATM    2  C   UNL     1      -6.823  20.481  67.746  1.00  0.00    -0.322 C  
HETATM    3  H2  UNL     1      -7.522  21.362  66.009  1.00  0.00     0.000 HD 
HETATM    4  H1  UNL     1      -6.429  22.316  66.868  1.00  0.00     0.000 HD 
ENDROOT
BRANCH   2   5
HETATM    5  C   UNL     1      -7.202  19.059  67.325  1.00  0.00    -0.228 C  
BRANCH   5   6
HETATM    6  C   UNL     1      -8.651  18.940  67.005  1.00  0.00    -0.289 A  
HETATM    7  C   UNL     1      -9.470  17.833  67.075  1.00  0.00    -0.271 A  
HETATM    8  N   UNL     1     -10.699  18.267  66.663  1.00  0.00    -0.276 NA 
HETATM    9  C   UNL     1     -10.588  19.594  66.364  1.00  0.00    -0.486 A  
HETATM   10  H   UNL     1     -11.546  17.701  66.591  1.00  0.00     0.000 HD 
HETATM   11  N   UNL     1      -9.367  20.032  66.566  1.00  0.00    -0.382 NA 
ENDBRANCH   5   6
ENDBRANCH   2   5
TORSDOF 2
ENDMDL
MODEL       56
REMARK 921   NORMALIZED FREE ENERGY PREDICTED BY IDOCK:   -2.69 KCAL/MOL
REMARK 922        TOTAL FREE ENERGY PREDICTED BY IDOCK:   -3.26 KCAL/MOL
REMARK 923 INTER-LIGAND FREE ENERGY PREDICTED BY IDOCK:   -3.02 KCAL/MOL
REMARK 924 INTRA-LIGAND FREE ENERGY PREDICTED BY IDOCK:   -0.24 KCAL/MOL
REMARK 927      BINDING AFFINITY PREDICTED BY RF-SCORE:    0.00 PKD
ROOT
HETATM    1  N   UNL     1      -9.080  17.177  68.542  1.00  0.00    -0.259 NA 
HETATM    2  C   UNL     1      -8.051  16.530  67.721  1.00  0.00    -0.161 C  
HETATM    3  H2  UNL     1      -9.980  17.200  68.063  1.00  0.00     0.000 HD 
HETATM    4  H1  UNL     1      -9.158  16.740  69.461  1.00  0.00     0.000 HD 
ENDROOT
BRANCH   2   5
HETATM    5  C   UNL     1      -7.933  17.187  66.343  1.00  0.00    -0.346 C  
BRANCH   5   6
HETATM    6  C   UNL     1      -8.775  18.411  66.236  1.00  0.00    -0.191 A  
HETATM    7  C   UNL     1      -8.408  19.733  66.368  1.00  0.00    -0.350 A  
HETATM    8  N   UNL     1      -9.559  20.447  66.188  1.00  0.00    -0.670 NA 
HETATM    9  C   UNL     1     -10.565  19.553  65.957  1.00  0.00    -0.491 A  
HETATM   10  H   UNL     1      -9.651  21.463  66.221  1.00  0.00     0.000 HD 
HETATM   11  N   UNL     1     -10.123  18.318  65.972  1.00  0.00    -0.553 NA 
ENDBRANCH   5   6
ENDBRANCH   2   5
TORSDOF 2
ENDMDL
MODEL       57
REMARK 921   NORMALIZED FREE ENERGY PREDICTED BY IDOCK:   -2.68 KCAL/MOL
REMARK 922        TOTAL FREE ENERGY PREDICTED BY IDOCK:   -3.26 KCAL/MOL
REMARK 923 INTER-LIGAND FREE ENERGY PREDICTED BY IDOCK:   -3.01 KCAL/MOL
REMARK 924 INTRA-LIGAND FREE ENERGY PREDICTED BY IDOCK:   -0.25 KCAL/MOL
REMARK 927      BINDING AFFINITY PREDICTED BY RF-SCORE:    0.00 PKD
ROOT
HETATM    1  N   UNL     1     -10.311   7.988  69.355  1.00  0.00    -0.215 NA 
HETATM    2  C   UNL     1     -10.835   9.325  69.654  1.00  0.00    -0.212 C  
HETATM    3  H2  UNL     1     -10.932   7.258  69.704  1.00  0.00     0.000 HD 
HETATM    4  H1  UNL     1     -10.122   7.872  68.359  1.00  0.00     0.000 HD 
ENDROOT
BRANCH   2   5
HETATM    5  C   UNL     1     -11.119   9.499  71.148  1.00  0.00    -0.450 C  
BRANCH   5   6
HETATM    6  C   UNL     1     -12.382   8.826  71.557  1.00  0.00    -0.328 A  
HETATM    7  C   UNL     1     -13.447   9.334  72.272  1.00  0.00    -0.482 A  
HETATM    8  N   UNL     1     -14.335   8.300  72.379  1.00  0.00    -0.683 NA 
HETATM    9  C   UNL     1     -13.792   7.223  71.739  1.00  0.00    -0.307 A  
HETATM   10  H   UNL     1     -15.238   8.328  72.853  1.00  0.00     0.000 HD 
HETATM   11  N   UNL     1     -12.618   7.511  71.226  1.00  0.00    -0.331 NA 
ENDBRANCH   5   6
ENDBRANCH   2   5
TORSDOF 2
ENDMDL
MODEL       58
REMARK 921   NORMALIZED FREE ENERGY PREDICTED BY IDOCK:   -2.68 KCAL/MOL
REMARK 922        TOTAL FREE ENERGY PREDICTED BY IDOCK:   -3.26 KCAL/MOL
REMARK 923 INTER-LIGAND FREE ENERGY PREDICTED BY IDOCK:   -2.97 KCAL/MOL
REMARK 924 INTRA-LIGAND FREE ENERGY PREDICTED BY IDOCK:   -0.29 KCAL/MOL
REMARK 927      BINDING AFFINITY PREDICTED BY RF-SCORE:    0.00 PKD
ROOT
HETATM    1  N   UNL     1      -9.819   8.493  70.812  1.00  0.00    -0.175 NA 
HETATM    2  C   UNL     1      -9.678   8.432  72.270  1.00  0.00    -0.316 C  
HETATM    3  H2  UNL     1     -10.728   8.872  70.541  1.00  0.00     0.000 HD 
HETATM    4  H1  UNL     1      -9.055   9.015  70.381  1.00  0.00     0.000 HD 
ENDROOT
BRANCH   2   5
HETATM    5  C   UNL     1     -10.824   7.650  72.916  1.00  0.00    -0.446 C  
BRANCH   5   6
HETATM    6  C   UNL     1     -12.119   7.881  72.218  1.00  0.00    -0.315 A  
HETATM    7  C   UNL     1     -12.941   6.972  71.586  1.00  0.00    -0.352 A  
HETATM    8  N   UNL     1     -13.989   7.706  71.106  1.00  0.00    -0.648 NA 
HETATM    9  C   UNL     1     -13.773   9.008  71.456  1.00  0.00    -0.334 A  
HETATM   10  H   UNL     1     -14.787   7.347  70.581  1.00  0.00     0.000 HD 
HETATM   11  N   UNL     1     -12.658   9.145  72.134  1.00  0.00    -0.381 NA 
ENDBRANCH   5   6
ENDBRANCH   2   5
TORSDOF 2
ENDMDL
MODEL       59
REMARK 921   NORMALIZED FREE ENERGY PREDICTED BY IDOCK:   -2.67 KCAL/MOL
REMARK 922        TOTAL FREE ENERGY PREDICTED BY IDOCK:   -3.25 KCAL/MOL
REMARK 923 INTER-LIGAND FREE ENERGY PREDICTED BY IDOCK:   -3.01 KCAL/MOL
REMARK 924 INTRA-LIGAND FREE ENERGY PREDICTED BY IDOCK:   -0.24 KCAL/MOL
REMARK 927      BINDING AFFINITY PREDICTED BY RF-SCORE:    0.00 PKD
ROOT
HETATM    1  N   UNL     1     -12.632  11.957  63.125  1.00  0.00    -0.903 NA 
HETATM    2  C   UNL     1     -12.568  12.688  64.395  1.00  0.00    -0.387 C  
HETATM    3  H2  UNL     1     -12.211  11.031  63.206  1.00  0.00     0.000 HD 
HETATM    4  H1  UNL     1     -13.587  11.902  62.770  1.00  0.00     0.000 HD 
ENDROOT
BRANCH   2   5
HETATM    5  C   UNL     1     -11.135  12.770  64.927  1.00  0.00    -0.324 C  
BRANCH   5   6
HETATM    6  C   UNL     1     -10.693  11.485  65.536  1.00  0.00    -0.272 A  
HETATM    7  C   UNL     1     -10.720  11.093  66.858  1.00  0.00    -0.274 A  
HETATM    8  N   UNL     1     -10.191   9.833  66.871  1.00  0.00    -0.236 NA 
HETATM    9  C   UNL     1      -9.868   9.509  65.585  1.00  0.00    -0.272 A  
HETATM   10  H   UNL     1     -10.060   9.242  67.693  1.00  0.00     0.000 HD 
HETATM   11  N   UNL     1     -10.165  10.481  64.755  1.00  0.00    -0.341 NA 
ENDBRANCH   5   6
ENDBRANCH   2   5
TORSDOF 2
ENDMDL
MODEL       60
REMARK 921   NORMALIZED FREE ENERGY PREDICTED BY IDOCK:   -2.67 KCAL/MOL
REMARK 922        TOTAL FREE ENERGY PREDICTED BY IDOCK:   -3.24 KCAL/MOL
REMARK 923 INTER-LIGAND FREE ENERGY PREDICTED BY IDOCK:   -2.95 KCAL/MOL
REMARK 924 INTRA-LIGAND FREE ENERGY PREDICTED BY IDOCK:   -0.29 KCAL/MOL
REMARK 927      BINDING AFFINITY PREDICTED BY RF-SCORE:    0.00 PKD
ROOT
HETATM    1  N   UNL     1      -9.814  20.549  66.375  1.00  0.00    -0.617 NA 
HETATM    2  C   UNL     1     -10.524  19.286  66.152  1.00  0.00    -0.488 C  
HETATM    3  H2  UNL     1      -8.803  20.425  66.313  1.00  0.00     0.000 HD 
HETATM    4  H1  UNL     1     -10.139  21.280  65.741  1.00  0.00     0.000 HD 
ENDROOT
BRANCH   2   5
HETATM    5  C   UNL     1     -10.037  18.190  67.103  1.00  0.00    -0.358 C  
BRANCH   5   6
HETATM    6  C   UNL     1      -8.552  18.087  67.120  1.00  0.00    -0.239 A  
HETATM    7  C   UNL     1      -7.691  18.095  68.198  1.00  0.00    -0.274 A  
HETATM    8  N   UNL     1      -6.439  17.985  67.661  1.00  0.00    -0.179 NA 
HETATM    9  C   UNL     1      -6.579  17.913  66.305  1.00  0.00    -0.253 A  
HETATM   10  H   UNL     1      -5.561  17.960  68.179  1.00  0.00     0.000 HD 
HETATM   11  N   UNL     1      -7.841  17.965  65.948  1.00  0.00    -0.545 NA 
ENDBRANCH   5   6
ENDBRANCH   2   5
TORSDOF 2
ENDMDL
MODEL       61
REMARK 921   NORMALIZED FREE ENERGY PREDICTED BY IDOCK:   -2.67 KCAL/MOL
REMARK 922        TOTAL FREE ENERGY PREDICTED BY IDOCK:   -3.24 KCAL/MOL
REMARK 923 INTER-LIGAND FREE ENERGY PREDICTED BY IDOCK:   -2.96 KCAL/MOL
REMARK 924 INTRA-LIGAND FREE ENERGY PREDICTED BY IDOCK:   -0.28 KCAL/MOL
REMARK 927      BINDING AFFINITY PREDICTED BY RF-SCORE:    0.00 PKD
ROOT
HETATM    1  N   UNL     1     -11.185  16.350  68.351  1.00  0.00    -0.361 NA 
HETATM    2  C   UNL     1     -11.697  15.183  69.076  1.00  0.00    -0.335 C  
HETATM    3  H2  UNL     1     -11.815  16.626  67.597  1.00  0.00     0.000 HD 
HETATM    4  H1  UNL     1     -10.995  17.130  68.981  1.00  0.00     0.000 HD 
ENDROOT
BRANCH   2   5
HETATM    5  C   UNL     1     -11.983  14.013  68.131  1.00  0.00    -0.382 C  
BRANCH   5   6
HETATM    6  C   UNL     1     -11.133  14.063  66.910  1.00  0.00    -0.304 A  
HETATM    7  C   UNL     1      -9.864  13.561  66.711  1.00  0.00    -0.267 A  
HETATM    8  N   UNL     1      -9.545  13.887  65.423  1.00  0.00    -0.541 NA 
HETATM    9  C   UNL     1     -10.608  14.559  64.893  1.00  0.00    -0.427 A  
HETATM   10  H   UNL     1      -8.671  13.667  64.944  1.00  0.00     0.000 HD 
HETATM   11  N   UNL     1     -11.585  14.675  65.762  1.00  0.00    -0.348 NA 
ENDBRANCH   5   6
ENDBRANCH   2   5
TORSDOF 2
ENDMDL
MODEL       62
REMARK 921   NORMALIZED FREE ENERGY PREDICTED BY IDOCK:   -2.59 KCAL/MOL
REMARK 922        TOTAL FREE ENERGY PREDICTED BY IDOCK:   -3.15 KCAL/MOL
REMARK 923 INTER-LIGAND FREE ENERGY PREDICTED BY IDOCK:   -2.89 KCAL/MOL
REMARK 924 INTRA-LIGAND FREE ENERGY PREDICTED BY IDOCK:   -0.26 KCAL/MOL
REMARK 927      BINDING AFFINITY PREDICTED BY RF-SCORE:    0.00 PKD
ROOT
HETATM    1  N   UNL     1     -13.369   9.846  70.496  1.00  0.00    -0.595 NA 
HETATM    2  C   UNL     1     -12.168  10.419  71.113  1.00  0.00    -0.394 C  
HETATM    3  H2  UNL     1     -13.834   9.190  71.123  1.00  0.00     0.000 HD 
HETATM    4  H1  UNL     1     -14.010  10.573  70.176  1.00  0.00     0.000 HD 
ENDROOT
BRANCH   2   5
HETATM    5  C   UNL     1     -11.207   9.329  71.593  1.00  0.00    -0.449 C  
BRANCH   5   6
HETATM    6  C   UNL     1     -11.070   8.229  70.599  1.00  0.00    -0.253 A  
HETATM    7  C   UNL     1     -10.374   8.213  69.408  1.00  0.00    -0.218 A  
HETATM    8  N   UNL     1     -10.587   6.969  68.882  1.00  0.00    -0.213 NA 
HETATM    9  C   UNL     1     -11.387   6.286  69.753  1.00  0.00    -0.436 A  
HETATM   10  H   UNL     1     -10.216   6.616  68.000  1.00  0.00     0.000 HD 
HETATM   11  N   UNL     1     -11.689   7.016  70.801  1.00  0.00    -0.336 NA 
ENDBRANCH   5   6
ENDBRANCH   2   5
TORSDOF 2
ENDMDL
MODEL       63
REMARK 921   NORMALIZED FREE ENERGY PREDICTED BY IDOCK:   -2.59 KCAL/MOL
REMARK 922        TOTAL FREE ENERGY PREDICTED BY IDOCK:   -3.15 KCAL/MOL
REMARK 923 INTER-LIGAND FREE ENERGY PREDICTED BY IDOCK:   -3.07 KCAL/MOL
REMARK 924 INTRA-LIGAND FREE ENERGY PREDICTED BY IDOCK:   -0.08 KCAL/MOL
REMARK 927      BINDING AFFINITY PREDICTED BY RF-SCORE:    0.00 PKD
ROOT
HETATM    1  N   UNL     1     -10.366   7.915  68.816  1.00  0.00    -0.206 NA 
HETATM    2  C   UNL     1     -10.508   9.330  69.172  1.00  0.00    -0.217 C  
HETATM    3  H2  UNL     1     -10.954   7.323  69.402  1.00  0.00     0.000 HD 
HETATM    4  H1  UNL     1     -10.549   7.756  67.824  1.00  0.00     0.000 HD 
ENDROOT
BRANCH   2   5
HETATM    5  C   UNL     1     -10.234   9.569  70.658  1.00  0.00    -0.364 C  
BRANCH   5   6
HETATM    6  C   UNL     1     -11.424   9.264  71.500  1.00  0.00    -0.384 A  
HETATM    7  C   UNL     1     -11.613   8.236  72.399  1.00  0.00    -0.396 A  
HETATM    8  N   UNL     1     -12.878   8.412  72.887  1.00  0.00    -0.686 NA 
HETATM    9  C   UNL     1     -13.402   9.518  72.282  1.00  0.00    -0.441 A  
HETATM   10  H   UNL     1     -13.345   7.823  73.578  1.00  0.00     0.000 HD 
HETATM   11  N   UNL     1     -12.547  10.058  71.445  1.00  0.00    -0.380 NA 
ENDBRANCH   5   6
ENDBRANCH   2   5
TORSDOF 2
ENDMDL
MODEL       64
REMARK 921   NORMALIZED FREE ENERGY PREDICTED BY IDOCK:   -2.58 KCAL/MOL
REMARK 922        TOTAL FREE ENERGY PREDICTED BY IDOCK:   -3.15 KCAL/MOL
REMARK 923 INTER-LIGAND FREE ENERGY PREDICTED BY IDOCK:   -3.19 KCAL/MOL
REMARK 924 INTRA-LIGAND FREE ENERGY PREDICTED BY IDOCK:    0.04 KCAL/MOL
REMARK 927      BINDING AFFINITY PREDICTED BY RF-SCORE:    0.00 PKD
ROOT
HETATM    1  N   UNL     1     -11.267  16.426  70.103  1.00  0.00    -0.438 NA 
HETATM    2  C   UNL     1     -10.214  16.224  69.104  1.00  0.00    -0.266 C  
HETATM    3  H2  UNL     1     -12.113  15.909  69.863  1.00  0.00     0.000 HD 
HETATM    4  H1  UNL     1     -10.944  16.195  71.043  1.00  0.00     0.000 HD 
ENDROOT
BRANCH   2   5
HETATM    5  C   UNL     1     -10.699  16.570  67.694  1.00  0.00    -0.311 C  
BRANCH   5   6
HETATM    6  C   UNL     1     -10.466  18.003  67.362  1.00  0.00    -0.387 A  
HETATM    7  C   UNL     1     -10.483  19.103  68.193  1.00  0.00    -0.338 A  
HETATM    8  N   UNL     1     -10.220  20.172  67.383  1.00  0.00    -0.410 NA 
HETATM    9  C   UNL     1     -10.055  19.695  66.114  1.00  0.00    -0.480 A  
HETATM   10  H   UNL     1     -10.159  21.148  67.674  1.00  0.00     0.000 HD 
HETATM   11  N   UNL     1     -10.190  18.390  66.070  1.00  0.00    -0.557 NA 
ENDBRANCH   5   6
ENDBRANCH   2   5
TORSDOF 2
ENDMDL
MODEL       65
REMARK 921   NORMALIZED FREE ENERGY PREDICTED BY IDOCK:   -2.56 KCAL/MOL
REMARK 922        TOTAL FREE ENERGY PREDICTED BY IDOCK:   -3.12 KCAL/MOL
REMARK 923 INTER-LIGAND FREE ENERGY PREDICTED BY IDOCK:   -2.86 KCAL/MOL
REMARK 924 INTRA-LIGAND FREE ENERGY PREDICTED BY IDOCK:   -0.26 KCAL/MOL
REMARK 927      BINDING AFFINITY PREDICTED BY RF-SCORE:    0.00 PKD
ROOT
HETATM    1  N   UNL     1     -12.295   5.480  72.848  1.00  0.00    -0.436 NA 
HETATM    2  C   UNL     1     -11.054   6.181  72.503  1.00  0.00    -0.274 C  
HETATM    3  H2  UNL     1     -12.642   4.930  72.062  1.00  0.00     0.000 HD 
HETATM    4  H1  UNL     1     -12.182   4.906  73.684  1.00  0.00     0.000 HD 
ENDROOT
BRANCH   2   5
HETATM    5  C   UNL     1     -11.222   7.043  71.249  1.00  0.00    -0.296 C  
BRANCH   5   6
HETATM    6  C   UNL     1     -11.978   8.295  71.531  1.00  0.00    -0.296 A  
HETATM    7  C   UNL     1     -11.586   9.605  71.358  1.00  0.00    -0.400 A  
HETATM    8  N   UNL     1     -12.646  10.358  71.779  1.00  0.00    -0.404 NA 
HETATM    9  C   UNL     1     -13.627   9.497  72.182  1.00  0.00    -0.424 A  
HETATM   10  H   UNL     1     -12.696  11.377  71.790  1.00  0.00     0.000 HD 
HETATM   11  N   UNL     1     -13.257   8.246  72.038  1.00  0.00    -0.332 NA 
ENDBRANCH   5   6
ENDBRANCH   2   5
TORSDOF 2
ENDMDL
MODEL       66
REMARK 921   NORMALIZED FREE ENERGY PREDICTED BY IDOCK:   -2.55 KCAL/MOL
REMARK 922        TOTAL FREE ENERGY PREDICTED BY IDOCK:   -3.11 KCAL/MOL
REMARK 923 INTER-LIGAND FREE ENERGY PREDICTED BY IDOCK:   -2.82 KCAL/MOL
REMARK 924 INTRA-LIGAND FREE ENERGY PREDICTED BY IDOCK:   -0.29 KCAL/MOL
REMARK 927      BINDING AFFINITY PREDICTED BY RF-SCORE:    0.00 PKD
ROOT
HETATM    1  N   UNL     1     -10.196   9.916  70.630  1.00  0.00    -0.370 NA 
HETATM    2  C   UNL     1     -11.377   9.416  71.341  1.00  0.00    -0.381 C  
HETATM    3  H2  UNL     1     -10.134  10.933  70.679  1.00  0.00     0.000 HD 
HETATM    4  H1  UNL     1      -9.340   9.474  70.966  1.00  0.00     0.000 HD 
ENDROOT
BRANCH   2   5
HETATM    5  C   UNL     1     -12.662  10.078  70.837  1.00  0.00    -0.414 C  
BRANCH   5   6
HETATM    6  C   UNL     1     -12.534  11.560  70.767  1.00  0.00    -0.349 A  
HETATM    7  C   UNL     1     -12.929  12.512  71.683  1.00  0.00    -0.302 A  
HETATM    8  N   UNL     1     -12.589  13.713  71.126  1.00  0.00    -0.365 NA 
HETATM    9  C   UNL     1     -12.009  13.455  69.917  1.00  0.00    -0.338 A  
HETATM   10  H   UNL     1     -12.740  14.634  71.538  1.00  0.00     0.000 HD 
HETATM   11  N   UNL     1     -11.954  12.166  69.675  1.00  0.00    -0.303 NA 
ENDBRANCH   5   6
ENDBRANCH   2   5
TORSDOF 2
ENDMDL
MODEL       67
REMARK 921   NORMALIZED FREE ENERGY PREDICTED BY IDOCK:   -2.55 KCAL/MOL
REMARK 922        TOTAL FREE ENERGY PREDICTED BY IDOCK:   -3.11 KCAL/MOL
REMARK 923 INTER-LIGAND FREE ENERGY PREDICTED BY IDOCK:   -3.07 KCAL/MOL
REMARK 924 INTRA-LIGAND FREE ENERGY PREDICTED BY IDOCK:   -0.04 KCAL/MOL
REMARK 927      BINDING AFFINITY PREDICTED BY RF-SCORE:    0.00 PKD
ROOT
HETATM    1  N   UNL     1     -13.987  15.585  70.778  1.00  0.00    -0.851 NA 
HETATM    2  C   UNL     1     -12.524  15.506  70.827  1.00  0.00    -0.440 C  
HETATM    3  H2  UNL     1     -14.397  14.706  70.464  1.00  0.00     0.000 HD 
HETATM    4  H1  UNL     1     -14.378  15.881  71.673  1.00  0.00     0.000 HD 
ENDROOT
BRANCH   2   5
HETATM    5  C   UNL     1     -11.936  15.063  69.485  1.00  0.00    -0.346 C  
BRANCH   5   6
HETATM    6  C   UNL     1     -10.773  15.901  69.082  1.00  0.00    -0.259 A  
HETATM    7  C   UNL     1      -9.442  15.758  69.413  1.00  0.00    -0.275 A  
HETATM    8  N   UNL     1      -8.803  16.794  68.792  1.00  0.00    -0.261 NA 
HETATM    9  C   UNL     1      -9.746  17.515  68.119  1.00  0.00    -0.302 A  
HETATM   10  H   UNL     1      -7.802  16.993  68.826  1.00  0.00     0.000 HD 
HETATM   11  N   UNL     1     -10.944  16.998  68.269  1.00  0.00    -0.335 NA 
ENDBRANCH   5   6
ENDBRANCH   2   5
TORSDOF 2
ENDMDL
MODEL       68
REMARK 921   NORMALIZED FREE ENERGY PREDICTED BY IDOCK:   -2.54 KCAL/MOL
REMARK 922        TOTAL FREE ENERGY PREDICTED BY IDOCK:   -3.09 KCAL/MOL
REMARK 923 INTER-LIGAND FREE ENERGY PREDICTED BY IDOCK:   -2.82 KCAL/MOL
REMARK 924 INTRA-LIGAND FREE ENERGY PREDICTED BY IDOCK:   -0.28 KCAL/MOL
REMARK 927      BINDING AFFINITY PREDICTED BY RF-SCORE:    0.00 PKD
ROOT
HETATM    1  N   UNL     1      -9.920  11.897  68.948  1.00  0.00    -0.409 NA 
HETATM    2  C   UNL     1     -11.370  11.678  68.914  1.00  0.00    -0.267 C  
HETATM    3  H2  UNL     1      -9.513  11.563  69.822  1.00  0.00     0.000 HD 
HETATM    4  H1  UNL     1      -9.458  11.482  68.139  1.00  0.00     0.000 HD 
ENDROOT
BRANCH   2   5
HETATM    5  C   UNL     1     -12.064  12.301  70.127  1.00  0.00    -0.364 C  
BRANCH   5   6
HETATM    6  C   UNL     1     -12.063  13.789  70.066  1.00  0.00    -0.349 A  
HETATM    7  C   UNL     1     -12.333  14.702  71.064  1.00  0.00    -0.333 A  
HETATM    8  N   UNL     1     -12.203  15.929  70.477  1.00  0.00    -0.438 NA 
HETATM    9  C   UNL     1     -11.863  15.725  69.170  1.00  0.00    -0.354 A  
HETATM   10  H   UNL     1     -12.336  16.832  70.932  1.00  0.00     0.000 HD 
HETATM   11  N   UNL     1     -11.764  14.446  68.893  1.00  0.00    -0.303 NA 
ENDBRANCH   5   6
ENDBRANCH   2   5
TORSDOF 2
ENDMDL
MODEL       69
REMARK 921   NORMALIZED FREE ENERGY PREDICTED BY IDOCK:   -2.53 KCAL/MOL
REMARK 922        TOTAL FREE ENERGY PREDICTED BY IDOCK:   -3.09 KCAL/MOL
REMARK 923 INTER-LIGAND FREE ENERGY PREDICTED BY IDOCK:   -2.83 KCAL/MOL
REMARK 924 INTRA-LIGAND FREE ENERGY PREDICTED BY IDOCK:   -0.26 KCAL/MOL
REMARK 927      BINDING AFFINITY PREDICTED BY RF-SCORE:    0.00 PKD
ROOT
HETATM    1  N   UNL     1     -10.815  16.199  69.832  1.00  0.00    -0.338 NA 
HETATM    2  C   UNL     1     -11.660  15.993  71.013  1.00  0.00    -0.431 C  
HETATM    3  H2  UNL     1     -11.361  16.533  69.037  1.00  0.00     0.000 HD 
HETATM    4  H1  UNL     1     -10.032  16.821  70.033  1.00  0.00     0.000 HD 
ENDROOT
BRANCH   2   5
HETATM    5  C   UNL     1     -12.835  15.060  70.712  1.00  0.00    -0.447 C  
BRANCH   5   6
HETATM    6  C   UNL     1     -12.396  13.819  70.014  1.00  0.00    -0.300 A  
HETATM    7  C   UNL     1     -12.230  12.548  70.522  1.00  0.00    -0.297 A  
HETATM    8  N   UNL     1     -11.805  11.791  69.467  1.00  0.00    -0.324 NA 
HETATM    9  C   UNL     1     -11.730  12.609  68.377  1.00  0.00    -0.333 A  
HETATM   10  H   UNL     1     -11.584  10.795  69.490  1.00  0.00     0.000 HD 
HETATM   11  N   UNL     1     -12.087  13.837  68.673  1.00  0.00    -0.355 NA 
ENDBRANCH   5   6
ENDBRANCH   2   5
TORSDOF 2
ENDMDL
MODEL       70
REMARK 921   NORMALIZED FREE ENERGY PREDICTED BY IDOCK:   -2.53 KCAL/MOL
REMARK 922        TOTAL FREE ENERGY PREDICTED BY IDOCK:   -3.09 KCAL/MOL
REMARK 923 INTER-LIGAND FREE ENERGY PREDICTED BY IDOCK:   -3.02 KCAL/MOL
REMARK 924 INTRA-LIGAND FREE ENERGY PREDICTED BY IDOCK:   -0.06 KCAL/MOL
REMARK 927      BINDING AFFINITY PREDICTED BY RF-SCORE:    0.00 PKD
ROOT
HETATM    1  N   UNL     1      -9.241  13.514  66.014  1.00  0.00    -0.483 NA 
HETATM    2  C   UNL     1      -9.960  14.262  67.050  1.00  0.00    -0.258 C  
HETATM    3  H2  UNL     1      -9.688  13.617  65.102  1.00  0.00     0.000 HD 
HETATM    4  H1  UNL     1      -8.256  13.775  65.977  1.00  0.00     0.000 HD 
ENDROOT
BRANCH   2   5
HETATM    5  C   UNL     1     -11.439  13.871  67.105  1.00  0.00    -0.370 C  
BRANCH   5   6
HETATM    6  C   UNL     1     -11.667  12.676  67.964  1.00  0.00    -0.350 A  
HETATM    7  C   UNL     1     -11.737  11.347  67.603  1.00  0.00    -0.168 A  
HETATM    8  N   UNL     1     -11.972  10.669  68.767  1.00  0.00    -0.736 NA 
HETATM    9  C   UNL     1     -12.034  11.590  69.773  1.00  0.00    -0.346 A  
HETATM   10  H   UNL     1     -12.082   9.660  68.866  1.00  0.00     0.000 HD 
HETATM   11  N   UNL     1     -11.846  12.809  69.322  1.00  0.00    -0.310 NA 
ENDBRANCH   5   6
ENDBRANCH   2   5
TORSDOF 2
ENDMDL
MODEL       71
REMARK 921   NORMALIZED FREE ENERGY PREDICTED BY IDOCK:   -2.53 KCAL/MOL
REMARK 922        TOTAL FREE ENERGY PREDICTED BY IDOCK:   -3.08 KCAL/MOL
REMARK 923 INTER-LIGAND FREE ENERGY PREDICTED BY IDOCK:   -3.03 KCAL/MOL
REMARK 924 INTRA-LIGAND FREE ENERGY PREDICTED BY IDOCK:   -0.06 KCAL/MOL
REMARK 927      BINDING AFFINITY PREDICTED BY RF-SCORE:    0.00 PKD
ROOT
HETATM    1  N   UNL     1     -12.033  12.263  67.011  1.00  0.00    -0.590 NA 
HETATM    2  C   UNL     1     -10.625  12.287  66.602  1.00  0.00    -0.229 C  
HETATM    3  H2  UNL     1     -12.192  11.587  67.758  1.00  0.00     0.000 HD 
HETATM    4  H1  UNL     1     -12.364  13.192  67.273  1.00  0.00     0.000 HD 
ENDROOT
BRANCH   2   5
HETATM    5  C   UNL     1     -10.128  10.894  66.209  1.00  0.00    -0.284 C  
BRANCH   5   6
HETATM    6  C   UNL     1      -9.997  10.745  64.733  1.00  0.00    -0.320 A  
HETATM    7  C   UNL     1     -10.798  11.255  63.733  1.00  0.00    -0.350 A  
HETATM    8  N   UNL     1     -10.242  10.813  62.565  1.00  0.00    -0.755 NA 
HETATM    9  C   UNL     1      -9.146  10.067  62.888  1.00  0.00    -0.286 A  
HETATM   10  H   UNL     1     -10.585  11.006  61.623  1.00  0.00     0.000 HD 
HETATM   11  N   UNL     1      -8.967  10.013  64.188  1.00  0.00    -0.216 NA 
ENDBRANCH   5   6
ENDBRANCH   2   5
TORSDOF 2
ENDMDL
MODEL       72
REMARK 921   NORMALIZED FREE ENERGY PREDICTED BY IDOCK:   -2.52 KCAL/MOL
REMARK 922        TOTAL FREE ENERGY PREDICTED BY IDOCK:   -3.08 KCAL/MOL
REMARK 923 INTER-LIGAND FREE ENERGY PREDICTED BY IDOCK:   -2.82 KCAL/MOL
REMARK 924 INTRA-LIGAND FREE ENERGY PREDICTED BY IDOCK:   -0.26 KCAL/MOL
REMARK 927      BINDING AFFINITY PREDICTED BY RF-SCORE:    0.00 PKD
ROOT
HETATM    1  N   UNL     1     -12.332  12.449  64.009  1.00  0.00    -0.516 NA 
HETATM    2  C   UNL     1     -12.512  13.546  64.965  1.00  0.00    -0.417 C  
HETATM    3  H2  UNL     1     -12.188  11.558  64.485  1.00  0.00     0.000 HD 
HETATM    4  H1  UNL     1     -13.107  12.396  63.347  1.00  0.00     0.000 HD 
ENDROOT
BRANCH   2   5
HETATM    5  C   UNL     1     -11.351  13.625  65.958  1.00  0.00    -0.322 C  
BRANCH   5   6
HETATM    6  C   UNL     1     -11.423  12.552  66.987  1.00  0.00    -0.356 A  
HETATM    7  C   UNL     1     -11.776  12.643  68.317  1.00  0.00    -0.342 A  
HETATM    8  N   UNL     1     -11.666  11.372  68.808  1.00  0.00    -0.319 NA 
HETATM    9  C   UNL     1     -11.260  10.569  67.781  1.00  0.00    -0.273 A  
HETATM   10  H   UNL     1     -11.853  11.078  69.767  1.00  0.00     0.000 HD 
HETATM   11  N   UNL     1     -11.112  11.249  66.669  1.00  0.00    -0.273 NA 
ENDBRANCH   5   6
ENDBRANCH   2   5
TORSDOF 2
ENDMDL
MODEL       73
REMARK 921   NORMALIZED FREE ENERGY PREDICTED BY IDOCK:   -2.52 KCAL/MOL
REMARK 922        TOTAL FREE ENERGY PREDICTED BY IDOCK:   -3.08 KCAL/MOL
REMARK 923 INTER-LIGAND FREE ENERGY PREDICTED BY IDOCK:   -3.04 KCAL/MOL
REMARK 924 INTRA-LIGAND FREE ENERGY PREDICTED BY IDOCK:   -0.03 KCAL/MOL
REMARK 927      BINDING AFFINITY PREDICTED BY RF-SCORE:    0.00 PKD
ROOT
HETATM    1  N   UNL     1      -9.520  20.844  67.063  1.00  0.00    -0.690 NA 
HETATM    2  C   UNL     1     -10.197  19.716  67.710  1.00  0.00    -0.436 C  
HETATM    3  H2  UNL     1      -9.181  20.593  66.134  1.00  0.00     0.000 HD 
HETATM    4  H1  UNL     1     -10.115  21.672  67.032  1.00  0.00     0.000 HD 
ENDROOT
BRANCH   2   5
HETATM    5  C   UNL     1      -9.304  18.474  67.757  1.00  0.00    -0.308 C  
BRANCH   5   6
HETATM    6  C   UNL     1     -10.088  17.234  68.015  1.00  0.00    -0.324 A  
HETATM    7  C   UNL     1     -10.437  16.227  67.140  1.00  0.00    -0.297 A  
HETATM    8  N   UNL     1     -11.161  15.338  67.883  1.00  0.00    -0.321 NA 
HETATM    9  C   UNL     1     -11.225  15.823  69.158  1.00  0.00    -0.322 A  
HETATM   10  H   UNL     1     -11.579  14.469  67.547  1.00  0.00     0.000 HD 
HETATM   11  N   UNL     1     -10.582  16.962  69.271  1.00  0.00    -0.345 NA 
ENDBRANCH   5   6
ENDBRANCH   2   5
TORSDOF 2
ENDMDL
MODEL       74
REMARK 921   NORMALIZED FREE ENERGY PREDICTED BY IDOCK:   -2.50 KCAL/MOL
REMARK 922        TOTAL FREE ENERGY PREDICTED BY IDOCK:   -3.06 KCAL/MOL
REMARK 923 INTER-LIGAND FREE ENERGY PREDICTED BY IDOCK:   -3.00 KCAL/MOL
REMARK 924 INTRA-LIGAND FREE ENERGY PREDICTED BY IDOCK:   -0.06 KCAL/MOL
REMARK 927      BINDING AFFINITY PREDICTED BY RF-SCORE:    0.00 PKD
ROOT
HETATM    1  N   UNL     1     -10.605  15.732  64.641  1.00  0.00    -0.722 NA 
HETATM    2  C   UNL     1      -9.882  15.537  65.902  1.00  0.00    -0.353 C  
HETATM    3  H2  UNL     1     -10.772  16.722  64.457  1.00  0.00     0.000 HD 
HETATM    4  H1  UNL     1     -10.126  15.284  63.860  1.00  0.00     0.000 HD 
ENDROOT
BRANCH   2   5
HETATM    5  C   UNL     1     -10.600  16.209  67.075  1.00  0.00    -0.292 C  
BRANCH   5   6
HETATM    6  C   UNL     1      -9.919  17.464  67.499  1.00  0.00    -0.298 A  
HETATM    7  C   UNL     1      -8.812  18.080  66.955  1.00  0.00    -0.258 A  
HETATM    8  N   UNL     1      -8.600  19.189  67.726  1.00  0.00    -0.295 NA 
HETATM    9  C   UNL     1      -9.566  19.209  68.690  1.00  0.00    -0.413 A  
HETATM   10  H   UNL     1      -7.856  19.875  67.603  1.00  0.00     0.000 HD 
HETATM   11  N   UNL     1     -10.381  18.186  68.576  1.00  0.00    -0.367 NA 
ENDBRANCH   5   6
ENDBRANCH   2   5
TORSDOF 2
ENDMDL
MODEL       75
REMARK 921   NORMALIZED FREE ENERGY PREDICTED BY IDOCK:   -2.50 KCAL/MOL
REMARK 922        TOTAL FREE ENERGY PREDICTED BY IDOCK:   -3.05 KCAL/MOL
REMARK 923 INTER-LIGAND FREE ENERGY PREDICTED BY IDOCK:   -2.98 KCAL/MOL
REMARK 924 INTRA-LIGAND FREE ENERGY PREDICTED BY IDOCK:   -0.07 KCAL/MOL
REMARK 927      BINDING AFFINITY PREDICTED BY RF-SCORE:    0.00 PKD
ROOT
HETATM    1  N   UNL     1     -10.499  19.195  68.907  1.00  0.00    -0.427 NA 
HETATM    2  C   UNL     1     -10.438  18.849  67.483  1.00  0.00    -0.450 C  
HETATM    3  H2  UNL     1     -11.000  20.071  69.056  1.00  0.00     0.000 HD 
HETATM    4  H1  UNL     1     -10.899  18.438  69.461  1.00  0.00     0.000 HD 
ENDROOT
BRANCH   2   5
HETATM    5  C   UNL     1      -9.837  19.985  66.651  1.00  0.00    -0.577 C  
BRANCH   5   6
HETATM    6  C   UNL     1      -8.360  19.855  66.515  1.00  0.00    -0.336 A  
HETATM    7  C   UNL     1      -7.366  20.689  66.982  1.00  0.00    -0.316 A  
HETATM    8  N   UNL     1      -6.194  20.115  66.576  1.00  0.00    -0.174 NA 
HETATM    9  C   UNL     1      -6.508  18.976  65.893  1.00  0.00    -0.224 A  
HETATM   10  H   UNL     1      -5.255  20.474  66.752  1.00  0.00     0.000 HD 
HETATM   11  N   UNL     1      -7.806  18.787  65.845  1.00  0.00    -0.482 NA 
ENDBRANCH   5   6
ENDBRANCH   2   5
TORSDOF 2
ENDMDL
MODEL       76
REMARK 921   NORMALIZED FREE ENERGY PREDICTED BY IDOCK:   -2.48 KCAL/MOL
REMARK 922        TOTAL FREE ENERGY PREDICTED BY IDOCK:   -3.03 KCAL/MOL
REMARK 923 INTER-LIGAND FREE ENERGY PREDICTED BY IDOCK:   -2.73 KCAL/MOL
REMARK 924 INTRA-LIGAND FREE ENERGY PREDICTED BY IDOCK:   -0.30 KCAL/MOL
REMARK 927      BINDING AFFINITY PREDICTED BY RF-SCORE:    0.00 PKD
ROOT
HETATM    1  N   UNL     1      -7.612  12.477  66.859  1.00  0.00    -0.384 NA 
HETATM    2  C   UNL     1      -8.603  13.147  67.707  1.00  0.00    -0.188 C  
HETATM    3  H2  UNL     1      -7.766  12.683  65.871  1.00  0.00     0.000 HD 
HETATM    4  H1  UNL     1      -6.659  12.704  67.142  1.00  0.00     0.000 HD 
ENDROOT
BRANCH   2   5
HETATM    5  C   UNL     1     -10.033  12.807  67.281  1.00  0.00    -0.219 C  
BRANCH   5   6
HETATM    6  C   UNL     1     -10.191  12.818  65.801  1.00  0.00    -0.289 A  
HETATM    7  C   UNL     1     -10.471  13.877  64.963  1.00  0.00    -0.410 A  
HETATM    8  N   UNL     1     -10.518  13.340  63.707  1.00  0.00    -0.561 NA 
HETATM    9  C   UNL     1     -10.269  12.003  63.821  1.00  0.00    -0.422 A  
HETATM   10  H   UNL     1     -10.705  13.847  62.841  1.00  0.00     0.000 HD 
HETATM   11  N   UNL     1     -10.061  11.658  65.070  1.00  0.00    -0.253 NA 
ENDBRANCH   5   6
ENDBRANCH   2   5
TORSDOF 2
ENDMDL
MODEL       77
REMARK 921   NORMALIZED FREE ENERGY PREDICTED BY IDOCK:   -2.48 KCAL/MOL
REMARK 922        TOTAL FREE ENERGY PREDICTED BY IDOCK:   -3.03 KCAL/MOL
REMARK 923 INTER-LIGAND FREE ENERGY PREDICTED BY IDOCK:   -2.99 KCAL/MOL
REMARK 924 INTRA-LIGAND FREE ENERGY PREDICTED BY IDOCK:   -0.04 KCAL/MOL
REMARK 927      BINDING AFFINITY PREDICTED BY RF-SCORE:    0.00 PKD
ROOT
HETATM    1  N   UNL     1     -11.676  11.506  67.159  1.00  0.00    -0.577 NA 
HETATM    2  C   UNL     1     -11.669  12.802  67.845  1.00  0.00    -0.357 C  
HETATM    3  H2  UNL     1     -11.062  11.512  66.344  1.00  0.00     0.000 HD 
HETATM    4  H1  UNL     1     -11.442  10.743  67.795  1.00  0.00     0.000 HD 
ENDROOT
BRANCH   2   5
HETATM    5  C   UNL     1     -12.020  13.947  66.891  1.00  0.00    -0.467 C  
BRANCH   5   6
HETATM    6  C   UNL     1     -11.368  15.224  67.293  1.00  0.00    -0.269 A  
HETATM    7  C   UNL     1     -10.502  16.022  66.575  1.00  0.00    -0.302 A  
HETATM    8  N   UNL     1     -10.197  17.063  67.407  1.00  0.00    -0.306 NA 
HETATM    9  C   UNL     1     -10.874  16.866  68.576  1.00  0.00    -0.335 A  
HETATM   10  H   UNL     1      -9.576  17.844  67.193  1.00  0.00     0.000 HD 
HETATM   11  N   UNL     1     -11.594  15.770  68.536  1.00  0.00    -0.377 NA 
ENDBRANCH   5   6
ENDBRANCH   2   5
TORSDOF 2
ENDMDL
MODEL       78
REMARK 921   NORMALIZED FREE ENERGY PREDICTED BY IDOCK:   -2.45 KCAL/MOL
REMARK 922        TOTAL FREE ENERGY PREDICTED BY IDOCK:   -3.00 KCAL/MOL
REMARK 923 INTER-LIGAND FREE ENERGY PREDICTED BY IDOCK:   -2.96 KCAL/MOL
REMARK 924 INTRA-LIGAND FREE ENERGY PREDICTED BY IDOCK:   -0.05 KCAL/MOL
REMARK 927      BINDING AFFINITY PREDICTED BY RF-SCORE:    0.00 PKD
ROOT
HETATM    1  N   UNL     1     -12.619  14.419  69.485  1.00  0.00    -0.536 NA 
HETATM    2  C   UNL     1     -11.896  15.681  69.300  1.00  0.00    -0.363 C  
HETATM    3  H2  UNL     1     -11.983  13.622  69.493  1.00  0.00     0.000 HD 
HETATM    4  H1  UNL     1     -13.202  14.439  70.322  1.00  0.00     0.000 HD 
ENDROOT
BRANCH   2   5
HETATM    5  C   UNL     1     -11.021  15.652  68.044  1.00  0.00    -0.318 C  
BRANCH   5   6
HETATM    6  C   UNL     1     -10.618  17.020  67.614  1.00  0.00    -0.333 A  
HETATM    7  C   UNL     1     -10.333  17.485  66.348  1.00  0.00    -0.334 A  
HETATM    8  N   UNL     1     -10.010  18.803  66.513  1.00  0.00    -0.358 NA 
HETATM    9  C   UNL     1     -10.109  19.088  67.844  1.00  0.00    -0.381 A  
HETATM   10  H   UNL     1      -9.743  19.455  65.774  1.00  0.00     0.000 HD 
HETATM   11  N   UNL     1     -10.481  18.035  68.534  1.00  0.00    -0.333 NA 
ENDBRANCH   5   6
ENDBRANCH   2   5
TORSDOF 2
ENDMDL
MODEL       79
REMARK 921   NORMALIZED FREE ENERGY PREDICTED BY IDOCK:   -2.45 KCAL/MOL
REMARK 922        TOTAL FREE ENERGY PREDICTED BY IDOCK:   -3.00 KCAL/MOL
REMARK 923 INTER-LIGAND FREE ENERGY PREDICTED BY IDOCK:   -2.78 KCAL/MOL
REMARK 924 INTRA-LIGAND FREE ENERGY PREDICTED BY IDOCK:   -0.22 KCAL/MOL
REMARK 927      BINDING AFFINITY PREDICTED BY RF-SCORE:    0.00 PKD
ROOT
HETATM    1  N   UNL     1     -12.066  15.010  63.926  1.00  0.00    -0.942 NA 
HETATM    2  C   UNL     1     -12.213  14.159  65.111  1.00  0.00    -0.433 C  
HETATM    3  H2  UNL     1     -12.186  14.475  63.066  1.00  0.00     0.000 HD 
HETATM    4  H1  UNL     1     -12.698  15.811  63.957  1.00  0.00     0.000 HD 
ENDROOT
BRANCH   2   5
HETATM    5  C   UNL     1     -11.266  12.958  65.065  1.00  0.00    -0.324 C  
BRANCH   5   6
HETATM    6  C   UNL     1     -10.043  13.181  65.886  1.00  0.00    -0.290 A  
HETATM    7  C   UNL     1      -9.332  12.280  66.650  1.00  0.00    -0.228 A  
HETATM    8  N   UNL     1      -8.310  13.002  67.201  1.00  0.00    -0.288 NA 
HETATM    9  C   UNL     1      -8.432  14.289  66.761  1.00  0.00    -0.020 A  
HETATM   10  H   UNL     1      -7.589  12.644  67.827  1.00  0.00     0.000 HD 
HETATM   11  N   UNL     1      -9.463  14.427  65.961  1.00  0.00    -0.254 NA 
ENDBRANCH   5   6
ENDBRANCH   2   5
TORSDOF 2
ENDMDL
MODEL       80
REMARK 921   NORMALIZED FREE ENERGY PREDICTED BY IDOCK:   -2.45 KCAL/MOL
REMARK 922        TOTAL FREE ENERGY PREDICTED BY IDOCK:   -2.99 KCAL/MOL
REMARK 923 INTER-LIGAND FREE ENERGY PREDICTED BY IDOCK:   -2.96 KCAL/MOL
REMARK 924 INTRA-LIGAND FREE ENERGY PREDICTED BY IDOCK:   -0.03 KCAL/MOL
REMARK 927      BINDING AFFINITY PREDICTED BY RF-SCORE:    0.00 PKD
ROOT
HETATM    1  N   UNL     1      -6.868  21.373  66.853  1.00  0.00    -0.799 NA 
HETATM    2  C   UNL     1      -7.479  20.245  67.563  1.00  0.00    -0.312 C  
HETATM    3  H2  UNL     1      -7.572  22.045  66.545  1.00  0.00     0.000 HD 
HETATM    4  H1  UNL     1      -6.144  21.822  67.413  1.00  0.00     0.000 HD 
ENDROOT
BRANCH   2   5
HETATM    5  C   UNL     1      -8.566  19.571  66.722  1.00  0.00    -0.350 C  
BRANCH   5   6
HETATM    6  C   UNL     1      -9.282  18.510  67.484  1.00  0.00    -0.279 A  
HETATM    7  C   UNL     1      -9.827  18.565  68.750  1.00  0.00    -0.376 A  
HETATM    8  N   UNL     1     -10.352  17.323  68.971  1.00  0.00    -0.343 NA 
HETATM    9  C   UNL     1     -10.115  16.572  67.856  1.00  0.00    -0.256 A  
HETATM   10  H   UNL     1     -10.834  17.014  69.816  1.00  0.00     0.000 HD 
HETATM   11  N   UNL     1      -9.477  17.261  66.939  1.00  0.00    -0.249 NA 
ENDBRANCH   5   6
ENDBRANCH   2   5
TORSDOF 2
ENDMDL
MODEL       81
REMARK 921   NORMALIZED FREE ENERGY PREDICTED BY IDOCK:   -2.41 KCAL/MOL
REMARK 922        TOTAL FREE ENERGY PREDICTED BY IDOCK:   -2.95 KCAL/MOL
REMARK 923 INTER-LIGAND FREE ENERGY PREDICTED BY IDOCK:   -2.81 KCAL/MOL
REMARK 924 INTRA-LIGAND FREE ENERGY PREDICTED BY IDOCK:   -0.14 KCAL/MOL
REMARK 927      BINDING AFFINITY PREDICTED BY RF-SCORE:    0.00 PKD
ROOT
HETATM    1  N   UNL     1     -10.150  10.751  62.816  1.00  0.00    -0.750 NA 
HETATM    2  C   UNL     1      -9.240  10.331  63.886  1.00  0.00    -0.274 C  
HETATM    3  H2  UNL     1     -10.410  11.733  62.912  1.00  0.00     0.000 HD 
HETATM    4  H1  UNL     1      -9.760  10.558  61.893  1.00  0.00     0.000 HD 
ENDROOT
BRANCH   2   5
HETATM    5  C   UNL     1      -9.824  10.621  65.270  1.00  0.00    -0.334 C  
BRANCH   5   6
HETATM    6  C   UNL     1     -10.203  12.052  65.426  1.00  0.00    -0.263 A  
HETATM    7  C   UNL     1      -9.688  13.001  66.285  1.00  0.00    -0.263 A  
HETATM    8  N   UNL     1     -10.395  14.142  66.027  1.00  0.00    -0.299 NA 
HETATM    9  C   UNL     1     -11.294  13.855  65.041  1.00  0.00    -0.334 A  
HETATM   10  H   UNL     1     -10.272  15.044  66.488  1.00  0.00     0.000 HD 
HETATM   11  N   UNL     1     -11.199  12.605  64.652  1.00  0.00    -0.298 NA 
ENDBRANCH   5   6
ENDBRANCH   2   5
TORSDOF 2
ENDMDL
MODEL       82
REMARK 921   NORMALIZED FREE ENERGY PREDICTED BY IDOCK:   -2.41 KCAL/MOL
REMARK 922        TOTAL FREE ENERGY PREDICTED BY IDOCK:   -2.95 KCAL/MOL
REMARK 923 INTER-LIGAND FREE ENERGY PREDICTED BY IDOCK:   -2.73 KCAL/MOL
REMARK 924 INTRA-LIGAND FREE ENERGY PREDICTED BY IDOCK:   -0.22 KCAL/MOL
REMARK 927      BINDING AFFINITY PREDICTED BY RF-SCORE:    0.00 PKD
ROOT
HETATM    1  N   UNL     1     -11.575  13.728  70.202  1.00  0.00    -0.480 NA 
HETATM    2  C   UNL     1     -11.456  12.686  69.178  1.00  0.00    -0.304 C  
HETATM    3  H2  UNL     1     -12.545  14.021  70.325  1.00  0.00     0.000 HD 
HETATM    4  H1  UNL     1     -11.159  13.435  71.087  1.00  0.00     0.000 HD 
ENDROOT
BRANCH   2   5
HETATM    5  C   UNL     1     -12.080  13.125  67.851  1.00  0.00    -0.247 C  
BRANCH   5   6
HETATM    6  C   UNL     1     -11.060  13.656  66.905  1.00  0.00    -0.304 A  
HETATM    7  C   UNL     1     -10.815  13.297  65.596  1.00  0.00    -0.279 A  
HETATM    8  N   UNL     1      -9.770  14.081  65.195  1.00  0.00    -0.568 NA 
HETATM    9  C   UNL     1      -9.423  14.874  66.251  1.00  0.00    -0.309 A  
HETATM   10  H   UNL     1      -9.329  14.074  64.275  1.00  0.00     0.000 HD 
HETATM   11  N   UNL     1     -10.187  14.647  67.294  1.00  0.00    -0.240 NA 
ENDBRANCH   5   6
ENDBRANCH   2   5
TORSDOF 2
ENDMDL
MODEL       83
REMARK 921   NORMALIZED FREE ENERGY PREDICTED BY IDOCK:   -2.39 KCAL/MOL
REMARK 922        TOTAL FREE ENERGY PREDICTED BY IDOCK:   -2.94 KCAL/MOL
REMARK 923 INTER-LIGAND FREE ENERGY PREDICTED BY IDOCK:   -2.70 KCAL/MOL
REMARK 924 INTRA-LIGAND FREE ENERGY PREDICTED BY IDOCK:   -0.23 KCAL/MOL
REMARK 927      BINDING AFFINITY PREDICTED BY RF-SCORE:    0.00 PKD
ROOT
HETATM    1  N   UNL     1     -10.329  10.137  68.656  1.00  0.00    -0.178 NA 
HETATM    2  C   UNL     1     -10.027  11.261  67.764  1.00  0.00    -0.176 C  
HETATM    3  H2  UNL     1     -10.932   9.451  68.201  1.00  0.00     0.000 HD 
HETATM    4  H1  UNL     1      -9.478   9.704  69.016  1.00  0.00     0.000 HD 
ENDROOT
BRANCH   2   5
HETATM    5  C   UNL     1     -11.303  11.910  67.223  1.00  0.00    -0.393 C  
BRANCH   5   6
HETATM    6  C   UNL     1     -11.728  13.075  68.048  1.00  0.00    -0.355 A  
HETATM    7  C   UNL     1     -11.999  14.368  67.653  1.00  0.00    -0.343 A  
HETATM    8  N   UNL     1     -12.333  15.033  68.800  1.00  0.00    -0.598 NA 
HETATM    9  C   UNL     1     -12.256  14.140  69.830  1.00  0.00    -0.344 A  
HETATM   10  H   UNL     1     -12.592  16.017  68.872  1.00  0.00     0.000 HD 
HETATM   11  N   UNL     1     -11.900  12.949  69.407  1.00  0.00    -0.316 NA 
ENDBRANCH   5   6
ENDBRANCH   2   5
TORSDOF 2
ENDMDL
MODEL       84
REMARK 921   NORMALIZED FREE ENERGY PREDICTED BY IDOCK:   -2.38 KCAL/MOL
REMARK 922        TOTAL FREE ENERGY PREDICTED BY IDOCK:   -2.92 KCAL/MOL
REMARK 923 INTER-LIGAND FREE ENERGY PREDICTED BY IDOCK:   -2.64 KCAL/MOL
REMARK 924 INTRA-LIGAND FREE ENERGY PREDICTED BY IDOCK:   -0.28 KCAL/MOL
REMARK 927      BINDING AFFINITY PREDICTED BY RF-SCORE:    0.00 PKD
ROOT
HETATM    1  N   UNL     1     -12.162  11.069  68.830  1.00  0.00    -0.712 NA 
HETATM    2  C   UNL     1     -11.270  10.605  67.763  1.00  0.00    -0.313 C  
HETATM    3  H2  UNL     1     -13.058  11.383  68.457  1.00  0.00     0.000 HD 
HETATM    4  H1  UNL     1     -12.287  10.358  69.551  1.00  0.00     0.000 HD 
ENDROOT
BRANCH   2   5
HETATM    5  C   UNL     1     -11.082  11.671  66.681  1.00  0.00    -0.364 C  
BRANCH   5   6
HETATM    6  C   UNL     1     -10.674  12.982  67.257  1.00  0.00    -0.250 A  
HETATM    7  C   UNL     1     -11.202  14.236  67.027  1.00  0.00    -0.323 A  
HETATM    8  N   UNL     1     -10.457  15.087  67.794  1.00  0.00    -0.246 NA 
HETATM    9  C   UNL     1      -9.522  14.338  68.451  1.00  0.00    -0.213 A  
HETATM   10  H   UNL     1     -10.577  16.098  67.864  1.00  0.00     0.000 HD 
HETATM   11  N   UNL     1      -9.632  13.064  68.153  1.00  0.00    -0.224 NA 
ENDBRANCH   5   6
ENDBRANCH   2   5
TORSDOF 2
ENDMDL
MODEL       85
REMARK 921   NORMALIZED FREE ENERGY PREDICTED BY IDOCK:   -2.35 KCAL/MOL
REMARK 922        TOTAL FREE ENERGY PREDICTED BY IDOCK:   -2.88 KCAL/MOL
REMARK 923 INTER-LIGAND FREE ENERGY PREDICTED BY IDOCK:   -2.83 KCAL/MOL
REMARK 924 INTRA-LIGAND FREE ENERGY PREDICTED BY IDOCK:   -0.06 KCAL/MOL
REMARK 927      BINDING AFFINITY PREDICTED BY RF-SCORE:    0.00 PKD
ROOT
HETATM    1  N   UNL     1     -13.366  11.908  72.275  1.00  0.00    -0.548 NA 
HETATM    2  C   UNL     1     -13.184  10.593  71.652  1.00  0.00    -0.392 C  
HETATM    3  H2  UNL     1     -13.057  12.659  71.657  1.00  0.00     0.000 HD 
HETATM    4  H1  UNL     1     -14.328  12.050  72.582  1.00  0.00     0.000 HD 
ENDROOT
BRANCH   2   5
HETATM    5  C   UNL     1     -11.740  10.381  71.192  1.00  0.00    -0.387 C  
BRANCH   5   6
HETATM    6  C   UNL     1     -11.599  10.525  69.717  1.00  0.00    -0.294 A  
HETATM    7  C   UNL     1     -12.063  11.528  68.892  1.00  0.00    -0.206 A  
HETATM    8  N   UNL     1     -11.672  11.170  67.632  1.00  0.00    -0.598 NA 
HETATM    9  C   UNL     1     -10.997   9.987  67.733  1.00  0.00    -0.249 A  
HETATM   10  H   UNL     1     -11.852  11.691  66.774  1.00  0.00     0.000 HD 
HETATM   11  N   UNL     1     -10.930   9.576  68.977  1.00  0.00    -0.154 NA 
ENDBRANCH   5   6
ENDBRANCH   2   5
TORSDOF 2
ENDMDL
MODEL       86
REMARK 921   NORMALIZED FREE ENERGY PREDICTED BY IDOCK:   -2.34 KCAL/MOL
REMARK 922        TOTAL FREE ENERGY PREDICTED BY IDOCK:   -2.87 KCAL/MOL
REMARK 923 INTER-LIGAND FREE ENERGY PREDICTED BY IDOCK:   -2.59 KCAL/MOL
REMARK 924 INTRA-LIGAND FREE ENERGY PREDICTED BY IDOCK:   -0.29 KCAL/MOL
REMARK 927      BINDING AFFINITY PREDICTED BY RF-SCORE:    0.00 PKD
ROOT
HETATM    1  N   UNL     1     -10.050   9.851  70.374  1.00  0.00    -0.363 NA 
HETATM    2  C   UNL     1     -11.451   9.925  70.801  1.00  0.00    -0.354 C  
HETATM    3  H2  UNL     1      -9.555  10.722  70.566  1.00  0.00     0.000 HD 
HETATM    4  H1  UNL     1      -9.572   9.051  70.789  1.00  0.00     0.000 HD 
ENDROOT
BRANCH   2   5
HETATM    5  C   UNL     1     -12.169  11.125  70.178  1.00  0.00    -0.417 C  
BRANCH   5   6
HETATM    6  C   UNL     1     -11.524  11.562  68.909  1.00  0.00    -0.289 A  
HETATM    7  C   UNL     1     -11.022  12.801  68.569  1.00  0.00    -0.258 A  
HETATM    8  N   UNL     1     -10.555  12.663  67.292  1.00  0.00    -0.227 NA 
HETATM    9  C   UNL     1     -10.782  11.373  66.908  1.00  0.00    -0.265 A  
HETATM   10  H   UNL     1     -10.116  13.392  66.729  1.00  0.00     0.000 HD 
HETATM   11  N   UNL     1     -11.359  10.681  67.863  1.00  0.00    -0.413 NA 
ENDBRANCH   5   6
ENDBRANCH   2   5
TORSDOF 2
ENDMDL
MODEL       87
REMARK 921   NORMALIZED FREE ENERGY PREDICTED BY IDOCK:   -2.33 KCAL/MOL
REMARK 922        TOTAL FREE ENERGY PREDICTED BY IDOCK:   -2.86 KCAL/MOL
REMARK 923 INTER-LIGAND FREE ENERGY PREDICTED BY IDOCK:   -2.61 KCAL/MOL
REMARK 924 INTRA-LIGAND FREE ENERGY PREDICTED BY IDOCK:   -0.25 KCAL/MOL
REMARK 927      BINDING AFFINITY PREDICTED BY RF-SCORE:    0.00 PKD
ROOT
HETATM    1  N   UNL     1     -11.130   5.731  66.611  1.00  0.00    -0.684 NA 
HETATM    2  C   UNL     1     -10.776   7.130  66.871  1.00  0.00    -0.293 C  
HETATM    3  H2  UNL     1     -11.566   5.299  67.426  1.00  0.00     0.000 HD 
HETATM    4  H1  UNL     1     -11.718   5.639  65.782  1.00  0.00     0.000 HD 
ENDROOT
BRANCH   2   5
HETATM    5  C   UNL     1      -9.894   7.268  68.114  1.00  0.00    -0.165 C  
BRANCH   5   6
HETATM    6  C   UNL     1     -10.697   7.280  69.368  1.00  0.00    -0.225 A  
HETATM    7  C   UNL     1     -10.881   8.304  70.274  1.00  0.00    -0.240 A  
HETATM    8  N   UNL     1     -11.694   7.786  71.243  1.00  0.00    -0.283 NA 
HETATM    9  C   UNL     1     -11.971   6.494  70.900  1.00  0.00    -0.291 A  
HETATM   10  H   UNL     1     -12.031   8.276  72.072  1.00  0.00     0.000 HD 
HETATM   11  N   UNL     1     -11.391   6.161  69.771  1.00  0.00    -0.426 NA 
ENDBRANCH   5   6
ENDBRANCH   2   5
TORSDOF 2
ENDMDL
MODEL       88
REMARK 921   NORMALIZED FREE ENERGY PREDICTED BY IDOCK:   -2.31 KCAL/MOL
REMARK 922        TOTAL FREE ENERGY PREDICTED BY IDOCK:   -2.85 KCAL/MOL
REMARK 923 INTER-LIGAND FREE ENERGY PREDICTED BY IDOCK:   -2.79 KCAL/MOL
REMARK 924 INTRA-LIGAND FREE ENERGY PREDICTED BY IDOCK:   -0.06 KCAL/MOL
REMARK 927      BINDING AFFINITY PREDICTED BY RF-SCORE:    0.00 PKD
ROOT
HETATM    1  N   UNL     1      -8.908  14.973  69.457  1.00  0.00    -0.435 NA 
HETATM    2  C   UNL     1      -8.792  16.025  68.442  1.00  0.00    -0.188 C  
HETATM    3  H2  UNL     1      -8.072  14.389  69.485  1.00  0.00     0.000 HD 
HETATM    4  H1  UNL     1      -9.122  15.360  70.377  1.00  0.00     0.000 HD 
ENDROOT
BRANCH   2   5
HETATM    5  C   UNL     1      -8.470  15.446  67.062  1.00  0.00    -0.262 C  
BRANCH   5   6
HETATM    6  C   UNL     1      -9.686  15.328  66.210  1.00  0.00    -0.299 A  
HETATM    7  C   UNL     1     -10.569  14.275  66.094  1.00  0.00    -0.293 A  
HETATM    8  N   UNL     1     -11.494  14.680  65.174  1.00  0.00    -0.362 NA 
HETATM    9  C   UNL     1     -11.150  15.939  64.771  1.00  0.00    -0.384 A  
HETATM   10  H   UNL     1     -12.295  14.140  64.847  1.00  0.00     0.000 HD 
HETATM   11  N   UNL     1     -10.068  16.360  65.384  1.00  0.00    -0.563 NA 
ENDBRANCH   5   6
ENDBRANCH   2   5
TORSDOF 2
ENDMDL
MODEL       89
REMARK 921   NORMALIZED FREE ENERGY PREDICTED BY IDOCK:   -2.31 KCAL/MOL
REMARK 922        TOTAL FREE ENERGY PREDICTED BY IDOCK:   -2.84 KCAL/MOL
REMARK 923 INTER-LIGAND FREE ENERGY PREDICTED BY IDOCK:   -2.58 KCAL/MOL
REMARK 924 INTRA-LIGAND FREE ENERGY PREDICTED BY IDOCK:   -0.26 KCAL/MOL
REMARK 927      BINDING AFFINITY PREDICTED BY RF-SCORE:    0.00 PKD
ROOT
HETATM    1  N   UNL     1     -10.137  18.263  68.649  1.00  0.00    -0.385 NA 
HETATM    2  C   UNL     1      -8.865  17.547  68.505  1.00  0.00    -0.282 C  
HETATM    3  H2  UNL     1     -10.803  17.989  67.926  1.00  0.00     0.000 HD 
HETATM    4  H1  UNL     1     -10.531  18.145  69.583  1.00  0.00     0.000 HD 
ENDROOT
BRANCH   2   5
HETATM    5  C   UNL     1      -8.274  17.723  67.105  1.00  0.00    -0.233 C  
BRANCH   5   6
HETATM    6  C   UNL     1      -7.694  19.081  66.912  1.00  0.00    -0.242 A  
HETATM    7  C   UNL     1      -7.386  19.738  65.739  1.00  0.00    -0.315 A  
HETATM    8  N   UNL     1      -6.873  20.944  66.125  1.00  0.00    -0.482 NA 
HETATM    9  C   UNL     1      -6.888  20.980  67.490  1.00  0.00    -0.349 A  
HETATM   10  H   UNL     1      -6.540  21.684  65.506  1.00  0.00     0.000 HD 
HETATM   11  N   UNL     1      -7.384  19.874  67.994  1.00  0.00    -0.292 NA 
ENDBRANCH   5   6
ENDBRANCH   2   5
TORSDOF 2
ENDMDL
MODEL       90
REMARK 921   NORMALIZED FREE ENERGY PREDICTED BY IDOCK:   -2.29 KCAL/MOL
REMARK 922        TOTAL FREE ENERGY PREDICTED BY IDOCK:   -2.82 KCAL/MOL
REMARK 923 INTER-LIGAND FREE ENERGY PREDICTED BY IDOCK:   -2.74 KCAL/MOL
REMARK 924 INTRA-LIGAND FREE ENERGY PREDICTED BY IDOCK:   -0.08 KCAL/MOL
REMARK 927      BINDING AFFINITY PREDICTED BY RF-SCORE:    0.00 PKD
ROOT
HETATM    1  N   UNL     1      -6.015  20.465  63.712  1.00  0.00    -0.268 NA 
HETATM    2  C   UNL     1      -5.569  19.804  64.942  1.00  0.00    -0.184 C  
HETATM    3  H2  UNL     1      -6.904  20.946  63.849  1.00  0.00     0.000 HD 
HETATM    4  H1  UNL     1      -5.303  21.095  63.344  1.00  0.00     0.000 HD 
ENDROOT
BRANCH   2   5
HETATM    5  C   UNL     1      -6.637  18.858  65.495  1.00  0.00    -0.311 C  
BRANCH   5   6
HETATM    6  C   UNL     1      -7.760  19.598  66.135  1.00  0.00    -0.321 A  
HETATM    7  C   UNL     1      -7.713  20.640  67.037  1.00  0.00    -0.265 A  
HETATM    8  N   UNL     1      -9.018  20.940  67.310  1.00  0.00    -0.527 NA 
HETATM    9  C   UNL     1      -9.797  20.090  66.579  1.00  0.00    -0.459 A  
HETATM   10  H   UNL     1      -9.349  21.667  67.945  1.00  0.00     0.000 HD 
HETATM   11  N   UNL     1      -9.068  19.274  65.854  1.00  0.00    -0.402 NA 
ENDBRANCH   5   6
ENDBRANCH   2   5
TORSDOF 2
ENDMDL
MODEL       91
REMARK 921   NORMALIZED FREE ENERGY PREDICTED BY IDOCK:   -2.27 KCAL/MOL
REMARK 922        TOTAL FREE ENERGY PREDICTED BY IDOCK:   -2.80 KCAL/MOL
REMARK 923 INTER-LIGAND FREE ENERGY PREDICTED BY IDOCK:   -2.54 KCAL/MOL
REMARK 924 INTRA-LIGAND FREE ENERGY PREDICTED BY IDOCK:   -0.26 KCAL/MOL
REMARK 927      BINDING AFFINITY PREDICTED BY RF-SCORE:    0.00 PKD
ROOT
HETATM    1  N   UNL     1      -9.823   5.307  69.345  1.00  0.00    -0.176 NA 
HETATM    2  C   UNL     1     -10.537   6.587  69.318  1.00  0.00    -0.247 C  
HETATM    3  H2  UNL     1     -10.446   4.528  69.130  1.00  0.00     0.000 HD 
HETATM    4  H1  UNL     1      -9.012   5.316  68.726  1.00  0.00     0.000 HD 
ENDROOT
BRANCH   2   5
HETATM    5  C   UNL     1     -11.754   6.575  70.246  1.00  0.00    -0.430 C  
BRANCH   5   6
HETATM    6  C   UNL     1     -11.361   6.648  71.681  1.00  0.00    -0.276 A  
HETATM    7  C   UNL     1     -11.394   7.728  72.538  1.00  0.00    -0.374 A  
HETATM    8  N   UNL     1     -10.918   7.256  73.730  1.00  0.00    -0.526 NA 
HETATM    9  C   UNL     1     -10.621   5.935  73.560  1.00  0.00    -0.268 A  
HETATM   10  H   UNL     1     -10.806   7.795  74.589  1.00  0.00     0.000 HD 
HETATM   11  N   UNL     1     -10.884   5.536  72.338  1.00  0.00    -0.237 NA 
ENDBRANCH   5   6
ENDBRANCH   2   5
TORSDOF 2
ENDMDL
MODEL       92
REMARK 921   NORMALIZED FREE ENERGY PREDICTED BY IDOCK:   -2.27 KCAL/MOL
REMARK 922        TOTAL FREE ENERGY PREDICTED BY IDOCK:   -2.79 KCAL/MOL
REMARK 923 INTER-LIGAND FREE ENERGY PREDICTED BY IDOCK:   -2.52 KCAL/MOL
REMARK 924 INTRA-LIGAND FREE ENERGY PREDICTED BY IDOCK:   -0.28 KCAL/MOL
REMARK 927      BINDING AFFINITY PREDICTED BY RF-SCORE:    0.00 PKD
ROOT
HETATM    1  N   UNL     1     -10.212  12.430  68.652  1.00  0.00    -0.348 NA 
HETATM    2  C   UNL     1     -11.591  12.201  68.207  1.00  0.00    -0.325 C  
HETATM    3  H2  UNL     1     -10.127  13.306  69.167  1.00  0.00     0.000 HD 
HETATM    4  H1  UNL     1      -9.857  11.642  69.194  1.00  0.00     0.000 HD 
ENDROOT
BRANCH   2   5
HETATM    5  C   UNL     1     -12.124  13.382  67.393  1.00  0.00    -0.338 C  
BRANCH   5   6
HETATM    6  C   UNL     1     -11.548  14.678  67.848  1.00  0.00    -0.348 A  
HETATM    7  C   UNL     1     -11.941  15.485  68.896  1.00  0.00    -0.284 A  
HETATM    8  N   UNL     1     -11.088  16.552  68.868  1.00  0.00    -0.324 NA 
HETATM    9  C   UNL     1     -10.224  16.362  67.828  1.00  0.00    -0.274 A  
HETATM   10  H   UNL     1     -11.096  17.347  69.508  1.00  0.00     0.000 HD 
HETATM   11  N   UNL     1     -10.471  15.237  67.198  1.00  0.00    -0.274 NA 
ENDBRANCH   5   6
ENDBRANCH   2   5
TORSDOF 2
ENDMDL
MODEL       93
REMARK 921   NORMALIZED FREE ENERGY PREDICTED BY IDOCK:   -2.26 KCAL/MOL
REMARK 922        TOTAL FREE ENERGY PREDICTED BY IDOCK:   -2.79 KCAL/MOL
REMARK 923 INTER-LIGAND FREE ENERGY PREDICTED BY IDOCK:   -2.75 KCAL/MOL
REMARK 924 INTRA-LIGAND FREE ENERGY PREDICTED BY IDOCK:   -0.03 KCAL/MOL
REMARK 927      BINDING AFFINITY PREDICTED BY RF-SCORE:    0.00 PKD
ROOT
HETATM    1  N   UNL     1     -12.925  12.660  64.538  1.00  0.00    -0.797 NA 
HETATM    2  C   UNL     1     -12.383  13.516  65.598  1.00  0.00    -0.476 C  
HETATM    3  H2  UNL     1     -12.784  11.671  64.749  1.00  0.00     0.000 HD 
HETATM    4  H1  UNL     1     -13.908  12.865  64.355  1.00  0.00     0.000 HD 
ENDROOT
BRANCH   2   5
HETATM    5  C   UNL     1     -10.909  13.208  65.874  1.00  0.00    -0.288 C  
BRANCH   5   6
HETATM    6  C   UNL     1     -10.328  14.133  66.886  1.00  0.00    -0.269 A  
HETATM    7  C   UNL     1     -10.003  13.887  68.204  1.00  0.00    -0.240 A  
HETATM    8  N   UNL     1      -9.517  15.071  68.683  1.00  0.00    -0.205 NA 
HETATM    9  C   UNL     1      -9.561  15.977  67.662  1.00  0.00    -0.218 A  
HETATM   10  H   UNL     1      -9.183  15.247  69.631  1.00  0.00     0.000 HD 
HETATM   11  N   UNL     1     -10.038  15.439  66.563  1.00  0.00    -0.261 NA 
ENDBRANCH   5   6
ENDBRANCH   2   5
TORSDOF 2
ENDMDL
MODEL       94
REMARK 921   NORMALIZED FREE ENERGY PREDICTED BY IDOCK:   -2.25 KCAL/MOL
REMARK 922        TOTAL FREE ENERGY PREDICTED BY IDOCK:   -2.77 KCAL/MOL
REMARK 923 INTER-LIGAND FREE ENERGY PREDICTED BY IDOCK:   -2.72 KCAL/MOL
REMARK 924 INTRA-LIGAND FREE ENERGY PREDICTED BY IDOCK:   -0.05 KCAL/MOL
REMARK 927      BINDING AFFINITY PREDICTED BY RF-SCORE:    0.00 PKD
ROOT
HETATM    1  N   UNL     1      -9.788   6.422  68.927  1.00  0.00    -0.135 NA 
HETATM    2  C   UNL     1     -11.222   6.556  69.201  1.00  0.00    -0.303 C  
HETATM    3  H2  UNL     1      -9.417   5.549  69.303  1.00  0.00     0.000 HD 
HETATM    4  H1  UNL     1      -9.585   6.516  67.932  1.00  0.00     0.000 HD 
ENDROOT
BRANCH   2   5
HETATM    5  C   UNL     1     -11.527   6.416  70.695  1.00  0.00    -0.426 C  
BRANCH   5   6
HETATM    6  C   UNL     1     -12.279   7.589  71.222  1.00  0.00    -0.329 A  
HETATM    7  C   UNL     1     -11.842   8.880  71.429  1.00  0.00    -0.317 A  
HETATM    8  N   UNL     1     -12.922   9.549  71.934  1.00  0.00    -0.392 NA 
HETATM    9  C   UNL     1     -13.956   8.661  72.012  1.00  0.00    -0.446 A  
HETATM   10  H   UNL     1     -12.949  10.533  72.203  1.00  0.00     0.000 HD 
HETATM   11  N   UNL     1     -13.602   7.472  71.584  1.00  0.00    -0.377 NA 
ENDBRANCH   5   6
ENDBRANCH   2   5
TORSDOF 2
ENDMDL
MODEL       95
REMARK 921   NORMALIZED FREE ENERGY PREDICTED BY IDOCK:   -2.24 KCAL/MOL
REMARK 922        TOTAL FREE ENERGY PREDICTED BY IDOCK:   -2.77 KCAL/MOL
REMARK 923 INTER-LIGAND FREE ENERGY PREDICTED BY IDOCK:   -2.54 KCAL/MOL
REMARK 924 INTRA-LIGAND FREE ENERGY PREDICTED BY IDOCK:   -0.23 KCAL/MOL
REMARK 927      BINDING AFFINITY PREDICTED BY RF-SCORE:    0.00 PKD
ROOT
HETATM    1  N   UNL     1      -6.436  16.965  69.210  1.00  0.00    -0.218 NA 
HETATM    2  C   UNL     1      -7.391  16.449  68.225  1.00  0.00    -0.158 C  
HETATM    3  H2  UNL     1      -6.561  16.519  70.119  1.00  0.00     0.000 HD 
HETATM    4  H1  UNL     1      -5.474  16.880  68.882  1.00  0.00     0.000 HD 
ENDROOT
BRANCH   2   5
HETATM    5  C   UNL     1      -8.835  16.576  68.716  1.00  0.00    -0.255 C  
BRANCH   5   6
HETATM    6  C   UNL     1      -9.478  17.831  68.236  1.00  0.00    -0.290 A  
HETATM    7  C   UNL     1     -10.645  17.991  67.519  1.00  0.00    -0.388 A  
HETATM    8  N   UNL     1     -10.770  19.339  67.331  1.00  0.00    -0.485 NA 
HETATM    9  C   UNL     1      -9.699  19.939  67.928  1.00  0.00    -0.389 A  
HETATM   10  H   UNL     1     -11.527  19.811  66.834  1.00  0.00     0.000 HD 
HETATM   11  N   UNL     1      -8.905  19.057  68.488  1.00  0.00    -0.352 NA 
ENDBRANCH   5   6
ENDBRANCH   2   5
TORSDOF 2
ENDMDL
MODEL       96
REMARK 921   NORMALIZED FREE ENERGY PREDICTED BY IDOCK:   -2.23 KCAL/MOL
REMARK 922        TOTAL FREE ENERGY PREDICTED BY IDOCK:   -2.75 KCAL/MOL
REMARK 923 INTER-LIGAND FREE ENERGY PREDICTED BY IDOCK:   -2.53 KCAL/MOL
REMARK 924 INTRA-LIGAND FREE ENERGY PREDICTED BY IDOCK:   -0.23 KCAL/MOL
REMARK 927      BINDING AFFINITY PREDICTED BY RF-SCORE:    0.00 PKD
ROOT
HETATM    1  N   UNL     1     -10.288  17.776  68.032  1.00  0.00    -0.375 NA 
HETATM    2  C   UNL     1     -10.571  17.534  66.613  1.00  0.00    -0.198 C  
HETATM    3  H2  UNL     1      -9.291  17.916  68.194  1.00  0.00     0.000 HD 
HETATM    4  H1  UNL     1     -10.838  18.554  68.397  1.00  0.00     0.000 HD 
ENDROOT
BRANCH   2   5
HETATM    5  C   UNL     1      -9.746  16.367  66.065  1.00  0.00    -0.356 C  
BRANCH   5   6
HETATM    6  C   UNL     1      -8.289  16.552  66.309  1.00  0.00    -0.329 A  
HETATM    7  C   UNL     1      -7.404  15.720  66.962  1.00  0.00    -0.191 A  
HETATM    8  N   UNL     1      -6.200  16.365  66.914  1.00  0.00    -0.308 NA 
HETATM    9  C   UNL     1      -6.390  17.541  66.247  1.00  0.00    -0.244 A  
HETATM   10  H   UNL     1      -5.319  16.029  67.306  1.00  0.00     0.000 HD 
HETATM   11  N   UNL     1      -7.638  17.679  65.863  1.00  0.00    -0.527 NA 
ENDBRANCH   5   6
ENDBRANCH   2   5
TORSDOF 2
ENDMDL
MODEL       97
REMARK 921   NORMALIZED FREE ENERGY PREDICTED BY IDOCK:   -2.23 KCAL/MOL
REMARK 922        TOTAL FREE ENERGY PREDICTED BY IDOCK:   -2.75 KCAL/MOL
REMARK 923 INTER-LIGAND FREE ENERGY PREDICTED BY IDOCK:   -2.70 KCAL/MOL
REMARK 924 INTRA-LIGAND FREE ENERGY PREDICTED BY IDOCK:   -0.05 KCAL/MOL
REMARK 927      BINDING AFFINITY PREDICTED BY RF-SCORE:    0.00 PKD
ROOT
HETATM    1  N   UNL     1     -11.024  11.324  63.016  1.00  0.00    -0.836 NA 
HETATM    2  C   UNL     1     -10.355  11.285  64.320  1.00  0.00    -0.340 C  
HETATM    3  H2  UNL     1     -11.340  12.267  62.788  1.00  0.00     0.000 HD 
HETATM    4  H1  UNL     1     -10.434  10.940  62.278  1.00  0.00     0.000 HD 
ENDROOT
BRANCH   2   5
HETATM    5  C   UNL     1     -11.240  11.861  65.428  1.00  0.00    -0.351 C  
BRANCH   5   6
HETATM    6  C   UNL     1     -10.456  12.200  66.647  1.00  0.00    -0.220 A  
HETATM    7  C   UNL     1     -10.762  13.085  67.660  1.00  0.00    -0.227 A  
HETATM    8  N   UNL     1      -9.705  13.024  68.524  1.00  0.00    -0.367 NA 
HETATM    9  C   UNL     1      -8.812  12.123  68.018  1.00  0.00    -0.181 A  
HETATM   10  H   UNL     1      -9.601  13.555  69.389  1.00  0.00     0.000 HD 
HETATM   11  N   UNL     1      -9.240  11.603  66.891  1.00  0.00    -0.179 NA 
ENDBRANCH   5   6
ENDBRANCH   2   5
TORSDOF 2
ENDMDL
MODEL       98
REMARK 921   NORMALIZED FREE ENERGY PREDICTED BY IDOCK:   -2.22 KCAL/MOL
REMARK 922        TOTAL FREE ENERGY PREDICTED BY IDOCK:   -2.74 KCAL/MOL
REMARK 923 INTER-LIGAND FREE ENERGY PREDICTED BY IDOCK:   -2.48 KCAL/MOL
REMARK 924 INTRA-LIGAND FREE ENERGY PREDICTED BY IDOCK:   -0.26 KCAL/MOL
REMARK 927      BINDING AFFINITY PREDICTED BY RF-SCORE:    0.00 PKD
ROOT
HETATM    1  N   UNL     1      -9.771  13.015  68.794  1.00  0.00    -0.418 NA 
HETATM    2  C   UNL     1     -10.969  13.860  68.785  1.00  0.00    -0.263 C  
HETATM    3  H2  UNL     1      -9.228  13.148  69.648  1.00  0.00     0.000 HD 
HETATM    4  H1  UNL     1     -10.003  12.032  68.650  1.00  0.00     0.000 HD 
ENDROOT
BRANCH   2   5
HETATM    5  C   UNL     1     -10.622  15.335  69.003  1.00  0.00    -0.245 C  
BRANCH   5   6
HETATM    6  C   UNL     1     -10.068  15.963  67.772  1.00  0.00    -0.244 A  
HETATM    7  C   UNL     1     -10.516  17.071  67.083  1.00  0.00    -0.291 A  
HETATM    8  N   UNL     1      -9.659  17.211  66.027  1.00  0.00    -0.494 NA 
HETATM    9  C   UNL     1      -8.739  16.206  66.109  1.00  0.00    -0.323 A  
HETATM   10  H   UNL     1      -9.700  17.934  65.309  1.00  0.00     0.000 HD 
HETATM   11  N   UNL     1      -8.954  15.441  67.154  1.00  0.00    -0.206 NA 
ENDBRANCH   5   6
ENDBRANCH   2   5
TORSDOF 2
ENDMDL
MODEL       99
REMARK 921   NORMALIZED FREE ENERGY PREDICTED BY IDOCK:   -2.22 KCAL/MOL
REMARK 922        TOTAL FREE ENERGY PREDICTED BY IDOCK:   -2.74 KCAL/MOL
REMARK 923 INTER-LIGAND FREE ENERGY PREDICTED BY IDOCK:   -2.70 KCAL/MOL
REMARK 924 INTRA-LIGAND FREE ENERGY PREDICTED BY IDOCK:   -0.04 KCAL/MOL
REMARK 927      BINDING AFFINITY PREDICTED BY RF-SCORE:    0.00 PKD
ROOT
HETATM    1  N   UNL     1     -11.193  16.514  69.978  1.00  0.00    -0.434 NA 
HETATM    2  C   UNL     1     -10.462  15.309  69.573  1.00  0.00    -0.260 C  
HETATM    3  H2  UNL     1     -12.089  16.586  69.496  1.00  0.00     0.000 HD 
HETATM    4  H1  UNL     1     -11.309  16.560  70.991  1.00  0.00     0.000 HD 
ENDROOT
BRANCH   2   5
HETATM    5  C   UNL     1     -10.287  15.238  68.054  1.00  0.00    -0.244 C  
BRANCH   5   6
HETATM    6  C   UNL     1     -10.909  14.014  67.478  1.00  0.00    -0.270 A  
HETATM    7  C   UNL     1     -12.048  13.895  66.710  1.00  0.00    -0.439 A  
HETATM    8  N   UNL     1     -12.176  12.558  66.458  1.00  0.00    -0.531 NA 
HETATM    9  C   UNL     1     -11.131  11.923  67.067  1.00  0.00    -0.302 A  
HETATM   10  H   UNL     1     -12.917  12.115  65.914  1.00  0.00     0.000 HD 
HETATM   11  N   UNL     1     -10.346  12.775  67.685  1.00  0.00    -0.218 NA 
ENDBRANCH   5   6
ENDBRANCH   2   5
TORSDOF 2
ENDMDL
MODEL      100
REMARK 921   NORMALIZED FREE ENERGY PREDICTED BY IDOCK:   -2.21 KCAL/MOL
REMARK 922        TOTAL FREE ENERGY PREDICTED BY IDOCK:   -2.73 KCAL/MOL
REMARK 923 INTER-LIGAND FREE ENERGY PREDICTED BY IDOCK:   -2.50 KCAL/MOL
REMARK 924 INTRA-LIGAND FREE ENERGY PREDICTED BY IDOCK:   -0.23 KCAL/MOL
REMARK 927      BINDING AFFINITY PREDICTED BY RF-SCORE:    0.00 PKD
ROOT
HETATM    1  N   UNL     1      -7.781  10.998  65.378  1.00  0.00    -0.359 NA 
HETATM    2  C   UNL     1      -9.082  10.728  64.760  1.00  0.00    -0.200 C  
HETATM    3  H2  UNL     1      -7.848  11.016  66.396  1.00  0.00     0.000 HD 
HETATM    4  H1  UNL     1      -7.070  10.337  65.064  1.00  0.00     0.000 HD 
ENDROOT
BRANCH   2   5
HETATM    5  C   UNL     1     -10.148  11.720  65.231  1.00  0.00    -0.300 C  
BRANCH   5   6
HETATM    6  C   UNL     1     -10.807  11.274  66.490  1.00  0.00    -0.265 A  
HETATM    7  C   UNL     1     -11.745  11.928  67.260  1.00  0.00    -0.247 A  
HETATM    8  N   UNL     1     -12.004  11.086  68.305  1.00  0.00    -0.757 NA 
HETATM    9  C   UNL     1     -11.232   9.972  68.137  1.00  0.00    -0.127 A  
HETATM   10  H   UNL     1     -12.655  11.258  69.071  1.00  0.00     0.000 HD 
HETATM   11  N   UNL     1     -10.504  10.052  67.048  1.00  0.00    -0.245 NA 
ENDBRANCH   5   6
ENDBRANCH   2   5
TORSDOF 2
ENDMDL
MODEL      101
REMARK 921   NORMALIZED FREE ENERGY PREDICTED BY IDOCK:   -2.18 KCAL/MOL
REMARK 922        TOTAL FREE ENERGY PREDICTED BY IDOCK:   -2.70 KCAL/MOL
REMARK 923 INTER-LIGAND FREE ENERGY PREDICTED BY IDOCK:   -2.41 KCAL/MOL
REMARK 924 INTRA-LIGAND FREE ENERGY PREDICTED BY IDOCK:   -0.29 KCAL/MOL
REMARK 927      BINDING AFFINITY PREDICTED BY RF-SCORE:    0.00 PKD
ROOT
HETATM    1  N   UNL     1     -10.801   7.934  69.381  1.00  0.00    -0.399 NA 
HETATM    2  C   UNL     1     -11.277   9.281  69.710  1.00  0.00    -0.085 C  
HETATM    3  H2  UNL     1     -11.538   7.238  69.499  1.00  0.00     0.000 HD 
HETATM    4  H1  UNL     1     -10.400   7.895  68.443  1.00  0.00     0.000 HD 
ENDROOT
BRANCH   2   5
HETATM    5  C   UNL     1     -11.878   9.339  71.116  1.00  0.00    -0.396 C  
BRANCH   5   6
HETATM    6  C   UNL     1     -11.053   8.593  72.106  1.00  0.00    -0.364 A  
HETATM    7  C   UNL     1     -11.422   7.567  72.950  1.00  0.00    -0.259 A  
HETATM    8  N   UNL     1     -10.292   7.253  73.652  1.00  0.00    -0.362 NA 
HETATM    9  C   UNL     1      -9.296   8.079  73.218  1.00  0.00    -0.275 A  
HETATM   10  H   UNL     1     -10.209   6.531  74.369  1.00  0.00     0.000 HD 
HETATM   11  N   UNL     1      -9.721   8.894  72.281  1.00  0.00    -0.268 NA 
ENDBRANCH   5   6
ENDBRANCH   2   5
TORSDOF 2
ENDMDL
MODEL      102
REMARK 921   NORMALIZED FREE ENERGY PREDICTED BY IDOCK:   -2.16 KCAL/MOL
REMARK 922        TOTAL FREE ENERGY PREDICTED BY IDOCK:   -2.67 KCAL/MOL
REMARK 923 INTER-LIGAND FREE ENERGY PREDICTED BY IDOCK:   -2.46 KCAL/MOL
REMARK 924 INTRA-LIGAND FREE ENERGY PREDICTED BY IDOCK:   -0.21 KCAL/MOL
REMARK 927      BINDING AFFINITY PREDICTED BY RF-SCORE:    0.00 PKD
ROOT
HETATM    1  N   UNL     1     -10.832   8.260  67.317  1.00  0.00    -0.474 NA 
HETATM    2  C   UNL     1      -9.462   7.795  67.556  1.00  0.00    -0.141 C  
HETATM    3  H2  UNL     1     -11.134   8.916  68.039  1.00  0.00     0.000 HD 
HETATM    4  H1  UNL     1     -10.936   8.660  66.384  1.00  0.00     0.000 HD 
ENDROOT
BRANCH   2   5
HETATM    5  C   UNL     1      -9.305   7.196  68.956  1.00  0.00    -0.140 C  
BRANCH   5   6
HETATM    6  C   UNL     1     -10.541   7.353  69.771  1.00  0.00    -0.236 A  
HETATM    7  C   UNL     1     -11.535   6.433  70.030  1.00  0.00    -0.428 A  
HETATM    8  N   UNL     1     -12.439   7.091  70.817  1.00  0.00    -0.581 NA 
HETATM    9  C   UNL     1     -11.972   8.360  71.007  1.00  0.00    -0.231 A  
HETATM   10  H   UNL     1     -13.304   6.704  71.194  1.00  0.00     0.000 HD 
HETATM   11  N   UNL     1     -10.826   8.547  70.394  1.00  0.00    -0.232 NA 
ENDBRANCH   5   6
ENDBRANCH   2   5
TORSDOF 2
ENDMDL
MODEL      103
REMARK 921   NORMALIZED FREE ENERGY PREDICTED BY IDOCK:   -2.15 KCAL/MOL
REMARK 922        TOTAL FREE ENERGY PREDICTED BY IDOCK:   -2.67 KCAL/MOL
REMARK 923 INTER-LIGAND FREE ENERGY PREDICTED BY IDOCK:   -2.60 KCAL/MOL
REMARK 924 INTRA-LIGAND FREE ENERGY PREDICTED BY IDOCK:   -0.07 KCAL/MOL
REMARK 927      BINDING AFFINITY PREDICTED BY RF-SCORE:    0.00 PKD
ROOT
HETATM    1  N   UNL     1     -10.170  19.027  69.065  1.00  0.00    -0.535 NA 
HETATM    2  C   UNL     1      -9.187  18.601  68.063  1.00  0.00    -0.304 C  
HETATM    3  H2  UNL     1     -10.449  19.999  68.923  1.00  0.00     0.000 HD 
HETATM    4  H1  UNL     1     -10.979  18.407  69.086  1.00  0.00     0.000 HD 
ENDROOT
BRANCH   2   5
HETATM    5  C   UNL     1      -7.973  19.532  68.031  1.00  0.00    -0.342 C  
BRANCH   5   6
HETATM    6  C   UNL     1      -6.955  19.154  69.050  1.00  0.00    -0.335 A  
HETATM    7  C   UNL     1      -6.374  17.925  69.285  1.00  0.00    -0.244 A  
HETATM    8  N   UNL     1      -5.520  18.124  70.333  1.00  0.00    -0.251 NA 
HETATM    9  C   UNL     1      -5.608  19.439  70.691  1.00  0.00    -0.233 A  
HETATM   10  H   UNL     1      -4.925  17.419  70.769  1.00  0.00     0.000 HD 
HETATM   11  N   UNL     1      -6.459  20.088  69.931  1.00  0.00    -0.352 NA 
ENDBRANCH   5   6
ENDBRANCH   2   5
TORSDOF 2
ENDMDL
MODEL      104
REMARK 921   NORMALIZED FREE ENERGY PREDICTED BY IDOCK:   -2.15 KCAL/MOL
REMARK 922        TOTAL FREE ENERGY PREDICTED BY IDOCK:   -2.66 KCAL/MOL
REMARK 923 INTER-LIGAND FREE ENERGY PREDICTED BY IDOCK:   -2.63 KCAL/MOL
REMARK 924 INTRA-LIGAND FREE ENERGY PREDICTED BY IDOCK:   -0.03 KCAL/MOL
REMARK 927      BINDING AFFINITY PREDICTED BY RF-SCORE:    0.00 PKD
ROOT
HETATM    1  N   UNL     1     -11.724   6.183  72.776  1.00  0.00    -0.508 NA 
HETATM    2  C   UNL     1     -11.233   7.481  72.304  1.00  0.00    -0.283 C  
HETATM    3  H2  UNL     1     -11.522   5.442  72.105  1.00  0.00     0.000 HD 
HETATM    4  H1  UNL     1     -11.361   5.957  73.702  1.00  0.00     0.000 HD 
ENDROOT
BRANCH   2   5
HETATM    5  C   UNL     1     -11.778   7.821  70.915  1.00  0.00    -0.281 C  
BRANCH   5   6
HETATM    6  C   UNL     1     -11.690   9.279  70.624  1.00  0.00    -0.222 A  
HETATM    7  C   UNL     1     -12.299  10.334  71.270  1.00  0.00    -0.403 A  
HETATM    8  N   UNL     1     -11.893  11.452  70.597  1.00  0.00    -0.440 NA 
HETATM    9  C   UNL     1     -11.068  11.048  69.588  1.00  0.00    -0.256 A  
HETATM   10  H   UNL     1     -12.159  12.414  70.811  1.00  0.00     0.000 HD 
HETATM   11  N   UNL     1     -10.920   9.743  69.581  1.00  0.00    -0.240 NA 
ENDBRANCH   5   6
ENDBRANCH   2   5
TORSDOF 2
ENDMDL
MODEL      105
REMARK 921   NORMALIZED FREE ENERGY PREDICTED BY IDOCK:   -2.15 KCAL/MOL
REMARK 922        TOTAL FREE ENERGY PREDICTED BY IDOCK:   -2.66 KCAL/MOL
REMARK 923 INTER-LIGAND FREE ENERGY PREDICTED BY IDOCK:   -2.62 KCAL/MOL
REMARK 924 INTRA-LIGAND FREE ENERGY PREDICTED BY IDOCK:   -0.04 KCAL/MOL
REMARK 927      BINDING AFFINITY PREDICTED BY RF-SCORE:    0.00 PKD
ROOT
HETATM    1  N   UNL     1      -7.245  16.502  69.202  1.00  0.00    -0.223 NA 
HETATM    2  C   UNL     1      -8.289  16.604  68.178  1.00  0.00    -0.193 C  
HETATM    3  H2  UNL     1      -7.610  16.106  70.069  1.00  0.00     0.000 HD 
HETATM    4  H1  UNL     1      -6.437  15.977  68.865  1.00  0.00     0.000 HD 
ENDROOT
BRANCH   2   5
HETATM    5  C   UNL     1      -9.501  17.390  68.683  1.00  0.00    -0.280 C  
BRANCH   5   6
HETATM    6  C   UNL     1     -10.682  16.511  68.906  1.00  0.00    -0.337 A  
HETATM    7  C   UNL     1     -11.389  15.756  67.993  1.00  0.00    -0.310 A  
HETATM    8  N   UNL     1     -12.379  15.151  68.716  1.00  0.00    -0.595 NA 
HETATM    9  C   UNL     1     -12.241  15.548  70.015  1.00  0.00    -0.355 A  
HETATM   10  H   UNL     1     -13.091  14.517  68.351  1.00  0.00     0.000 HD 
HETATM   11  N   UNL     1     -11.223  16.363  70.163  1.00  0.00    -0.325 NA 
ENDBRANCH   5   6
ENDBRANCH   2   5
TORSDOF 2
ENDMDL
MODEL      106
REMARK 921   NORMALIZED FREE ENERGY PREDICTED BY IDOCK:   -2.14 KCAL/MOL
REMARK 922        TOTAL FREE ENERGY PREDICTED BY IDOCK:   -2.65 KCAL/MOL
REMARK 923 INTER-LIGAND FREE ENERGY PREDICTED BY IDOCK:   -2.58 KCAL/MOL
REMARK 924 INTRA-LIGAND FREE ENERGY PREDICTED BY IDOCK:   -0.07 KCAL/MOL
REMARK 927      BINDING AFFINITY PREDICTED BY RF-SCORE:    0.00 PKD
ROOT
HETATM    1  N   UNL     1     -11.390  13.852  70.670  1.00  0.00    -0.451 NA 
HETATM    2  C   UNL     1     -12.255  12.811  70.106  1.00  0.00    -0.249 C  
HETATM    3  H2  UNL     1     -10.562  13.449  71.111  1.00  0.00     0.000 HD 
HETATM    4  H1  UNL     1     -11.137  14.550  69.971  1.00  0.00     0.000 HD 
ENDROOT
BRANCH   2   5
HETATM    5  C   UNL     1     -12.634  11.763  71.155  1.00  0.00    -0.412 C  
BRANCH   5   6
HETATM    6  C   UNL     1     -11.876  10.494  70.973  1.00  0.00    -0.340 A  
HETATM    7  C   UNL     1     -11.866   9.365  71.766  1.00  0.00    -0.382 A  
HETATM    8  N   UNL     1     -10.998   8.504  71.155  1.00  0.00    -0.242 NA 
HETATM    9  C   UNL     1     -10.521   9.125  70.037  1.00  0.00    -0.221 A  
HETATM   10  H   UNL     1     -10.750   7.568  71.478  1.00  0.00     0.000 HD 
HETATM   11  N   UNL     1     -11.037  10.323  69.895  1.00  0.00    -0.283 NA 
ENDBRANCH   5   6
ENDBRANCH   2   5
TORSDOF 2
ENDMDL
MODEL      107
REMARK 921   NORMALIZED FREE ENERGY PREDICTED BY IDOCK:   -2.13 KCAL/MOL
REMARK 922        TOTAL FREE ENERGY PREDICTED BY IDOCK:   -2.64 KCAL/MOL
REMARK 923 INTER-LIGAND FREE ENERGY PREDICTED BY IDOCK:   -2.38 KCAL/MOL
REMARK 924 INTRA-LIGAND FREE ENERGY PREDICTED BY IDOCK:   -0.26 KCAL/MOL
REMARK 927      BINDING AFFINITY PREDICTED BY RF-SCORE:    0.00 PKD
ROOT
HETATM    1  N   UNL     1      -9.746  11.065  68.996  1.00  0.00    -0.342 NA 
HETATM    2  C   UNL     1     -11.050  11.725  69.118  1.00  0.00    -0.238 C  
HETATM    3  H2  UNL     1      -9.165  11.516  68.289  1.00  0.00     0.000 HD 
HETATM    4  H1  UNL     1      -9.265  11.013  69.894  1.00  0.00     0.000 HD 
ENDROOT
BRANCH   2   5
HETATM    5  C   UNL     1     -11.771  11.804  67.770  1.00  0.00    -0.337 C  
BRANCH   5   6
HETATM    6  C   UNL     1     -10.837  11.610  66.627  1.00  0.00    -0.283 A  
HETATM    7  C   UNL     1     -10.169  12.557  65.879  1.00  0.00    -0.261 A  
HETATM    8  N   UNL     1      -9.456  11.848  64.953  1.00  0.00    -0.438 NA 
HETATM    9  C   UNL     1      -9.709  10.523  65.166  1.00  0.00    -0.282 A  
HETATM   10  H   UNL     1      -8.847  12.238  64.233  1.00  0.00     0.000 HD 
HETATM   11  N   UNL     1     -10.532  10.347  66.173  1.00  0.00    -0.195 NA 
ENDBRANCH   5   6
ENDBRANCH   2   5
TORSDOF 2
ENDMDL
MODEL      108
REMARK 921   NORMALIZED FREE ENERGY PREDICTED BY IDOCK:   -2.12 KCAL/MOL
REMARK 922        TOTAL FREE ENERGY PREDICTED BY IDOCK:   -2.63 KCAL/MOL
REMARK 923 INTER-LIGAND FREE ENERGY PREDICTED BY IDOCK:   -2.59 KCAL/MOL
REMARK 924 INTRA-LIGAND FREE ENERGY PREDICTED BY IDOCK:   -0.03 KCAL/MOL
REMARK 927      BINDING AFFINITY PREDICTED BY RF-SCORE:    0.00 PKD
ROOT
HETATM    1  N   UNL     1     -10.394  19.764  68.952  1.00  0.00    -0.594 NA 
HETATM    2  C   UNL     1     -10.436  18.442  68.319  1.00  0.00    -0.299 C  
HETATM    3  H2  UNL     1     -10.618  20.503  68.285  1.00  0.00     0.000 HD 
HETATM    4  H1  UNL     1     -10.997  19.808  69.773  1.00  0.00     0.000 HD 
ENDROOT
BRANCH   2   5
HETATM    5  C   UNL     1      -9.531  18.376  67.087  1.00  0.00    -0.282 C  
BRANCH   5   6
HETATM    6  C   UNL     1     -10.090  17.485  66.033  1.00  0.00    -0.260 A  
HETATM    7  C   UNL     1     -10.952  17.793  65.001  1.00  0.00     0.750 A  
HETATM    8  N   UNL     1     -11.154  16.616  64.336  1.00  0.00    -1.251 NA 
HETATM    9  C   UNL     1     -10.423  15.654  64.972  1.00  0.00    -0.333 A  
HETATM   10  H   UNL     1     -11.744  16.480  63.515  1.00  0.00     0.000 HD 
HETATM   11  N   UNL     1      -9.764  16.148  65.995  1.00  0.00    -0.323 NA 
ENDBRANCH   5   6
ENDBRANCH   2   5
TORSDOF 2
ENDMDL
MODEL      109
REMARK 921   NORMALIZED FREE ENERGY PREDICTED BY IDOCK:   -2.11 KCAL/MOL
REMARK 922        TOTAL FREE ENERGY PREDICTED BY IDOCK:   -2.61 KCAL/MOL
REMARK 923 INTER-LIGAND FREE ENERGY PREDICTED BY IDOCK:   -2.56 KCAL/MOL
REMARK 924 INTRA-LIGAND FREE ENERGY PREDICTED BY IDOCK:   -0.05 KCAL/MOL
REMARK 927      BINDING AFFINITY PREDICTED BY RF-SCORE:    0.00 PKD
ROOT
HETATM    1  N   UNL     1     -13.898   8.689  71.087  1.00  0.00    -0.589 NA 
HETATM    2  C   UNL     1     -12.948   7.716  71.636  1.00  0.00    -0.350 C  
HETATM    3  H2  UNL     1     -13.423   9.405  70.537  1.00  0.00     0.000 HD 
HETATM    4  H1  UNL     1     -14.634   8.233  70.548  1.00  0.00     0.000 HD 
ENDROOT
BRANCH   2   5
HETATM    5  C   UNL     1     -11.844   8.401  72.445  1.00  0.00    -0.452 C  
BRANCH   5   6
HETATM    6  C   UNL     1     -10.685   8.784  71.592  1.00  0.00    -0.327 A  
HETATM    7  C   UNL     1     -10.515   9.905  70.807  1.00  0.00    -0.183 A  
HETATM    8  N   UNL     1      -9.285   9.758  70.230  1.00  0.00    -0.348 NA 
HETATM    9  C   UNL     1      -8.759   8.580  70.676  1.00  0.00    -0.154 A  
HETATM   10  H   UNL     1      -8.840  10.411  69.584  1.00  0.00     0.000 HD 
HETATM   11  N   UNL     1      -9.576   7.972  71.505  1.00  0.00    -0.157 NA 
ENDBRANCH   5   6
ENDBRANCH   2   5
TORSDOF 2
ENDMDL
MODEL      110
REMARK 921   NORMALIZED FREE ENERGY PREDICTED BY IDOCK:   -2.10 KCAL/MOL
REMARK 922        TOTAL FREE ENERGY PREDICTED BY IDOCK:   -2.60 KCAL/MOL
REMARK 923 INTER-LIGAND FREE ENERGY PREDICTED BY IDOCK:   -2.30 KCAL/MOL
REMARK 924 INTRA-LIGAND FREE ENERGY PREDICTED BY IDOCK:   -0.30 KCAL/MOL
REMARK 927      BINDING AFFINITY PREDICTED BY RF-SCORE:    0.00 PKD
ROOT
HETATM    1  N   UNL     1      -9.783  13.542  68.738  1.00  0.00    -0.411 NA 
HETATM    2  C   UNL     1     -11.247  13.610  68.719  1.00  0.00    -0.279 C  
HETATM    3  H2  UNL     1      -9.424  13.016  67.941  1.00  0.00     0.000 HD 
HETATM    4  H1  UNL     1      -9.363  14.471  68.790  1.00  0.00     0.000 HD 
ENDROOT
BRANCH   2   5
HETATM    5  C   UNL     1     -11.877  12.218  68.641  1.00  0.00    -0.354 C  
BRANCH   5   6
HETATM    6  C   UNL     1     -11.129  11.320  67.718  1.00  0.00    -0.271 A  
HETATM    7  C   UNL     1     -10.563  10.087  67.971  1.00  0.00    -0.235 A  
HETATM    8  N   UNL     1      -9.992   9.703  66.790  1.00  0.00    -0.212 NA 
HETATM    9  C   UNL     1     -10.226  10.693  65.879  1.00  0.00    -0.251 A  
HETATM   10  H   UNL     1      -9.483   8.835  66.621  1.00  0.00     0.000 HD 
HETATM   11  N   UNL     1     -10.915  11.678  66.407  1.00  0.00    -0.289 NA 
ENDBRANCH   5   6
ENDBRANCH   2   5
TORSDOF 2
ENDMDL
MODEL      111
REMARK 921   NORMALIZED FREE ENERGY PREDICTED BY IDOCK:   -2.07 KCAL/MOL
REMARK 922        TOTAL FREE ENERGY PREDICTED BY IDOCK:   -2.57 KCAL/MOL
REMARK 923 INTER-LIGAND FREE ENERGY PREDICTED BY IDOCK:   -2.38 KCAL/MOL
REMARK 924 INTRA-LIGAND FREE ENERGY PREDICTED BY IDOCK:   -0.20 KCAL/MOL
REMARK 927      BINDING AFFINITY PREDICTED BY RF-SCORE:    0.00 PKD
ROOT
HETATM    1  N   UNL     1     -12.118  10.483  68.362  1.00  0.00    -0.774 NA 
HETATM    2  C   UNL     1     -10.946  11.287  68.721  1.00  0.00    -0.220 C  
HETATM    3  H2  UNL     1     -12.493   9.989  69.172  1.00  0.00     0.000 HD 
HETATM    4  H1  UNL     1     -12.834  11.046  67.903  1.00  0.00     0.000 HD 
ENDROOT
BRANCH   2   5
HETATM    5  C   UNL     1      -9.870  10.443  69.409  1.00  0.00    -0.235 C  
BRANCH   5   6
HETATM    6  C   UNL     1     -10.329   9.047  69.652  1.00  0.00    -0.212 A  
HETATM    7  C   UNL     1     -10.929   8.511  70.772  1.00  0.00    -0.247 A  
HETATM    8  N   UNL     1     -11.133   7.193  70.476  1.00  0.00    -0.262 NA 
HETATM    9  C   UNL     1     -10.662   6.977  69.213  1.00  0.00    -0.225 A  
HETATM   10  H   UNL     1     -11.560   6.496  71.088  1.00  0.00     0.000 HD 
HETATM   11  N   UNL     1     -10.177   8.078  68.687  1.00  0.00    -0.203 NA 
ENDBRANCH   5   6
ENDBRANCH   2   5
TORSDOF 2
ENDMDL
MODEL      112
REMARK 921   NORMALIZED FREE ENERGY PREDICTED BY IDOCK:   -2.05 KCAL/MOL
REMARK 922        TOTAL FREE ENERGY PREDICTED BY IDOCK:   -2.55 KCAL/MOL
REMARK 923 INTER-LIGAND FREE ENERGY PREDICTED BY IDOCK:   -2.28 KCAL/MOL
REMARK 924 INTRA-LIGAND FREE ENERGY PREDICTED BY IDOCK:   -0.27 KCAL/MOL
REMARK 927      BINDING AFFINITY PREDICTED BY RF-SCORE:    0.00 PKD
ROOT
HETATM    1  N   UNL     1     -11.518  11.554  64.525  1.00  0.00    -0.197 NA 
HETATM    2  C   UNL     1     -10.167  11.608  65.093  1.00  0.00    -0.274 C  
HETATM    3  H2  UNL     1     -12.108  12.299  64.897  1.00  0.00     0.000 HD 
HETATM    4  H1  UNL     1     -11.498  11.568  63.505  1.00  0.00     0.000 HD 
ENDROOT
BRANCH   2   5
HETATM    5  C   UNL     1     -10.196  11.587  66.623  1.00  0.00    -0.254 C  
BRANCH   5   6
HETATM    6  C   UNL     1     -10.854  12.799  67.184  1.00  0.00    -0.256 A  
HETATM    7  C   UNL     1     -11.245  13.055  68.482  1.00  0.00    -0.274 A  
HETATM    8  N   UNL     1     -11.805  14.302  68.450  1.00  0.00    -0.390 NA 
HETATM    9  C   UNL     1     -11.735  14.752  67.163  1.00  0.00    -0.334 A  
HETATM   10  H   UNL     1     -12.202  14.805  69.244  1.00  0.00     0.000 HD 
HETATM   11  N   UNL     1     -11.161  13.871  66.377  1.00  0.00    -0.306 NA 
ENDBRANCH   5   6
ENDBRANCH   2   5
TORSDOF 2
ENDMDL
MODEL      113
REMARK 921   NORMALIZED FREE ENERGY PREDICTED BY IDOCK:   -2.05 KCAL/MOL
REMARK 922        TOTAL FREE ENERGY PREDICTED BY IDOCK:   -2.55 KCAL/MOL
REMARK 923 INTER-LIGAND FREE ENERGY PREDICTED BY IDOCK:   -2.30 KCAL/MOL
REMARK 924 INTRA-LIGAND FREE ENERGY PREDICTED BY IDOCK:   -0.25 KCAL/MOL
REMARK 927      BINDING AFFINITY PREDICTED BY RF-SCORE:    0.00 PKD
ROOT
HETATM    1  N   UNL     1      -9.521   7.541  65.939  1.00  0.00    -0.404 NA 
HETATM    2  C   UNL     1     -10.447   7.698  67.066  1.00  0.00    -0.349 C  
HETATM    3  H2  UNL     1      -8.607   7.943  66.149  1.00  0.00     0.000 HD 
HETATM    4  H1  UNL     1      -9.442   6.566  65.650  1.00  0.00     0.000 HD 
ENDROOT
BRANCH   2   5
HETATM    5  C   UNL     1     -10.566   9.161  67.499  1.00  0.00    -0.317 C  
BRANCH   5   6
HETATM    6  C   UNL     1      -9.827  10.075  66.584  1.00  0.00    -0.203 A  
HETATM    7  C   UNL     1      -8.687  10.812  66.825  1.00  0.00    -0.143 A  
HETATM    8  N   UNL     1      -8.439  11.483  65.660  1.00  0.00    -0.379 NA 
HETATM    9  C   UNL     1      -9.414  11.136  64.770  1.00  0.00    -0.218 A  
HETATM   10  H   UNL     1      -7.665  12.126  65.487  1.00  0.00     0.000 HD 
HETATM   11  N   UNL     1     -10.263  10.283  65.295  1.00  0.00    -0.289 NA 
ENDBRANCH   5   6
ENDBRANCH   2   5
TORSDOF 2
ENDMDL
MODEL      114
REMARK 921   NORMALIZED FREE ENERGY PREDICTED BY IDOCK:   -2.04 KCAL/MOL
REMARK 922        TOTAL FREE ENERGY PREDICTED BY IDOCK:   -2.53 KCAL/MOL
REMARK 923 INTER-LIGAND FREE ENERGY PREDICTED BY IDOCK:   -2.48 KCAL/MOL
REMARK 924 INTRA-LIGAND FREE ENERGY PREDICTED BY IDOCK:   -0.06 KCAL/MOL
REMARK 927      BINDING AFFINITY PREDICTED BY RF-SCORE:    0.00 PKD
ROOT
HETATM    1  N   UNL     1      -7.422  17.267  68.950  1.00  0.00    -0.254 NA 
HETATM    2  C   UNL     1      -8.075  17.491  67.656  1.00  0.00    -0.207 C  
HETATM    3  H2  UNL     1      -6.684  17.951  69.118  1.00  0.00     0.000 HD 
HETATM    4  H1  UNL     1      -8.098  17.252  69.715  1.00  0.00     0.000 HD 
ENDROOT
BRANCH   2   5
HETATM    5  C   UNL     1      -7.062  17.513  66.509  1.00  0.00    -0.289 C  
BRANCH   5   6
HETATM    6  C   UNL     1      -6.850  18.889  65.981  1.00  0.00    -0.252 A  
HETATM    7  C   UNL     1      -6.972  20.099  66.630  1.00  0.00    -0.233 A  
HETATM    8  N   UNL     1      -6.677  21.045  65.689  1.00  0.00    -0.497 NA 
HETATM    9  C   UNL     1      -6.390  20.392  64.525  1.00  0.00    -0.285 A  
HETATM   10  H   UNL     1      -6.673  22.056  65.831  1.00  0.00     0.000 HD 
HETATM   11  N   UNL     1      -6.479  19.090  64.670  1.00  0.00    -0.459 NA 
ENDBRANCH   5   6
ENDBRANCH   2   5
TORSDOF 2
ENDMDL
MODEL      115
REMARK 921   NORMALIZED FREE ENERGY PREDICTED BY IDOCK:   -2.01 KCAL/MOL
REMARK 922        TOTAL FREE ENERGY PREDICTED BY IDOCK:   -2.51 KCAL/MOL
REMARK 923 INTER-LIGAND FREE ENERGY PREDICTED BY IDOCK:   -2.42 KCAL/MOL
REMARK 924 INTRA-LIGAND FREE ENERGY PREDICTED BY IDOCK:   -0.08 KCAL/MOL
REMARK 927      BINDING AFFINITY PREDICTED BY RF-SCORE:    0.00 PKD
ROOT
HETATM    1  N   UNL     1      -7.737   9.691  65.922  1.00  0.00    -0.101 NA 
HETATM    2  C   UNL     1      -8.971  10.041  66.632  1.00  0.00    -0.139 C  
HETATM    3  H2  UNL     1      -7.511  10.381  65.205  1.00  0.00     0.000 HD 
HETATM    4  H1  UNL     1      -6.958   9.555  66.567  1.00  0.00     0.000 HD 
ENDROOT
BRANCH   2   5
HETATM    5  C   UNL     1     -10.140  10.245  65.666  1.00  0.00    -0.341 C  
BRANCH   5   6
HETATM    6  C   UNL     1     -10.162  11.623  65.101  1.00  0.00    -0.274 A  
HETATM    7  C   UNL     1     -10.469  12.034  63.821  1.00  0.00    -0.429 A  
HETATM    8  N   UNL     1     -10.325  13.393  63.835  1.00  0.00    -0.668 NA 
HETATM    9  C   UNL     1      -9.946  13.754  65.096  1.00  0.00    -0.211 A  
HETATM   10  H   UNL     1     -10.474  14.023  63.046  1.00  0.00     0.000 HD 
HETATM   11  N   UNL     1      -9.846  12.709  65.885  1.00  0.00    -0.261 NA 
ENDBRANCH   5   6
ENDBRANCH   2   5
TORSDOF 2
ENDMDL
MODEL      116
REMARK 921   NORMALIZED FREE ENERGY PREDICTED BY IDOCK:   -1.99 KCAL/MOL
REMARK 922        TOTAL FREE ENERGY PREDICTED BY IDOCK:   -2.49 KCAL/MOL
REMARK 923 INTER-LIGAND FREE ENERGY PREDICTED BY IDOCK:   -2.23 KCAL/MOL
REMARK 924 INTRA-LIGAND FREE ENERGY PREDICTED BY IDOCK:   -0.26 KCAL/MOL
REMARK 927      BINDING AFFINITY PREDICTED BY RF-SCORE:    0.00 PKD
ROOT
HETATM    1  N   UNL     1     -12.104  11.919  67.179  1.00  0.00    -0.522 NA 
HETATM    2  C   UNL     1     -10.803  11.855  67.853  1.00  0.00    -0.213 C  
HETATM    3  H2  UNL     1     -12.314  11.049  66.691  1.00  0.00     0.000 HD 
HETATM    4  H1  UNL     1     -12.850  12.173  67.827  1.00  0.00     0.000 HD 
ENDROOT
BRANCH   2   5
HETATM    5  C   UNL     1      -9.682  11.474  66.882  1.00  0.00    -0.205 C  
BRANCH   5   6
HETATM    6  C   UNL     1      -9.649  10.010  66.617  1.00  0.00    -0.186 A  
HETATM    7  C   UNL     1      -8.937   9.314  65.662  1.00  0.00    -0.199 A  
HETATM    8  N   UNL     1      -9.275   8.002  65.844  1.00  0.00    -0.369 NA 
HETATM    9  C   UNL     1     -10.160   7.946  66.882  1.00  0.00    -0.291 A  
HETATM   10  H   UNL     1      -8.929   7.210  65.303  1.00  0.00     0.000 HD 
HETATM   11  N   UNL     1     -10.401   9.139  67.374  1.00  0.00    -0.247 NA 
ENDBRANCH   5   6
ENDBRANCH   2   5
TORSDOF 2
ENDMDL
MODEL      117
REMARK 921   NORMALIZED FREE ENERGY PREDICTED BY IDOCK:   -1.97 KCAL/MOL
REMARK 922        TOTAL FREE ENERGY PREDICTED BY IDOCK:   -2.46 KCAL/MOL
REMARK 923 INTER-LIGAND FREE ENERGY PREDICTED BY IDOCK:   -2.19 KCAL/MOL
REMARK 924 INTRA-LIGAND FREE ENERGY PREDICTED BY IDOCK:   -0.27 KCAL/MOL
REMARK 927      BINDING AFFINITY PREDICTED BY RF-SCORE:    0.00 PKD
ROOT
HETATM    1  N   UNL     1      -9.062   4.043  72.105  1.00  0.00    -0.117 NA 
HETATM    2  C   UNL     1     -10.073   3.098  72.590  1.00  0.00    -0.157 C  
HETATM    3  H2  UNL     1      -8.645   4.568  72.874  1.00  0.00     0.000 HD 
HETATM    4  H1  UNL     1      -8.350   3.576  71.543  1.00  0.00     0.000 HD 
ENDROOT
BRANCH   2   5
HETATM    5  C   UNL     1     -11.142   3.797  73.433  1.00  0.00    -0.308 C  
BRANCH   5   6
HETATM    6  C   UNL     1     -11.173   5.265  73.187  1.00  0.00    -0.318 A  
HETATM    7  C   UNL     1     -11.947   5.983  72.298  1.00  0.00    -0.204 A  
HETATM    8  N   UNL     1     -11.574   7.287  72.468  1.00  0.00    -0.425 NA 
HETATM    9  C   UNL     1     -10.609   7.318  73.433  1.00  0.00    -0.389 A  
HETATM   10  H   UNL     1     -11.950   8.091  71.964  1.00  0.00     0.000 HD 
HETATM   11  N   UNL     1     -10.350   6.115  73.891  1.00  0.00    -0.272 NA 
ENDBRANCH   5   6
ENDBRANCH   2   5
TORSDOF 2
ENDMDL
MODEL      118
REMARK 921   NORMALIZED FREE ENERGY PREDICTED BY IDOCK:   -1.96 KCAL/MOL
REMARK 922        TOTAL FREE ENERGY PREDICTED BY IDOCK:   -2.45 KCAL/MOL
REMARK 923 INTER-LIGAND FREE ENERGY PREDICTED BY IDOCK:   -2.26 KCAL/MOL
REMARK 924 INTRA-LIGAND FREE ENERGY PREDICTED BY IDOCK:   -0.19 KCAL/MOL
REMARK 927      BINDING AFFINITY PREDICTED BY RF-SCORE:    0.00 PKD
ROOT
HETATM    1  N   UNL     1     -11.419   7.743  70.262  1.00  0.00    -0.456 NA 
HETATM    2  C   UNL     1     -10.728   6.530  70.710  1.00  0.00    -0.241 C  
HETATM    3  H2  UNL     1     -12.210   7.519  69.657  1.00  0.00     0.000 HD 
HETATM    4  H1  UNL     1     -11.706   8.325  71.049  1.00  0.00     0.000 HD 
ENDROOT
BRANCH   2   5
HETATM    5  C   UNL     1     -10.297   5.657  69.530  1.00  0.00    -0.345 C  
BRANCH   5   6
HETATM    6  C   UNL     1      -9.990   6.468  68.320  1.00  0.00    -0.143 A  
HETATM    7  C   UNL     1     -10.715   6.601  67.154  1.00  0.00    -0.370 A  
HETATM    8  N   UNL     1      -9.985   7.450  66.370  1.00  0.00    -0.451 NA 
HETATM    9  C   UNL     1      -8.867   7.798  67.071  1.00  0.00    -0.127 A  
HETATM   10  H   UNL     1     -10.232   7.766  65.432  1.00  0.00     0.000 HD 
HETATM   11  N   UNL     1      -8.844   7.228  68.253  1.00  0.00    -0.128 NA 
ENDBRANCH   5   6
ENDBRANCH   2   5
TORSDOF 2
ENDMDL
MODEL      119
REMARK 921   NORMALIZED FREE ENERGY PREDICTED BY IDOCK:   -1.94 KCAL/MOL
REMARK 922        TOTAL FREE ENERGY PREDICTED BY IDOCK:   -2.43 KCAL/MOL
REMARK 923 INTER-LIGAND FREE ENERGY PREDICTED BY IDOCK:   -2.19 KCAL/MOL
REMARK 924 INTRA-LIGAND FREE ENERGY PREDICTED BY IDOCK:   -0.24 KCAL/MOL
REMARK 927      BINDING AFFINITY PREDICTED BY RF-SCORE:    0.00 PKD
ROOT
HETATM    1  N   UNL     1      -7.517   8.029  69.921  1.00  0.00    -0.077 NA 
HETATM    2  C   UNL     1      -8.392   9.205  69.952  1.00  0.00    -0.144 C  
HETATM    3  H2  UNL     1      -8.056   7.165  69.856  1.00  0.00     0.000 HD 
HETATM    4  H1  UNL     1      -6.826   8.094  69.173  1.00  0.00     0.000 HD 
ENDROOT
BRANCH   2   5
HETATM    5  C   UNL     1      -9.429   9.108  71.074  1.00  0.00    -0.344 C  
BRANCH   5   6
HETATM    6  C   UNL     1     -10.503   8.128  70.756  1.00  0.00    -0.202 A  
HETATM    7  C   UNL     1     -11.869   8.257  70.897  1.00  0.00    -0.216 A  
HETATM    8  N   UNL     1     -12.390   7.068  70.471  1.00  0.00    -0.614 NA 
HETATM    9  C   UNL     1     -11.346   6.273  70.093  1.00  0.00    -0.406 A  
HETATM   10  H   UNL     1     -13.380   6.819  70.442  1.00  0.00     0.000 HD 
HETATM   11  N   UNL     1     -10.196   6.887  70.246  1.00  0.00    -0.190 NA 
ENDBRANCH   5   6
ENDBRANCH   2   5
TORSDOF 2
ENDMDL
MODEL      120
REMARK 921   NORMALIZED FREE ENERGY PREDICTED BY IDOCK:   -1.93 KCAL/MOL
REMARK 922        TOTAL FREE ENERGY PREDICTED BY IDOCK:   -2.41 KCAL/MOL
REMARK 923 INTER-LIGAND FREE ENERGY PREDICTED BY IDOCK:   -2.35 KCAL/MOL
REMARK 924 INTRA-LIGAND FREE ENERGY PREDICTED BY IDOCK:   -0.06 KCAL/MOL
REMARK 927      BINDING AFFINITY PREDICTED BY RF-SCORE:    0.00 PKD
ROOT
HETATM    1  N   UNL     1     -13.334   8.469  71.163  1.00  0.00    -0.536 NA 
HETATM    2  C   UNL     1     -12.849   7.132  71.517  1.00  0.00    -0.391 C  
HETATM    3  H2  UNL     1     -13.185   8.670  70.174  1.00  0.00     0.000 HD 
HETATM    4  H1  UNL     1     -14.311   8.597  71.427  1.00  0.00     0.000 HD 
ENDROOT
BRANCH   2   5
HETATM    5  C   UNL     1     -11.382   6.940  71.122  1.00  0.00    -0.332 C  
BRANCH   5   6
HETATM    6  C   UNL     1     -10.474   7.014  72.300  1.00  0.00    -0.208 A  
HETATM    7  C   UNL     1      -9.245   7.629  72.413  1.00  0.00    -0.151 A  
HETATM    8  N   UNL     1      -8.838   7.387  73.695  1.00  0.00    -0.178 NA 
HETATM    9  C   UNL     1      -9.812   6.651  74.305  1.00  0.00    -0.327 A  
HETATM   10  H   UNL     1      -7.964   7.700  74.120  1.00  0.00     0.000 HD 
HETATM   11  N   UNL     1     -10.816   6.415  73.491  1.00  0.00    -0.233 NA 
ENDBRANCH   5   6
ENDBRANCH   2   5
TORSDOF 2
ENDMDL
MODEL      121
REMARK 921   NORMALIZED FREE ENERGY PREDICTED BY IDOCK:   -1.93 KCAL/MOL
REMARK 922        TOTAL FREE ENERGY PREDICTED BY IDOCK:   -2.41 KCAL/MOL
REMARK 923 INTER-LIGAND FREE ENERGY PREDICTED BY IDOCK:   -2.35 KCAL/MOL
REMARK 924 INTRA-LIGAND FREE ENERGY PREDICTED BY IDOCK:   -0.06 KCAL/MOL
REMARK 927      BINDING AFFINITY PREDICTED BY RF-SCORE:    0.00 PKD
ROOT
HETATM    1  N   UNL     1      -8.354  17.210  68.082  1.00  0.00    -0.219 NA 
HETATM    2  C   UNL     1      -8.236  15.831  68.566  1.00  0.00    -0.166 C  
HETATM    3  H2  UNL     1      -9.288  17.398  67.717  1.00  0.00     0.000 HD 
HETATM    4  H1  UNL     1      -8.092  17.885  68.801  1.00  0.00     0.000 HD 
ENDROOT
BRANCH   2   5
HETATM    5  C   UNL     1      -8.629  14.818  67.488  1.00  0.00    -0.198 C  
BRANCH   5   6
HETATM    6  C   UNL     1     -10.069  14.446  67.572  1.00  0.00    -0.232 A  
HETATM    7  C   UNL     1     -11.154  15.020  66.943  1.00  0.00    -0.331 A  
HETATM    8  N   UNL     1     -12.238  14.307  67.371  1.00  0.00    -0.604 NA 
HETATM    9  C   UNL     1     -11.785  13.343  68.225  1.00  0.00    -0.356 A  
HETATM   10  H   UNL     1     -13.209  14.466  67.101  1.00  0.00     0.000 HD 
HETATM   11  N   UNL     1     -10.480  13.396  68.362  1.00  0.00    -0.246 NA 
ENDBRANCH   5   6
ENDBRANCH   2   5
TORSDOF 2
ENDMDL
MODEL      122
REMARK 921   NORMALIZED FREE ENERGY PREDICTED BY IDOCK:   -1.88 KCAL/MOL
REMARK 922        TOTAL FREE ENERGY PREDICTED BY IDOCK:   -2.36 KCAL/MOL
REMARK 923 INTER-LIGAND FREE ENERGY PREDICTED BY IDOCK:   -2.11 KCAL/MOL
REMARK 924 INTRA-LIGAND FREE ENERGY PREDICTED BY IDOCK:   -0.25 KCAL/MOL
REMARK 927      BINDING AFFINITY PREDICTED BY RF-SCORE:    0.00 PKD
ROOT
HETATM    1  N   UNL     1      -9.763   4.293  67.351  1.00  0.00    -0.183 NA 
HETATM    2  C   UNL     1     -10.558   5.170  66.487  1.00  0.00    -0.260 C  
HETATM    3  H2  UNL     1     -10.241   4.105  68.233  1.00  0.00     0.000 HD 
HETATM    4  H1  UNL     1      -9.507   3.427  66.875  1.00  0.00     0.000 HD 
ENDROOT
BRANCH   2   5
HETATM    5  C   UNL     1     -10.942   6.469  67.201  1.00  0.00    -0.480 C  
BRANCH   5   6
HETATM    6  C   UNL     1     -10.555   6.449  68.639  1.00  0.00    -0.253 A  
HETATM    7  C   UNL     1     -11.349   6.262  69.751  1.00  0.00    -0.436 A  
HETATM    8  N   UNL     1     -10.500   6.346  70.819  1.00  0.00    -0.215 NA 
HETATM    9  C   UNL     1      -9.246   6.575  70.330  1.00  0.00    -0.155 A  
HETATM   10  H   UNL     1     -10.757   6.255  71.802  1.00  0.00     0.000 HD 
HETATM   11  N   UNL     1      -9.245   6.635  69.018  1.00  0.00    -0.132 NA 
ENDBRANCH   5   6
ENDBRANCH   2   5
TORSDOF 2
ENDMDL
MODEL      123
REMARK 921   NORMALIZED FREE ENERGY PREDICTED BY IDOCK:   -1.88 KCAL/MOL
REMARK 922        TOTAL FREE ENERGY PREDICTED BY IDOCK:   -2.36 KCAL/MOL
REMARK 923 INTER-LIGAND FREE ENERGY PREDICTED BY IDOCK:   -2.31 KCAL/MOL
REMARK 924 INTRA-LIGAND FREE ENERGY PREDICTED BY IDOCK:   -0.04 KCAL/MOL
REMARK 927      BINDING AFFINITY PREDICTED BY RF-SCORE:    0.00 PKD
ROOT
HETATM    1  N   UNL     1     -12.219   9.946  70.446  1.00  0.00    -0.462 NA 
HETATM    2  C   UNL     1     -11.626   9.108  71.492  1.00  0.00    -0.368 C  
HETATM    3  H2  UNL     1     -13.226  10.051  70.577  1.00  0.00     0.000 HD 
HETATM    4  H1  UNL     1     -11.756  10.853  70.383  1.00  0.00     0.000 HD 
ENDROOT
BRANCH   2   5
HETATM    5  C   UNL     1     -12.321   7.747  71.587  1.00  0.00    -0.348 C  
BRANCH   5   6
HETATM    6  C   UNL     1     -11.344   6.624  71.614  1.00  0.00    -0.276 A  
HETATM    7  C   UNL     1     -10.288   6.369  70.764  1.00  0.00    -0.201 A  
HETATM    8  N   UNL     1      -9.725   5.212  71.226  1.00  0.00    -0.162 NA 
HETATM    9  C   UNL     1     -10.441   4.813  72.318  1.00  0.00    -0.189 A  
HETATM   10  H   UNL     1      -8.916   4.734  70.828  1.00  0.00     0.000 HD 
HETATM   11  N   UNL     1     -11.420   5.647  72.581  1.00  0.00    -0.306 NA 
ENDBRANCH   5   6
ENDBRANCH   2   5
TORSDOF 2
ENDMDL
MODEL      124
REMARK 921   NORMALIZED FREE ENERGY PREDICTED BY IDOCK:   -1.87 KCAL/MOL
REMARK 922        TOTAL FREE ENERGY PREDICTED BY IDOCK:   -2.35 KCAL/MOL
REMARK 923 INTER-LIGAND FREE ENERGY PREDICTED BY IDOCK:   -2.05 KCAL/MOL
REMARK 924 INTRA-LIGAND FREE ENERGY PREDICTED BY IDOCK:   -0.30 KCAL/MOL
REMARK 927      BINDING AFFINITY PREDICTED BY RF-SCORE:    0.00 PKD
ROOT
HETATM    1  N   UNL     1      -9.402  17.699  68.485  1.00  0.00    -0.286 NA 
HETATM    2  C   UNL     1      -8.377  16.674  68.701  1.00  0.00    -0.246 C  
HETATM    3  H2  UNL     1      -9.503  17.922  67.494  1.00  0.00     0.000 HD 
HETATM    4  H1  UNL     1     -10.296  17.431  68.899  1.00  0.00     0.000 HD 
ENDROOT
BRANCH   2   5
HETATM    5  C   UNL     1      -7.037  17.075  68.080  1.00  0.00    -0.168 C  
BRANCH   5   6
HETATM    6  C   UNL     1      -6.777  18.535  68.213  1.00  0.00    -0.224 A  
HETATM    7  C   UNL     1      -6.113  19.214  69.214  1.00  0.00    -0.260 A  
HETATM    8  N   UNL     1      -6.169  20.531  68.854  1.00  0.00    -0.327 NA 
HETATM    9  C   UNL     1      -6.848  20.607  67.672  1.00  0.00    -0.332 A  
HETATM   10  H   UNL     1      -5.774  21.315  69.375  1.00  0.00     0.000 HD 
HETATM   11  N   UNL     1      -7.221  19.420  67.256  1.00  0.00    -0.208 NA 
ENDBRANCH   5   6
ENDBRANCH   2   5
TORSDOF 2
ENDMDL
MODEL      125
REMARK 921   NORMALIZED FREE ENERGY PREDICTED BY IDOCK:   -1.87 KCAL/MOL
REMARK 922        TOTAL FREE ENERGY PREDICTED BY IDOCK:   -2.35 KCAL/MOL
REMARK 923 INTER-LIGAND FREE ENERGY PREDICTED BY IDOCK:   -2.09 KCAL/MOL
REMARK 924 INTRA-LIGAND FREE ENERGY PREDICTED BY IDOCK:   -0.26 KCAL/MOL
REMARK 927      BINDING AFFINITY PREDICTED BY RF-SCORE:    0.00 PKD
ROOT
HETATM    1  N   UNL     1     -11.426   4.430  64.924  1.00  0.00    -1.068 NA 
HETATM    2  C   UNL     1     -10.023   4.005  64.925  1.00  0.00    -0.205 C  
HETATM    3  H2  UNL     1     -11.536   5.355  65.339  1.00  0.00     0.000 HD 
HETATM    4  H1  UNL     1     -11.830   4.390  63.988  1.00  0.00     0.000 HD 
ENDROOT
BRANCH   2   5
HETATM    5  C   UNL     1      -9.416   4.064  66.329  1.00  0.00    -0.199 C  
BRANCH   5   6
HETATM    6  C   UNL     1      -8.972   5.440  66.687  1.00  0.00    -0.116 A  
HETATM    7  C   UNL     1      -7.699   5.906  66.936  1.00  0.00    -0.100 A  
HETATM    8  N   UNL     1      -7.851   7.233  67.227  1.00  0.00    -0.109 NA 
HETATM    9  C   UNL     1      -9.183   7.522  67.145  1.00  0.00    -0.136 A  
HETATM   10  H   UNL     1      -7.105   7.888  67.462  1.00  0.00     0.000 HD 
HETATM   11  N   UNL     1      -9.885   6.463  66.815  1.00  0.00    -0.158 NA 
ENDBRANCH   5   6
ENDBRANCH   2   5
TORSDOF 2
ENDMDL
MODEL      126
REMARK 921   NORMALIZED FREE ENERGY PREDICTED BY IDOCK:   -1.85 KCAL/MOL
REMARK 922        TOTAL FREE ENERGY PREDICTED BY IDOCK:   -2.33 KCAL/MOL
REMARK 923 INTER-LIGAND FREE ENERGY PREDICTED BY IDOCK:   -2.07 KCAL/MOL
REMARK 924 INTRA-LIGAND FREE ENERGY PREDICTED BY IDOCK:   -0.27 KCAL/MOL
REMARK 927      BINDING AFFINITY PREDICTED BY RF-SCORE:    0.00 PKD
ROOT
HETATM    1  N   UNL     1      -9.646   2.932  67.056  1.00  0.00    -0.407 NA 
HETATM    2  C   UNL     1      -9.398   2.594  68.461  1.00  0.00    -0.190 C  
HETATM    3  H2  UNL     1      -8.808   3.307  66.609  1.00  0.00     0.000 HD 
HETATM    4  H1  UNL     1     -10.019   2.136  66.538  1.00  0.00     0.000 HD 
ENDROOT
BRANCH   2   5
HETATM    5  C   UNL     1      -8.837   3.787  69.238  1.00  0.00    -0.153 C  
BRANCH   5   6
HETATM    6  C   UNL     1      -9.871   4.833  69.474  1.00  0.00    -0.222 A  
HETATM    7  C   UNL     1     -10.534   5.154  70.640  1.00  0.00    -0.199 A  
HETATM    8  N   UNL     1     -11.380   6.174  70.305  1.00  0.00    -0.373 NA 
HETATM    9  C   UNL     1     -11.205   6.434  68.976  1.00  0.00    -0.331 A  
HETATM   10  H   UNL     1     -12.025   6.654  70.934  1.00  0.00     0.000 HD 
HETATM   11  N   UNL     1     -10.297   5.647  68.448  1.00  0.00    -0.193 NA 
ENDBRANCH   5   6
ENDBRANCH   2   5
TORSDOF 2
ENDMDL
MODEL      127
REMARK 921   NORMALIZED FREE ENERGY PREDICTED BY IDOCK:   -1.85 KCAL/MOL
REMARK 922        TOTAL FREE ENERGY PREDICTED BY IDOCK:   -2.33 KCAL/MOL
REMARK 923 INTER-LIGAND FREE ENERGY PREDICTED BY IDOCK:   -2.26 KCAL/MOL
REMARK 924 INTRA-LIGAND FREE ENERGY PREDICTED BY IDOCK:   -0.07 KCAL/MOL
REMARK 927      BINDING AFFINITY PREDICTED BY RF-SCORE:    0.00 PKD
ROOT
HETATM    1  N   UNL     1      -9.522   6.056  70.546  1.00  0.00    -0.166 NA 
HETATM    2  C   UNL     1     -10.052   6.601  71.801  1.00  0.00    -0.183 C  
HETATM    3  H2  UNL     1      -8.503   6.093  70.525  1.00  0.00     0.000 HD 
HETATM    4  H1  UNL     1      -9.864   5.110  70.373  1.00  0.00     0.000 HD 
ENDROOT
BRANCH   2   5
HETATM    5  C   UNL     1      -9.539   8.019  72.061  1.00  0.00    -0.262 C  
BRANCH   5   6
HETATM    6  C   UNL     1     -10.342   9.043  71.337  1.00  0.00    -0.326 A  
HETATM    7  C   UNL     1     -10.052   9.705  70.162  1.00  0.00    -0.262 A  
HETATM    8  N   UNL     1     -11.113  10.540  69.947  1.00  0.00    -0.288 NA 
HETATM    9  C   UNL     1     -11.993  10.359  70.975  1.00  0.00    -0.382 A  
HETATM   10  H   UNL     1     -11.226  11.181  69.161  1.00  0.00     0.000 HD 
HETATM   11  N   UNL     1     -11.560   9.458  71.826  1.00  0.00    -0.389 NA 
ENDBRANCH   5   6
ENDBRANCH   2   5
TORSDOF 2
ENDMDL
MODEL      128
REMARK 921   NORMALIZED FREE ENERGY PREDICTED BY IDOCK:   -1.85 KCAL/MOL
REMARK 922        TOTAL FREE ENERGY PREDICTED BY IDOCK:   -2.32 KCAL/MOL
REMARK 923 INTER-LIGAND FREE ENERGY PREDICTED BY IDOCK:   -2.27 KCAL/MOL
REMARK 924 INTRA-LIGAND FREE ENERGY PREDICTED BY IDOCK:   -0.05 KCAL/MOL
REMARK 927      BINDING AFFINITY PREDICTED BY RF-SCORE:    0.00 PKD
ROOT
HETATM    1  N   UNL     1     -12.158   6.883  70.263  1.00  0.00    -0.627 NA 
HETATM    2  C   UNL     1     -11.010   7.781  70.101  1.00  0.00    -0.241 C  
HETATM    3  H2  UNL     1     -11.912   5.919  70.038  1.00  0.00     0.000 HD 
HETATM    4  H1  UNL     1     -12.563   6.956  71.197  1.00  0.00     0.000 HD 
ENDROOT
BRANCH   2   5
HETATM    5  C   UNL     1     -10.402   7.672  68.700  1.00  0.00    -0.220 C  
BRANCH   5   6
HETATM    6  C   UNL     1     -10.492   8.957  67.953  1.00  0.00    -0.223 A  
HETATM    7  C   UNL     1     -11.070  10.149  68.337  1.00  0.00    -0.218 A  
HETATM    8  N   UNL     1     -10.884  10.997  67.282  1.00  0.00    -0.265 NA 
HETATM    9  C   UNL     1     -10.212  10.307  66.314  1.00  0.00    -0.221 A  
HETATM   10  H   UNL     1     -11.191  11.968  67.228  1.00  0.00     0.000 HD 
HETATM   11  N   UNL     1      -9.955   9.076  66.691  1.00  0.00    -0.256 NA 
ENDBRANCH   5   6
ENDBRANCH   2   5
TORSDOF 2
ENDMDL
MODEL      129
REMARK 921   NORMALIZED FREE ENERGY PREDICTED BY IDOCK:   -1.84 KCAL/MOL
REMARK 922        TOTAL FREE ENERGY PREDICTED BY IDOCK:   -2.32 KCAL/MOL
REMARK 923 INTER-LIGAND FREE ENERGY PREDICTED BY IDOCK:   -2.06 KCAL/MOL
REMARK 924 INTRA-LIGAND FREE ENERGY PREDICTED BY IDOCK:   -0.26 KCAL/MOL
REMARK 927      BINDING AFFINITY PREDICTED BY RF-SCORE:    0.00 PKD
ROOT
HETATM    1  N   UNL     1      -6.614   2.979  64.449  1.00  0.00    -0.034 NA 
HETATM    2  C   UNL     1      -6.931   3.910  65.537  1.00  0.00    -0.061 C  
HETATM    3  H2  UNL     1      -7.417   2.836  63.836  1.00  0.00     0.000 HD 
HETATM    4  H1  UNL     1      -5.793   3.281  63.924  1.00  0.00     0.000 HD 
ENDROOT
BRANCH   2   5
HETATM    5  C   UNL     1      -8.163   3.458  66.326  1.00  0.00    -0.097 C  
BRANCH   5   6
HETATM    6  C   UNL     1      -9.430   3.783  65.614  1.00  0.00    -0.170 A  
HETATM    7  C   UNL     1     -10.445   4.637  65.991  1.00  0.00    -0.264 A  
HETATM    8  N   UNL     1     -11.372   4.560  64.990  1.00  0.00    -1.108 NA 
HETATM    9  C   UNL     1     -10.898   3.682  64.058  1.00  0.00    -0.172 A  
HETATM   10  H   UNL     1     -12.257   5.066  64.947  1.00  0.00     0.000 HD 
HETATM   11  N   UNL     1      -9.726   3.202  64.402  1.00  0.00    -0.154 NA 
ENDBRANCH   5   6
ENDBRANCH   2   5
TORSDOF 2
ENDMDL
MODEL      130
REMARK 921   NORMALIZED FREE ENERGY PREDICTED BY IDOCK:   -1.84 KCAL/MOL
REMARK 922        TOTAL FREE ENERGY PREDICTED BY IDOCK:   -2.32 KCAL/MOL
REMARK 923 INTER-LIGAND FREE ENERGY PREDICTED BY IDOCK:   -2.27 KCAL/MOL
REMARK 924 INTRA-LIGAND FREE ENERGY PREDICTED BY IDOCK:   -0.05 KCAL/MOL
REMARK 927      BINDING AFFINITY PREDICTED BY RF-SCORE:    0.00 PKD
ROOT
HETATM    1  N   UNL     1      -9.643   2.810  70.261  1.00  0.00    -0.113 NA 
HETATM    2  C   UNL     1      -9.313   4.192  70.620  1.00  0.00    -0.148 C  
HETATM    3  H2  UNL     1     -10.645   2.693  70.112  1.00  0.00     0.000 HD 
HETATM    4  H1  UNL     1      -9.107   2.493  69.453  1.00  0.00     0.000 HD 
ENDROOT
BRANCH   2   5
HETATM    5  C   UNL     1     -10.117   4.668  71.832  1.00  0.00    -0.266 C  
BRANCH   5   6
HETATM    6  C   UNL     1     -11.070   5.756  71.476  1.00  0.00    -0.214 A  
HETATM    7  C   UNL     1     -11.188   6.457  70.294  1.00  0.00    -0.382 A  
HETATM    8  N   UNL     1     -12.207   7.344  70.501  1.00  0.00    -0.547 NA 
HETATM    9  C   UNL     1     -12.664   7.156  71.773  1.00  0.00    -0.339 A  
HETATM   10  H   UNL     1     -12.561   8.024  69.827  1.00  0.00     0.000 HD 
HETATM   11  N   UNL     1     -12.004   6.200  72.385  1.00  0.00    -0.256 NA 
ENDBRANCH   5   6
ENDBRANCH   2   5
TORSDOF 2
ENDMDL
MODEL      131
REMARK 921   NORMALIZED FREE ENERGY PREDICTED BY IDOCK:   -1.84 KCAL/MOL
REMARK 922        TOTAL FREE ENERGY PREDICTED BY IDOCK:   -2.31 KCAL/MOL
REMARK 923 INTER-LIGAND FREE ENERGY PREDICTED BY IDOCK:   -2.04 KCAL/MOL
REMARK 924 INTRA-LIGAND FREE ENERGY PREDICTED BY IDOCK:   -0.27 KCAL/MOL
REMARK 927      BINDING AFFINITY PREDICTED BY RF-SCORE:    0.00 PKD
ROOT
HETATM    1  N   UNL     1     -10.001   7.035  69.668  1.00  0.00    -0.171 NA 
HETATM    2  C   UNL     1      -9.069   7.917  68.958  1.00  0.00    -0.144 C  
HETATM    3  H2  UNL     1     -10.488   6.412  69.024  1.00  0.00     0.000 HD 
HETATM    4  H1  UNL     1      -9.533   6.514  70.410  1.00  0.00     0.000 HD 
ENDROOT
BRANCH   2   5
HETATM    5  C   UNL     1      -9.769   8.700  67.845  1.00  0.00    -0.192 C  
BRANCH   5   6
HETATM    6  C   UNL     1     -10.610   9.804  68.385  1.00  0.00    -0.226 A  
HETATM    7  C   UNL     1     -11.382  10.723  67.705  1.00  0.00    -0.252 A  
HETATM    8  N   UNL     1     -11.935  11.515  68.672  1.00  0.00    -0.488 NA 
HETATM    9  C   UNL     1     -11.491  11.060  69.880  1.00  0.00    -0.320 A  
HETATM   10  H   UNL     1     -12.564  12.303  68.518  1.00  0.00     0.000 HD 
HETATM   11  N   UNL     1     -10.697  10.024  69.741  1.00  0.00    -0.251 NA 
ENDBRANCH   5   6
ENDBRANCH   2   5
TORSDOF 2
ENDMDL
MODEL      132
REMARK 921   NORMALIZED FREE ENERGY PREDICTED BY IDOCK:   -1.82 KCAL/MOL
REMARK 922        TOTAL FREE ENERGY PREDICTED BY IDOCK:   -2.29 KCAL/MOL
REMARK 923 INTER-LIGAND FREE ENERGY PREDICTED BY IDOCK:   -1.99 KCAL/MOL
REMARK 924 INTRA-LIGAND FREE ENERGY PREDICTED BY IDOCK:   -0.30 KCAL/MOL
REMARK 927      BINDING AFFINITY PREDICTED BY RF-SCORE:    0.00 PKD
ROOT
HETATM    1  N   UNL     1      -8.014  17.323  68.298  1.00  0.00    -0.234 NA 
HETATM    2  C   UNL     1      -8.510  17.474  66.926  1.00  0.00    -0.239 C  
HETATM    3  H2  UNL     1      -7.853  16.343  68.531  1.00  0.00     0.000 HD 
HETATM    4  H1  UNL     1      -7.180  17.887  68.460  1.00  0.00     0.000 HD 
ENDROOT
BRANCH   2   5
HETATM    5  C   UNL     1      -9.762  16.628  66.682  1.00  0.00    -0.280 C  
BRANCH   5   6
HETATM    6  C   UNL     1      -9.732  15.354  67.452  1.00  0.00    -0.215 A  
HETATM    7  C   UNL     1     -10.616  14.891  68.404  1.00  0.00    -0.244 A  
HETATM    8  N   UNL     1     -10.119  13.680  68.799  1.00  0.00    -0.388 NA 
HETATM    9  C   UNL     1      -8.977  13.452  68.087  1.00  0.00    -0.188 A  
HETATM   10  H   UNL     1     -10.529  13.060  69.498  1.00  0.00     0.000 HD 
HETATM   11  N   UNL     1      -8.720  14.440  67.261  1.00  0.00    -0.203 NA 
ENDBRANCH   5   6
ENDBRANCH   2   5
TORSDOF 2
ENDMDL
MODEL      133
REMARK 921   NORMALIZED FREE ENERGY PREDICTED BY IDOCK:   -1.81 KCAL/MOL
REMARK 922        TOTAL FREE ENERGY PREDICTED BY IDOCK:   -2.29 KCAL/MOL
REMARK 923 INTER-LIGAND FREE ENERGY PREDICTED BY IDOCK:   -2.05 KCAL/MOL
REMARK 924 INTRA-LIGAND FREE ENERGY PREDICTED BY IDOCK:   -0.24 KCAL/MOL
REMARK 927      BINDING AFFINITY PREDICTED BY RF-SCORE:    0.00 PKD
ROOT
HETATM    1  N   UNL     1      -7.555  18.250  65.920  1.00  0.00    -0.506 NA 
HETATM    2  C   UNL     1      -7.074  18.072  67.293  1.00  0.00    -0.189 C  
HETATM    3  H2  UNL     1      -8.545  18.016  65.839  1.00  0.00     0.000 HD 
HETATM    4  H1  UNL     1      -7.364  19.190  65.573  1.00  0.00     0.000 HD 
ENDROOT
BRANCH   2   5
HETATM    5  C   UNL     1      -7.359  16.662  67.814  1.00  0.00    -0.163 C  
BRANCH   5   6
HETATM    6  C   UNL     1      -8.644  16.124  67.288  1.00  0.00    -0.178 A  
HETATM    7  C   UNL     1      -8.858  15.079  66.414  1.00  0.00    -0.203 A  
HETATM    8  N   UNL     1     -10.214  15.012  66.257  1.00  0.00    -0.281 NA 
HETATM    9  C   UNL     1     -10.766  15.995  67.026  1.00  0.00    -0.277 A  
HETATM   10  H   UNL     1     -10.721  14.347  65.671  1.00  0.00     0.000 HD 
HETATM   11  N   UNL     1      -9.847  16.679  67.666  1.00  0.00    -0.252 NA 
ENDBRANCH   5   6
ENDBRANCH   2   5
TORSDOF 2
ENDMDL
MODEL      134
REMARK 921   NORMALIZED FREE ENERGY PREDICTED BY IDOCK:   -1.81 KCAL/MOL
REMARK 922        TOTAL FREE ENERGY PREDICTED BY IDOCK:   -2.29 KCAL/MOL
REMARK 923 INTER-LIGAND FREE ENERGY PREDICTED BY IDOCK:   -2.22 KCAL/MOL
REMARK 924 INTRA-LIGAND FREE ENERGY PREDICTED BY IDOCK:   -0.07 KCAL/MOL
REMARK 927      BINDING AFFINITY PREDICTED BY RF-SCORE:    0.00 PKD
ROOT
HETATM    1  N   UNL     1     -11.739   5.116  73.179  1.00  0.00    -0.514 NA 
HETATM    2  C   UNL     1     -10.606   5.807  72.558  1.00  0.00    -0.221 C  
HETATM    3  H2  UNL     1     -11.973   4.258  72.678  1.00  0.00     0.000 HD 
HETATM    4  H1  UNL     1     -11.573   4.935  74.170  1.00  0.00     0.000 HD 
ENDROOT
BRANCH   2   5
HETATM    5  C   UNL     1     -10.855   6.079  71.072  1.00  0.00    -0.345 C  
BRANCH   5   6
HETATM    6  C   UNL     1     -10.595   7.501  70.715  1.00  0.00    -0.220 A  
HETATM    7  C   UNL     1     -10.475   8.076  69.468  1.00  0.00    -0.226 A  
HETATM    8  N   UNL     1     -10.230   9.400  69.703  1.00  0.00    -0.200 NA 
HETATM    9  C   UNL     1     -10.211   9.580  71.057  1.00  0.00    -0.262 A  
HETATM   10  H   UNL     1     -10.087  10.122  68.997  1.00  0.00     0.000 HD 
HETATM   11  N   UNL     1     -10.435   8.455  71.694  1.00  0.00    -0.232 NA 
ENDBRANCH   5   6
ENDBRANCH   2   5
TORSDOF 2
ENDMDL
MODEL      135
REMARK 921   NORMALIZED FREE ENERGY PREDICTED BY IDOCK:   -1.81 KCAL/MOL
REMARK 922        TOTAL FREE ENERGY PREDICTED BY IDOCK:   -2.28 KCAL/MOL
REMARK 923 INTER-LIGAND FREE ENERGY PREDICTED BY IDOCK:   -2.21 KCAL/MOL
REMARK 924 INTRA-LIGAND FREE ENERGY PREDICTED BY IDOCK:   -0.08 KCAL/MOL
REMARK 927      BINDING AFFINITY PREDICTED BY RF-SCORE:    0.00 PKD
ROOT
HETATM    1  N   UNL     1     -11.724   6.186  72.804  1.00  0.00    -0.508 NA 
HETATM    2  C   UNL     1     -11.218   7.502  72.403  1.00  0.00    -0.308 C  
HETATM    3  H2  UNL     1     -11.463   5.465  72.131  1.00  0.00     0.000 HD 
HETATM    4  H1  UNL     1     -11.426   5.940  73.748  1.00  0.00     0.000 HD 
ENDROOT
BRANCH   2   5
HETATM    5  C   UNL     1     -11.665   7.872  70.987  1.00  0.00    -0.293 C  
BRANCH   5   6
HETATM    6  C   UNL     1     -10.823   7.218  69.948  1.00  0.00    -0.247 A  
HETATM    7  C   UNL     1      -9.476   7.372  69.696  1.00  0.00    -0.156 A  
HETATM    8  N   UNL     1      -9.212   6.554  68.633  1.00  0.00    -0.128 NA 
HETATM    9  C   UNL     1     -10.381   5.941  68.285  1.00  0.00    -0.214 A  
HETATM   10  H   UNL     1      -8.305   6.424  68.183  1.00  0.00     0.000 HD 
HETATM   11  N   UNL     1     -11.370   6.316  69.064  1.00  0.00    -0.354 NA 
ENDBRANCH   5   6
ENDBRANCH   2   5
TORSDOF 2
ENDMDL
MODEL      136
REMARK 921   NORMALIZED FREE ENERGY PREDICTED BY IDOCK:   -1.81 KCAL/MOL
REMARK 922        TOTAL FREE ENERGY PREDICTED BY IDOCK:   -2.28 KCAL/MOL
REMARK 923 INTER-LIGAND FREE ENERGY PREDICTED BY IDOCK:   -2.25 KCAL/MOL
REMARK 924 INTRA-LIGAND FREE ENERGY PREDICTED BY IDOCK:   -0.03 KCAL/MOL
REMARK 927      BINDING AFFINITY PREDICTED BY RF-SCORE:    0.00 PKD
ROOT
HETATM    1  N   UNL     1      -5.936  19.558  63.465  1.00  0.00    -0.392 NA 
HETATM    2  C   UNL     1      -5.635  19.359  64.886  1.00  0.00    -0.204 C  
HETATM    3  H2  UNL     1      -6.599  20.320  63.328  1.00  0.00     0.000 HD 
HETATM    4  H1  UNL     1      -5.087  19.700  62.917  1.00  0.00     0.000 HD 
ENDROOT
BRANCH   2   5
HETATM    5  C   UNL     1      -6.908  19.147  65.709  1.00  0.00    -0.307 C  
BRANCH   5   6
HETATM    6  C   UNL     1      -6.721  19.536  67.134  1.00  0.00    -0.195 A  
HETATM    7  C   UNL     1      -5.845  20.451  67.678  1.00  0.00    -0.216 A  
HETATM    8  N   UNL     1      -6.077  20.416  69.025  1.00  0.00    -0.335 NA 
HETATM    9  C   UNL     1      -7.066  19.501  69.248  1.00  0.00    -0.337 A  
HETATM   10  H   UNL     1      -5.598  20.971  69.734  1.00  0.00     0.000 HD 
HETATM   11  N   UNL     1      -7.480  18.959  68.127  1.00  0.00    -0.262 NA 
ENDBRANCH   5   6
ENDBRANCH   2   5
TORSDOF 2
ENDMDL
MODEL      137
REMARK 921   NORMALIZED FREE ENERGY PREDICTED BY IDOCK:   -1.80 KCAL/MOL
REMARK 922        TOTAL FREE ENERGY PREDICTED BY IDOCK:   -2.27 KCAL/MOL
REMARK 923 INTER-LIGAND FREE ENERGY PREDICTED BY IDOCK:   -1.99 KCAL/MOL
REMARK 924 INTRA-LIGAND FREE ENERGY PREDICTED BY IDOCK:   -0.28 KCAL/MOL
REMARK 927      BINDING AFFINITY PREDICTED BY RF-SCORE:    0.00 PKD
ROOT
HETATM    1  N   UNL     1      -9.562   5.180  70.464  1.00  0.00    -0.168 NA 
HETATM    2  C   UNL     1     -10.845   5.694  69.972  1.00  0.00    -0.296 C  
HETATM    3  H2  UNL     1      -9.614   4.937  71.454  1.00  0.00     0.000 HD 
HETATM    4  H1  UNL     1      -9.232   4.394  69.905  1.00  0.00     0.000 HD 
ENDROOT
BRANCH   2   5
HETATM    5  C   UNL     1     -11.340   6.874  70.812  1.00  0.00    -0.355 C  
BRANCH   5   6
HETATM    6  C   UNL     1     -10.214   7.672  71.369  1.00  0.00    -0.185 A  
HETATM    7  C   UNL     1     -10.026   8.132  72.656  1.00  0.00    -0.301 A  
HETATM    8  N   UNL     1      -8.843   8.816  72.626  1.00  0.00    -0.361 NA 
HETATM    9  C   UNL     1      -8.362   8.749  71.350  1.00  0.00    -0.168 A  
HETATM   10  H   UNL     1      -8.401   9.290  73.414  1.00  0.00     0.000 HD 
HETATM   11  N   UNL     1      -9.162   8.060  70.570  1.00  0.00    -0.153 NA 
ENDBRANCH   5   6
ENDBRANCH   2   5
TORSDOF 2
ENDMDL
MODEL      138
REMARK 921   NORMALIZED FREE ENERGY PREDICTED BY IDOCK:   -1.79 KCAL/MOL
REMARK 922        TOTAL FREE ENERGY PREDICTED BY IDOCK:   -2.26 KCAL/MOL
REMARK 923 INTER-LIGAND FREE ENERGY PREDICTED BY IDOCK:   -2.22 KCAL/MOL
REMARK 924 INTRA-LIGAND FREE ENERGY PREDICTED BY IDOCK:   -0.04 KCAL/MOL
REMARK 927      BINDING AFFINITY PREDICTED BY RF-SCORE:    0.00 PKD
ROOT
HETATM    1  N   UNL     1     -13.317   8.674  71.069  1.00  0.00    -0.520 NA 
HETATM    2  C   UNL     1     -12.161   8.051  71.721  1.00  0.00    -0.305 C  
HETATM    3  H2  UNL     1     -13.052   9.127  70.194  1.00  0.00     0.000 HD 
HETATM    4  H1  UNL     1     -14.074   8.005  70.927  1.00  0.00     0.000 HD 
ENDROOT
BRANCH   2   5
HETATM    5  C   UNL     1     -11.024   9.054  71.934  1.00  0.00    -0.423 C  
BRANCH   5   6
HETATM    6  C   UNL     1      -9.686   8.408  71.837  1.00  0.00    -0.261 A  
HETATM    7  C   UNL     1      -9.310   7.288  71.127  1.00  0.00    -0.156 A  
HETATM    8  N   UNL     1      -7.979   7.122  71.392  1.00  0.00    -0.101 NA 
HETATM    9  C   UNL     1      -7.600   8.127  72.235  1.00  0.00    -0.117 A  
HETATM   10  H   UNL     1      -7.379   6.383  71.027  1.00  0.00     0.000 HD 
HETATM   11  N   UNL     1      -8.605   8.923  72.516  1.00  0.00    -0.337 NA 
ENDBRANCH   5   6
ENDBRANCH   2   5
TORSDOF 2
ENDMDL
MODEL      139
REMARK 921   NORMALIZED FREE ENERGY PREDICTED BY IDOCK:   -1.78 KCAL/MOL
REMARK 922        TOTAL FREE ENERGY PREDICTED BY IDOCK:   -2.25 KCAL/MOL
REMARK 923 INTER-LIGAND FREE ENERGY PREDICTED BY IDOCK:   -2.19 KCAL/MOL
REMARK 924 INTRA-LIGAND FREE ENERGY PREDICTED BY IDOCK:   -0.06 KCAL/MOL
REMARK 927      BINDING AFFINITY PREDICTED BY RF-SCORE:    0.00 PKD
ROOT
HETATM    1  N   UNL     1      -7.938   8.360  67.673  1.00  0.00    -0.109 NA 
HETATM    2  C   UNL     1      -8.218   9.765  67.360  1.00  0.00    -0.114 C  
HETATM    3  H2  UNL     1      -8.709   7.932  68.185  1.00  0.00     0.000 HD 
HETATM    4  H1  UNL     1      -7.706   7.827  66.835  1.00  0.00     0.000 HD 
ENDROOT
BRANCH   2   5
HETATM    5  C   UNL     1      -8.566  10.566  68.617  1.00  0.00    -0.139 C  
BRANCH   5   6
HETATM    6  C   UNL     1     -10.030  10.566  68.889  1.00  0.00    -0.204 A  
HETATM    7  C   UNL     1     -11.079  10.709  68.005  1.00  0.00    -0.301 A  
HETATM    8  N   UNL     1     -12.208  10.647  68.773  1.00  0.00    -0.808 NA 
HETATM    9  C   UNL     1     -11.816  10.471  70.068  1.00  0.00    -0.308 A  
HETATM   10  H   UNL     1     -13.170  10.720  68.438  1.00  0.00     0.000 HD 
HETATM   11  N   UNL     1     -10.508  10.411  70.170  1.00  0.00    -0.208 NA 
ENDBRANCH   5   6
ENDBRANCH   2   5
TORSDOF 2
ENDMDL
MODEL      140
REMARK 921   NORMALIZED FREE ENERGY PREDICTED BY IDOCK:   -1.77 KCAL/MOL
REMARK 922        TOTAL FREE ENERGY PREDICTED BY IDOCK:   -2.24 KCAL/MOL
REMARK 923 INTER-LIGAND FREE ENERGY PREDICTED BY IDOCK:   -2.14 KCAL/MOL
REMARK 924 INTRA-LIGAND FREE ENERGY PREDICTED BY IDOCK:   -0.10 KCAL/MOL
REMARK 927      BINDING AFFINITY PREDICTED BY RF-SCORE:    0.00 PKD
ROOT
HETATM    1  N   UNL     1      -9.861  12.028  68.753  1.00  0.00    -0.401 NA 
HETATM    2  C   UNL     1     -10.514  10.845  68.184  1.00  0.00    -0.182 C  
HETATM    3  H2  UNL     1      -8.872  12.064  68.504  1.00  0.00     0.000 HD 
HETATM    4  H1  UNL     1     -10.343  12.887  68.489  1.00  0.00     0.000 HD 
ENDROOT
BRANCH   2   5
HETATM    5  C   UNL     1      -9.791   9.555  68.580  1.00  0.00    -0.172 C  
BRANCH   5   6
HETATM    6  C   UNL     1      -9.934   9.261  70.032  1.00  0.00    -0.209 A  
HETATM    7  C   UNL     1      -8.952   9.067  70.982  1.00  0.00    -0.241 A  
HETATM    8  N   UNL     1      -9.622   8.820  72.147  1.00  0.00    -0.303 NA 
HETATM    9  C   UNL     1     -10.958   8.873  71.873  1.00  0.00    -0.369 A  
HETATM   10  H   UNL     1      -9.200   8.630  73.057  1.00  0.00     0.000 HD 
HETATM   11  N   UNL     1     -11.179   9.144  70.608  1.00  0.00    -0.260 NA 
ENDBRANCH   5   6
ENDBRANCH   2   5
TORSDOF 2
ENDMDL
MODEL      141
REMARK 921   NORMALIZED FREE ENERGY PREDICTED BY IDOCK:   -1.77 KCAL/MOL
REMARK 922        TOTAL FREE ENERGY PREDICTED BY IDOCK:   -2.24 KCAL/MOL
REMARK 923 INTER-LIGAND FREE ENERGY PREDICTED BY IDOCK:   -2.20 KCAL/MOL
REMARK 924 INTRA-LIGAND FREE ENERGY PREDICTED BY IDOCK:   -0.04 KCAL/MOL
REMARK 927      BINDING AFFINITY PREDICTED BY RF-SCORE:    0.00 PKD
ROOT
HETATM    1  N   UNL     1      -9.562  11.991  68.936  1.00  0.00    -0.416 NA 
HETATM    2  C   UNL     1     -10.203  12.956  68.037  1.00  0.00    -0.229 C  
HETATM    3  H2  UNL     1      -9.884  11.040  68.752  1.00  0.00     0.000 HD 
HETATM    4  H1  UNL     1      -8.545  12.055  68.894  1.00  0.00     0.000 HD 
ENDROOT
BRANCH   2   5
HETATM    5  C   UNL     1     -11.729  12.861  68.101  1.00  0.00    -0.395 C  
BRANCH   5   6
HETATM    6  C   UNL     1     -12.215  12.638  69.491  1.00  0.00    -0.090 A  
HETATM    7  C   UNL     1     -12.642  11.469  70.086  1.00  0.00    -0.071 A  
HETATM    8  N   UNL     1     -12.987  11.819  71.361  1.00  0.00    -0.375 NA 
HETATM    9  C   UNL     1     -12.761  13.159  71.496  1.00  0.00    -0.269 A  
HETATM   10  H   UNL     1     -13.348  11.193  72.082  1.00  0.00     0.000 HD 
HETATM   11  N   UNL     1     -12.289  13.680  70.387  1.00  0.00    -0.351 NA 
ENDBRANCH   5   6
ENDBRANCH   2   5
TORSDOF 2
ENDMDL
MODEL      142
REMARK 921   NORMALIZED FREE ENERGY PREDICTED BY IDOCK:   -1.77 KCAL/MOL
REMARK 922        TOTAL FREE ENERGY PREDICTED BY IDOCK:   -2.23 KCAL/MOL
REMARK 923 INTER-LIGAND FREE ENERGY PREDICTED BY IDOCK:   -1.94 KCAL/MOL
REMARK 924 INTRA-LIGAND FREE ENERGY PREDICTED BY IDOCK:   -0.29 KCAL/MOL
REMARK 927      BINDING AFFINITY PREDICTED BY RF-SCORE:    0.00 PKD
ROOT
HETATM    1  N   UNL     1      -6.634  10.988  63.226  1.00  0.00    -0.171 NA 
HETATM    2  C   UNL     1      -7.613  10.329  62.357  1.00  0.00    -0.136 C  
HETATM    3  H2  UNL     1      -6.367  10.390  64.008  1.00  0.00     0.000 HD 
HETATM    4  H1  UNL     1      -5.817  11.303  62.702  1.00  0.00     0.000 HD 
ENDROOT
BRANCH   2   5
HETATM    5  C   UNL     1      -8.839   9.857  63.142  1.00  0.00    -0.254 C  
BRANCH   5   6
HETATM    6  C   UNL     1      -9.360  10.917  64.049  1.00  0.00    -0.237 A  
HETATM    7  C   UNL     1     -10.185  11.983  63.757  1.00  0.00    -0.422 A  
HETATM    8  N   UNL     1     -10.346  12.649  64.940  1.00  0.00    -0.304 NA 
HETATM    9  C   UNL     1      -9.631  11.977  65.890  1.00  0.00    -0.223 A  
HETATM   10  H   UNL     1     -10.900  13.493  65.086  1.00  0.00     0.000 HD 
HETATM   11  N   UNL     1      -9.032  10.924  65.386  1.00  0.00    -0.196 NA 
ENDBRANCH   5   6
ENDBRANCH   2   5
TORSDOF 2
ENDMDL
MODEL      143
REMARK 921   NORMALIZED FREE ENERGY PREDICTED BY IDOCK:   -1.76 KCAL/MOL
REMARK 922        TOTAL FREE ENERGY PREDICTED BY IDOCK:   -2.23 KCAL/MOL
REMARK 923 INTER-LIGAND FREE ENERGY PREDICTED BY IDOCK:   -1.99 KCAL/MOL
REMARK 924 INTRA-LIGAND FREE ENERGY PREDICTED BY IDOCK:   -0.24 KCAL/MOL
REMARK 927      BINDING AFFINITY PREDICTED BY RF-SCORE:    0.00 PKD
ROOT
HETATM    1  N   UNL     1      -7.999   2.876  67.524  1.00  0.00    -0.075 NA 
HETATM    2  C   UNL     1      -9.318   3.127  66.936  1.00  0.00    -0.136 C  
HETATM    3  H2  UNL     1      -7.831   3.475  68.332  1.00  0.00     0.000 HD 
HETATM    4  H1  UNL     1      -7.873   1.891  67.758  1.00  0.00     0.000 HD 
ENDROOT
BRANCH   2   5
HETATM    5  C   UNL     1      -9.508   4.605  66.584  1.00  0.00    -0.173 C  
BRANCH   5   6
HETATM    6  C   UNL     1     -10.203   5.350  67.670  1.00  0.00    -0.186 A  
HETATM    7  C   UNL     1     -10.985   6.483  67.586  1.00  0.00    -0.337 A  
HETATM    8  N   UNL     1     -11.366   6.755  68.870  1.00  0.00    -0.561 NA 
HETATM    9  C   UNL     1     -10.816   5.798  69.673  1.00  0.00    -0.348 A  
HETATM   10  H   UNL     1     -11.954   7.532  69.172  1.00  0.00     0.000 HD 
HETATM   11  N   UNL     1     -10.115   4.932  68.979  1.00  0.00    -0.173 NA 
ENDBRANCH   5   6
ENDBRANCH   2   5
TORSDOF 2
ENDMDL
MODEL      144
REMARK 921   NORMALIZED FREE ENERGY PREDICTED BY IDOCK:   -1.72 KCAL/MOL
REMARK 922        TOTAL FREE ENERGY PREDICTED BY IDOCK:   -2.18 KCAL/MOL
REMARK 923 INTER-LIGAND FREE ENERGY PREDICTED BY IDOCK:   -1.97 KCAL/MOL
REMARK 924 INTRA-LIGAND FREE ENERGY PREDICTED BY IDOCK:   -0.21 KCAL/MOL
REMARK 927      BINDING AFFINITY PREDICTED BY RF-SCORE:    0.00 PKD
ROOT
HETATM    1  N   UNL     1      -7.128  12.704  69.496  1.00  0.00    -0.324 NA 
HETATM    2  C   UNL     1      -7.280  14.016  68.859  1.00  0.00    -0.108 C  
HETATM    3  H2  UNL     1      -6.513  12.096  68.955  1.00  0.00     0.000 HD 
HETATM    4  H1  UNL     1      -6.812  12.790  70.462  1.00  0.00     0.000 HD 
ENDROOT
BRANCH   2   5
HETATM    5  C   UNL     1      -7.754  13.888  67.409  1.00  0.00    -0.165 C  
BRANCH   5   6
HETATM    6  C   UNL     1      -9.225  14.085  67.285  1.00  0.00    -0.230 A  
HETATM    7  C   UNL     1      -9.921  14.947  66.463  1.00  0.00    -0.265 A  
HETATM    8  N   UNL     1     -11.240  14.736  66.754  1.00  0.00    -0.339 NA 
HETATM    9  C   UNL     1     -11.299  13.773  67.721  1.00  0.00    -0.303 A  
HETATM   10  H   UNL     1     -12.035  15.212  66.327  1.00  0.00     0.000 HD 
HETATM   11  N   UNL     1     -10.101  13.356  68.057  1.00  0.00    -0.235 NA 
ENDBRANCH   5   6
ENDBRANCH   2   5
TORSDOF 2
ENDMDL
MODEL      145
REMARK 921   NORMALIZED FREE ENERGY PREDICTED BY IDOCK:   -1.69 KCAL/MOL
REMARK 922        TOTAL FREE ENERGY PREDICTED BY IDOCK:   -2.14 KCAL/MOL
REMARK 923 INTER-LIGAND FREE ENERGY PREDICTED BY IDOCK:   -2.10 KCAL/MOL
REMARK 924 INTRA-LIGAND FREE ENERGY PREDICTED BY IDOCK:   -0.04 KCAL/MOL
REMARK 927      BINDING AFFINITY PREDICTED BY RF-SCORE:    0.00 PKD
ROOT
HETATM    1  N   UNL     1      -8.226  13.626  69.181  1.00  0.00    -0.316 NA 
HETATM    2  C   UNL     1      -7.553  14.750  68.523  1.00  0.00    -0.120 C  
HETATM    3  H2  UNL     1      -7.982  12.737  68.742  1.00  0.00     0.000 HD 
HETATM    4  H1  UNL     1      -8.039  13.609  70.183  1.00  0.00     0.000 HD 
ENDROOT
BRANCH   2   5
HETATM    5  C   UNL     1      -7.834  14.775  67.019  1.00  0.00    -0.089 C  
BRANCH   5   6
HETATM    6  C   UNL     1      -8.564  16.006  66.609  1.00  0.00    -0.281 A  
HETATM    7  C   UNL     1      -9.854  16.138  66.140  1.00  0.00    -0.333 A  
HETATM    8  N   UNL     1     -10.018  17.474  65.904  1.00  0.00    -0.551 NA 
HETATM    9  C   UNL     1      -8.847  18.096  66.231  1.00  0.00    -0.174 A  
HETATM   10  H   UNL     1     -10.861  17.925  65.547  1.00  0.00     0.000 HD 
HETATM   11  N   UNL     1      -7.953  17.239  66.666  1.00  0.00    -0.236 NA 
ENDBRANCH   5   6
ENDBRANCH   2   5
TORSDOF 2
ENDMDL
MODEL      146
REMARK 921   NORMALIZED FREE ENERGY PREDICTED BY IDOCK:   -1.67 KCAL/MOL
REMARK 922        TOTAL FREE ENERGY PREDICTED BY IDOCK:   -2.13 KCAL/MOL
REMARK 923 INTER-LIGAND FREE ENERGY PREDICTED BY IDOCK:   -1.89 KCAL/MOL
REMARK 924 INTRA-LIGAND FREE ENERGY PREDICTED BY IDOCK:   -0.24 KCAL/MOL
REMARK 927      BINDING AFFINITY PREDICTED BY RF-SCORE:    0.00 PKD
ROOT
HETATM    1  N   UNL     1      -9.696  11.628  67.158  1.00  0.00    -0.181 NA 
HETATM    2  C   UNL     1      -8.318  11.619  66.656  1.00  0.00    -0.154 C  
HETATM    3  H2  UNL     1      -9.882  10.817  67.748  1.00  0.00     0.000 HD 
HETATM    4  H1  UNL     1      -9.914  12.499  67.643  1.00  0.00     0.000 HD 
ENDROOT
BRANCH   2   5
HETATM    5  C   UNL     1      -7.991  10.313  65.929  1.00  0.00    -0.137 C  
BRANCH   5   6
HETATM    6  C   UNL     1      -8.721  10.197  64.636  1.00  0.00    -0.189 A  
HETATM    7  C   UNL     1      -8.579   9.257  63.638  1.00  0.00    -0.196 A  
HETATM    8  N   UNL     1      -9.478   9.616  62.673  1.00  0.00    -0.568 NA 
HETATM    9  C   UNL     1     -10.123  10.738  63.109  1.00  0.00    -0.210 A  
HETATM   10  H   UNL     1      -9.637   9.134  61.788  1.00  0.00     0.000 HD 
HETATM   11  N   UNL     1      -9.694  11.109  64.293  1.00  0.00    -0.254 NA 
ENDBRANCH   5   6
ENDBRANCH   2   5
TORSDOF 2
ENDMDL
MODEL      147
REMARK 921   NORMALIZED FREE ENERGY PREDICTED BY IDOCK:   -1.67 KCAL/MOL
REMARK 922        TOTAL FREE ENERGY PREDICTED BY IDOCK:   -2.13 KCAL/MOL
REMARK 923 INTER-LIGAND FREE ENERGY PREDICTED BY IDOCK:   -2.08 KCAL/MOL
REMARK 924 INTRA-LIGAND FREE ENERGY PREDICTED BY IDOCK:   -0.05 KCAL/MOL
REMARK 927      BINDING AFFINITY PREDICTED BY RF-SCORE:    0.00 PKD
ROOT
HETATM    1  N   UNL     1     -12.850   8.355  71.165  1.00  0.00    -0.497 NA 
HETATM    2  C   UNL     1     -12.737   6.896  71.251  1.00  0.00    -0.315 C  
HETATM    3  H2  UNL     1     -13.058   8.657  70.213  1.00  0.00     0.000 HD 
HETATM    4  H1  UNL     1     -13.533   8.720  71.829  1.00  0.00     0.000 HD 
ENDROOT
BRANCH   2   5
HETATM    5  C   UNL     1     -11.712   6.349  70.254  1.00  0.00    -0.389 C  
BRANCH   5   6
HETATM    6  C   UNL     1     -10.543   5.731  70.939  1.00  0.00    -0.262 A  
HETATM    7  C   UNL     1     -10.430   5.295  72.243  1.00  0.00    -0.218 A  
HETATM    8  N   UNL     1      -9.151   4.825  72.356  1.00  0.00    -0.125 NA 
HETATM    9  C   UNL     1      -8.545   4.987  71.143  1.00  0.00    -0.124 A  
HETATM   10  H   UNL     1      -8.727   4.426  73.194  1.00  0.00     0.000 HD 
HETATM   11  N   UNL     1      -9.361   5.524  70.266  1.00  0.00    -0.151 NA 
ENDBRANCH   5   6
ENDBRANCH   2   5
TORSDOF 2
ENDMDL
MODEL      148
REMARK 921   NORMALIZED FREE ENERGY PREDICTED BY IDOCK:   -1.65 KCAL/MOL
REMARK 922        TOTAL FREE ENERGY PREDICTED BY IDOCK:   -2.10 KCAL/MOL
REMARK 923 INTER-LIGAND FREE ENERGY PREDICTED BY IDOCK:   -2.07 KCAL/MOL
REMARK 924 INTRA-LIGAND FREE ENERGY PREDICTED BY IDOCK:   -0.03 KCAL/MOL
REMARK 927      BINDING AFFINITY PREDICTED BY RF-SCORE:    0.00 PKD
ROOT
HETATM    1  N   UNL     1     -11.818  12.820  70.232  1.00  0.00    -0.537 NA 
HETATM    2  C   UNL     1     -11.375  11.655  69.460  1.00  0.00    -0.260 C  
HETATM    3  H2  UNL     1     -11.214  12.985  71.037  1.00  0.00     0.000 HD 
HETATM    4  H1  UNL     1     -11.894  13.652  69.647  1.00  0.00     0.000 HD 
ENDROOT
BRANCH   2   5
HETATM    5  C   UNL     1     -11.260  10.406  70.337  1.00  0.00    -0.399 C  
BRANCH   5   6
HETATM    6  C   UNL     1     -10.196   9.483  69.856  1.00  0.00    -0.231 A  
HETATM    7  C   UNL     1      -9.931   9.054  68.572  1.00  0.00    -0.176 A  
HETATM    8  N   UNL     1      -8.860   8.213  68.686  1.00  0.00    -0.134 NA 
HETATM    9  C   UNL     1      -8.516   8.162  70.006  1.00  0.00    -0.128 A  
HETATM   10  H   UNL     1      -8.400   7.715  67.923  1.00  0.00     0.000 HD 
HETATM   11  N   UNL     1      -9.299   8.922  70.736  1.00  0.00    -0.208 NA 
ENDBRANCH   5   6
ENDBRANCH   2   5
TORSDOF 2
ENDMDL
MODEL      149
REMARK 921   NORMALIZED FREE ENERGY PREDICTED BY IDOCK:   -1.64 KCAL/MOL
REMARK 922        TOTAL FREE ENERGY PREDICTED BY IDOCK:   -2.10 KCAL/MOL
REMARK 923 INTER-LIGAND FREE ENERGY PREDICTED BY IDOCK:   -1.87 KCAL/MOL
REMARK 924 INTRA-LIGAND FREE ENERGY PREDICTED BY IDOCK:   -0.23 KCAL/MOL
REMARK 927      BINDING AFFINITY PREDICTED BY RF-SCORE:    0.00 PKD
ROOT
HETATM    1  N   UNL     1      -8.455   1.760  65.560  1.00  0.00    -0.096 NA 
HETATM    2  C   UNL     1      -7.715   2.043  64.327  1.00  0.00    -0.064 C  
HETATM    3  H2  UNL     1      -9.448   1.613  65.374  1.00  0.00     0.000 HD 
HETATM    4  H1  UNL     1      -8.052   0.973  66.069  1.00  0.00     0.000 HD 
ENDROOT
BRANCH   2   5
HETATM    5  C   UNL     1      -8.321   3.223  63.563  1.00  0.00    -0.089 C  
BRANCH   5   6
HETATM    6  C   UNL     1      -9.367   3.923  64.359  1.00  0.00    -0.153 A  
HETATM    7  C   UNL     1     -10.738   3.884  64.220  1.00  0.00    -0.199 A  
HETATM    8  N   UNL     1     -11.224   4.712  65.193  1.00  0.00    -0.995 NA 
HETATM    9  C   UNL     1     -10.154   5.214  65.878  1.00  0.00    -0.123 A  
HETATM   10  H   UNL     1     -12.207   4.917  65.375  1.00  0.00     0.000 HD 
HETATM   11  N   UNL     1      -9.021   4.751  65.403  1.00  0.00    -0.145 NA 
ENDBRANCH   5   6
ENDBRANCH   2   5
TORSDOF 2
ENDMDL
MODEL      150
REMARK 921   NORMALIZED FREE ENERGY PREDICTED BY IDOCK:   -1.64 KCAL/MOL
REMARK 922        TOTAL FREE ENERGY PREDICTED BY IDOCK:   -2.09 KCAL/MOL
REMARK 923 INTER-LIGAND FREE ENERGY PREDICTED BY IDOCK:   -2.05 KCAL/MOL
REMARK 924 INTRA-LIGAND FREE ENERGY PREDICTED BY IDOCK:   -0.04 KCAL/MOL
REMARK 927      BINDING AFFINITY PREDICTED BY RF-SCORE:    0.00 PKD
ROOT
HETATM    1  N   UNL     1      -8.260   8.991  71.539  1.00  0.00    -0.338 NA 
HETATM    2  C   UNL     1      -8.246   9.601  70.205  1.00  0.00    -0.191 C  
HETATM    3  H2  UNL     1      -8.853   8.161  71.563  1.00  0.00     0.000 HD 
HETATM    4  H1  UNL     1      -7.317   8.786  71.868  1.00  0.00     0.000 HD 
ENDROOT
BRANCH   2   5
HETATM    5  C   UNL     1      -9.662   9.909  69.710  1.00  0.00    -0.266 C  
BRANCH   5   6
HETATM    6  C   UNL     1      -9.928   9.306  68.375  1.00  0.00    -0.176 A  
HETATM    7  C   UNL     1     -10.220   7.997  68.054  1.00  0.00    -0.210 A  
HETATM    8  N   UNL     1     -10.363   7.982  66.695  1.00  0.00    -0.445 NA 
HETATM    9  C   UNL     1     -10.160   9.255  66.246  1.00  0.00    -0.252 A  
HETATM   10  H   UNL     1     -10.582   7.167  66.121  1.00  0.00     0.000 HD 
HETATM   11  N   UNL     1      -9.903  10.078  67.236  1.00  0.00    -0.174 NA 
ENDBRANCH   5   6
ENDBRANCH   2   5
TORSDOF 2
ENDMDL
MODEL      151
REMARK 921   NORMALIZED FREE ENERGY PREDICTED BY IDOCK:   -1.62 KCAL/MOL
REMARK 922        TOTAL FREE ENERGY PREDICTED BY IDOCK:   -2.07 KCAL/MOL
REMARK 923 INTER-LIGAND FREE ENERGY PREDICTED BY IDOCK:   -2.04 KCAL/MOL
REMARK 924 INTRA-LIGAND FREE ENERGY PREDICTED BY IDOCK:   -0.03 KCAL/MOL
REMARK 927      BINDING AFFINITY PREDICTED BY RF-SCORE:    0.00 PKD
ROOT
HETATM    1  N   UNL     1     -11.995  11.915  67.335  1.00  0.00    -0.601 NA 
HETATM    2  C   UNL     1     -10.567  11.868  67.006  1.00  0.00    -0.227 C  
HETATM    3  H2  UNL     1     -12.336  11.005  67.646  1.00  0.00     0.000 HD 
HETATM    4  H1  UNL     1     -12.200  12.644  68.019  1.00  0.00     0.000 HD 
ENDROOT
BRANCH   2   5
HETATM    5  C   UNL     1     -10.259  10.776  65.980  1.00  0.00    -0.310 C  
BRANCH   5   6
HETATM    6  C   UNL     1      -8.805  10.695  65.672  1.00  0.00    -0.186 A  
HETATM    7  C   UNL     1      -7.742  11.272  66.334  1.00  0.00    -0.089 A  
HETATM    8  N   UNL     1      -6.631  10.892  65.634  1.00  0.00    -0.346 NA 
HETATM    9  C   UNL     1      -7.047  10.112  64.594  1.00  0.00    -0.124 A  
HETATM   10  H   UNL     1      -5.666  11.144  65.850  1.00  0.00     0.000 HD 
HETATM   11  N   UNL     1      -8.352   9.968  64.593  1.00  0.00    -0.156 NA 
ENDBRANCH   5   6
ENDBRANCH   2   5
TORSDOF 2
ENDMDL
MODEL      152
REMARK 921   NORMALIZED FREE ENERGY PREDICTED BY IDOCK:   -1.62 KCAL/MOL
REMARK 922        TOTAL FREE ENERGY PREDICTED BY IDOCK:   -2.07 KCAL/MOL
REMARK 923 INTER-LIGAND FREE ENERGY PREDICTED BY IDOCK:   -1.81 KCAL/MOL
REMARK 924 INTRA-LIGAND FREE ENERGY PREDICTED BY IDOCK:   -0.27 KCAL/MOL
REMARK 927      BINDING AFFINITY PREDICTED BY RF-SCORE:    0.00 PKD
ROOT
HETATM    1  N   UNL     1      -8.949   5.363  67.568  1.00  0.00    -0.109 NA 
HETATM    2  C   UNL     1     -10.070   6.017  66.885  1.00  0.00    -0.185 C  
HETATM    3  H2  UNL     1      -8.787   5.768  68.490  1.00  0.00     0.000 HD 
HETATM    4  H1  UNL     1      -9.080   4.353  67.622  1.00  0.00     0.000 HD 
ENDROOT
BRANCH   2   5
HETATM    5  C   UNL     1      -9.874   7.533  66.803  1.00  0.00    -0.295 C  
BRANCH   5   6
HETATM    6  C   UNL     1     -10.351   8.223  68.034  1.00  0.00    -0.213 A  
HETATM    7  C   UNL     1     -10.707   9.544  68.208  1.00  0.00    -0.194 A  
HETATM    8  N   UNL     1     -11.056   9.653  69.525  1.00  0.00    -0.361 NA 
HETATM    9  C   UNL     1     -10.905   8.421  70.093  1.00  0.00    -0.236 A  
HETATM   10  H   UNL     1     -11.372  10.501  69.997  1.00  0.00     0.000 HD 
HETATM   11  N   UNL     1     -10.488   7.536  69.218  1.00  0.00    -0.213 NA 
ENDBRANCH   5   6
ENDBRANCH   2   5
TORSDOF 2
ENDMDL
MODEL      153
REMARK 921   NORMALIZED FREE ENERGY PREDICTED BY IDOCK:   -1.57 KCAL/MOL
REMARK 922        TOTAL FREE ENERGY PREDICTED BY IDOCK:   -2.02 KCAL/MOL
REMARK 923 INTER-LIGAND FREE ENERGY PREDICTED BY IDOCK:   -1.77 KCAL/MOL
REMARK 924 INTRA-LIGAND FREE ENERGY PREDICTED BY IDOCK:   -0.25 KCAL/MOL
REMARK 927      BINDING AFFINITY PREDICTED BY RF-SCORE:    0.00 PKD
ROOT
HETATM    1  N   UNL     1     -11.274   2.498  63.773  1.00  0.00    -0.602 NA 
HETATM    2  C   UNL     1     -10.564   3.217  62.712  1.00  0.00    -0.193 C  
HETATM    3  H2  UNL     1     -11.686   3.142  64.449  1.00  0.00     0.000 HD 
HETATM    4  H1  UNL     1     -11.974   1.860  63.393  1.00  0.00     0.000 HD 
ENDROOT
BRANCH   2   5
HETATM    5  C   UNL     1      -9.514   4.174  63.283  1.00  0.00    -0.141 C  
BRANCH   5   6
HETATM    6  C   UNL     1      -9.367   4.023  64.757  1.00  0.00    -0.162 A  
HETATM    7  C   UNL     1      -8.391   3.360  65.471  1.00  0.00    -0.099 A  
HETATM    8  N   UNL     1      -8.733   3.521  66.785  1.00  0.00    -0.113 NA 
HETATM    9  C   UNL     1      -9.879   4.262  66.823  1.00  0.00    -0.205 A  
HETATM   10  H   UNL     1      -8.224   3.154  67.590  1.00  0.00     0.000 HD 
HETATM   11  N   UNL     1     -10.282   4.586  65.617  1.00  0.00    -0.257 NA 
ENDBRANCH   5   6
ENDBRANCH   2   5
TORSDOF 2
ENDMDL
MODEL      154
REMARK 921   NORMALIZED FREE ENERGY PREDICTED BY IDOCK:   -1.56 KCAL/MOL
REMARK 922        TOTAL FREE ENERGY PREDICTED BY IDOCK:   -2.00 KCAL/MOL
REMARK 923 INTER-LIGAND FREE ENERGY PREDICTED BY IDOCK:   -1.94 KCAL/MOL
REMARK 924 INTRA-LIGAND FREE ENERGY PREDICTED BY IDOCK:   -0.06 KCAL/MOL
REMARK 927      BINDING AFFINITY PREDICTED BY RF-SCORE:    0.00 PKD
ROOT
HETATM    1  N   UNL     1      -7.259  12.010  66.744  1.00  0.00    -0.372 NA 
HETATM    2  C   UNL     1      -8.307  12.812  67.382  1.00  0.00    -0.189 C  
HETATM    3  H2  UNL     1      -6.478  11.844  67.380  1.00  0.00     0.000 HD 
HETATM    4  H1  UNL     1      -7.629  11.136  66.371  1.00  0.00     0.000 HD 
ENDROOT
BRANCH   2   5
HETATM    5  C   UNL     1      -7.753  14.124  67.942  1.00  0.00    -0.161 C  
BRANCH   5   6
HETATM    6  C   UNL     1      -8.640  15.280  67.635  1.00  0.00    -0.169 A  
HETATM    7  C   UNL     1      -9.127  16.253  68.482  1.00  0.00    -0.216 A  
HETATM    8  N   UNL     1      -9.897  17.064  67.696  1.00  0.00    -0.252 NA 
HETATM    9  C   UNL     1      -9.852  16.567  66.425  1.00  0.00    -0.293 A  
HETATM   10  H   UNL     1     -10.412  17.889  68.004  1.00  0.00     0.000 HD 
HETATM   11  N   UNL     1      -9.097  15.496  66.354  1.00  0.00    -0.292 NA 
ENDBRANCH   5   6
ENDBRANCH   2   5
TORSDOF 2
ENDMDL
MODEL      155
REMARK 921   NORMALIZED FREE ENERGY PREDICTED BY IDOCK:   -1.52 KCAL/MOL
REMARK 922        TOTAL FREE ENERGY PREDICTED BY IDOCK:   -1.96 KCAL/MOL
REMARK 923 INTER-LIGAND FREE ENERGY PREDICTED BY IDOCK:   -1.66 KCAL/MOL
REMARK 924 INTRA-LIGAND FREE ENERGY PREDICTED BY IDOCK:   -0.30 KCAL/MOL
REMARK 927      BINDING AFFINITY PREDICTED BY RF-SCORE:    0.00 PKD
ROOT
HETATM    1  N   UNL     1      -8.456   6.442  69.885  1.00  0.00    -0.130 NA 
HETATM    2  C   UNL     1      -9.565   7.392  70.013  1.00  0.00    -0.168 C  
HETATM    3  H2  UNL     1      -7.649   6.870  69.432  1.00  0.00     0.000 HD 
HETATM    4  H1  UNL     1      -8.204   6.034  70.786  1.00  0.00     0.000 HD 
ENDROOT
BRANCH   2   5
HETATM    5  C   UNL     1      -9.943   8.004  68.662  1.00  0.00    -0.200 C  
BRANCH   5   6
HETATM    6  C   UNL     1      -9.987   6.982  67.581  1.00  0.00    -0.154 A  
HETATM    7  C   UNL     1      -9.332   6.970  66.367  1.00  0.00    -0.138 A  
HETATM    8  N   UNL     1      -9.728   5.814  65.754  1.00  0.00    -0.370 NA 
HETATM    9  C   UNL     1     -10.590   5.176  66.599  1.00  0.00    -0.232 A  
HETATM   10  H   UNL     1      -9.433   5.488  64.834  1.00  0.00     0.000 HD 
HETATM   11  N   UNL     1     -10.761   5.851  67.711  1.00  0.00    -0.269 NA 
ENDBRANCH   5   6
ENDBRANCH   2   5
TORSDOF 2
ENDMDL
MODEL      156
REMARK 921   NORMALIZED FREE ENERGY PREDICTED BY IDOCK:   -1.49 KCAL/MOL
REMARK 922        TOTAL FREE ENERGY PREDICTED BY IDOCK:   -1.92 KCAL/MOL
REMARK 923 INTER-LIGAND FREE ENERGY PREDICTED BY IDOCK:   -1.86 KCAL/MOL
REMARK 924 INTRA-LIGAND FREE ENERGY PREDICTED BY IDOCK:   -0.06 KCAL/MOL
REMARK 927      BINDING AFFINITY PREDICTED BY RF-SCORE:    0.00 PKD
ROOT
HETATM    1  N   UNL     1      -6.524  12.643  70.410  1.00  0.00    -0.448 NA 
HETATM    2  C   UNL     1      -6.512  11.904  69.143  1.00  0.00    -0.098 C  
HETATM    3  H2  UNL     1      -6.903  12.075  71.168  1.00  0.00     0.000 HD 
HETATM    4  H1  UNL     1      -5.599  13.005  70.643  1.00  0.00     0.000 HD 
ENDROOT
BRANCH   2   5
HETATM    5  C   UNL     1      -7.899  11.359  68.794  1.00  0.00    -0.128 C  
BRANCH   5   6
HETATM    6  C   UNL     1      -8.637  12.267  67.872  1.00  0.00    -0.169 A  
HETATM    7  C   UNL     1      -8.187  13.393  67.214  1.00  0.00    -0.154 A  
HETATM    8  N   UNL     1      -9.264  13.853  66.510  1.00  0.00    -0.421 NA 
HETATM    9  C   UNL     1     -10.308  13.009  66.756  1.00  0.00    -0.254 A  
HETATM   10  H   UNL     1      -9.284  14.678  65.909  1.00  0.00     0.000 HD 
HETATM   11  N   UNL     1      -9.960  12.038  67.568  1.00  0.00    -0.191 NA 
ENDBRANCH   5   6
ENDBRANCH   2   5
TORSDOF 2
ENDMDL
MODEL      157
REMARK 921   NORMALIZED FREE ENERGY PREDICTED BY IDOCK:   -1.48 KCAL/MOL
REMARK 922        TOTAL FREE ENERGY PREDICTED BY IDOCK:   -1.91 KCAL/MOL
REMARK 923 INTER-LIGAND FREE ENERGY PREDICTED BY IDOCK:   -1.70 KCAL/MOL
REMARK 924 INTRA-LIGAND FREE ENERGY PREDICTED BY IDOCK:   -0.21 KCAL/MOL
REMARK 927      BINDING AFFINITY PREDICTED BY RF-SCORE:    0.00 PKD
ROOT
HETATM    1  N   UNL     1      -6.958   6.356  67.436  1.00  0.00    -0.072 NA 
HETATM    2  C   UNL     1      -7.696   5.466  66.535  1.00  0.00    -0.099 C  
HETATM    3  H2  UNL     1      -7.541   6.665  68.215  1.00  0.00     0.000 HD 
HETATM    4  H1  UNL     1      -6.094   5.926  67.766  1.00  0.00     0.000 HD 
ENDROOT
BRANCH   2   5
HETATM    5  C   UNL     1      -8.993   6.111  66.040  1.00  0.00    -0.156 C  
BRANCH   5   6
HETATM    6  C   UNL     1      -9.910   6.451  67.163  1.00  0.00    -0.146 A  
HETATM    7  C   UNL     1     -10.547   7.643  67.436  1.00  0.00    -0.286 A  
HETATM    8  N   UNL     1     -11.256   7.418  68.583  1.00  0.00    -0.399 NA 
HETATM    9  C   UNL     1     -11.031   6.125  68.959  1.00  0.00    -0.367 A  
HETATM   10  H   UNL     1     -11.846   8.094  69.070  1.00  0.00     0.000 HD 
HETATM   11  N   UNL     1     -10.229   5.513  68.120  1.00  0.00    -0.177 NA 
ENDBRANCH   5   6
ENDBRANCH   2   5
TORSDOF 2
ENDMDL
MODEL      158
REMARK 921   NORMALIZED FREE ENERGY PREDICTED BY IDOCK:   -1.44 KCAL/MOL
REMARK 922        TOTAL FREE ENERGY PREDICTED BY IDOCK:   -1.87 KCAL/MOL
REMARK 923 INTER-LIGAND FREE ENERGY PREDICTED BY IDOCK:   -1.57 KCAL/MOL
REMARK 924 INTRA-LIGAND FREE ENERGY PREDICTED BY IDOCK:   -0.30 KCAL/MOL
REMARK 927      BINDING AFFINITY PREDICTED BY RF-SCORE:    0.00 PKD
ROOT
HETATM    1  N   UNL     1      -8.612   4.778  64.325  1.00  0.00    -0.138 NA 
HETATM    2  C   UNL     1      -9.184   3.466  64.643  1.00  0.00    -0.140 C  
HETATM    3  H2  UNL     1      -7.707   4.910  64.777  1.00  0.00     0.000 HD 
HETATM    4  H1  UNL     1      -8.549   4.927  63.317  1.00  0.00     0.000 HD 
ENDROOT
BRANCH   2   5
HETATM    5  C   UNL     1      -9.278   3.242  66.154  1.00  0.00    -0.155 C  
BRANCH   5   6
HETATM    6  C   UNL     1      -9.740   4.464  66.870  1.00  0.00    -0.210 A  
HETATM    7  C   UNL     1      -9.301   4.989  68.067  1.00  0.00    -0.125 A  
HETATM    8  N   UNL     1     -10.062   6.106  68.272  1.00  0.00    -0.146 NA 
HETATM    9  C   UNL     1     -10.918   6.219  67.214  1.00  0.00    -0.366 A  
HETATM   10  H   UNL     1     -10.001   6.739  69.070  1.00  0.00     0.000 HD 
HETATM   11  N   UNL     1     -10.744   5.248  66.348  1.00  0.00    -0.293 NA 
ENDBRANCH   5   6
ENDBRANCH   2   5
TORSDOF 2
ENDMDL
MODEL      159
REMARK 921   NORMALIZED FREE ENERGY PREDICTED BY IDOCK:   -1.43 KCAL/MOL
REMARK 922        TOTAL FREE ENERGY PREDICTED BY IDOCK:   -1.86 KCAL/MOL
REMARK 923 INTER-LIGAND FREE ENERGY PREDICTED BY IDOCK:   -1.60 KCAL/MOL
REMARK 924 INTRA-LIGAND FREE ENERGY PREDICTED BY IDOCK:   -0.27 KCAL/MOL
REMARK 927      BINDING AFFINITY PREDICTED BY RF-SCORE:    0.00 PKD
ROOT
HETATM    1  N   UNL     1     -10.348   7.825  66.657  1.00  0.00    -0.477 NA 
HETATM    2  C   UNL     1      -9.002   7.252  66.545  1.00  0.00    -0.152 C  
HETATM    3  H2  UNL     1     -10.857   7.755  65.776  1.00  0.00     0.000 HD 
HETATM    4  H1  UNL     1     -10.872   7.406  67.425  1.00  0.00     0.000 HD 
ENDROOT
BRANCH   2   5
HETATM    5  C   UNL     1      -8.215   7.881  65.394  1.00  0.00    -0.139 C  
BRANCH   5   6
HETATM    6  C   UNL     1      -7.661   9.214  65.760  1.00  0.00    -0.094 A  
HETATM    7  C   UNL     1      -6.744   9.991  65.084  1.00  0.00    -0.126 A  
HETATM    8  N   UNL     1      -6.578  11.106  65.856  1.00  0.00    -0.364 NA 
HETATM    9  C   UNL     1      -7.383  10.973  66.951  1.00  0.00    -0.133 A  
HETATM   10  H   UNL     1      -5.963  11.895  65.652  1.00  0.00     0.000 HD 
HETATM   11  N   UNL     1      -8.055   9.845  66.918  1.00  0.00    -0.112 NA 
ENDBRANCH   5   6
ENDBRANCH   2   5
TORSDOF 2
ENDMDL
MODEL      160
REMARK 921   NORMALIZED FREE ENERGY PREDICTED BY IDOCK:   -1.43 KCAL/MOL
REMARK 922        TOTAL FREE ENERGY PREDICTED BY IDOCK:   -1.86 KCAL/MOL
REMARK 923 INTER-LIGAND FREE ENERGY PREDICTED BY IDOCK:   -1.59 KCAL/MOL
REMARK 924 INTRA-LIGAND FREE ENERGY PREDICTED BY IDOCK:   -0.27 KCAL/MOL
REMARK 927      BINDING AFFINITY PREDICTED BY RF-SCORE:    0.00 PKD
ROOT
HETATM    1  N   UNL     1      -8.484   5.687  67.939  1.00  0.00    -0.103 NA 
HETATM    2  C   UNL     1      -9.878   5.696  67.485  1.00  0.00    -0.139 C  
HETATM    3  H2  UNL     1      -8.418   5.859  68.942  1.00  0.00     0.000 HD 
HETATM    4  H1  UNL     1      -8.008   4.824  67.676  1.00  0.00     0.000 HD 
ENDROOT
BRANCH   2   5
HETATM    5  C   UNL     1     -10.592   6.992  67.879  1.00  0.00    -0.276 C  
BRANCH   5   6
HETATM    6  C   UNL     1     -10.042   8.172  67.157  1.00  0.00    -0.264 A  
HETATM    7  C   UNL     1     -10.289   9.513  67.366  1.00  0.00    -0.258 A  
HETATM    8  N   UNL     1      -9.543  10.168  66.426  1.00  0.00    -0.182 NA 
HETATM    9  C   UNL     1      -8.881   9.223  65.695  1.00  0.00    -0.180 A  
HETATM   10  H   UNL     1      -9.490  11.178  66.296  1.00  0.00     0.000 HD 
HETATM   11  N   UNL     1      -9.156   8.011  66.116  1.00  0.00    -0.183 NA 
ENDBRANCH   5   6
ENDBRANCH   2   5
TORSDOF 2
ENDMDL
MODEL      161
REMARK 921   NORMALIZED FREE ENERGY PREDICTED BY IDOCK:   -1.42 KCAL/MOL
REMARK 922        TOTAL FREE ENERGY PREDICTED BY IDOCK:   -1.84 KCAL/MOL
REMARK 923 INTER-LIGAND FREE ENERGY PREDICTED BY IDOCK:   -1.81 KCAL/MOL
REMARK 924 INTRA-LIGAND FREE ENERGY PREDICTED BY IDOCK:   -0.04 KCAL/MOL
REMARK 927      BINDING AFFINITY PREDICTED BY RF-SCORE:    0.00 PKD
ROOT
HETATM    1  N   UNL     1      -6.998  10.076  68.036  1.00  0.00    -0.079 NA 
HETATM    2  C   UNL     1      -8.026  10.192  69.076  1.00  0.00    -0.115 C  
HETATM    3  H2  UNL     1      -7.220   9.334  67.373  1.00  0.00     0.000 HD 
HETATM    4  H1  UNL     1      -6.841  10.966  67.561  1.00  0.00     0.000 HD 
ENDROOT
BRANCH   2   5
HETATM    5  C   UNL     1      -8.261   8.858  69.788  1.00  0.00    -0.119 C  
BRANCH   5   6
HETATM    6  C   UNL     1      -9.684   8.686  70.191  1.00  0.00    -0.172 A  
HETATM    7  C   UNL     1     -10.580   7.705  69.822  1.00  0.00    -0.244 A  
HETATM    8  N   UNL     1     -11.745   8.020  70.464  1.00  0.00    -0.459 NA 
HETATM    9  C   UNL     1     -11.522   9.157  71.186  1.00  0.00    -0.318 A  
HETATM   10  H   UNL     1     -12.622   7.501  70.412  1.00  0.00     0.000 HD 
HETATM   11  N   UNL     1     -10.286   9.579  71.049  1.00  0.00    -0.302 NA 
ENDBRANCH   5   6
ENDBRANCH   2   5
TORSDOF 2
ENDMDL
MODEL      162
REMARK 921   NORMALIZED FREE ENERGY PREDICTED BY IDOCK:   -1.38 KCAL/MOL
REMARK 922        TOTAL FREE ENERGY PREDICTED BY IDOCK:   -1.80 KCAL/MOL
REMARK 923 INTER-LIGAND FREE ENERGY PREDICTED BY IDOCK:   -1.53 KCAL/MOL
REMARK 924 INTRA-LIGAND FREE ENERGY PREDICTED BY IDOCK:   -0.27 KCAL/MOL
REMARK 927      BINDING AFFINITY PREDICTED BY RF-SCORE:    0.00 PKD
ROOT
HETATM    1  N   UNL     1      -8.186   3.201  65.437  1.00  0.00    -0.093 NA 
HETATM    2  C   UNL     1      -7.873   3.397  66.856  1.00  0.00    -0.080 C  
HETATM    3  H2  UNL     1      -7.467   3.607  64.838  1.00  0.00     0.000 HD 
HETATM    4  H1  UNL     1      -8.341   2.217  65.219  1.00  0.00     0.000 HD 
ENDROOT
BRANCH   2   5
HETATM    5  C   UNL     1      -7.640   4.874  67.184  1.00  0.00    -0.087 C  
BRANCH   5   6
HETATM    6  C   UNL     1      -8.870   5.689  66.983  1.00  0.00    -0.111 A  
HETATM    7  C   UNL     1      -8.987   7.003  66.580  1.00  0.00    -0.147 A  
HETATM    8  N   UNL     1     -10.329   7.259  66.569  1.00  0.00    -0.495 NA 
HETATM    9  C   UNL     1     -10.969   6.117  66.956  1.00  0.00    -0.330 A  
HETATM   10  H   UNL     1     -10.773   8.143  66.317  1.00  0.00     0.000 HD 
HETATM   11  N   UNL     1     -10.117   5.150  67.206  1.00  0.00    -0.189 NA 
ENDBRANCH   5   6
ENDBRANCH   2   5
TORSDOF 2
ENDMDL
MODEL      163
REMARK 921   NORMALIZED FREE ENERGY PREDICTED BY IDOCK:   -1.35 KCAL/MOL
REMARK 922        TOTAL FREE ENERGY PREDICTED BY IDOCK:   -1.77 KCAL/MOL
REMARK 923 INTER-LIGAND FREE ENERGY PREDICTED BY IDOCK:   -1.46 KCAL/MOL
REMARK 924 INTRA-LIGAND FREE ENERGY PREDICTED BY IDOCK:   -0.31 KCAL/MOL
REMARK 927      BINDING AFFINITY PREDICTED BY RF-SCORE:    0.00 PKD
ROOT
HETATM    1  N   UNL     1      -8.181   8.844  66.646  1.00  0.00    -0.110 NA 
HETATM    2  C   UNL     1      -8.619  10.223  66.410  1.00  0.00    -0.133 C  
HETATM    3  H2  UNL     1      -8.514   8.496  67.545  1.00  0.00     0.000 HD 
HETATM    4  H1  UNL     1      -8.456   8.226  65.882  1.00  0.00     0.000 HD 
ENDROOT
BRANCH   2   5
HETATM    5  C   UNL     1      -8.206  11.150  67.555  1.00  0.00    -0.119 C  
BRANCH   5   6
HETATM    6  C   UNL     1      -8.294  10.473  68.879  1.00  0.00    -0.147 A  
HETATM    7  C   UNL     1      -7.332  10.351  69.859  1.00  0.00    -0.142 A  
HETATM    8  N   UNL     1      -7.925   9.632  70.859  1.00  0.00    -0.354 NA 
HETATM    9  C   UNL     1      -9.201   9.350  70.462  1.00  0.00    -0.259 A  
HETATM   10  H   UNL     1      -7.494   9.357  71.742  1.00  0.00     0.000 HD 
HETATM   11  N   UNL     1      -9.456   9.850  69.275  1.00  0.00    -0.196 NA 
ENDBRANCH   5   6
ENDBRANCH   2   5
TORSDOF 2
ENDMDL
MODEL      164
REMARK 921   NORMALIZED FREE ENERGY PREDICTED BY IDOCK:   -1.34 KCAL/MOL
REMARK 922        TOTAL FREE ENERGY PREDICTED BY IDOCK:   -1.76 KCAL/MOL
REMARK 923 INTER-LIGAND FREE ENERGY PREDICTED BY IDOCK:   -1.73 KCAL/MOL
REMARK 924 INTRA-LIGAND FREE ENERGY PREDICTED BY IDOCK:   -0.03 KCAL/MOL
REMARK 927      BINDING AFFINITY PREDICTED BY RF-SCORE:    0.00 PKD
ROOT
HETATM    1  N   UNL     1      -6.038  11.136  66.614  1.00  0.00    -0.119 NA 
HETATM    2  C   UNL     1      -7.253  10.457  66.155  1.00  0.00    -0.131 C  
HETATM    3  H2  UNL     1      -6.114  11.415  67.592  1.00  0.00     0.000 HD 
HETATM    4  H1  UNL     1      -5.206  10.568  66.453  1.00  0.00     0.000 HD 
ENDROOT
BRANCH   2   5
HETATM    5  C   UNL     1      -8.502  11.308  66.397  1.00  0.00    -0.169 C  
BRANCH   5   6
HETATM    6  C   UNL     1      -9.538  10.570  67.171  1.00  0.00    -0.168 A  
HETATM    7  C   UNL     1     -10.200   9.405  66.848  1.00  0.00    -0.248 A  
HETATM    8  N   UNL     1     -11.048   9.170  67.893  1.00  0.00    -0.489 NA 
HETATM    9  C   UNL     1     -10.876  10.178  68.797  1.00  0.00    -0.225 A  
HETATM   10  H   UNL     1     -11.693   8.384  67.982  1.00  0.00     0.000 HD 
HETATM   11  N   UNL     1      -9.966  11.035  68.394  1.00  0.00    -0.179 NA 
ENDBRANCH   5   6
ENDBRANCH   2   5
TORSDOF 2
ENDMDL
MODEL      165
REMARK 921   NORMALIZED FREE ENERGY PREDICTED BY IDOCK:   -1.33 KCAL/MOL
REMARK 922        TOTAL FREE ENERGY PREDICTED BY IDOCK:   -1.75 KCAL/MOL
REMARK 923 INTER-LIGAND FREE ENERGY PREDICTED BY IDOCK:   -1.72 KCAL/MOL
REMARK 924 INTRA-LIGAND FREE ENERGY PREDICTED BY IDOCK:   -0.03 KCAL/MOL
REMARK 927      BINDING AFFINITY PREDICTED BY RF-SCORE:    0.00 PKD
ROOT
HETATM    1  N   UNL     1     -10.243   4.416  72.180  1.00  0.00    -0.189 NA 
HETATM    2  C   UNL     1     -10.096   5.431  71.132  1.00  0.00    -0.212 C  
HETATM    3  H2  UNL     1      -9.452   3.771  72.188  1.00  0.00     0.000 HD 
HETATM    4  H1  UNL     1     -10.386   4.840  73.097  1.00  0.00     0.000 HD 
ENDROOT
BRANCH   2   5
HETATM    5  C   UNL     1      -9.881   4.796  69.757  1.00  0.00    -0.288 C  
BRANCH   5   6
HETATM    6  C   UNL     1      -9.852   5.815  68.671  1.00  0.00    -0.138 A  
HETATM    7  C   UNL     1      -8.814   6.632  68.272  1.00  0.00    -0.124 A  
HETATM    8  N   UNL     1      -9.320   7.381  67.247  1.00  0.00    -0.129 NA 
HETATM    9  C   UNL     1     -10.618   7.003  67.061  1.00  0.00    -0.341 A  
HETATM   10  H   UNL     1      -8.818   8.094  66.717  1.00  0.00     0.000 HD 
HETATM   11  N   UNL     1     -10.967   6.055  67.900  1.00  0.00    -0.294 NA 
ENDBRANCH   5   6
ENDBRANCH   2   5
TORSDOF 2
ENDMDL
MODEL      166
REMARK 921   NORMALIZED FREE ENERGY PREDICTED BY IDOCK:   -1.32 KCAL/MOL
REMARK 922        TOTAL FREE ENERGY PREDICTED BY IDOCK:   -1.74 KCAL/MOL
REMARK 923 INTER-LIGAND FREE ENERGY PREDICTED BY IDOCK:   -1.71 KCAL/MOL
REMARK 924 INTRA-LIGAND FREE ENERGY PREDICTED BY IDOCK:   -0.03 KCAL/MOL
REMARK 927      BINDING AFFINITY PREDICTED BY RF-SCORE:    0.00 PKD
ROOT
HETATM    1  N   UNL     1      -7.003  12.292  69.646  1.00  0.00    -0.338 NA 
HETATM    2  C   UNL     1      -7.426  11.507  68.481  1.00  0.00    -0.115 C  
HETATM    3  H2  UNL     1      -6.747  11.689  70.428  1.00  0.00     0.000 HD 
HETATM    4  H1  UNL     1      -6.249  12.938  69.411  1.00  0.00     0.000 HD 
ENDROOT
BRANCH   2   5
HETATM    5  C   UNL     1      -8.556  10.538  68.833  1.00  0.00    -0.153 C  
BRANCH   5   6
HETATM    6  C   UNL     1      -8.972   9.718  67.662  1.00  0.00    -0.128 A  
HETATM    7  C   UNL     1      -9.809  10.052  66.618  1.00  0.00    -0.203 A  
HETATM    8  N   UNL     1      -9.860   8.940  65.826  1.00  0.00    -0.465 NA 
HETATM    9  C   UNL     1      -9.068   7.988  66.401  1.00  0.00    -0.183 A  
HETATM   10  H   UNL     1     -10.393   8.839  64.961  1.00  0.00     0.000 HD 
HETATM   11  N   UNL     1      -8.512   8.429  67.506  1.00  0.00    -0.128 NA 
ENDBRANCH   5   6
ENDBRANCH   2   5
TORSDOF 2
ENDMDL
MODEL      167
REMARK 921   NORMALIZED FREE ENERGY PREDICTED BY IDOCK:   -1.32 KCAL/MOL
REMARK 922        TOTAL FREE ENERGY PREDICTED BY IDOCK:   -1.74 KCAL/MOL
REMARK 923 INTER-LIGAND FREE ENERGY PREDICTED BY IDOCK:   -1.69 KCAL/MOL
REMARK 924 INTRA-LIGAND FREE ENERGY PREDICTED BY IDOCK:   -0.05 KCAL/MOL
REMARK 927      BINDING AFFINITY PREDICTED BY RF-SCORE:    0.00 PKD
ROOT
HETATM    1  N   UNL     1      -5.572   5.916  68.208  1.00  0.00    -0.008 NA 
HETATM    2  C   UNL     1      -6.662   5.237  67.501  1.00  0.00    -0.055 C  
HETATM    3  H2  UNL     1      -5.808   6.079  69.187  1.00  0.00     0.000 HD 
HETATM    4  H1  UNL     1      -4.691   5.409  68.116  1.00  0.00     0.000 HD 
ENDROOT
BRANCH   2   5
HETATM    5  C   UNL     1      -7.984   5.997  67.638  1.00  0.00    -0.102 C  
BRANCH   5   6
HETATM    6  C   UNL     1      -9.062   5.393  66.808  1.00  0.00    -0.116 A  
HETATM    7  C   UNL     1     -10.424   5.604  66.863  1.00  0.00    -0.288 A  
HETATM    8  N   UNL     1     -10.953   4.797  65.895  1.00  0.00    -0.794 NA 
HETATM    9  C   UNL     1      -9.918   4.138  65.297  1.00  0.00    -0.208 A  
HETATM   10  H   UNL     1     -11.943   4.703  65.662  1.00  0.00     0.000 HD 
HETATM   11  N   UNL     1      -8.764   4.482  65.820  1.00  0.00    -0.119 NA 
ENDBRANCH   5   6
ENDBRANCH   2   5
TORSDOF 2
ENDMDL
MODEL      168
REMARK 921   NORMALIZED FREE ENERGY PREDICTED BY IDOCK:   -1.29 KCAL/MOL
REMARK 922        TOTAL FREE ENERGY PREDICTED BY IDOCK:   -1.70 KCAL/MOL
REMARK 923 INTER-LIGAND FREE ENERGY PREDICTED BY IDOCK:   -1.52 KCAL/MOL
REMARK 924 INTRA-LIGAND FREE ENERGY PREDICTED BY IDOCK:   -0.17 KCAL/MOL
REMARK 927      BINDING AFFINITY PREDICTED BY RF-SCORE:    0.00 PKD
ROOT
HETATM    1  N   UNL     1      -8.518  14.626  69.873  1.00  0.00    -0.197 NA 
HETATM    2  C   UNL     1      -8.625  15.831  69.046  1.00  0.00    -0.236 C  
HETATM    3  H2  UNL     1      -7.755  14.025  69.560  1.00  0.00     0.000 HD 
HETATM    4  H1  UNL     1      -8.430  14.855  70.863  1.00  0.00     0.000 HD 
ENDROOT
BRANCH   2   5
HETATM    5  C   UNL     1      -8.759  15.487  67.561  1.00  0.00    -0.183 C  
BRANCH   5   6
HETATM    6  C   UNL     1      -9.061  14.044  67.349  1.00  0.00    -0.209 A  
HETATM    7  C   UNL     1      -8.207  13.018  67.003  1.00  0.00    -0.062 A  
HETATM    8  N   UNL     1      -8.995  11.903  66.929  1.00  0.00    -0.190 NA 
HETATM    9  C   UNL     1     -10.273  12.282  67.226  1.00  0.00    -0.210 A  
HETATM   10  H   UNL     1      -8.685  10.960  66.693  1.00  0.00     0.000 HD 
HETATM   11  N   UNL     1     -10.344  13.566  67.491  1.00  0.00    -0.236 NA 
ENDBRANCH   5   6
ENDBRANCH   2   5
TORSDOF 2
ENDMDL
MODEL      169
REMARK 921   NORMALIZED FREE ENERGY PREDICTED BY IDOCK:   -1.27 KCAL/MOL
REMARK 922        TOTAL FREE ENERGY PREDICTED BY IDOCK:   -1.69 KCAL/MOL
REMARK 923 INTER-LIGAND FREE ENERGY PREDICTED BY IDOCK:   -1.46 KCAL/MOL
REMARK 924 INTRA-LIGAND FREE ENERGY PREDICTED BY IDOCK:   -0.23 KCAL/MOL
REMARK 927      BINDING AFFINITY PREDICTED BY RF-SCORE:    0.00 PKD
ROOT
HETATM    1  N   UNL     1      -6.764   9.877  67.420  1.00  0.00    -0.073 NA 
HETATM    2  C   UNL     1      -8.196   9.762  67.713  1.00  0.00    -0.114 C  
HETATM    3  H2  UNL     1      -6.206   9.848  68.274  1.00  0.00     0.000 HD 
HETATM    4  H1  UNL     1      -6.458   9.169  66.752  1.00  0.00     0.000 HD 
ENDROOT
BRANCH   2   5
HETATM    5  C   UNL     1      -8.654  10.824  68.715  1.00  0.00    -0.156 C  
BRANCH   5   6
HETATM    6  C   UNL     1      -9.196  12.033  68.037  1.00  0.00    -0.192 A  
HETATM    7  C   UNL     1     -10.436  12.623  68.168  1.00  0.00    -0.231 A  
HETATM    8  N   UNL     1     -10.419  13.693  67.317  1.00  0.00    -0.258 NA 
HETATM    9  C   UNL     1      -9.195  13.717  66.712  1.00  0.00    -0.244 A  
HETATM   10  H   UNL     1     -11.182  14.353  67.163  1.00  0.00     0.000 HD 
HETATM   11  N   UNL     1      -8.433  12.734  67.130  1.00  0.00    -0.190 NA 
ENDBRANCH   5   6
ENDBRANCH   2   5
TORSDOF 2
ENDMDL
MODEL      170
REMARK 921   NORMALIZED FREE ENERGY PREDICTED BY IDOCK:   -1.26 KCAL/MOL
REMARK 922        TOTAL FREE ENERGY PREDICTED BY IDOCK:   -1.66 KCAL/MOL
REMARK 923 INTER-LIGAND FREE ENERGY PREDICTED BY IDOCK:   -1.37 KCAL/MOL
REMARK 924 INTRA-LIGAND FREE ENERGY PREDICTED BY IDOCK:   -0.29 KCAL/MOL
REMARK 927      BINDING AFFINITY PREDICTED BY RF-SCORE:    0.00 PKD
ROOT
HETATM    1  N   UNL     1      -7.855   7.071  65.503  1.00  0.00    -0.108 NA 
HETATM    2  C   UNL     1      -7.506   6.104  66.548  1.00  0.00    -0.086 C  
HETATM    3  H2  UNL     1      -8.179   7.952  65.903  1.00  0.00     0.000 HD 
HETATM    4  H1  UNL     1      -7.082   7.219  64.854  1.00  0.00     0.000 HD 
ENDROOT
BRANCH   2   5
HETATM    5  C   UNL     1      -8.666   5.882  67.522  1.00  0.00    -0.104 C  
BRANCH   5   6
HETATM    6  C   UNL     1      -9.363   7.155  67.856  1.00  0.00    -0.128 A  
HETATM    7  C   UNL     1     -10.692   7.488  67.692  1.00  0.00    -0.196 A  
HETATM    8  N   UNL     1     -10.801   8.772  68.148  1.00  0.00    -0.466 NA 
HETATM    9  C   UNL     1      -9.562   9.166  68.566  1.00  0.00    -0.148 A  
HETATM   10  H   UNL     1     -11.652   9.333  68.171  1.00  0.00     0.000 HD 
HETATM   11  N   UNL     1      -8.675   8.211  68.409  1.00  0.00    -0.134 NA 
ENDBRANCH   5   6
ENDBRANCH   2   5
TORSDOF 2
ENDMDL
MODEL      171
REMARK 921   NORMALIZED FREE ENERGY PREDICTED BY IDOCK:   -1.24 KCAL/MOL
REMARK 922        TOTAL FREE ENERGY PREDICTED BY IDOCK:   -1.64 KCAL/MOL
REMARK 923 INTER-LIGAND FREE ENERGY PREDICTED BY IDOCK:   -1.61 KCAL/MOL
REMARK 924 INTRA-LIGAND FREE ENERGY PREDICTED BY IDOCK:   -0.03 KCAL/MOL
REMARK 927      BINDING AFFINITY PREDICTED BY RF-SCORE:    0.00 PKD
ROOT
HETATM    1  N   UNL     1      -5.847  15.296  70.812  1.00  0.00    -0.049 NA 
HETATM    2  C   UNL     1      -6.646  15.020  69.614  1.00  0.00    -0.166 C  
HETATM    3  H2  UNL     1      -6.337  15.011  71.660  1.00  0.00     0.000 HD 
HETATM    4  H1  UNL     1      -4.923  14.869  70.754  1.00  0.00     0.000 HD 
ENDROOT
BRANCH   2   5
HETATM    5  C   UNL     1      -8.033  15.661  69.700  1.00  0.00    -0.080 C  
BRANCH   5   6
HETATM    6  C   UNL     1      -8.429  16.306  68.417  1.00  0.00    -0.195 A  
HETATM    7  C   UNL     1      -8.147  15.918  67.124  1.00  0.00    -0.207 A  
HETATM    8  N   UNL     1      -8.735  16.861  66.328  1.00  0.00    -0.381 NA 
HETATM    9  C   UNL     1      -9.343  17.769  67.146  1.00  0.00    -0.264 A  
HETATM   10  H   UNL     1      -8.722  16.881  65.308  1.00  0.00     0.000 HD 
HETATM   11  N   UNL     1      -9.182  17.458  68.412  1.00  0.00    -0.270 NA 
ENDBRANCH   5   6
ENDBRANCH   2   5
TORSDOF 2
ENDMDL
MODEL      172
REMARK 921   NORMALIZED FREE ENERGY PREDICTED BY IDOCK:   -1.21 KCAL/MOL
REMARK 922        TOTAL FREE ENERGY PREDICTED BY IDOCK:   -1.62 KCAL/MOL
REMARK 923 INTER-LIGAND FREE ENERGY PREDICTED BY IDOCK:   -1.32 KCAL/MOL
REMARK 924 INTRA-LIGAND FREE ENERGY PREDICTED BY IDOCK:   -0.30 KCAL/MOL
REMARK 927      BINDING AFFINITY PREDICTED BY RF-SCORE:    0.00 PKD
ROOT
HETATM    1  N   UNL     1      -9.167   6.326  69.814  1.00  0.00    -0.145 NA 
HETATM    2  C   UNL     1     -10.396   6.899  70.372  1.00  0.00    -0.202 C  
HETATM    3  H2  UNL     1      -9.338   5.410  69.399  1.00  0.00     0.000 HD 
HETATM    4  H1  UNL     1      -8.725   6.960  69.149  1.00  0.00     0.000 HD 
ENDROOT
BRANCH   2   5
HETATM    5  C   UNL     1     -11.060   5.948  71.371  1.00  0.00    -0.313 C  
BRANCH   5   6
HETATM    6  C   UNL     1     -10.066   5.318  72.284  1.00  0.00    -0.189 A  
HETATM    7  C   UNL     1      -9.495   5.825  73.432  1.00  0.00    -0.138 A  
HETATM    8  N   UNL     1      -8.648   4.849  73.876  1.00  0.00    -0.103 NA 
HETATM    9  C   UNL     1      -8.733   3.803  73.002  1.00  0.00    -0.094 A  
HETATM   10  H   UNL     1      -8.060   4.893  74.709  1.00  0.00     0.000 HD 
HETATM   11  N   UNL     1      -9.585   4.052  72.035  1.00  0.00    -0.135 NA 
ENDBRANCH   5   6
ENDBRANCH   2   5
TORSDOF 2
ENDMDL
MODEL      173
REMARK 921   NORMALIZED FREE ENERGY PREDICTED BY IDOCK:   -1.19 KCAL/MOL
REMARK 922        TOTAL FREE ENERGY PREDICTED BY IDOCK:   -1.59 KCAL/MOL
REMARK 923 INTER-LIGAND FREE ENERGY PREDICTED BY IDOCK:   -1.34 KCAL/MOL
REMARK 924 INTRA-LIGAND FREE ENERGY PREDICTED BY IDOCK:   -0.25 KCAL/MOL
REMARK 927      BINDING AFFINITY PREDICTED BY RF-SCORE:    0.00 PKD
ROOT
HETATM    1  N   UNL     1      -7.984   4.994  69.420  1.00  0.00    -0.075 NA 
HETATM    2  C   UNL     1      -7.409   6.340  69.341  1.00  0.00    -0.091 C  
HETATM    3  H2  UNL     1      -7.394   4.309  68.946  1.00  0.00     0.000 HD 
HETATM    4  H1  UNL     1      -8.171   4.720  70.384  1.00  0.00     0.000 HD 
ENDROOT
BRANCH   2   5
HETATM    5  C   UNL     1      -7.127   6.751  67.894  1.00  0.00    -0.085 C  
BRANCH   5   6
HETATM    6  C   UNL     1      -8.275   7.484  67.290  1.00  0.00    -0.115 A  
HETATM    7  C   UNL     1      -8.305   8.274  66.161  1.00  0.00    -0.124 A  
HETATM    8  N   UNL     1      -9.596   8.712  66.061  1.00  0.00    -0.389 NA 
HETATM    9  C   UNL     1     -10.292   8.182  67.109  1.00  0.00    -0.321 A  
HETATM   10  H   UNL     1      -9.971   9.323  65.335  1.00  0.00     0.000 HD 
HETATM   11  N   UNL     1      -9.525   7.431  67.864  1.00  0.00    -0.140 NA 
ENDBRANCH   5   6
ENDBRANCH   2   5
TORSDOF 2
ENDMDL
MODEL      174
REMARK 921   NORMALIZED FREE ENERGY PREDICTED BY IDOCK:   -1.17 KCAL/MOL
REMARK 922        TOTAL FREE ENERGY PREDICTED BY IDOCK:   -1.57 KCAL/MOL
REMARK 923 INTER-LIGAND FREE ENERGY PREDICTED BY IDOCK:   -1.32 KCAL/MOL
REMARK 924 INTRA-LIGAND FREE ENERGY PREDICTED BY IDOCK:   -0.25 KCAL/MOL
REMARK 927      BINDING AFFINITY PREDICTED BY RF-SCORE:    0.00 PKD
ROOT
HETATM    1  N   UNL     1      -7.160  16.502  69.067  1.00  0.00    -0.202 NA 
HETATM    2  C   UNL     1      -7.336  16.513  67.612  1.00  0.00    -0.138 C  
HETATM    3  H2  UNL     1      -6.982  15.559  69.414  1.00  0.00     0.000 HD 
HETATM    4  H1  UNL     1      -6.430  17.151  69.363  1.00  0.00     0.000 HD 
ENDROOT
BRANCH   2   5
HETATM    5  C   UNL     1      -8.430  15.539  67.168  1.00  0.00    -0.239 C  
BRANCH   5   6
HETATM    6  C   UNL     1      -8.057  14.122  67.436  1.00  0.00    -0.189 A  
HETATM    7  C   UNL     1      -8.783  12.973  67.206  1.00  0.00    -0.209 A  
HETATM    8  N   UNL     1      -7.987  11.950  67.641  1.00  0.00    -0.137 NA 
HETATM    9  C   UNL     1      -6.828  12.501  68.108  1.00  0.00    -0.084 A  
HETATM   10  H   UNL     1      -8.216  10.956  67.619  1.00  0.00     0.000 HD 
HETATM   11  N   UNL     1      -6.837  13.809  67.992  1.00  0.00    -0.121 NA 
ENDBRANCH   5   6
ENDBRANCH   2   5
TORSDOF 2
ENDMDL
MODEL      175
REMARK 921   NORMALIZED FREE ENERGY PREDICTED BY IDOCK:   -1.12 KCAL/MOL
REMARK 922        TOTAL FREE ENERGY PREDICTED BY IDOCK:   -1.52 KCAL/MOL
REMARK 923 INTER-LIGAND FREE ENERGY PREDICTED BY IDOCK:   -1.46 KCAL/MOL
REMARK 924 INTRA-LIGAND FREE ENERGY PREDICTED BY IDOCK:   -0.06 KCAL/MOL
REMARK 927      BINDING AFFINITY PREDICTED BY RF-SCORE:    0.00 PKD
ROOT
HETATM    1  N   UNL     1      -6.793  12.025  69.444  1.00  0.00    -0.275 NA 
HETATM    2  C   UNL     1      -7.052  11.198  68.261  1.00  0.00    -0.073 C  
HETATM    3  H2  UNL     1      -6.537  11.453  70.249  1.00  0.00     0.000 HD 
HETATM    4  H1  UNL     1      -6.089  12.740  69.256  1.00  0.00     0.000 HD 
ENDROOT
BRANCH   2   5
HETATM    5  C   UNL     1      -8.108  10.125  68.543  1.00  0.00    -0.106 C  
BRANCH   5   6
HETATM    6  C   UNL     1      -9.448  10.513  68.022  1.00  0.00    -0.148 A  
HETATM    7  C   UNL     1     -10.343  11.434  68.524  1.00  0.00    -0.205 A  
HETATM    8  N   UNL     1     -11.416  11.393  67.677  1.00  0.00    -0.460 NA 
HETATM    9  C   UNL     1     -11.141  10.470  66.710  1.00  0.00     0.011 A  
HETATM   10  H   UNL     1     -12.266  11.951  67.754  1.00  0.00     0.000 HD 
HETATM   11  N   UNL     1      -9.959   9.927  66.886  1.00  0.00    -0.201 NA 
ENDBRANCH   5   6
ENDBRANCH   2   5
TORSDOF 2
ENDMDL
MODEL      176
REMARK 921   NORMALIZED FREE ENERGY PREDICTED BY IDOCK:   -1.11 KCAL/MOL
REMARK 922        TOTAL FREE ENERGY PREDICTED BY IDOCK:   -1.50 KCAL/MOL
REMARK 923 INTER-LIGAND FREE ENERGY PREDICTED BY IDOCK:   -1.40 KCAL/MOL
REMARK 924 INTRA-LIGAND FREE ENERGY PREDICTED BY IDOCK:   -0.10 KCAL/MOL
REMARK 927      BINDING AFFINITY PREDICTED BY RF-SCORE:    0.00 PKD
ROOT
HETATM    1  N   UNL     1     -10.925  13.938  68.206  1.00  0.00    -0.247 NA 
HETATM    2  C   UNL     1     -10.304  15.079  67.528  1.00  0.00    -0.241 C  
HETATM    3  H2  UNL     1     -10.248  13.428  68.774  1.00  0.00     0.000 HD 
HETATM    4  H1  UNL     1     -11.734  14.223  68.758  1.00  0.00     0.000 HD 
ENDROOT
BRANCH   2   5
HETATM    5  C   UNL     1      -9.090  14.652  66.699  1.00  0.00    -0.285 C  
BRANCH   5   6
HETATM    6  C   UNL     1      -7.977  14.157  67.557  1.00  0.00    -0.188 A  
HETATM    7  C   UNL     1      -7.383  12.913  67.579  1.00  0.00    -0.154 A  
HETATM    8  N   UNL     1      -6.428  12.987  68.554  1.00  0.00    -0.077 NA 
HETATM    9  C   UNL     1      -6.472  14.247  69.078  1.00  0.00    -0.100 A  
HETATM   10  H   UNL     1      -5.796  12.237  68.837  1.00  0.00     0.000 HD 
HETATM   11  N   UNL     1      -7.391  14.979  68.493  1.00  0.00    -0.112 NA 
ENDBRANCH   5   6
ENDBRANCH   2   5
TORSDOF 2
ENDMDL
MODEL      177
REMARK 921   NORMALIZED FREE ENERGY PREDICTED BY IDOCK:   -1.11 KCAL/MOL
REMARK 922        TOTAL FREE ENERGY PREDICTED BY IDOCK:   -1.50 KCAL/MOL
REMARK 923 INTER-LIGAND FREE ENERGY PREDICTED BY IDOCK:   -1.26 KCAL/MOL
REMARK 924 INTRA-LIGAND FREE ENERGY PREDICTED BY IDOCK:   -0.24 KCAL/MOL
REMARK 927      BINDING AFFINITY PREDICTED BY RF-SCORE:    0.00 PKD
ROOT
HETATM    1  N   UNL     1     -10.983   8.467  68.656  1.00  0.00    -0.435 NA 
HETATM    2  C   UNL     1      -9.809   7.665  69.014  1.00  0.00    -0.168 C  
HETATM    3  H2  UNL     1     -10.780   9.100  67.881  1.00  0.00     0.000 HD 
HETATM    4  H1  UNL     1     -11.792   7.880  68.454  1.00  0.00     0.000 HD 
ENDROOT
BRANCH   2   5
HETATM    5  C   UNL     1      -8.594   8.546  69.316  1.00  0.00    -0.129 C  
BRANCH   5   6
HETATM    6  C   UNL     1      -8.062   9.201  68.089  1.00  0.00    -0.104 A  
HETATM    7  C   UNL     1      -6.784   9.170  67.571  1.00  0.00    -0.069 A  
HETATM    8  N   UNL     1      -6.833   9.942  66.444  1.00  0.00    -0.087 NA 
HETATM    9  C   UNL     1      -8.111  10.405  66.318  1.00  0.00    -0.136 A  
HETATM   10  H   UNL     1      -6.056  10.137  65.812  1.00  0.00     0.000 HD 
HETATM   11  N   UNL     1      -8.878   9.970  67.291  1.00  0.00    -0.134 NA 
ENDBRANCH   5   6
ENDBRANCH   2   5
TORSDOF 2
ENDMDL
MODEL      178
REMARK 921   NORMALIZED FREE ENERGY PREDICTED BY IDOCK:   -1.07 KCAL/MOL
REMARK 922        TOTAL FREE ENERGY PREDICTED BY IDOCK:   -1.46 KCAL/MOL
REMARK 923 INTER-LIGAND FREE ENERGY PREDICTED BY IDOCK:   -1.20 KCAL/MOL
REMARK 924 INTRA-LIGAND FREE ENERGY PREDICTED BY IDOCK:   -0.26 KCAL/MOL
REMARK 927      BINDING AFFINITY PREDICTED BY RF-SCORE:    0.00 PKD
ROOT
HETATM    1  N   UNL     1     -10.015   5.410  68.226  1.00  0.00    -0.150 NA 
HETATM    2  C   UNL     1     -10.130   6.344  67.102  1.00  0.00    -0.168 C  
HETATM    3  H2  UNL     1      -9.134   5.535  68.726  1.00  0.00     0.000 HD 
HETATM    4  H1  UNL     1     -10.814   5.479  68.856  1.00  0.00     0.000 HD 
ENDROOT
BRANCH   2   5
HETATM    5  C   UNL     1      -8.931   6.240  66.156  1.00  0.00    -0.164 C  
BRANCH   5   6
HETATM    6  C   UNL     1      -9.070   5.103  65.204  1.00  0.00    -0.095 A  
HETATM    7  C   UNL     1      -8.186   4.660  64.243  1.00  0.00    -0.113 A  
HETATM    8  N   UNL     1      -8.805   3.599  63.644  1.00  0.00    -0.095 NA 
HETATM    9  C   UNL     1     -10.018   3.435  64.251  1.00  0.00    -0.181 A  
HETATM   10  H   UNL     1      -8.430   3.032  62.884  1.00  0.00     0.000 HD 
HETATM   11  N   UNL     1     -10.204   4.323  65.200  1.00  0.00    -0.234 NA 
ENDBRANCH   5   6
ENDBRANCH   2   5
TORSDOF 2
ENDMDL
MODEL      179
REMARK 921   NORMALIZED FREE ENERGY PREDICTED BY IDOCK:   -1.05 KCAL/MOL
REMARK 922        TOTAL FREE ENERGY PREDICTED BY IDOCK:   -1.43 KCAL/MOL
REMARK 923 INTER-LIGAND FREE ENERGY PREDICTED BY IDOCK:   -1.12 KCAL/MOL
REMARK 924 INTRA-LIGAND FREE ENERGY PREDICTED BY IDOCK:   -0.31 KCAL/MOL
REMARK 927      BINDING AFFINITY PREDICTED BY RF-SCORE:    0.00 PKD
ROOT
HETATM    1  N   UNL     1      -8.487   8.314  68.659  1.00  0.00    -0.125 NA 
HETATM    2  C   UNL     1      -9.806   8.338  68.018  1.00  0.00    -0.169 C  
HETATM    3  H2  UNL     1      -7.787   8.788  68.088  1.00  0.00     0.000 HD 
HETATM    4  H1  UNL     1      -8.521   8.698  69.603  1.00  0.00     0.000 HD 
ENDROOT
BRANCH   2   5
HETATM    5  C   UNL     1      -9.756   7.761  66.601  1.00  0.00    -0.292 C  
BRANCH   5   6
HETATM    6  C   UNL     1      -8.897   6.548  66.523  1.00  0.00    -0.138 A  
HETATM    7  C   UNL     1      -7.851   6.275  65.667  1.00  0.00    -0.098 A  
HETATM    8  N   UNL     1      -7.417   5.026  66.013  1.00  0.00    -0.081 NA 
HETATM    9  C   UNL     1      -8.196   4.592  67.047  1.00  0.00    -0.106 A  
HETATM   10  H   UNL     1      -6.651   4.512  65.578  1.00  0.00     0.000 HD 
HETATM   11  N   UNL     1      -9.093   5.490  67.382  1.00  0.00    -0.111 NA 
ENDBRANCH   5   6
ENDBRANCH   2   5
TORSDOF 2
ENDMDL
MODEL      180
REMARK 921   NORMALIZED FREE ENERGY PREDICTED BY IDOCK:   -1.02 KCAL/MOL
REMARK 922        TOTAL FREE ENERGY PREDICTED BY IDOCK:   -1.41 KCAL/MOL
REMARK 923 INTER-LIGAND FREE ENERGY PREDICTED BY IDOCK:   -1.36 KCAL/MOL
REMARK 924 INTRA-LIGAND FREE ENERGY PREDICTED BY IDOCK:   -0.05 KCAL/MOL
REMARK 927      BINDING AFFINITY PREDICTED BY RF-SCORE:    0.00 PKD
ROOT
HETATM    1  N   UNL     1     -10.200   8.607  72.296  1.00  0.00    -0.322 NA 
HETATM    2  C   UNL     1     -10.138   7.256  71.729  1.00  0.00    -0.179 C  
HETATM    3  H2  UNL     1      -9.973   9.315  71.598  1.00  0.00     0.000 HD 
HETATM    4  H1  UNL     1     -11.104   8.791  72.732  1.00  0.00     0.000 HD 
ENDROOT
BRANCH   2   5
HETATM    5  C   UNL     1      -8.782   6.981  71.075  1.00  0.00    -0.139 C  
BRANCH   5   6
HETATM    6  C   UNL     1      -8.845   5.835  70.125  1.00  0.00    -0.140 A  
HETATM    7  C   UNL     1      -8.011   5.533  69.070  1.00  0.00    -0.095 A  
HETATM    8  N   UNL     1      -8.519   4.388  68.524  1.00  0.00    -0.091 NA 
HETATM    9  C   UNL     1      -9.621   4.039  69.252  1.00  0.00    -0.177 A  
HETATM   10  H   UNL     1      -8.144   3.885  67.719  1.00  0.00     0.000 HD 
HETATM   11  N   UNL     1      -9.839   4.889  70.229  1.00  0.00    -0.216 NA 
ENDBRANCH   5   6
ENDBRANCH   2   5
TORSDOF 2
ENDMDL
MODEL      181
REMARK 921   NORMALIZED FREE ENERGY PREDICTED BY IDOCK:   -0.95 KCAL/MOL
REMARK 922        TOTAL FREE ENERGY PREDICTED BY IDOCK:   -1.32 KCAL/MOL
REMARK 923 INTER-LIGAND FREE ENERGY PREDICTED BY IDOCK:   -1.11 KCAL/MOL
REMARK 924 INTRA-LIGAND FREE ENERGY PREDICTED BY IDOCK:   -0.22 KCAL/MOL
REMARK 927      BINDING AFFINITY PREDICTED BY RF-SCORE:    0.00 PKD
ROOT
HETATM    1  N   UNL     1      -7.815   4.834  70.127  1.00  0.00    -0.057 NA 
HETATM    2  C   UNL     1      -8.801   5.703  69.478  1.00  0.00    -0.112 C  
HETATM    3  H2  UNL     1      -7.570   5.177  71.056  1.00  0.00     0.000 HD 
HETATM    4  H1  UNL     1      -8.131   3.864  70.160  1.00  0.00     0.000 HD 
ENDROOT
BRANCH   2   5
HETATM    5  C   UNL     1      -8.328   7.157  69.429  1.00  0.00    -0.133 C  
BRANCH   5   6
HETATM    6  C   UNL     1      -7.962   7.670  70.779  1.00  0.00    -0.102 A  
HETATM    7  C   UNL     1      -8.607   8.607  71.558  1.00  0.00    -0.195 A  
HETATM    8  N   UNL     1      -7.850   8.716  72.692  1.00  0.00    -0.373 NA 
HETATM    9  C   UNL     1      -6.795   7.859  72.565  1.00  0.00    -0.075 A  
HETATM   10  H   UNL     1      -8.040   9.326  73.487  1.00  0.00     0.000 HD 
HETATM   11  N   UNL     1      -6.838   7.208  71.426  1.00  0.00    -0.059 NA 
ENDBRANCH   5   6
ENDBRANCH   2   5
TORSDOF 2
ENDMDL
MODEL      182
REMARK 921   NORMALIZED FREE ENERGY PREDICTED BY IDOCK:   -0.95 KCAL/MOL
REMARK 922        TOTAL FREE ENERGY PREDICTED BY IDOCK:   -1.32 KCAL/MOL
REMARK 923 INTER-LIGAND FREE ENERGY PREDICTED BY IDOCK:   -1.06 KCAL/MOL
REMARK 924 INTRA-LIGAND FREE ENERGY PREDICTED BY IDOCK:   -0.26 KCAL/MOL
REMARK 927      BINDING AFFINITY PREDICTED BY RF-SCORE:    0.00 PKD
ROOT
HETATM    1  N   UNL     1     -10.187   1.807  62.926  1.00  0.00    -0.102 NA 
HETATM    2  C   UNL     1     -10.581   3.218  62.851  1.00  0.00    -0.208 C  
HETATM    3  H2  UNL     1     -10.766   1.294  63.592  1.00  0.00     0.000 HD 
HETATM    4  H1  UNL     1     -10.196   1.365  62.007  1.00  0.00     0.000 HD 
ENDROOT
BRANCH   2   5
HETATM    5  C   UNL     1     -10.568   3.882  64.230  1.00  0.00    -0.239 C  
BRANCH   5   6
HETATM    6  C   UNL     1      -9.193   4.277  64.645  1.00  0.00    -0.156 A  
HETATM    7  C   UNL     1      -8.759   5.463  65.199  1.00  0.00    -0.133 A  
HETATM    8  N   UNL     1      -7.413   5.307  65.375  1.00  0.00    -0.076 NA 
HETATM    9  C   UNL     1      -7.082   4.058  64.934  1.00  0.00    -0.066 A  
HETATM   10  H   UNL     1      -6.772   5.998  65.766  1.00  0.00     0.000 HD 
HETATM   11  N   UNL     1      -8.135   3.410  64.494  1.00  0.00    -0.086 NA 
ENDBRANCH   5   6
ENDBRANCH   2   5
TORSDOF 2
ENDMDL
MODEL      183
REMARK 921   NORMALIZED FREE ENERGY PREDICTED BY IDOCK:   -0.94 KCAL/MOL
REMARK 922        TOTAL FREE ENERGY PREDICTED BY IDOCK:   -1.32 KCAL/MOL
REMARK 923 INTER-LIGAND FREE ENERGY PREDICTED BY IDOCK:   -1.27 KCAL/MOL
REMARK 924 INTRA-LIGAND FREE ENERGY PREDICTED BY IDOCK:   -0.05 KCAL/MOL
REMARK 927      BINDING AFFINITY PREDICTED BY RF-SCORE:    0.00 PKD
ROOT
HETATM    1  N   UNL     1      -6.393   5.853  68.331  1.00  0.00    -0.042 NA 
HETATM    2  C   UNL     1      -7.238   7.023  68.590  1.00  0.00    -0.094 C  
HETATM    3  H2  UNL     1      -6.940   4.991  68.330  1.00  0.00     0.000 HD 
HETATM    4  H1  UNL     1      -5.861   5.957  67.466  1.00  0.00     0.000 HD 
ENDROOT
BRANCH   2   5
HETATM    5  C   UNL     1      -8.036   6.867  69.887  1.00  0.00    -0.120 C  
BRANCH   5   6
HETATM    6  C   UNL     1      -9.073   7.926  70.033  1.00  0.00    -0.152 A  
HETATM    7  C   UNL     1      -9.511   8.564  71.174  1.00  0.00    -0.195 A  
HETATM    8  N   UNL     1     -10.476   9.435  70.753  1.00  0.00    -0.280 NA 
HETATM    9  C   UNL     1     -10.589   9.301  69.399  1.00  0.00    -0.223 A  
HETATM   10  H   UNL     1     -11.015  10.069  71.343  1.00  0.00     0.000 HD 
HETATM   11  N   UNL     1      -9.751   8.404  68.934  1.00  0.00    -0.164 NA 
ENDBRANCH   5   6
ENDBRANCH   2   5
TORSDOF 2
ENDMDL
MODEL      184
REMARK 921   NORMALIZED FREE ENERGY PREDICTED BY IDOCK:   -0.92 KCAL/MOL
REMARK 922        TOTAL FREE ENERGY PREDICTED BY IDOCK:   -1.29 KCAL/MOL
REMARK 923 INTER-LIGAND FREE ENERGY PREDICTED BY IDOCK:   -1.26 KCAL/MOL
REMARK 924 INTRA-LIGAND FREE ENERGY PREDICTED BY IDOCK:   -0.03 KCAL/MOL
REMARK 927      BINDING AFFINITY PREDICTED BY RF-SCORE:    0.00 PKD
ROOT
HETATM    1  N   UNL     1      -8.997   5.484  64.810  1.00  0.00    -0.359 NA 
HETATM    2  C   UNL     1      -9.323   5.685  66.225  1.00  0.00    -0.157 C  
HETATM    3  H2  UNL     1      -8.299   4.749  64.688  1.00  0.00     0.000 HD 
HETATM    4  H1  UNL     1      -9.832   5.301  64.254  1.00  0.00     0.000 HD 
ENDROOT
BRANCH   2   5
HETATM    5  C   UNL     1      -8.070   5.960  67.060  1.00  0.00    -0.102 C  
BRANCH   5   6
HETATM    6  C   UNL     1      -8.407   6.426  68.433  1.00  0.00    -0.116 A  
HETATM    7  C   UNL     1      -8.820   7.674  68.852  1.00  0.00    -0.135 A  
HETATM    8  N   UNL     1      -8.982   7.566  70.204  1.00  0.00    -0.147 NA 
HETATM    9  C   UNL     1      -8.669   6.284  70.555  1.00  0.00    -0.143 A  
HETATM   10  H   UNL     1      -9.281   8.308  70.837  1.00  0.00     0.000 HD 
HETATM   11  N   UNL     1      -8.326   5.570  69.508  1.00  0.00    -0.101 NA 
ENDBRANCH   5   6
ENDBRANCH   2   5
TORSDOF 2
ENDMDL
MODEL      185
REMARK 921   NORMALIZED FREE ENERGY PREDICTED BY IDOCK:   -0.91 KCAL/MOL
REMARK 922        TOTAL FREE ENERGY PREDICTED BY IDOCK:   -1.27 KCAL/MOL
REMARK 923 INTER-LIGAND FREE ENERGY PREDICTED BY IDOCK:   -1.23 KCAL/MOL
REMARK 924 INTRA-LIGAND FREE ENERGY PREDICTED BY IDOCK:   -0.04 KCAL/MOL
REMARK 927      BINDING AFFINITY PREDICTED BY RF-SCORE:    0.00 PKD
ROOT
HETATM    1  N   UNL     1      -5.155  13.462  69.303  1.00  0.00    -0.074 NA 
HETATM    2  C   UNL     1      -5.446  12.924  67.971  1.00  0.00    -0.100 C  
HETATM    3  H2  UNL     1      -5.447  12.816  70.038  1.00  0.00     0.000 HD 
HETATM    4  H1  UNL     1      -4.172  13.716  69.400  1.00  0.00     0.000 HD 
ENDROOT
BRANCH   2   5
HETATM    5  C   UNL     1      -6.921  12.542  67.825  1.00  0.00    -0.121 C  
BRANCH   5   6
HETATM    6  C   UNL     1      -7.805  13.740  67.798  1.00  0.00    -0.172 A  
HETATM    7  C   UNL     1      -7.569  14.984  67.252  1.00  0.00    -0.194 A  
HETATM    8  N   UNL     1      -8.696  15.712  67.513  1.00  0.00    -0.173 NA 
HETATM    9  C   UNL     1      -9.561  14.903  68.192  1.00  0.00    -0.210 A  
HETATM   10  H   UNL     1      -8.861  16.684  67.248  1.00  0.00     0.000 HD 
HETATM   11  N   UNL     1      -9.055  13.705  68.373  1.00  0.00    -0.189 NA 
ENDBRANCH   5   6
ENDBRANCH   2   5
TORSDOF 2
ENDMDL
MODEL      186
REMARK 921   NORMALIZED FREE ENERGY PREDICTED BY IDOCK:   -0.90 KCAL/MOL
REMARK 922        TOTAL FREE ENERGY PREDICTED BY IDOCK:   -1.26 KCAL/MOL
REMARK 923 INTER-LIGAND FREE ENERGY PREDICTED BY IDOCK:   -1.20 KCAL/MOL
REMARK 924 INTRA-LIGAND FREE ENERGY PREDICTED BY IDOCK:   -0.06 KCAL/MOL
REMARK 927      BINDING AFFINITY PREDICTED BY RF-SCORE:    0.00 PKD
ROOT
HETATM    1  N   UNL     1      -8.949   3.476  67.481  1.00  0.00    -0.131 NA 
HETATM    2  C   UNL     1      -9.842   4.514  66.956  1.00  0.00    -0.202 C  
HETATM    3  H2  UNL     1      -9.362   2.999  68.283  1.00  0.00     0.000 HD 
HETATM    4  H1  UNL     1      -8.675   2.813  66.755  1.00  0.00     0.000 HD 
ENDROOT
BRANCH   2   5
HETATM    5  C   UNL     1     -10.254   5.508  68.045  1.00  0.00    -0.233 C  
BRANCH   5   6
HETATM    6  C   UNL     1      -9.384   6.716  68.053  1.00  0.00    -0.113 A  
HETATM    7  C   UNL     1      -8.175   6.914  68.687  1.00  0.00    -0.121 A  
HETATM    8  N   UNL     1      -7.811   8.195  68.378  1.00  0.00    -0.116 NA 
HETATM    9  C   UNL     1      -8.789   8.720  67.583  1.00  0.00    -0.135 A  
HETATM   10  H   UNL     1      -6.963   8.672  68.686  1.00  0.00     0.000 HD 
HETATM   11  N   UNL     1      -9.747   7.850  67.363  1.00  0.00    -0.151 NA 
ENDBRANCH   5   6
ENDBRANCH   2   5
TORSDOF 2
ENDMDL
MODEL      187
REMARK 921   NORMALIZED FREE ENERGY PREDICTED BY IDOCK:   -0.88 KCAL/MOL
REMARK 922        TOTAL FREE ENERGY PREDICTED BY IDOCK:   -1.25 KCAL/MOL
REMARK 923 INTER-LIGAND FREE ENERGY PREDICTED BY IDOCK:   -1.21 KCAL/MOL
REMARK 924 INTRA-LIGAND FREE ENERGY PREDICTED BY IDOCK:   -0.03 KCAL/MOL
REMARK 927      BINDING AFFINITY PREDICTED BY RF-SCORE:    0.00 PKD
ROOT
HETATM    1  N   UNL     1      -8.974  11.779  67.645  1.00  0.00    -0.164 NA 
HETATM    2  C   UNL     1      -9.883  10.662  67.370  1.00  0.00    -0.170 C  
HETATM    3  H2  UNL     1      -8.435  12.033  66.817  1.00  0.00     0.000 HD 
HETATM    4  H1  UNL     1      -9.471  12.583  68.028  1.00  0.00     0.000 HD 
ENDROOT
BRANCH   2   5
HETATM    5  C   UNL     1      -9.138   9.454  66.797  1.00  0.00    -0.168 C  
BRANCH   5   6
HETATM    6  C   UNL     1      -9.366   8.224  67.604  1.00  0.00    -0.137 A  
HETATM    7  C   UNL     1     -10.497   7.827  68.285  1.00  0.00    -0.168 A  
HETATM    8  N   UNL     1     -10.170   6.633  68.865  1.00  0.00    -0.168 NA 
HETATM    9  C   UNL     1      -8.878   6.351  68.523  1.00  0.00    -0.119 A  
HETATM   10  H   UNL     1     -10.779   6.058  69.447  1.00  0.00     0.000 HD 
HETATM   11  N   UNL     1      -8.368   7.288  67.757  1.00  0.00    -0.118 NA 
ENDBRANCH   5   6
ENDBRANCH   2   5
TORSDOF 2
ENDMDL
MODEL      188
REMARK 921   NORMALIZED FREE ENERGY PREDICTED BY IDOCK:   -0.86 KCAL/MOL
REMARK 922        TOTAL FREE ENERGY PREDICTED BY IDOCK:   -1.23 KCAL/MOL
REMARK 923 INTER-LIGAND FREE ENERGY PREDICTED BY IDOCK:   -0.94 KCAL/MOL
REMARK 924 INTRA-LIGAND FREE ENERGY PREDICTED BY IDOCK:   -0.29 KCAL/MOL
REMARK 927      BINDING AFFINITY PREDICTED BY RF-SCORE:    0.00 PKD
ROOT
HETATM    1  N   UNL     1      -6.499   5.841  68.966  1.00  0.00    -0.047 NA 
HETATM    2  C   UNL     1      -7.835   5.862  68.363  1.00  0.00    -0.105 C  
HETATM    3  H2  UNL     1      -6.225   4.895  69.233  1.00  0.00     0.000 HD 
HETATM    4  H1  UNL     1      -5.804   6.272  68.356  1.00  0.00     0.000 HD 
ENDROOT
BRANCH   2   5
HETATM    5  C   UNL     1      -8.878   5.216  69.278  1.00  0.00    -0.115 C  
BRANCH   5   6
HETATM    6  C   UNL     1      -8.877   5.822  70.638  1.00  0.00    -0.140 A  
HETATM    7  C   UNL     1      -9.572   6.919  71.103  1.00  0.00    -0.166 A  
HETATM    8  N   UNL     1      -9.204   7.051  72.412  1.00  0.00    -0.133 NA 
HETATM    9  C   UNL     1      -8.318   6.051  72.693  1.00  0.00    -0.118 A  
HETATM   10  H   UNL     1      -9.531   7.767  73.062  1.00  0.00     0.000 HD 
HETATM   11  N   UNL     1      -8.106   5.288  71.646  1.00  0.00    -0.114 NA 
ENDBRANCH   5   6
ENDBRANCH   2   5
TORSDOF 2
ENDMDL
MODEL      189
REMARK 921   NORMALIZED FREE ENERGY PREDICTED BY IDOCK:   -0.84 KCAL/MOL
REMARK 922        TOTAL FREE ENERGY PREDICTED BY IDOCK:   -1.20 KCAL/MOL
REMARK 923 INTER-LIGAND FREE ENERGY PREDICTED BY IDOCK:   -0.95 KCAL/MOL
REMARK 924 INTRA-LIGAND FREE ENERGY PREDICTED BY IDOCK:   -0.24 KCAL/MOL
REMARK 927      BINDING AFFINITY PREDICTED BY RF-SCORE:    0.00 PKD
ROOT
HETATM    1  N   UNL     1      -6.510   7.044  68.556  1.00  0.00    -0.035 NA 
HETATM    2  C   UNL     1      -6.904   7.526  69.883  1.00  0.00    -0.047 C  
HETATM    3  H2  UNL     1      -7.135   7.395  67.830  1.00  0.00     0.000 HD 
HETATM    4  H1  UNL     1      -5.536   7.268  68.348  1.00  0.00     0.000 HD 
ENDROOT
BRANCH   2   5
HETATM    5  C   UNL     1      -8.365   7.189  70.195  1.00  0.00    -0.137 C  
BRANCH   5   6
HETATM    6  C   UNL     1      -9.067   6.614  69.015  1.00  0.00    -0.133 A  
HETATM    7  C   UNL     1      -9.446   5.309  68.778  1.00  0.00    -0.128 A  
HETATM    8  N   UNL     1     -10.043   5.324  67.548  1.00  0.00    -0.175 NA 
HETATM    9  C   UNL     1     -10.009   6.610  67.091  1.00  0.00    -0.160 A  
HETATM   10  H   UNL     1     -10.441   4.520  67.062  1.00  0.00     0.000 HD 
HETATM   11  N   UNL     1      -9.434   7.413  67.955  1.00  0.00    -0.140 NA 
ENDBRANCH   5   6
ENDBRANCH   2   5
TORSDOF 2
ENDMDL
MODEL      190
REMARK 921   NORMALIZED FREE ENERGY PREDICTED BY IDOCK:   -0.81 KCAL/MOL
REMARK 922        TOTAL FREE ENERGY PREDICTED BY IDOCK:   -1.16 KCAL/MOL
REMARK 923 INTER-LIGAND FREE ENERGY PREDICTED BY IDOCK:   -1.11 KCAL/MOL
REMARK 924 INTRA-LIGAND FREE ENERGY PREDICTED BY IDOCK:   -0.05 KCAL/MOL
REMARK 927      BINDING AFFINITY PREDICTED BY RF-SCORE:    0.00 PKD
ROOT
HETATM    1  N   UNL     1      -7.322   1.569  63.764  1.00  0.00    -0.046 NA 
HETATM    2  C   UNL     1      -8.284   2.674  63.704  1.00  0.00    -0.082 C  
HETATM    3  H2  UNL     1      -7.794   0.665  63.800  1.00  0.00     0.000 HD 
HETATM    4  H1  UNL     1      -6.653   1.610  62.994  1.00  0.00     0.000 HD 
ENDROOT
BRANCH   2   5
HETATM    5  C   UNL     1      -9.287   2.613  64.858  1.00  0.00    -0.127 C  
BRANCH   5   6
HETATM    6  C   UNL     1      -9.353   3.899  65.606  1.00  0.00    -0.161 A  
HETATM    7  C   UNL     1      -8.324   4.677  66.093  1.00  0.00    -0.110 A  
HETATM    8  N   UNL     1      -8.931   5.737  66.705  1.00  0.00    -0.116 NA 
HETATM    9  C   UNL     1     -10.280   5.572  66.571  1.00  0.00    -0.228 A  
HETATM   10  H   UNL     1      -8.462   6.511  67.176  1.00  0.00     0.000 HD 
HETATM   11  N   UNL     1     -10.566   4.476  65.907  1.00  0.00    -0.245 NA 
ENDBRANCH   5   6
ENDBRANCH   2   5
TORSDOF 2
ENDMDL
MODEL      191
REMARK 921   NORMALIZED FREE ENERGY PREDICTED BY IDOCK:   -0.80 KCAL/MOL
REMARK 922        TOTAL FREE ENERGY PREDICTED BY IDOCK:   -1.15 KCAL/MOL
REMARK 923 INTER-LIGAND FREE ENERGY PREDICTED BY IDOCK:   -0.90 KCAL/MOL
REMARK 924 INTRA-LIGAND FREE ENERGY PREDICTED BY IDOCK:   -0.26 KCAL/MOL
REMARK 927      BINDING AFFINITY PREDICTED BY RF-SCORE:    0.00 PKD
ROOT
HETATM    1  N   UNL     1      -9.748   4.868  68.121  1.00  0.00    -0.147 NA 
HETATM    2  C   UNL     1      -9.035   4.222  67.014  1.00  0.00    -0.123 C  
HETATM    3  H2  UNL     1     -10.755   4.884  67.957  1.00  0.00     0.000 HD 
HETATM    4  H1  UNL     1      -9.523   4.436  69.017  1.00  0.00     0.000 HD 
ENDROOT
BRANCH   2   5
HETATM    5  C   UNL     1      -9.372   4.871  65.670  1.00  0.00    -0.167 C  
BRANCH   5   6
HETATM    6  C   UNL     1      -8.427   5.971  65.330  1.00  0.00    -0.145 A  
HETATM    7  C   UNL     1      -7.992   6.394  64.092  1.00  0.00    -0.096 A  
HETATM    8  N   UNL     1      -7.130   7.424  64.344  1.00  0.00    -0.059 NA 
HETATM    9  C   UNL     1      -7.072   7.589  65.698  1.00  0.00    -0.061 A  
HETATM   10  H   UNL     1      -6.621   7.969  63.647  1.00  0.00     0.000 HD 
HETATM   11  N   UNL     1      -7.849   6.733  66.320  1.00  0.00    -0.101 NA 
ENDBRANCH   5   6
ENDBRANCH   2   5
TORSDOF 2
ENDMDL
MODEL      192
REMARK 921   NORMALIZED FREE ENERGY PREDICTED BY IDOCK:   -0.79 KCAL/MOL
REMARK 922        TOTAL FREE ENERGY PREDICTED BY IDOCK:   -1.14 KCAL/MOL
REMARK 923 INTER-LIGAND FREE ENERGY PREDICTED BY IDOCK:   -0.88 KCAL/MOL
REMARK 924 INTRA-LIGAND FREE ENERGY PREDICTED BY IDOCK:   -0.26 KCAL/MOL
REMARK 927      BINDING AFFINITY PREDICTED BY RF-SCORE:    0.00 PKD
ROOT
HETATM    1  N   UNL     1      -7.035   9.479  65.861  1.00  0.00    -0.089 NA 
HETATM    2  C   UNL     1      -7.442   8.284  65.115  1.00  0.00    -0.085 C  
HETATM    3  H2  UNL     1      -7.157   9.351  66.866  1.00  0.00     0.000 HD 
HETATM    4  H1  UNL     1      -6.080   9.756  65.634  1.00  0.00     0.000 HD 
ENDROOT
BRANCH   2   5
HETATM    5  C   UNL     1      -8.875   7.867  65.456  1.00  0.00    -0.070 C  
BRANCH   5   6
HETATM    6  C   UNL     1      -8.936   7.043  66.694  1.00  0.00    -0.142 A  
HETATM    7  C   UNL     1      -9.663   5.897  66.942  1.00  0.00    -0.147 A  
HETATM    8  N   UNL     1      -9.366   5.554  68.232  1.00  0.00    -0.109 NA 
HETATM    9  C   UNL     1      -8.487   6.481  68.712  1.00  0.00    -0.122 A  
HETATM   10  H   UNL     1      -9.734   4.750  68.742  1.00  0.00     0.000 HD 
HETATM   11  N   UNL     1      -8.203   7.388  67.807  1.00  0.00    -0.118 NA 
ENDBRANCH   5   6
ENDBRANCH   2   5
TORSDOF 2
ENDMDL
MODEL      193
REMARK 921   NORMALIZED FREE ENERGY PREDICTED BY IDOCK:   -0.78 KCAL/MOL
REMARK 922        TOTAL FREE ENERGY PREDICTED BY IDOCK:   -1.13 KCAL/MOL
REMARK 923 INTER-LIGAND FREE ENERGY PREDICTED BY IDOCK:   -0.82 KCAL/MOL
REMARK 924 INTRA-LIGAND FREE ENERGY PREDICTED BY IDOCK:   -0.31 KCAL/MOL
REMARK 927      BINDING AFFINITY PREDICTED BY RF-SCORE:    0.00 PKD
ROOT
HETATM    1  N   UNL     1      -9.708   3.245  69.952  1.00  0.00    -0.092 NA 
HETATM    2  C   UNL     1      -9.982   4.600  70.439  1.00  0.00    -0.230 C  
HETATM    3  H2  UNL     1     -10.232   2.546  70.479  1.00  0.00     0.000 HD 
HETATM    4  H1  UNL     1      -9.882   3.163  68.950  1.00  0.00     0.000 HD 
ENDROOT
BRANCH   2   5
HETATM    5  C   UNL     1      -9.721   4.724  71.942  1.00  0.00    -0.219 C  
BRANCH   5   6
HETATM    6  C   UNL     1      -8.477   4.015  72.351  1.00  0.00    -0.099 A  
HETATM    7  C   UNL     1      -8.278   3.140  73.398  1.00  0.00    -0.074 A  
HETATM    8  N   UNL     1      -6.958   2.791  73.331  1.00  0.00    -0.037 NA 
HETATM    9  C   UNL     1      -6.412   3.449  72.267  1.00  0.00    -0.014 A  
HETATM   10  H   UNL     1      -6.470   2.154  73.962  1.00  0.00     0.000 HD 
HETATM   11  N   UNL     1      -7.304   4.190  71.651  1.00  0.00    -0.057 NA 
ENDBRANCH   5   6
ENDBRANCH   2   5
TORSDOF 2
ENDMDL
MODEL      194
REMARK 921   NORMALIZED FREE ENERGY PREDICTED BY IDOCK:   -0.77 KCAL/MOL
REMARK 922        TOTAL FREE ENERGY PREDICTED BY IDOCK:   -1.13 KCAL/MOL
REMARK 923 INTER-LIGAND FREE ENERGY PREDICTED BY IDOCK:   -1.08 KCAL/MOL
REMARK 924 INTRA-LIGAND FREE ENERGY PREDICTED BY IDOCK:   -0.04 KCAL/MOL
REMARK 927      BINDING AFFINITY PREDICTED BY RF-SCORE:    0.00 PKD
ROOT
HETATM    1  N   UNL     1      -9.073  11.692  68.122  1.00  0.00    -0.177 NA 
HETATM    2  C   UNL     1      -9.356  10.492  67.327  1.00  0.00    -0.146 C  
HETATM    3  H2  UNL     1      -8.373  12.282  67.670  1.00  0.00     0.000 HD 
HETATM    4  H1  UNL     1      -9.923  12.215  68.330  1.00  0.00     0.000 HD 
ENDROOT
BRANCH   2   5
HETATM    5  C   UNL     1      -8.080   9.707  67.015  1.00  0.00    -0.113 C  
BRANCH   5   6
HETATM    6  C   UNL     1      -7.834   9.602  65.550  1.00  0.00    -0.111 A  
HETATM    7  C   UNL     1      -6.919  10.277  64.771  1.00  0.00    -0.093 A  
HETATM    8  N   UNL     1      -7.119   9.817  63.499  1.00  0.00    -0.111 NA 
HETATM    9  C   UNL     1      -8.127   8.897  63.549  1.00  0.00    -0.168 A  
HETATM   10  H   UNL     1      -6.608  10.108  62.665  1.00  0.00     0.000 HD 
HETATM   11  N   UNL     1      -8.574   8.740  64.773  1.00  0.00    -0.164 NA 
ENDBRANCH   5   6
ENDBRANCH   2   5
TORSDOF 2
ENDMDL
MODEL      195
REMARK 921   NORMALIZED FREE ENERGY PREDICTED BY IDOCK:   -0.76 KCAL/MOL
REMARK 922        TOTAL FREE ENERGY PREDICTED BY IDOCK:   -1.11 KCAL/MOL
REMARK 923 INTER-LIGAND FREE ENERGY PREDICTED BY IDOCK:   -1.05 KCAL/MOL
REMARK 924 INTRA-LIGAND FREE ENERGY PREDICTED BY IDOCK:   -0.06 KCAL/MOL
REMARK 927      BINDING AFFINITY PREDICTED BY RF-SCORE:    0.00 PKD
ROOT
HETATM    1  N   UNL     1     -10.120   5.628  71.382  1.00  0.00    -0.193 NA 
HETATM    2  C   UNL     1      -9.251   4.495  71.047  1.00  0.00    -0.140 C  
HETATM    3  H2  UNL     1     -10.610   5.977  70.558  1.00  0.00     0.000 HD 
HETATM    4  H1  UNL     1     -10.771   5.393  72.131  1.00  0.00     0.000 HD 
ENDROOT
BRANCH   2   5
HETATM    5  C   UNL     1      -8.273   4.846  69.923  1.00  0.00    -0.073 C  
BRANCH   5   6
HETATM    6  C   UNL     1      -8.636   4.179  68.642  1.00  0.00    -0.093 A  
HETATM    7  C   UNL     1      -9.883   3.974  68.090  1.00  0.00     0.008 A  
HETATM    8  N   UNL     1      -9.654   3.309  66.918  1.00  0.00    -0.398 NA 
HETATM    9  C   UNL     1      -8.304   3.138  66.800  1.00  0.00    -0.092 A  
HETATM   10  H   UNL     1     -10.362   2.998  66.253  1.00  0.00     0.000 HD 
HETATM   11  N   UNL     1      -7.663   3.658  67.820  1.00  0.00    -0.069 NA 
ENDBRANCH   5   6
ENDBRANCH   2   5
TORSDOF 2
ENDMDL
MODEL      196
REMARK 921   NORMALIZED FREE ENERGY PREDICTED BY IDOCK:   -0.75 KCAL/MOL
REMARK 922        TOTAL FREE ENERGY PREDICTED BY IDOCK:   -1.10 KCAL/MOL
REMARK 923 INTER-LIGAND FREE ENERGY PREDICTED BY IDOCK:   -1.04 KCAL/MOL
REMARK 924 INTRA-LIGAND FREE ENERGY PREDICTED BY IDOCK:   -0.06 KCAL/MOL
REMARK 927      BINDING AFFINITY PREDICTED BY RF-SCORE:    0.00 PKD
ROOT
HETATM    1  N   UNL     1      -5.739   1.755  63.954  1.00  0.00    -0.008 NA 
HETATM    2  C   UNL     1      -6.544   2.054  62.766  1.00  0.00    -0.017 C  
HETATM    3  H2  UNL     1      -5.787   0.765  64.198  1.00  0.00     0.000 HD 
HETATM    4  H1  UNL     1      -4.773   2.064  63.842  1.00  0.00     0.000 HD 
ENDROOT
BRANCH   2   5
HETATM    5  C   UNL     1      -7.993   1.590  62.935  1.00  0.00    -0.055 C  
BRANCH   5   6
HETATM    6  C   UNL     1      -8.902   2.717  63.282  1.00  0.00    -0.088 A  
HETATM    7  C   UNL     1      -8.653   4.073  63.262  1.00  0.00    -0.099 A  
HETATM    8  N   UNL     1      -9.815   4.660  63.678  1.00  0.00    -0.360 NA 
HETATM    9  C   UNL     1     -10.712   3.662  63.931  1.00  0.00    -0.255 A  
HETATM   10  H   UNL     1      -9.981   5.661  63.782  1.00  0.00     0.000 HD 
HETATM   11  N   UNL     1     -10.193   2.479  63.694  1.00  0.00    -0.155 NA 
ENDBRANCH   5   6
ENDBRANCH   2   5
TORSDOF 2
ENDMDL
MODEL      197
REMARK 921   NORMALIZED FREE ENERGY PREDICTED BY IDOCK:   -0.73 KCAL/MOL
REMARK 922        TOTAL FREE ENERGY PREDICTED BY IDOCK:   -1.08 KCAL/MOL
REMARK 923 INTER-LIGAND FREE ENERGY PREDICTED BY IDOCK:   -1.02 KCAL/MOL
REMARK 924 INTRA-LIGAND FREE ENERGY PREDICTED BY IDOCK:   -0.06 KCAL/MOL
REMARK 927      BINDING AFFINITY PREDICTED BY RF-SCORE:    0.00 PKD
ROOT
HETATM    1  N   UNL     1      -9.919  11.979  68.871  1.00  0.00    -0.414 NA 
HETATM    2  C   UNL     1      -9.468  10.721  68.267  1.00  0.00    -0.164 C  
HETATM    3  H2  UNL     1      -9.225  12.350  69.521  1.00  0.00     0.000 HD 
HETATM    4  H1  UNL     1     -10.171  12.668  68.162  1.00  0.00     0.000 HD 
ENDROOT
BRANCH   2   5
HETATM    5  C   UNL     1      -9.089   9.688  69.331  1.00  0.00    -0.194 C  
BRANCH   5   6
HETATM    6  C   UNL     1      -7.624   9.425  69.355  1.00  0.00    -0.083 A  
HETATM    7  C   UNL     1      -6.588  10.231  68.932  1.00  0.00    -0.052 A  
HETATM    8  N   UNL     1      -5.450   9.510  69.167  1.00  0.00    -0.036 NA 
HETATM    9  C   UNL     1      -5.826   8.317  69.715  1.00  0.00    -0.026 A  
HETATM   10  H   UNL     1      -4.495   9.809  68.969  1.00  0.00     0.000 HD 
HETATM   11  N   UNL     1      -7.129   8.238  69.848  1.00  0.00    -0.054 NA 
ENDBRANCH   5   6
ENDBRANCH   2   5
TORSDOF 2
ENDMDL
MODEL      198
REMARK 921   NORMALIZED FREE ENERGY PREDICTED BY IDOCK:   -0.73 KCAL/MOL
REMARK 922        TOTAL FREE ENERGY PREDICTED BY IDOCK:   -1.08 KCAL/MOL
REMARK 923 INTER-LIGAND FREE ENERGY PREDICTED BY IDOCK:   -0.81 KCAL/MOL
REMARK 924 INTRA-LIGAND FREE ENERGY PREDICTED BY IDOCK:   -0.27 KCAL/MOL
REMARK 927      BINDING AFFINITY PREDICTED BY RF-SCORE:    0.00 PKD
ROOT
HETATM    1  N   UNL     1      -7.347   1.740  64.110  1.00  0.00    -0.055 NA 
HETATM    2  C   UNL     1      -8.269   2.875  64.004  1.00  0.00    -0.083 C  
HETATM    3  H2  UNL     1      -7.850   0.857  64.193  1.00  0.00     0.000 HD 
HETATM    4  H1  UNL     1      -6.685   1.719  63.333  1.00  0.00     0.000 HD 
ENDROOT
BRANCH   2   5
HETATM    5  C   UNL     1      -9.262   2.906  65.168  1.00  0.00    -0.145 C  
BRANCH   5   6
HETATM    6  C   UNL     1      -8.642   3.437  66.414  1.00  0.00    -0.119 A  
HETATM    7  C   UNL     1      -9.190   3.563  67.673  1.00  0.00    -0.188 A  
HETATM    8  N   UNL     1      -8.204   4.115  68.442  1.00  0.00    -0.083 NA 
HETATM    9  C   UNL     1      -7.114   4.300  67.642  1.00  0.00    -0.064 A  
HETATM   10  H   UNL     1      -8.271   4.346  69.434  1.00  0.00     0.000 HD 
HETATM   11  N   UNL     1      -7.344   3.895  66.415  1.00  0.00    -0.074 NA 
ENDBRANCH   5   6
ENDBRANCH   2   5
TORSDOF 2
ENDMDL
MODEL      199
REMARK 921   NORMALIZED FREE ENERGY PREDICTED BY IDOCK:   -0.69 KCAL/MOL
REMARK 922        TOTAL FREE ENERGY PREDICTED BY IDOCK:   -1.03 KCAL/MOL
REMARK 923 INTER-LIGAND FREE ENERGY PREDICTED BY IDOCK:   -0.81 KCAL/MOL
REMARK 924 INTRA-LIGAND FREE ENERGY PREDICTED BY IDOCK:   -0.22 KCAL/MOL
REMARK 927      BINDING AFFINITY PREDICTED BY RF-SCORE:    0.00 PKD
ROOT
HETATM    1  N   UNL     1      -6.004   6.021  69.386  1.00  0.00    -0.026 NA 
HETATM    2  C   UNL     1      -6.315   5.536  68.038  1.00  0.00    -0.042 C  
HETATM    3  H2  UNL     1      -6.480   5.467  70.100  1.00  0.00     0.000 HD 
HETATM    4  H1  UNL     1      -4.998   6.056  69.551  1.00  0.00     0.000 HD 
ENDROOT
BRANCH   2   5
HETATM    5  C   UNL     1      -7.824   5.483  67.790  1.00  0.00    -0.097 C  
BRANCH   5   6
HETATM    6  C   UNL     1      -8.379   4.121  68.026  1.00  0.00    -0.093 A  
HETATM    7  C   UNL     1      -9.597   3.600  67.642  1.00  0.00    -0.140 A  
HETATM    8  N   UNL     1      -9.607   2.319  68.118  1.00  0.00    -0.304 NA 
HETATM    9  C   UNL     1      -8.420   2.109  68.760  1.00  0.00    -0.059 A  
HETATM   10  H   UNL     1     -10.364   1.642  68.014  1.00  0.00     0.000 HD 
HETATM   11  N   UNL     1      -7.655   3.175  68.715  1.00  0.00    -0.048 NA 
ENDBRANCH   5   6
ENDBRANCH   2   5
TORSDOF 2
ENDMDL
