MODEL        1
REMARK 921   NORMALIZED FREE ENERGY PREDICTED BY IDOCK:   -6.53 KCAL/MOL
REMARK 922        TOTAL FREE ENERGY PREDICTED BY IDOCK:   -8.69 KCAL/MOL
REMARK 923 INTER-LIGAND FREE ENERGY PREDICTED BY IDOCK:   -8.05 KCAL/MOL
REMARK 924 INTRA-LIGAND FREE ENERGY PREDICTED BY IDOCK:   -0.64 KCAL/MOL
REMARK 927      BINDING AFFINITY PREDICTED BY RF-SCORE:    0.00 PKD
ROOT
HETATM    1 BR   UNL     1      -5.781  20.983  64.029  1.00  0.00    -0.303 Br 
HETATM    2  C   UNL     2      -6.992  20.959  67.777  1.00  0.00    -0.262 C  
HETATM    3  N   UNL     2      -7.490  19.482  67.933  1.00  0.00    -0.267 N  
HETATM    4  C   UNL     2      -6.372  18.818  68.711  1.00  0.00    -0.236 C  
HETATM    5  C   UNL     2      -7.740  18.881  66.520  1.00  0.00    -0.259 C  
HETATM    6  C   UNL     2      -8.991  19.652  66.053  1.00  0.00    -0.279 C  
HETATM    7  C   UNL     2      -9.719  20.053  67.350  1.00  0.00    -0.550 C  
HETATM    8  C   UNL     2      -8.927  19.386  68.494  1.00  0.00    -0.370 C  
HETATM    9  C   UNL     2      -9.249  17.892  68.760  1.00  0.00    -0.227 C  
HETATM   10  C   UNL     2      -9.254  17.035  67.495  1.00  0.00    -0.231 C  
HETATM   11  C   UNL     2      -8.045  17.369  66.628  1.00  0.00    -0.294 C  
ENDROOT
BRANCH  10  12
HETATM   12  O   UNL     2     -10.423  17.337  66.704  1.00  0.00    -0.313 OA 
BRANCH  12  13
HETATM   13  C   UNL     2     -10.845  16.455  65.750  1.00  0.00    -0.145 C  
HETATM   14  O   UNL     2     -11.070  16.737  64.578  1.00  0.00    -0.989 OA 
BRANCH  13  15
HETATM   15  C   UNL     2     -10.990  15.059  66.402  1.00  0.00    -0.336 C  
HETATM   16  O   UNL     2     -11.997  14.987  67.413  1.00  0.00    -0.396 OA 
HETATM   17  H   UNL     2     -12.086  14.131  67.813  1.00  0.00     0.000 HD 
BRANCH  15  18
HETATM   18  C   UNL     2     -11.214  14.011  65.332  1.00  0.00    -0.319 A  
HETATM   19  C   UNL     2     -12.525  13.547  65.108  1.00  0.00    -0.495 A  
HETATM   20  C   UNL     2     -12.779  12.546  64.193  1.00  0.00    -0.417 A  
HETATM   21  C   UNL     2     -11.737  11.976  63.473  1.00  0.00    -0.566 A  
HETATM   22  C   UNL     2     -10.427  12.414  63.675  1.00  0.00    -0.460 A  
HETATM   23  C   UNL     2     -10.165  13.421  64.606  1.00  0.00    -0.338 A  
ENDBRANCH  15  18
ENDBRANCH  13  15
ENDBRANCH  12  13
ENDBRANCH  10  12
TORSDOF 4
ENDMDL
MODEL        2
REMARK 921   NORMALIZED FREE ENERGY PREDICTED BY IDOCK:   -6.52 KCAL/MOL
REMARK 922        TOTAL FREE ENERGY PREDICTED BY IDOCK:   -8.69 KCAL/MOL
REMARK 923 INTER-LIGAND FREE ENERGY PREDICTED BY IDOCK:   -7.64 KCAL/MOL
REMARK 924 INTRA-LIGAND FREE ENERGY PREDICTED BY IDOCK:   -1.04 KCAL/MOL
REMARK 927      BINDING AFFINITY PREDICTED BY RF-SCORE:    0.00 PKD
ROOT
HETATM    1 BR   UNL     1      -5.633  15.562  70.348  1.00  0.00    -0.115 Br 
HETATM    2  C   UNL     2      -6.430  18.875  68.372  1.00  0.00    -0.230 C  
HETATM    3  N   UNL     2      -7.937  18.663  68.007  1.00  0.00    -0.266 N  
HETATM    4  C   UNL     2      -8.663  19.555  68.994  1.00  0.00    -0.177 C  
HETATM    5  C   UNL     2      -8.279  17.150  68.128  1.00  0.00    -0.224 C  
HETATM    6  C   UNL     2      -7.515  16.545  66.933  1.00  0.00    -0.256 C  
HETATM    7  C   UNL     2      -7.409  17.689  65.907  1.00  0.00    -0.213 C  
HETATM    8  C   UNL     2      -8.226  18.856  66.501  1.00  0.00    -0.297 C  
HETATM    9  C   UNL     2      -9.761  18.788  66.284  1.00  0.00    -0.354 C  
HETATM   10  C   UNL     2     -10.366  17.430  66.638  1.00  0.00    -0.306 C  
HETATM   11  C   UNL     2      -9.801  16.931  67.963  1.00  0.00    -0.264 C  
ENDROOT
BRANCH  10  12
HETATM   12  O   UNL     2      -9.995  16.454  65.641  1.00  0.00    -0.469 OA 
BRANCH  12  13
HETATM   13  C   UNL     2     -10.926  16.010  64.745  1.00  0.00    -0.356 C  
HETATM   14  O   UNL     2     -11.621  16.729  64.034  1.00  0.00    -1.195 OA 
BRANCH  13  15
HETATM   15  C   UNL     2     -10.952  14.464  64.787  1.00  0.00    -0.397 C  
HETATM   16  O   UNL     2      -9.925  13.841  64.014  1.00  0.00    -0.604 OA 
HETATM   17  H   UNL     2      -9.941  12.892  64.039  1.00  0.00     0.000 HD 
BRANCH  15  18
HETATM   18  C   UNL     2     -10.921  13.985  66.224  1.00  0.00    -0.300 A  
HETATM   19  C   UNL     2      -9.800  13.255  66.666  1.00  0.00    -0.276 A  
HETATM   20  C   UNL     2      -9.746  12.738  67.944  1.00  0.00    -0.217 A  
HETATM   21  C   UNL     2     -10.806  12.931  68.820  1.00  0.00    -0.277 A  
HETATM   22  C   UNL     2     -11.931  13.649  68.410  1.00  0.00    -0.391 A  
HETATM   23  C   UNL     2     -11.992  14.167  67.115  1.00  0.00    -0.460 A  
ENDBRANCH  15  18
ENDBRANCH  13  15
ENDBRANCH  12  13
ENDBRANCH  10  12
TORSDOF 4
ENDMDL
MODEL        3
REMARK 921   NORMALIZED FREE ENERGY PREDICTED BY IDOCK:   -6.48 KCAL/MOL
REMARK 922        TOTAL FREE ENERGY PREDICTED BY IDOCK:   -8.63 KCAL/MOL
REMARK 923 INTER-LIGAND FREE ENERGY PREDICTED BY IDOCK:   -8.07 KCAL/MOL
REMARK 924 INTRA-LIGAND FREE ENERGY PREDICTED BY IDOCK:   -0.57 KCAL/MOL
REMARK 927      BINDING AFFINITY PREDICTED BY RF-SCORE:    0.00 PKD
ROOT
HETATM    1 BR   UNL     1      -6.445  11.009  66.549  1.00  0.00    -0.127 Br 
HETATM    2  C   UNL     2     -10.018  10.576  64.949  1.00  0.00    -0.334 C  
HETATM    3  N   UNL     2     -10.558  12.045  64.993  1.00  0.00    -0.278 N  
HETATM    4  C   UNL     2     -10.415  12.511  63.558  1.00  0.00    -0.322 C  
HETATM    5  C   UNL     2      -9.725  12.859  66.024  1.00  0.00    -0.223 C  
HETATM    6  C   UNL     2     -10.181  12.252  67.366  1.00  0.00    -0.213 C  
HETATM    7  C   UNL     2     -11.602  11.720  67.100  1.00  0.00    -0.342 C  
HETATM    8  C   UNL     2     -11.947  12.159  65.661  1.00  0.00    -0.208 C  
HETATM    9  C   UNL     2     -12.450  13.617  65.500  1.00  0.00    -0.544 C  
HETATM   10  C   UNL     2     -11.575  14.645  66.216  1.00  0.00    -0.342 C  
HETATM   11  C   UNL     2     -10.102  14.357  65.953  1.00  0.00    -0.344 C  
ENDROOT
BRANCH  10  12
HETATM   12  O   UNL     2     -11.766  14.542  67.643  1.00  0.00    -0.356 OA 
BRANCH  12  13
HETATM   13  C   UNL     2     -11.295  15.525  68.465  1.00  0.00    -0.351 C  
HETATM   14  O   UNL     2     -11.272  16.722  68.194  1.00  0.00    -0.325 OA 
BRANCH  13  15
HETATM   15  C   UNL     2     -10.799  14.874  69.777  1.00  0.00    -0.235 C  
HETATM   16  O   UNL     2      -9.492  15.289  70.179  1.00  0.00    -0.421 OA 
HETATM   17  H   UNL     2      -9.188  14.889  70.985  1.00  0.00     0.000 HD 
BRANCH  15  18
HETATM   18  C   UNL     2     -11.809  15.102  70.882  1.00  0.00    -0.373 A  
HETATM   19  C   UNL     2     -13.178  14.945  70.585  1.00  0.00    -0.319 A  
HETATM   20  C   UNL     2     -14.146  15.203  71.533  1.00  0.00    -0.636 A  
HETATM   21  C   UNL     2     -13.783  15.626  72.805  1.00  0.00    -0.662 A  
HETATM   22  C   UNL     2     -12.435  15.792  73.129  1.00  0.00    -0.599 A  
HETATM   23  C   UNL     2     -11.452  15.539  72.169  1.00  0.00    -0.512 A  
ENDBRANCH  15  18
ENDBRANCH  13  15
ENDBRANCH  12  13
ENDBRANCH  10  12
TORSDOF 4
ENDMDL
MODEL        4
REMARK 921   NORMALIZED FREE ENERGY PREDICTED BY IDOCK:   -6.42 KCAL/MOL
REMARK 922        TOTAL FREE ENERGY PREDICTED BY IDOCK:   -8.55 KCAL/MOL
REMARK 923 INTER-LIGAND FREE ENERGY PREDICTED BY IDOCK:   -7.23 KCAL/MOL
REMARK 924 INTRA-LIGAND FREE ENERGY PREDICTED BY IDOCK:   -1.32 KCAL/MOL
REMARK 927      BINDING AFFINITY PREDICTED BY RF-SCORE:    0.00 PKD
ROOT
HETATM    1 BR   UNL     1      -5.845   9.390  66.464  1.00  0.00    -0.059 Br 
HETATM    2  C   UNL     2      -8.420  10.629  69.174  1.00  0.00    -0.128 C  
HETATM    3  N   UNL     2      -9.704  10.849  68.305  1.00  0.00    -0.159 N  
HETATM    4  C   UNL     2     -10.556   9.639  68.632  1.00  0.00    -0.217 C  
HETATM    5  C   UNL     2      -9.289  10.963  66.810  1.00  0.00    -0.165 C  
HETATM    6  C   UNL     2      -8.573  12.328  66.773  1.00  0.00    -0.149 C  
HETATM    7  C   UNL     2      -9.196  13.137  67.927  1.00  0.00    -0.207 C  
HETATM    8  C   UNL     2     -10.327  12.251  68.490  1.00  0.00    -0.223 C  
HETATM    9  C   UNL     2     -11.671  12.296  67.718  1.00  0.00    -0.403 C  
HETATM   10  C   UNL     2     -11.511  12.124  66.208  1.00  0.00    -0.374 C  
HETATM   11  C   UNL     2     -10.544  10.986  65.906  1.00  0.00    -0.270 C  
ENDROOT
BRANCH  10  12
HETATM   12  O   UNL     2     -10.932  13.317  65.638  1.00  0.00    -0.277 OA 
BRANCH  12  13
HETATM   13  C   UNL     2     -11.744  14.295  65.138  1.00  0.00    -0.368 C  
HETATM   14  O   UNL     2     -12.962  14.211  65.022  1.00  0.00    -0.721 OA 
BRANCH  13  15
HETATM   15  C   UNL     2     -10.868  15.508  64.745  1.00  0.00    -0.363 C  
HETATM   16  O   UNL     2     -11.544  16.486  63.953  1.00  0.00    -1.598 OA 
HETATM   17  H   UNL     2     -11.006  17.231  63.712  1.00  0.00     0.000 HD 
BRANCH  15  18
HETATM   18  C   UNL     2     -10.262  16.132  65.985  1.00  0.00    -0.374 A  
HETATM   19  C   UNL     2      -8.877  16.385  66.003  1.00  0.00    -0.296 A  
HETATM   20  C   UNL     2      -8.260  16.891  67.129  1.00  0.00    -0.215 A  
HETATM   21  C   UNL     2      -9.003  17.160  68.271  1.00  0.00    -0.248 A  
HETATM   22  C   UNL     2     -10.378  16.917  68.284  1.00  0.00    -0.335 A  
HETATM   23  C   UNL     2     -11.004  16.398  67.150  1.00  0.00    -0.082 A  
ENDBRANCH  15  18
ENDBRANCH  13  15
ENDBRANCH  12  13
ENDBRANCH  10  12
TORSDOF 4
ENDMDL
MODEL        5
REMARK 921   NORMALIZED FREE ENERGY PREDICTED BY IDOCK:   -6.35 KCAL/MOL
REMARK 922        TOTAL FREE ENERGY PREDICTED BY IDOCK:   -8.48 KCAL/MOL
REMARK 923 INTER-LIGAND FREE ENERGY PREDICTED BY IDOCK:   -7.22 KCAL/MOL
REMARK 924 INTRA-LIGAND FREE ENERGY PREDICTED BY IDOCK:   -1.25 KCAL/MOL
REMARK 927      BINDING AFFINITY PREDICTED BY RF-SCORE:    0.00 PKD
ROOT
HETATM    1 BR   UNL     1      -5.563  20.601  69.343  1.00  0.00    -0.407 Br 
HETATM    2  C   UNL     2      -7.360  19.315  66.083  1.00  0.00    -0.272 C  
HETATM    3  N   UNL     2      -8.757  18.888  66.647  1.00  0.00    -0.302 N  
HETATM    4  C   UNL     2      -9.667  20.021  66.216  1.00  0.00    -0.433 C  
HETATM    5  C   UNL     2      -8.645  18.697  68.187  1.00  0.00    -0.307 C  
HETATM    6  C   UNL     2      -7.789  17.420  68.297  1.00  0.00    -0.247 C  
HETATM    7  C   UNL     2      -8.059  16.645  66.993  1.00  0.00    -0.228 C  
HETATM    8  C   UNL     2      -9.152  17.446  66.254  1.00  0.00    -0.203 C  
HETATM    9  C   UNL     2     -10.610  17.194  66.720  1.00  0.00    -0.192 C  
HETATM   10  C   UNL     2     -10.783  17.258  68.237  1.00  0.00    -0.349 C  
HETATM   11  C   UNL     2     -10.044  18.466  68.801  1.00  0.00    -0.393 C  
ENDROOT
BRANCH  10  12
HETATM   12  O   UNL     2     -10.190  16.092  68.848  1.00  0.00    -0.210 OA 
BRANCH  12  13
HETATM   13  C   UNL     2     -10.982  15.048  69.232  1.00  0.00    -0.264 C  
HETATM   14  O   UNL     2     -11.949  15.134  69.983  1.00  0.00    -0.295 OA 
BRANCH  13  15
HETATM   15  C   UNL     2     -10.452  13.757  68.565  1.00  0.00    -0.244 C  
HETATM   16  O   UNL     2     -10.770  12.559  69.274  1.00  0.00    -0.432 OA 
HETATM   17  H   UNL     2     -10.445  11.766  68.865  1.00  0.00     0.000 HD 
BRANCH  15  18
HETATM   18  C   UNL     2     -10.927  13.684  67.128  1.00  0.00    -0.299 A  
HETATM   19  C   UNL     2      -9.962  13.611  66.104  1.00  0.00    -0.314 A  
HETATM   20  C   UNL     2     -10.334  13.609  64.775  1.00  0.00    -0.414 A  
HETATM   21  C   UNL     2     -11.676  13.680  64.425  1.00  0.00    -0.444 A  
HETATM   22  C   UNL     2     -12.655  13.755  65.418  1.00  0.00    -0.534 A  
HETATM   23  C   UNL     2     -12.282  13.765  66.764  1.00  0.00    -0.440 A  
ENDBRANCH  15  18
ENDBRANCH  13  15
ENDBRANCH  12  13
ENDBRANCH  10  12
TORSDOF 4
ENDMDL
MODEL        6
REMARK 921   NORMALIZED FREE ENERGY PREDICTED BY IDOCK:   -6.31 KCAL/MOL
REMARK 922        TOTAL FREE ENERGY PREDICTED BY IDOCK:   -8.43 KCAL/MOL
REMARK 923 INTER-LIGAND FREE ENERGY PREDICTED BY IDOCK:   -7.87 KCAL/MOL
REMARK 924 INTRA-LIGAND FREE ENERGY PREDICTED BY IDOCK:   -0.56 KCAL/MOL
REMARK 927      BINDING AFFINITY PREDICTED BY RF-SCORE:    0.00 PKD
ROOT
HETATM    1 BR   UNL     1      -5.488  20.347  70.318  1.00  0.00    -0.352 Br 
HETATM    2  C   UNL     2      -7.173  20.425  66.758  1.00  0.00    -0.279 C  
HETATM    3  N   UNL     2      -8.565  19.775  67.059  1.00  0.00    -0.310 N  
HETATM    4  C   UNL     2      -9.505  20.964  67.085  1.00  0.00    -0.209 C  
HETATM    5  C   UNL     2      -8.478  18.990  68.400  1.00  0.00    -0.348 C  
HETATM    6  C   UNL     2      -7.581  17.795  68.020  1.00  0.00    -0.236 C  
HETATM    7  C   UNL     2      -7.797  17.598  66.508  1.00  0.00    -0.307 C  
HETATM    8  C   UNL     2      -8.902  18.601  66.113  1.00  0.00    -0.118 C  
HETATM    9  C   UNL     2     -10.359  18.149  66.393  1.00  0.00    -0.404 C  
HETATM   10  C   UNL     2     -10.566  17.599  67.804  1.00  0.00    -0.378 C  
HETATM   11  C   UNL     2      -9.881  18.500  68.825  1.00  0.00    -0.411 C  
ENDROOT
BRANCH  10  12
HETATM   12  O   UNL     2      -9.945  16.301  67.919  1.00  0.00    -0.235 OA 
BRANCH  12  13
HETATM   13  C   UNL     2     -10.353  15.438  68.895  1.00  0.00    -0.233 C  
HETATM   14  O   UNL     2      -9.608  14.739  69.576  1.00  0.00    -0.077 OA 
BRANCH  13  15
HETATM   15  C   UNL     2     -11.896  15.493  68.989  1.00  0.00    -0.354 C  
HETATM   16  O   UNL     2     -12.561  14.407  68.340  1.00  0.00    -0.521 OA 
HETATM   17  H   UNL     2     -13.508  14.442  68.398  1.00  0.00     0.000 HD 
BRANCH  15  18
HETATM   18  C   UNL     2     -12.323  15.609  70.437  1.00  0.00    -0.427 A  
HETATM   19  C   UNL     2     -13.614  15.175  70.795  1.00  0.00    -0.299 A  
HETATM   20  C   UNL     2     -14.081  15.316  72.086  1.00  0.00    -0.658 A  
HETATM   21  C   UNL     2     -13.277  15.894  73.059  1.00  0.00    -0.648 A  
HETATM   22  C   UNL     2     -11.992  16.335  72.735  1.00  0.00    -0.636 A  
HETATM   23  C   UNL     2     -11.520  16.201  71.428  1.00  0.00    -0.429 A  
ENDBRANCH  15  18
ENDBRANCH  13  15
ENDBRANCH  12  13
ENDBRANCH  10  12
TORSDOF 4
ENDMDL
MODEL        7
REMARK 921   NORMALIZED FREE ENERGY PREDICTED BY IDOCK:   -6.28 KCAL/MOL
REMARK 922        TOTAL FREE ENERGY PREDICTED BY IDOCK:   -8.39 KCAL/MOL
REMARK 923 INTER-LIGAND FREE ENERGY PREDICTED BY IDOCK:   -7.04 KCAL/MOL
REMARK 924 INTRA-LIGAND FREE ENERGY PREDICTED BY IDOCK:   -1.34 KCAL/MOL
REMARK 927      BINDING AFFINITY PREDICTED BY RF-SCORE:    0.00 PKD
ROOT
HETATM    1 BR   UNL     1      -6.394  20.302  65.102  1.00  0.00    -0.338 Br 
HETATM    2  C   UNL     2     -10.050  19.799  66.479  1.00  0.00    -0.476 C  
HETATM    3  N   UNL     2      -9.812  18.742  67.610  1.00  0.00    -0.312 N  
HETATM    4  C   UNL     2      -9.881  19.568  68.878  1.00  0.00    -0.445 C  
HETATM    5  C   UNL     2      -8.445  18.040  67.367  1.00  0.00    -0.240 C  
HETATM    6  C   UNL     2      -8.731  17.190  66.113  1.00  0.00    -0.223 C  
HETATM    7  C   UNL     2     -10.247  16.918  66.153  1.00  0.00    -0.352 C  
HETATM    8  C   UNL     2     -10.739  17.511  67.490  1.00  0.00    -0.280 C  
HETATM    9  C   UNL     2     -10.534  16.620  68.743  1.00  0.00    -0.324 C  
HETATM   10  C   UNL     2      -9.121  16.048  68.859  1.00  0.00    -0.235 C  
HETATM   11  C   UNL     2      -8.090  17.131  68.567  1.00  0.00    -0.260 C  
ENDROOT
BRANCH  10  12
HETATM   12  O   UNL     2      -8.927  15.018  67.867  1.00  0.00    -0.171 OA 
BRANCH  12  13
HETATM   13  C   UNL     2      -8.690  13.732  68.259  1.00  0.00    -0.179 C  
HETATM   14  O   UNL     2      -7.610  13.300  68.648  1.00  0.00    -0.126 OA 
BRANCH  13  15
HETATM   15  C   UNL     2     -10.005  12.927  68.126  1.00  0.00    -0.234 C  
HETATM   16  O   UNL     2     -10.906  13.092  69.222  1.00  0.00    -0.421 OA 
HETATM   17  H   UNL     2     -11.712  12.597  69.141  1.00  0.00     0.000 HD 
BRANCH  15  18
HETATM   18  C   UNL     2     -10.679  13.252  66.810  1.00  0.00    -0.279 A  
HETATM   19  C   UNL     2     -11.996  13.752  66.835  1.00  0.00    -0.460 A  
HETATM   20  C   UNL     2     -12.684  14.004  65.665  1.00  0.00    -0.515 A  
HETATM   21  C   UNL     2     -12.083  13.766  64.436  1.00  0.00    -0.474 A  
HETATM   22  C   UNL     2     -10.778  13.270  64.380  1.00  0.00    -0.432 A  
HETATM   23  C   UNL     2     -10.083  13.006  65.561  1.00  0.00    -0.270 A  
ENDBRANCH  15  18
ENDBRANCH  13  15
ENDBRANCH  12  13
ENDBRANCH  10  12
TORSDOF 4
ENDMDL
MODEL        8
REMARK 921   NORMALIZED FREE ENERGY PREDICTED BY IDOCK:   -6.27 KCAL/MOL
REMARK 922        TOTAL FREE ENERGY PREDICTED BY IDOCK:   -8.38 KCAL/MOL
REMARK 923 INTER-LIGAND FREE ENERGY PREDICTED BY IDOCK:   -7.58 KCAL/MOL
REMARK 924 INTRA-LIGAND FREE ENERGY PREDICTED BY IDOCK:   -0.80 KCAL/MOL
REMARK 927      BINDING AFFINITY PREDICTED BY RF-SCORE:    0.00 PKD
ROOT
HETATM    1 BR   UNL     1      -6.399  20.514  64.689  1.00  0.00    -0.327 Br 
HETATM    2  C   UNL     2      -7.825  19.711  68.272  1.00  0.00    -0.320 C  
HETATM    3  N   UNL     2      -8.054  18.165  68.175  1.00  0.00    -0.273 N  
HETATM    4  C   UNL     2      -6.887  17.591  68.953  1.00  0.00    -0.246 C  
HETATM    5  C   UNL     2      -8.098  17.752  66.675  1.00  0.00    -0.258 C  
HETATM    6  C   UNL     2      -9.436  18.360  66.208  1.00  0.00    -0.246 C  
HETATM    7  C   UNL     2     -10.308  18.427  67.476  1.00  0.00    -0.416 C  
HETATM    8  C   UNL     2      -9.482  17.739  68.584  1.00  0.00    -0.283 C  
HETATM    9  C   UNL     2      -9.542  16.189  68.611  1.00  0.00    -0.226 C  
HETATM   10  C   UNL     2      -9.308  15.547  67.243  1.00  0.00    -0.212 C  
HETATM   11  C   UNL     2      -8.128  16.212  66.545  1.00  0.00    -0.331 C  
ENDROOT
BRANCH  10  12
HETATM   12  O   UNL     2     -10.459  15.762  66.399  1.00  0.00    -0.290 OA 
BRANCH  12  13
HETATM   13  C   UNL     2     -10.937  14.740  65.629  1.00  0.00    -0.344 C  
HETATM   14  O   UNL     2     -10.402  14.312  64.612  1.00  0.00    -0.417 OA 
BRANCH  13  15
HETATM   15  C   UNL     2     -12.255  14.227  66.256  1.00  0.00    -0.410 C  
HETATM   16  O   UNL     2     -13.225  13.790  65.303  1.00  0.00    -0.755 OA 
HETATM   17  H   UNL     2     -14.034  13.476  65.688  1.00  0.00     0.000 HD 
BRANCH  15  18
HETATM   18  C   UNL     2     -11.958  13.142  67.270  1.00  0.00    -0.389 A  
HETATM   19  C   UNL     2     -12.028  13.464  68.640  1.00  0.00    -0.362 A  
HETATM   20  C   UNL     2     -11.705  12.535  69.607  1.00  0.00    -0.372 A  
HETATM   21  C   UNL     2     -11.300  11.258  69.241  1.00  0.00    -0.354 A  
HETATM   22  C   UNL     2     -11.219  10.910  67.891  1.00  0.00    -0.387 A  
HETATM   23  C   UNL     2     -11.538  11.850  66.909  1.00  0.00    -0.358 A  
ENDBRANCH  15  18
ENDBRANCH  13  15
ENDBRANCH  12  13
ENDBRANCH  10  12
TORSDOF 4
ENDMDL
MODEL        9
REMARK 921   NORMALIZED FREE ENERGY PREDICTED BY IDOCK:   -6.25 KCAL/MOL
REMARK 922        TOTAL FREE ENERGY PREDICTED BY IDOCK:   -8.35 KCAL/MOL
REMARK 923 INTER-LIGAND FREE ENERGY PREDICTED BY IDOCK:   -7.10 KCAL/MOL
REMARK 924 INTRA-LIGAND FREE ENERGY PREDICTED BY IDOCK:   -1.25 KCAL/MOL
REMARK 927      BINDING AFFINITY PREDICTED BY RF-SCORE:    0.00 PKD
ROOT
HETATM    1 BR   UNL     1      -5.222  17.267  66.690  1.00  0.00    -0.194 Br 
HETATM    2  C   UNL     2      -9.016  18.296  66.447  1.00  0.00    -0.243 C  
HETATM    3  N   UNL     2      -9.635  17.485  67.634  1.00  0.00    -0.262 N  
HETATM    4  C   UNL     2      -9.835  18.536  68.707  1.00  0.00    -0.376 C  
HETATM    5  C   UNL     2      -8.659  16.338  68.026  1.00  0.00    -0.176 C  
HETATM    6  C   UNL     2      -8.773  15.384  66.820  1.00  0.00    -0.304 C  
HETATM    7  C   UNL     2     -10.178  15.640  66.241  1.00  0.00    -0.312 C  
HETATM    8  C   UNL     2     -10.853  16.631  67.213  1.00  0.00    -0.158 C  
HETATM    9  C   UNL     2     -11.479  16.009  68.489  1.00  0.00    -0.357 C  
HETATM   10  C   UNL     2     -10.544  15.043  69.217  1.00  0.00    -0.247 C  
HETATM   11  C   UNL     2      -9.145  15.639  69.317  1.00  0.00    -0.270 C  
ENDROOT
BRANCH  10  12
HETATM   12  O   UNL     2     -10.417  13.821  68.459  1.00  0.00    -0.235 OA 
BRANCH  12  13
HETATM   13  C   UNL     2     -11.246  12.768  68.722  1.00  0.00    -0.283 C  
HETATM   14  O   UNL     2     -12.074  12.730  69.627  1.00  0.00    -0.289 OA 
BRANCH  13  15
HETATM   15  C   UNL     2     -10.960  11.648  67.694  1.00  0.00    -0.239 C  
HETATM   16  O   UNL     2     -11.708  10.450  67.911  1.00  0.00    -0.714 OA 
HETATM   17  H   UNL     2     -11.532   9.762  67.280  1.00  0.00     0.000 HD 
BRANCH  15  18
HETATM   18  C   UNL     2     -11.164  12.172  66.288  1.00  0.00    -0.382 A  
HETATM   19  C   UNL     2     -12.362  12.851  65.990  1.00  0.00    -0.330 A  
HETATM   20  C   UNL     2     -12.629  13.293  64.710  1.00  0.00    -0.398 A  
HETATM   21  C   UNL     2     -11.715  13.073  63.689  1.00  0.00    -0.550 A  
HETATM   22  C   UNL     2     -10.519  12.402  63.954  1.00  0.00    -0.469 A  
HETATM   23  C   UNL     2     -10.248  11.946  65.246  1.00  0.00    -0.309 A  
ENDBRANCH  15  18
ENDBRANCH  13  15
ENDBRANCH  12  13
ENDBRANCH  10  12
TORSDOF 4
ENDMDL
MODEL       10
REMARK 921   NORMALIZED FREE ENERGY PREDICTED BY IDOCK:   -6.16 KCAL/MOL
REMARK 922        TOTAL FREE ENERGY PREDICTED BY IDOCK:   -8.24 KCAL/MOL
REMARK 923 INTER-LIGAND FREE ENERGY PREDICTED BY IDOCK:   -7.10 KCAL/MOL
REMARK 924 INTRA-LIGAND FREE ENERGY PREDICTED BY IDOCK:   -1.15 KCAL/MOL
REMARK 927      BINDING AFFINITY PREDICTED BY RF-SCORE:    0.00 PKD
ROOT
HETATM    1 BR   UNL     1      -6.897  11.411  69.590  1.00  0.00    -0.011 Br 
HETATM    2  C   UNL     2      -7.902  15.215  69.411  1.00  0.00    -0.208 C  
HETATM    3  N   UNL     2      -9.378  15.123  68.897  1.00  0.00    -0.199 N  
HETATM    4  C   UNL     2     -10.197  15.381  70.145  1.00  0.00    -0.196 C  
HETATM    5  C   UNL     2      -9.603  13.724  68.253  1.00  0.00    -0.219 C  
HETATM    6  C   UNL     2      -8.762  13.819  66.964  1.00  0.00    -0.212 C  
HETATM    7  C   UNL     2      -8.720  15.321  66.625  1.00  0.00    -0.327 C  
HETATM    8  C   UNL     2      -9.642  16.005  67.656  1.00  0.00    -0.218 C  
HETATM    9  C   UNL     2     -11.160  15.964  67.340  1.00  0.00    -0.207 C  
HETATM   10  C   UNL     2     -11.665  14.572  66.959  1.00  0.00    -0.393 C  
HETATM   11  C   UNL     2     -11.097  13.527  67.911  1.00  0.00    -0.288 C  
ENDROOT
BRANCH  10  12
HETATM   12  O   UNL     2     -11.193  14.225  65.639  1.00  0.00    -0.303 OA 
BRANCH  12  13
HETATM   13  C   UNL     2     -12.089  14.023  64.629  1.00  0.00    -0.440 C  
HETATM   14  O   UNL     2     -12.572  14.905  63.926  1.00  0.00    -0.831 OA 
BRANCH  13  15
HETATM   15  C   UNL     2     -12.385  12.507  64.530  1.00  0.00    -0.467 C  
HETATM   16  O   UNL     2     -13.257  12.150  63.457  1.00  0.00    -0.744 OA 
HETATM   17  H   UNL     2     -13.439  11.220  63.396  1.00  0.00     0.000 HD 
BRANCH  15  18
HETATM   18  C   UNL     2     -11.086  11.730  64.461  1.00  0.00    -0.376 A  
HETATM   19  C   UNL     2     -10.313  11.815  63.286  1.00  0.00    -0.446 A  
HETATM   20  C   UNL     2      -9.156  11.079  63.141  1.00  0.00    -0.262 A  
HETATM   21  C   UNL     2      -8.732  10.236  64.160  1.00  0.00    -0.214 A  
HETATM   22  C   UNL     2      -9.478  10.130  65.336  1.00  0.00    -0.296 A  
HETATM   23  C   UNL     2     -10.654  10.867  65.483  1.00  0.00    -0.240 A  
ENDBRANCH  15  18
ENDBRANCH  13  15
ENDBRANCH  12  13
ENDBRANCH  10  12
TORSDOF 4
ENDMDL
MODEL       11
REMARK 921   NORMALIZED FREE ENERGY PREDICTED BY IDOCK:   -6.12 KCAL/MOL
REMARK 922        TOTAL FREE ENERGY PREDICTED BY IDOCK:   -8.18 KCAL/MOL
REMARK 923 INTER-LIGAND FREE ENERGY PREDICTED BY IDOCK:   -6.90 KCAL/MOL
REMARK 924 INTRA-LIGAND FREE ENERGY PREDICTED BY IDOCK:   -1.28 KCAL/MOL
REMARK 927      BINDING AFFINITY PREDICTED BY RF-SCORE:    0.00 PKD
ROOT
HETATM    1 BR   UNL     1      -6.933   8.503  66.187  1.00  0.00    -0.077 Br 
HETATM    2  C   UNL     2      -8.561  10.617  69.084  1.00  0.00    -0.128 C  
HETATM    3  N   UNL     2      -9.944  10.994  68.454  1.00  0.00    -0.179 N  
HETATM    4  C   UNL     2     -10.909  10.052  69.145  1.00  0.00    -0.222 C  
HETATM    5  C   UNL     2      -9.861  10.818  66.910  1.00  0.00    -0.187 C  
HETATM    6  C   UNL     2      -8.933  11.978  66.498  1.00  0.00    -0.193 C  
HETATM    7  C   UNL     2      -9.121  13.047  67.591  1.00  0.00    -0.198 C  
HETATM    8  C   UNL     2     -10.240  12.510  68.508  1.00  0.00    -0.203 C  
HETATM    9  C   UNL     2     -11.692  12.743  68.014  1.00  0.00    -0.405 C  
HETATM   10  C   UNL     2     -11.909  12.344  66.555  1.00  0.00    -0.339 C  
HETATM   11  C   UNL     2     -11.261  10.993  66.276  1.00  0.00    -0.008 C  
ENDROOT
BRANCH  10  12
HETATM   12  O   UNL     2     -11.263  13.297  65.685  1.00  0.00    -0.285 OA 
BRANCH  12  13
HETATM   13  C   UNL     2     -11.975  14.346  65.178  1.00  0.00    -0.391 C  
HETATM   14  O   UNL     2     -13.197  14.386  65.074  1.00  0.00    -0.562 OA 
BRANCH  13  15
HETATM   15  C   UNL     2     -10.983  15.458  64.760  1.00  0.00    -0.393 C  
HETATM   16  O   UNL     2     -11.561  16.483  63.951  1.00  0.00    -1.598 OA 
HETATM   17  H   UNL     2     -10.952  17.165  63.694  1.00  0.00     0.000 HD 
BRANCH  15  18
HETATM   18  C   UNL     2     -10.313  16.041  65.987  1.00  0.00    -0.366 A  
HETATM   19  C   UNL     2     -11.110  16.337  67.111  1.00  0.00    -0.014 A  
HETATM   20  C   UNL     2     -10.565  16.930  68.231  1.00  0.00    -0.363 A  
HETATM   21  C   UNL     2      -9.214  17.246  68.268  1.00  0.00    -0.265 A  
HETATM   22  C   UNL     2      -8.400  16.965  67.169  1.00  0.00    -0.217 A  
HETATM   23  C   UNL     2      -8.948  16.373  66.030  1.00  0.00    -0.307 A  
ENDBRANCH  15  18
ENDBRANCH  13  15
ENDBRANCH  12  13
ENDBRANCH  10  12
TORSDOF 4
ENDMDL
MODEL       12
REMARK 921   NORMALIZED FREE ENERGY PREDICTED BY IDOCK:   -6.03 KCAL/MOL
REMARK 922        TOTAL FREE ENERGY PREDICTED BY IDOCK:   -8.08 KCAL/MOL
REMARK 923 INTER-LIGAND FREE ENERGY PREDICTED BY IDOCK:   -7.31 KCAL/MOL
REMARK 924 INTRA-LIGAND FREE ENERGY PREDICTED BY IDOCK:   -0.76 KCAL/MOL
REMARK 927      BINDING AFFINITY PREDICTED BY RF-SCORE:    0.00 PKD
ROOT
HETATM    1 BR   UNL     1     -12.355  11.499  70.754  1.00  0.00    -0.424 Br 
HETATM    2  C   UNL     2     -11.290  11.488  66.962  1.00  0.00    -0.269 C  
HETATM    3  N   UNL     2     -10.320  12.716  66.908  1.00  0.00    -0.232 N  
HETATM    4  C   UNL     2      -8.948  12.074  66.879  1.00  0.00    -0.199 C  
HETATM    5  C   UNL     2     -10.584  13.623  68.145  1.00  0.00    -0.247 C  
HETATM    6  C   UNL     2     -11.967  14.223  67.821  1.00  0.00    -0.384 C  
HETATM    7  C   UNL     2     -12.058  14.207  66.284  1.00  0.00    -0.463 C  
HETATM    8  C   UNL     2     -10.679  13.721  65.791  1.00  0.00    -0.281 C  
HETATM    9  C   UNL     2      -9.565  14.798  65.725  1.00  0.00    -0.289 C  
HETATM   10  C   UNL     2      -9.453  15.637  66.998  1.00  0.00    -0.224 C  
HETATM   11  C   UNL     2      -9.516  14.738  68.227  1.00  0.00    -0.207 C  
ENDROOT
BRANCH  10  12
HETATM   12  O   UNL     2     -10.576  16.539  67.090  1.00  0.00    -0.314 OA 
BRANCH  12  13
HETATM   13  C   UNL     2     -10.437  17.840  66.700  1.00  0.00    -0.300 C  
HETATM   14  O   UNL     2     -10.503  18.241  65.542  1.00  0.00    -0.616 OA 
BRANCH  13  15
HETATM   15  C   UNL     2     -10.181  18.706  67.956  1.00  0.00    -0.385 C  
HETATM   16  O   UNL     2     -10.527  18.068  69.187  1.00  0.00    -0.442 OA 
HETATM   17  H   UNL     2     -10.370  18.600  69.958  1.00  0.00     0.000 HD 
BRANCH  15  18
HETATM   18  C   UNL     2      -8.744  19.183  67.972  1.00  0.00    -0.347 A  
HETATM   19  C   UNL     2      -7.827  18.527  68.817  1.00  0.00    -0.301 A  
HETATM   20  C   UNL     2      -6.521  18.959  68.922  1.00  0.00    -0.286 A  
HETATM   21  C   UNL     2      -6.088  20.057  68.190  1.00  0.00    -0.281 A  
HETATM   22  C   UNL     2      -6.974  20.728  67.345  1.00  0.00    -0.418 A  
HETATM   23  C   UNL     2      -8.298  20.299  67.243  1.00  0.00    -0.404 A  
ENDBRANCH  15  18
ENDBRANCH  13  15
ENDBRANCH  12  13
ENDBRANCH  10  12
TORSDOF 4
ENDMDL
MODEL       13
REMARK 921   NORMALIZED FREE ENERGY PREDICTED BY IDOCK:   -5.99 KCAL/MOL
REMARK 922        TOTAL FREE ENERGY PREDICTED BY IDOCK:   -8.03 KCAL/MOL
REMARK 923 INTER-LIGAND FREE ENERGY PREDICTED BY IDOCK:   -6.81 KCAL/MOL
REMARK 924 INTRA-LIGAND FREE ENERGY PREDICTED BY IDOCK:   -1.22 KCAL/MOL
REMARK 927      BINDING AFFINITY PREDICTED BY RF-SCORE:    0.00 PKD
ROOT
HETATM    1 BR   UNL     1     -11.890  11.069  69.486  1.00  0.00    -0.430 Br 
HETATM    2  C   UNL     2     -12.279  13.723  66.601  1.00  0.00    -0.409 C  
HETATM    3  N   UNL     2     -10.789  14.141  66.362  1.00  0.00    -0.301 N  
HETATM    4  C   UNL     2     -10.422  13.407  65.088  1.00  0.00    -0.347 C  
HETATM    5  C   UNL     2      -9.945  13.741  67.606  1.00  0.00    -0.238 C  
HETATM    6  C   UNL     2     -10.446  14.733  68.674  1.00  0.00    -0.250 C  
HETATM    7  C   UNL     2     -10.936  15.960  67.881  1.00  0.00    -0.327 C  
HETATM    8  C   UNL     2     -10.576  15.671  66.408  1.00  0.00    -0.308 C  
HETATM    9  C   UNL     2      -9.112  15.975  65.996  1.00  0.00    -0.361 C  
HETATM   10  C   UNL     2      -8.076  15.396  66.959  1.00  0.00    -0.230 C  
HETATM   11  C   UNL     2      -8.440  13.962  67.325  1.00  0.00    -0.212 C  
ENDROOT
BRANCH  10  12
HETATM   12  O   UNL     2      -8.080  16.148  68.192  1.00  0.00    -0.145 OA 
BRANCH  12  13
HETATM   13  C   UNL     2      -6.957  16.820  68.582  1.00  0.00    -0.180 C  
HETATM   14  O   UNL     2      -5.809  16.402  68.469  1.00  0.00    -0.109 OA 
BRANCH  13  15
HETATM   15  C   UNL     2      -7.382  18.180  69.185  1.00  0.00    -0.117 C  
HETATM   16  O   UNL     2      -6.290  19.029  69.541  1.00  0.00    -0.269 OA 
HETATM   17  H   UNL     2      -6.550  19.864  69.911  1.00  0.00     0.000 HD 
BRANCH  15  18
HETATM   18  C   UNL     2      -8.340  18.885  68.248  1.00  0.00    -0.364 A  
HETATM   19  C   UNL     2      -9.666  19.097  68.676  1.00  0.00    -0.478 A  
HETATM   20  C   UNL     2     -10.599  19.675  67.841  1.00  0.00    -0.492 A  
HETATM   21  C   UNL     2     -10.244  20.058  66.555  1.00  0.00    -0.598 A  
HETATM   22  C   UNL     2      -8.938  19.859  66.102  1.00  0.00    -0.373 A  
HETATM   23  C   UNL     2      -7.992  19.267  66.941  1.00  0.00    -0.278 A  
ENDBRANCH  15  18
ENDBRANCH  13  15
ENDBRANCH  12  13
ENDBRANCH  10  12
TORSDOF 4
ENDMDL
MODEL       14
REMARK 921   NORMALIZED FREE ENERGY PREDICTED BY IDOCK:   -5.97 KCAL/MOL
REMARK 922        TOTAL FREE ENERGY PREDICTED BY IDOCK:   -8.00 KCAL/MOL
REMARK 923 INTER-LIGAND FREE ENERGY PREDICTED BY IDOCK:   -7.24 KCAL/MOL
REMARK 924 INTRA-LIGAND FREE ENERGY PREDICTED BY IDOCK:   -0.76 KCAL/MOL
REMARK 927      BINDING AFFINITY PREDICTED BY RF-SCORE:    0.00 PKD
ROOT
HETATM    1 BR   UNL     1      -8.883   7.361  70.230  1.00  0.00    -0.147 Br 
HETATM    2  C   UNL     2     -10.235   8.849  66.843  1.00  0.00    -0.276 C  
HETATM    3  N   UNL     2      -9.600  10.280  66.858  1.00  0.00    -0.168 N  
HETATM    4  C   UNL     2      -8.449  10.161  65.879  1.00  0.00    -0.141 C  
HETATM    5  C   UNL     2      -9.178  10.632  68.313  1.00  0.00    -0.153 C  
HETATM    6  C   UNL     2     -10.539  10.817  69.013  1.00  0.00    -0.250 C  
HETATM    7  C   UNL     2     -11.508  11.240  67.893  1.00  0.00    -0.360 C  
HETATM    8  C   UNL     2     -10.637  11.403  66.630  1.00  0.00    -0.258 C  
HETATM    9  C   UNL     2      -9.879  12.750  66.499  1.00  0.00    -0.258 C  
HETATM   10  C   UNL     2      -9.126  13.151  67.767  1.00  0.00    -0.200 C  
HETATM   11  C   UNL     2      -8.374  11.952  68.333  1.00  0.00    -0.157 C  
ENDROOT
BRANCH  10  12
HETATM   12  O   UNL     2     -10.063  13.566  68.783  1.00  0.00    -0.202 OA 
BRANCH  12  13
HETATM   13  C   UNL     2     -10.148  14.883  69.133  1.00  0.00    -0.226 C  
HETATM   14  O   UNL     2      -9.191  15.613  69.373  1.00  0.00    -0.258 OA 
BRANCH  13  15
HETATM   15  C   UNL     2     -11.641  15.286  69.177  1.00  0.00    -0.332 C  
HETATM   16  O   UNL     2     -12.467  14.570  68.257  1.00  0.00    -0.592 OA 
HETATM   17  H   UNL     2     -13.384  14.818  68.283  1.00  0.00     0.000 HD 
BRANCH  15  18
HETATM   18  C   UNL     2     -12.168  15.166  70.592  1.00  0.00    -0.401 A  
HETATM   19  C   UNL     2     -11.717  16.088  71.557  1.00  0.00    -0.554 A  
HETATM   20  C   UNL     2     -12.112  15.988  72.875  1.00  0.00    -0.626 A  
HETATM   21  C   UNL     2     -12.966  14.968  73.273  1.00  0.00    -0.642 A  
HETATM   22  C   UNL     2     -13.428  14.038  72.339  1.00  0.00    -0.639 A  
HETATM   23  C   UNL     2     -13.024  14.132  71.006  1.00  0.00    -0.399 A  
ENDBRANCH  15  18
ENDBRANCH  13  15
ENDBRANCH  12  13
ENDBRANCH  10  12
TORSDOF 4
ENDMDL
MODEL       15
REMARK 921   NORMALIZED FREE ENERGY PREDICTED BY IDOCK:   -5.95 KCAL/MOL
REMARK 922        TOTAL FREE ENERGY PREDICTED BY IDOCK:   -7.98 KCAL/MOL
REMARK 923 INTER-LIGAND FREE ENERGY PREDICTED BY IDOCK:   -7.30 KCAL/MOL
REMARK 924 INTRA-LIGAND FREE ENERGY PREDICTED BY IDOCK:   -0.69 KCAL/MOL
REMARK 927      BINDING AFFINITY PREDICTED BY RF-SCORE:    0.00 PKD
ROOT
HETATM    1 BR   UNL     1     -12.494  12.443  64.214  1.00  0.00    -0.484 Br 
HETATM    2  C   UNL     2      -9.353  12.846  66.556  1.00  0.00    -0.222 C  
HETATM    3  N   UNL     2      -9.831  13.980  67.524  1.00  0.00    -0.232 N  
HETATM    4  C   UNL     2     -10.178  13.229  68.794  1.00  0.00    -0.109 C  
HETATM    5  C   UNL     2     -11.026  14.733  66.871  1.00  0.00    -0.328 C  
HETATM    6  C   UNL     2     -10.342  15.490  65.715  1.00  0.00    -0.384 C  
HETATM    7  C   UNL     2      -8.885  15.689  66.175  1.00  0.00    -0.311 C  
HETATM    8  C   UNL     2      -8.831  15.154  67.622  1.00  0.00    -0.173 C  
HETATM    9  C   UNL     2      -9.324  16.127  68.724  1.00  0.00    -0.229 C  
HETATM   10  C   UNL     2     -10.672  16.774  68.406  1.00  0.00    -0.362 C  
HETATM   11  C   UNL     2     -11.647  15.728  67.878  1.00  0.00    -0.153 C  
ENDROOT
BRANCH  10  12
HETATM   12  O   UNL     2     -10.510  17.751  67.356  1.00  0.00    -0.355 OA 
BRANCH  12  13
HETATM   13  C   UNL     2     -10.153  19.032  67.668  1.00  0.00    -0.374 C  
HETATM   14  O   UNL     2     -10.649  19.705  68.565  1.00  0.00    -0.310 OA 
BRANCH  13  15
HETATM   15  C   UNL     2      -9.029  19.478  66.702  1.00  0.00    -0.351 C  
HETATM   16  O   UNL     2      -9.415  20.511  65.793  1.00  0.00    -0.614 OA 
HETATM   17  H   UNL     2      -8.726  20.785  65.200  1.00  0.00     0.000 HD 
BRANCH  15  18
HETATM   18  C   UNL     2      -7.798  19.874  67.489  1.00  0.00    -0.325 A  
HETATM   19  C   UNL     2      -7.550  19.233  68.719  1.00  0.00    -0.393 A  
HETATM   20  C   UNL     2      -6.481  19.599  69.510  1.00  0.00    -0.374 A  
HETATM   21  C   UNL     2      -5.625  20.613  69.102  1.00  0.00    -0.394 A  
HETATM   22  C   UNL     2      -5.845  21.268  67.888  1.00  0.00    -0.395 A  
HETATM   23  C   UNL     2      -6.931  20.906  67.089  1.00  0.00    -0.426 A  
ENDBRANCH  15  18
ENDBRANCH  13  15
ENDBRANCH  12  13
ENDBRANCH  10  12
TORSDOF 4
ENDMDL
MODEL       16
REMARK 921   NORMALIZED FREE ENERGY PREDICTED BY IDOCK:   -5.94 KCAL/MOL
REMARK 922        TOTAL FREE ENERGY PREDICTED BY IDOCK:   -7.97 KCAL/MOL
REMARK 923 INTER-LIGAND FREE ENERGY PREDICTED BY IDOCK:   -7.55 KCAL/MOL
REMARK 924 INTRA-LIGAND FREE ENERGY PREDICTED BY IDOCK:   -0.42 KCAL/MOL
REMARK 927      BINDING AFFINITY PREDICTED BY RF-SCORE:    0.00 PKD
ROOT
HETATM    1 BR   UNL     1      -5.144  18.101  65.478  1.00  0.00    -0.211 Br 
HETATM    2  C   UNL     2      -8.771  19.356  66.364  1.00  0.00    -0.355 C  
HETATM    3  N   UNL     2      -9.160  18.384  67.528  1.00  0.00    -0.270 N  
HETATM    4  C   UNL     2      -8.997  19.242  68.766  1.00  0.00    -0.355 C  
HETATM    5  C   UNL     2      -8.231  17.137  67.477  1.00  0.00    -0.185 C  
HETATM    6  C   UNL     2      -8.722  16.415  66.206  1.00  0.00    -0.369 C  
HETATM    7  C   UNL     2     -10.193  16.842  66.048  1.00  0.00    -0.350 C  
HETATM    8  C   UNL     2     -10.518  17.683  67.300  1.00  0.00    -0.338 C  
HETATM    9  C   UNL     2     -10.876  16.882  68.580  1.00  0.00    -0.335 C  
HETATM   10  C   UNL     2      -9.890  15.756  68.889  1.00  0.00    -0.224 C  
HETATM   11  C   UNL     2      -8.457  16.251  68.724  1.00  0.00    -0.240 C  
ENDROOT
BRANCH  10  12
HETATM   12  O   UNL     2     -10.064  14.679  67.943  1.00  0.00    -0.222 OA 
BRANCH  12  13
HETATM   13  C   UNL     2     -11.231  13.970  67.928  1.00  0.00    -0.273 C  
HETATM   14  O   UNL     2     -12.268  14.328  67.379  1.00  0.00    -0.378 OA 
BRANCH  13  15
HETATM   15  C   UNL     2     -11.017  12.656  68.715  1.00  0.00    -0.249 C  
HETATM   16  O   UNL     2      -9.647  12.342  68.971  1.00  0.00    -0.397 OA 
HETATM   17  H   UNL     2      -9.517  11.535  69.454  1.00  0.00     0.000 HD 
BRANCH  15  18
HETATM   18  C   UNL     2     -11.820  12.686  69.999  1.00  0.00    -0.358 A  
HETATM   19  C   UNL     2     -12.225  11.462  70.568  1.00  0.00    -0.478 A  
HETATM   20  C   UNL     2     -13.013  11.430  71.701  1.00  0.00    -0.523 A  
HETATM   21  C   UNL     2     -13.423  12.614  72.300  1.00  0.00    -0.541 A  
HETATM   22  C   UNL     2     -13.039  13.842  71.758  1.00  0.00    -0.458 A  
HETATM   23  C   UNL     2     -12.248  13.879  70.608  1.00  0.00    -0.443 A  
ENDBRANCH  15  18
ENDBRANCH  13  15
ENDBRANCH  12  13
ENDBRANCH  10  12
TORSDOF 4
ENDMDL
MODEL       17
REMARK 921   NORMALIZED FREE ENERGY PREDICTED BY IDOCK:   -5.91 KCAL/MOL
REMARK 922        TOTAL FREE ENERGY PREDICTED BY IDOCK:   -7.93 KCAL/MOL
REMARK 923 INTER-LIGAND FREE ENERGY PREDICTED BY IDOCK:   -6.67 KCAL/MOL
REMARK 924 INTRA-LIGAND FREE ENERGY PREDICTED BY IDOCK:   -1.27 KCAL/MOL
REMARK 927      BINDING AFFINITY PREDICTED BY RF-SCORE:    0.00 PKD
ROOT
HETATM    1 BR   UNL     1      -6.580  11.907  69.099  1.00  0.00    -0.106 Br 
HETATM    2  C   UNL     2     -10.501  11.561  68.953  1.00  0.00    -0.187 C  
HETATM    3  N   UNL     2     -10.830  12.324  67.625  1.00  0.00    -0.218 N  
HETATM    4  C   UNL     2     -11.098  11.205  66.639  1.00  0.00    -0.189 C  
HETATM    5  C   UNL     2      -9.628  13.239  67.256  1.00  0.00    -0.234 C  
HETATM    6  C   UNL     2      -9.700  14.329  68.343  1.00  0.00    -0.225 C  
HETATM    7  C   UNL     2     -11.182  14.379  68.760  1.00  0.00    -0.282 C  
HETATM    8  C   UNL     2     -11.914  13.411  67.806  1.00  0.00    -0.324 C  
HETATM    9  C   UNL     2     -12.275  13.979  66.409  1.00  0.00    -0.492 C  
HETATM   10  C   UNL     2     -11.109  14.686  65.719  1.00  0.00    -0.331 C  
HETATM   11  C   UNL     2      -9.837  13.857  65.854  1.00  0.00    -0.287 C  
ENDROOT
BRANCH  10  12
HETATM   12  O   UNL     2     -10.847  15.948  66.369  1.00  0.00    -0.288 OA 
BRANCH  12  13
HETATM   13  C   UNL     2     -10.769  17.092  65.627  1.00  0.00    -0.144 C  
HETATM   14  O   UNL     2     -11.188  17.220  64.481  1.00  0.00    -1.083 OA 
BRANCH  13  15
HETATM   15  C   UNL     2     -10.067  18.180  66.473  1.00  0.00    -0.386 C  
HETATM   16  O   UNL     2     -10.872  18.713  67.527  1.00  0.00    -0.435 OA 
HETATM   17  H   UNL     2     -10.440  19.381  68.046  1.00  0.00     0.000 HD 
BRANCH  15  18
HETATM   18  C   UNL     2      -8.750  17.653  67.004  1.00  0.00    -0.254 A  
HETATM   19  C   UNL     2      -8.511  17.715  68.391  1.00  0.00    -0.287 A  
HETATM   20  C   UNL     2      -7.304  17.310  68.924  1.00  0.00    -0.243 A  
HETATM   21  C   UNL     2      -6.300  16.831  68.094  1.00  0.00    -0.143 A  
HETATM   22  C   UNL     2      -6.507  16.758  66.715  1.00  0.00    -0.226 A  
HETATM   23  C   UNL     2      -7.724  17.175  66.171  1.00  0.00    -0.302 A  
ENDBRANCH  15  18
ENDBRANCH  13  15
ENDBRANCH  12  13
ENDBRANCH  10  12
TORSDOF 4
ENDMDL
MODEL       18
REMARK 921   NORMALIZED FREE ENERGY PREDICTED BY IDOCK:   -5.90 KCAL/MOL
REMARK 922        TOTAL FREE ENERGY PREDICTED BY IDOCK:   -7.91 KCAL/MOL
REMARK 923 INTER-LIGAND FREE ENERGY PREDICTED BY IDOCK:   -7.31 KCAL/MOL
REMARK 924 INTRA-LIGAND FREE ENERGY PREDICTED BY IDOCK:   -0.61 KCAL/MOL
REMARK 927      BINDING AFFINITY PREDICTED BY RF-SCORE:    0.00 PKD
ROOT
HETATM    1 BR   UNL     1      -9.907  20.451  67.380  1.00  0.00    -0.553 Br 
HETATM    2  C   UNL     2      -8.084  17.275  68.830  1.00  0.00    -0.242 C  
HETATM    3  N   UNL     2      -8.355  16.221  67.704  1.00  0.00    -0.159 N  
HETATM    4  C   UNL     2      -7.031  16.148  66.970  1.00  0.00    -0.199 C  
HETATM    5  C   UNL     2      -9.551  16.705  66.835  1.00  0.00    -0.249 C  
HETATM    6  C   UNL     2     -10.743  16.540  67.798  1.00  0.00    -0.329 C  
HETATM    7  C   UNL     2     -10.320  15.420  68.768  1.00  0.00    -0.229 C  
HETATM    8  C   UNL     2      -8.964  14.906  68.241  1.00  0.00    -0.177 C  
HETATM    9  C   UNL     2      -9.033  13.886  67.075  1.00  0.00    -0.251 C  
HETATM   10  C   UNL     2      -9.957  14.321  65.939  1.00  0.00    -0.319 C  
HETATM   11  C   UNL     2      -9.721  15.789  65.601  1.00  0.00    -0.332 C  
ENDROOT
BRANCH  10  12
HETATM   12  O   UNL     2     -11.334  14.213  66.360  1.00  0.00    -0.320 OA 
BRANCH  12  13
HETATM   13  C   UNL     2     -11.910  12.982  66.491  1.00  0.00    -0.403 C  
HETATM   14  O   UNL     2     -12.161  12.429  67.557  1.00  0.00    -0.491 OA 
BRANCH  13  15
HETATM   15  C   UNL     2     -12.184  12.414  65.078  1.00  0.00    -0.399 C  
HETATM   16  O   UNL     2     -12.519  13.403  64.104  1.00  0.00    -0.608 OA 
HETATM   17  H   UNL     2     -12.687  13.054  63.237  1.00  0.00     0.000 HD 
BRANCH  15  18
HETATM   18  C   UNL     2     -11.008  11.574  64.622  1.00  0.00    -0.353 A  
HETATM   19  C   UNL     2     -10.545  11.726  63.300  1.00  0.00    -0.427 A  
HETATM   20  C   UNL     2      -9.522  10.942  62.810  1.00  0.00    -0.359 A  
HETATM   21  C   UNL     2      -8.928   9.982  63.620  1.00  0.00    -0.280 A  
HETATM   22  C   UNL     2      -9.366   9.807  64.934  1.00  0.00    -0.327 A  
HETATM   23  C   UNL     2     -10.408  10.593  65.431  1.00  0.00    -0.303 A  
ENDBRANCH  15  18
ENDBRANCH  13  15
ENDBRANCH  12  13
ENDBRANCH  10  12
TORSDOF 4
ENDMDL
MODEL       19
REMARK 921   NORMALIZED FREE ENERGY PREDICTED BY IDOCK:   -5.89 KCAL/MOL
REMARK 922        TOTAL FREE ENERGY PREDICTED BY IDOCK:   -7.91 KCAL/MOL
REMARK 923 INTER-LIGAND FREE ENERGY PREDICTED BY IDOCK:   -7.08 KCAL/MOL
REMARK 924 INTRA-LIGAND FREE ENERGY PREDICTED BY IDOCK:   -0.83 KCAL/MOL
REMARK 927      BINDING AFFINITY PREDICTED BY RF-SCORE:    0.00 PKD
ROOT
HETATM    1 BR   UNL     1      -9.841  11.160  63.450  1.00  0.00    -0.438 Br 
HETATM    2  C   UNL     2     -10.402  14.779  64.900  1.00  0.00    -0.332 C  
HETATM    3  N   UNL     2     -10.180  14.538  66.431  1.00  0.00    -0.279 N  
HETATM    4  C   UNL     2      -8.791  15.094  66.672  1.00  0.00    -0.286 C  
HETATM    5  C   UNL     2     -10.331  13.019  66.731  1.00  0.00    -0.254 C  
HETATM    6  C   UNL     2     -11.843  12.794  66.531  1.00  0.00    -0.471 C  
HETATM    7  C   UNL     2     -12.491  14.161  66.823  1.00  0.00    -0.200 C  
HETATM    8  C   UNL     2     -11.341  15.072  67.301  1.00  0.00    -0.332 C  
HETATM    9  C   UNL     2     -10.939  14.930  68.793  1.00  0.00    -0.259 C  
HETATM   10  C   UNL     2     -10.740  13.481  69.235  1.00  0.00     0.001 C  
HETATM   11  C   UNL     2      -9.927  12.720  68.194  1.00  0.00    -0.229 C  
ENDROOT
BRANCH  10  12
HETATM   12  O   UNL     2     -12.018  12.816  69.324  1.00  0.00    -0.289 OA 
BRANCH  12  13
HETATM   13  C   UNL     2     -12.362  12.157  70.469  1.00  0.00    -0.272 C  
HETATM   14  O   UNL     2     -12.475  12.674  71.576  1.00  0.00    -0.198 OA 
BRANCH  13  15
HETATM   15  C   UNL     2     -12.579  10.663  70.130  1.00  0.00    -0.214 C  
HETATM   16  O   UNL     2     -12.410  10.346  68.747  1.00  0.00    -0.691 OA 
HETATM   17  H   UNL     2     -12.543   9.429  68.538  1.00  0.00     0.000 HD 
BRANCH  15  18
HETATM   18  C   UNL     2     -11.689   9.800  71.000  1.00  0.00    -0.453 A  
HETATM   19  C   UNL     2     -10.298   9.828  70.775  1.00  0.00    -0.298 A  
HETATM   20  C   UNL     2      -9.445   9.015  71.493  1.00  0.00    -0.316 A  
HETATM   21  C   UNL     2      -9.949   8.150  72.456  1.00  0.00    -0.372 A  
HETATM   22  C   UNL     2     -11.323   8.100  72.700  1.00  0.00    -0.450 A  
HETATM   23  C   UNL     2     -12.190   8.915  71.970  1.00  0.00    -0.447 A  
ENDBRANCH  15  18
ENDBRANCH  13  15
ENDBRANCH  12  13
ENDBRANCH  10  12
TORSDOF 4
ENDMDL
MODEL       20
REMARK 921   NORMALIZED FREE ENERGY PREDICTED BY IDOCK:   -5.85 KCAL/MOL
REMARK 922        TOTAL FREE ENERGY PREDICTED BY IDOCK:   -7.86 KCAL/MOL
REMARK 923 INTER-LIGAND FREE ENERGY PREDICTED BY IDOCK:   -7.67 KCAL/MOL
REMARK 924 INTRA-LIGAND FREE ENERGY PREDICTED BY IDOCK:   -0.19 KCAL/MOL
REMARK 927      BINDING AFFINITY PREDICTED BY RF-SCORE:    0.00 PKD
ROOT
HETATM    1 BR   UNL     1      -9.680  19.183  68.720  1.00  0.00    -0.489 Br 
HETATM    2  C   UNL     2      -8.744  16.432  66.061  1.00  0.00    -0.239 C  
HETATM    3  N   UNL     2      -9.927  15.420  66.232  1.00  0.00    -0.269 N  
HETATM    4  C   UNL     2     -10.806  15.707  65.031  1.00  0.00    -0.450 C  
HETATM    5  C   UNL     2     -10.609  15.668  67.608  1.00  0.00    -0.294 C  
HETATM    6  C   UNL     2      -9.540  15.166  68.598  1.00  0.00    -0.213 C  
HETATM    7  C   UNL     2      -8.732  14.115  67.814  1.00  0.00    -0.182 C  
HETATM    8  C   UNL     2      -9.451  13.967  66.457  1.00  0.00    -0.279 C  
HETATM    9  C   UNL     2     -10.693  13.038  66.445  1.00  0.00    -0.295 C  
HETATM   10  C   UNL     2     -11.674  13.319  67.583  1.00  0.00    -0.366 C  
HETATM   11  C   UNL     2     -11.897  14.820  67.726  1.00  0.00    -0.322 C  
ENDROOT
BRANCH  10  12
HETATM   12  O   UNL     2     -11.116  12.865  68.834  1.00  0.00    -0.246 OA 
BRANCH  12  13
HETATM   13  C   UNL     2     -11.938  12.369  69.805  1.00  0.00    -0.289 C  
HETATM   14  O   UNL     2     -12.329  12.992  70.787  1.00  0.00    -0.363 OA 
BRANCH  13  15
HETATM   15  C   UNL     2     -12.282  10.902  69.455  1.00  0.00    -0.222 C  
HETATM   16  O   UNL     2     -11.709  10.443  68.229  1.00  0.00    -0.692 OA 
HETATM   17  H   UNL     2     -11.921   9.542  68.015  1.00  0.00     0.000 HD 
BRANCH  15  18
HETATM   18  C   UNL     2     -11.907   9.994  70.608  1.00  0.00    -0.411 A  
HETATM   19  C   UNL     2     -10.562   9.598  70.742  1.00  0.00    -0.392 A  
HETATM   20  C   UNL     2     -10.174   8.720  71.734  1.00  0.00    -0.408 A  
HETATM   21  C   UNL     2     -11.112   8.209  72.621  1.00  0.00    -0.450 A  
HETATM   22  C   UNL     2     -12.454   8.582  72.511  1.00  0.00    -0.358 A  
HETATM   23  C   UNL     2     -12.851   9.464  71.505  1.00  0.00    -0.442 A  
ENDBRANCH  15  18
ENDBRANCH  13  15
ENDBRANCH  12  13
ENDBRANCH  10  12
TORSDOF 4
ENDMDL
MODEL       21
REMARK 921   NORMALIZED FREE ENERGY PREDICTED BY IDOCK:   -5.85 KCAL/MOL
REMARK 922        TOTAL FREE ENERGY PREDICTED BY IDOCK:   -7.86 KCAL/MOL
REMARK 923 INTER-LIGAND FREE ENERGY PREDICTED BY IDOCK:   -6.62 KCAL/MOL
REMARK 924 INTRA-LIGAND FREE ENERGY PREDICTED BY IDOCK:   -1.24 KCAL/MOL
REMARK 927      BINDING AFFINITY PREDICTED BY RF-SCORE:    0.00 PKD
ROOT
HETATM    1 BR   UNL     1     -12.840  13.922  71.223  1.00  0.00    -0.435 Br 
HETATM    2  C   UNL     2      -9.801  15.411  69.208  1.00  0.00    -0.262 C  
HETATM    3  N   UNL     2     -10.352  15.372  67.743  1.00  0.00    -0.249 N  
HETATM    4  C   UNL     2     -10.720  16.817  67.470  1.00  0.00    -0.275 C  
HETATM    5  C   UNL     2     -11.545  14.377  67.677  1.00  0.00    -0.370 C  
HETATM    6  C   UNL     2     -10.845  13.014  67.852  1.00  0.00    -0.260 C  
HETATM    7  C   UNL     2      -9.414  13.231  67.326  1.00  0.00    -0.233 C  
HETATM    8  C   UNL     2      -9.394  14.665  66.756  1.00  0.00    -0.257 C  
HETATM    9  C   UNL     2      -9.959  14.832  65.321  1.00  0.00    -0.331 C  
HETATM   10  C   UNL     2     -11.315  14.157  65.118  1.00  0.00    -0.336 C  
HETATM   11  C   UNL     2     -12.235  14.458  66.295  1.00  0.00    -0.366 C  
ENDROOT
BRANCH  10  12
HETATM   12  O   UNL     2     -11.147  12.723  65.085  1.00  0.00    -0.282 OA 
BRANCH  12  13
HETATM   13  C   UNL     2     -11.487  12.025  63.961  1.00  0.00    -0.404 C  
HETATM   14  O   UNL     2     -12.571  12.090  63.390  1.00  0.00    -0.627 OA 
BRANCH  13  15
HETATM   15  C   UNL     2     -10.282  11.149  63.543  1.00  0.00    -0.390 C  
HETATM   16  O   UNL     2      -9.345  11.811  62.691  1.00  0.00    -0.519 OA 
HETATM   17  H   UNL     2      -8.606  11.273  62.435  1.00  0.00     0.000 HD 
BRANCH  15  18
HETATM   18  C   UNL     2      -9.601  10.586  64.773  1.00  0.00    -0.342 A  
HETATM   19  C   UNL     2      -8.215  10.791  64.927  1.00  0.00     0.022 A  
HETATM   20  C   UNL     2      -7.530  10.246  65.994  1.00  0.00    -0.128 A  
HETATM   21  C   UNL     2      -8.201   9.480  66.937  1.00  0.00    -0.113 A  
HETATM   22  C   UNL     2      -9.574   9.258  66.810  1.00  0.00    -0.240 A  
HETATM   23  C   UNL     2     -10.269   9.802  65.728  1.00  0.00    -0.222 A  
ENDBRANCH  15  18
ENDBRANCH  13  15
ENDBRANCH  12  13
ENDBRANCH  10  12
TORSDOF 4
ENDMDL
MODEL       22
REMARK 921   NORMALIZED FREE ENERGY PREDICTED BY IDOCK:   -5.81 KCAL/MOL
REMARK 922        TOTAL FREE ENERGY PREDICTED BY IDOCK:   -7.81 KCAL/MOL
REMARK 923 INTER-LIGAND FREE ENERGY PREDICTED BY IDOCK:   -7.62 KCAL/MOL
REMARK 924 INTRA-LIGAND FREE ENERGY PREDICTED BY IDOCK:   -0.20 KCAL/MOL
REMARK 927      BINDING AFFINITY PREDICTED BY RF-SCORE:    0.00 PKD
ROOT
HETATM    1 BR   UNL     1      -9.207   6.672  66.680  1.00  0.00    -0.189 Br 
HETATM    2  C   UNL     2      -8.205   6.057  70.439  1.00  0.00    -0.116 C  
HETATM    3  N   UNL     2      -9.550   6.373  71.175  1.00  0.00    -0.174 N  
HETATM    4  C   UNL     2     -10.092   5.000  71.515  1.00  0.00    -0.196 C  
HETATM    5  C   UNL     2     -10.458   7.211  70.230  1.00  0.00    -0.217 C  
HETATM    6  C   UNL     2      -9.725   8.567  70.189  1.00  0.00    -0.175 C  
HETATM    7  C   UNL     2      -8.958   8.646  71.522  1.00  0.00    -0.302 C  
HETATM    8  C   UNL     2      -9.386   7.397  72.321  1.00  0.00    -0.142 C  
HETATM    9  C   UNL     2     -10.735   7.506  73.078  1.00  0.00    -0.438 C  
HETATM   10  C   UNL     2     -11.874   8.048  72.216  1.00  0.00    -0.369 C  
HETATM   11  C   UNL     2     -11.866   7.376  70.848  1.00  0.00    -0.320 C  
ENDROOT
BRANCH  10  12
HETATM   12  O   UNL     2     -11.681   9.460  71.981  1.00  0.00    -0.355 OA 
BRANCH  12  13
HETATM   13  C   UNL     2     -12.729  10.229  71.563  1.00  0.00    -0.452 C  
HETATM   14  O   UNL     2     -13.886  10.120  71.956  1.00  0.00    -0.191 OA 
BRANCH  13  15
HETATM   15  C   UNL     2     -12.207  11.246  70.520  1.00  0.00    -0.383 C  
HETATM   16  O   UNL     2     -12.600  10.960  69.177  1.00  0.00    -0.664 OA 
HETATM   17  H   UNL     2     -12.280  11.584  68.536  1.00  0.00     0.000 HD 
BRANCH  15  18
HETATM   18  C   UNL     2     -12.610  12.650  70.920  1.00  0.00    -0.338 A  
HETATM   19  C   UNL     2     -12.165  13.729  70.131  1.00  0.00    -0.425 A  
HETATM   20  C   UNL     2     -12.446  15.032  70.484  1.00  0.00    -0.425 A  
HETATM   21  C   UNL     2     -13.177  15.303  71.633  1.00  0.00    -0.532 A  
HETATM   22  C   UNL     2     -13.630  14.255  72.436  1.00  0.00    -0.599 A  
HETATM   23  C   UNL     2     -13.341  12.935  72.087  1.00  0.00    -0.615 A  
ENDBRANCH  15  18
ENDBRANCH  13  15
ENDBRANCH  12  13
ENDBRANCH  10  12
TORSDOF 4
ENDMDL
MODEL       23
REMARK 921   NORMALIZED FREE ENERGY PREDICTED BY IDOCK:   -5.81 KCAL/MOL
REMARK 922        TOTAL FREE ENERGY PREDICTED BY IDOCK:   -7.81 KCAL/MOL
REMARK 923 INTER-LIGAND FREE ENERGY PREDICTED BY IDOCK:   -6.69 KCAL/MOL
REMARK 924 INTRA-LIGAND FREE ENERGY PREDICTED BY IDOCK:   -1.12 KCAL/MOL
REMARK 927      BINDING AFFINITY PREDICTED BY RF-SCORE:    0.00 PKD
ROOT
HETATM    1 BR   UNL     1     -11.985  10.502  70.859  1.00  0.00    -0.484 Br 
HETATM    2  C   UNL     2      -9.123   8.390  69.169  1.00  0.00    -0.147 C  
HETATM    3  N   UNL     2      -8.585   9.396  68.097  1.00  0.00    -0.120 N  
HETATM    4  C   UNL     2      -7.296   9.904  68.711  1.00  0.00    -0.078 C  
HETATM    5  C   UNL     2      -9.660  10.494  67.850  1.00  0.00    -0.150 C  
HETATM    6  C   UNL     2     -10.763   9.711  67.110  1.00  0.00    -0.258 C  
HETATM    7  C   UNL     2     -10.029   8.550  66.413  1.00  0.00    -0.314 C  
HETATM    8  C   UNL     2      -8.528   8.792  66.676  1.00  0.00    -0.108 C  
HETATM    9  C   UNL     2      -7.831   9.811  65.738  1.00  0.00    -0.110 C  
HETATM   10  C   UNL     2      -8.601  11.123  65.585  1.00  0.00    -0.083 C  
HETATM   11  C   UNL     2      -9.088  11.609  66.945  1.00  0.00    -0.188 C  
ENDROOT
BRANCH  10  12
HETATM   12  O   UNL     2      -9.779  10.907  64.779  1.00  0.00    -0.229 OA 
BRANCH  12  13
HETATM   13  C   UNL     2      -9.834  11.402  63.508  1.00  0.00    -0.375 C  
HETATM   14  O   UNL     2      -8.974  11.236  62.648  1.00  0.00    -0.324 OA 
BRANCH  13  15
HETATM   15  C   UNL     2     -11.149  12.200  63.346  1.00  0.00    -0.420 C  
HETATM   16  O   UNL     2     -12.294  11.391  63.068  1.00  0.00    -0.952 OA 
HETATM   17  H   UNL     2     -13.101  11.881  62.968  1.00  0.00     0.000 HD 
BRANCH  15  18
HETATM   18  C   UNL     2     -11.379  13.071  64.564  1.00  0.00    -0.377 A  
HETATM   19  C   UNL     2     -10.595  14.231  64.718  1.00  0.00    -0.434 A  
HETATM   20  C   UNL     2     -10.714  15.027  65.839  1.00  0.00    -0.337 A  
HETATM   21  C   UNL     2     -11.616  14.692  66.840  1.00  0.00    -0.374 A  
HETATM   22  C   UNL     2     -12.406  13.547  66.716  1.00  0.00    -0.326 A  
HETATM   23  C   UNL     2     -12.282  12.735  65.587  1.00  0.00    -0.503 A  
ENDBRANCH  15  18
ENDBRANCH  13  15
ENDBRANCH  12  13
ENDBRANCH  10  12
TORSDOF 4
ENDMDL
MODEL       24
REMARK 921   NORMALIZED FREE ENERGY PREDICTED BY IDOCK:   -5.80 KCAL/MOL
REMARK 922        TOTAL FREE ENERGY PREDICTED BY IDOCK:   -7.79 KCAL/MOL
REMARK 923 INTER-LIGAND FREE ENERGY PREDICTED BY IDOCK:   -6.89 KCAL/MOL
REMARK 924 INTRA-LIGAND FREE ENERGY PREDICTED BY IDOCK:   -0.90 KCAL/MOL
REMARK 927      BINDING AFFINITY PREDICTED BY RF-SCORE:    0.00 PKD
ROOT
HETATM    1 BR   UNL     1     -12.588  15.466  70.746  1.00  0.00    -0.520 Br 
HETATM    2  C   UNL     2     -11.003  15.384  67.141  1.00  0.00    -0.317 C  
HETATM    3  N   UNL     2     -11.273  13.901  66.717  1.00  0.00    -0.310 N  
HETATM    4  C   UNL     2     -12.444  14.020  65.761  1.00  0.00    -0.494 C  
HETATM    5  C   UNL     2     -11.562  13.055  67.991  1.00  0.00    -0.343 C  
HETATM    6  C   UNL     2     -10.179  13.005  68.670  1.00  0.00    -0.173 C  
HETATM    7  C   UNL     2      -9.164  13.166  67.522  1.00  0.00    -0.206 C  
HETATM    8  C   UNL     2     -10.002  13.172  66.226  1.00  0.00    -0.285 C  
HETATM    9  C   UNL     2     -10.416  11.780  65.681  1.00  0.00    -0.308 C  
HETATM   10  C   UNL     2     -11.019  10.863  66.745  1.00  0.00    -0.185 C  
HETATM   11  C   UNL     2     -12.023  11.633  67.596  1.00  0.00    -0.086 C  
ENDROOT
BRANCH  10  12
HETATM   12  O   UNL     2      -9.983  10.409  67.643  1.00  0.00    -0.166 OA 
BRANCH  12  13
HETATM   13  C   UNL     2     -10.060   9.162  68.194  1.00  0.00    -0.189 C  
HETATM   14  O   UNL     2     -10.442   8.154  67.609  1.00  0.00    -0.234 OA 
BRANCH  13  15
HETATM   15  C   UNL     2      -9.590   9.245  69.666  1.00  0.00    -0.183 C  
HETATM   16  O   UNL     2      -8.694  10.324  69.934  1.00  0.00    -0.365 OA 
HETATM   17  H   UNL     2      -8.406  10.375  70.838  1.00  0.00     0.000 HD 
BRANCH  15  18
HETATM   18  C   UNL     2     -10.790   9.286  70.590  1.00  0.00    -0.339 A  
HETATM   19  C   UNL     2     -11.126   8.122  71.308  1.00  0.00    -0.287 A  
HETATM   20  C   UNL     2     -12.245   8.082  72.114  1.00  0.00    -0.377 A  
HETATM   21  C   UNL     2     -13.064   9.197  72.229  1.00  0.00    -0.509 A  
HETATM   22  C   UNL     2     -12.757  10.365  71.528  1.00  0.00    -0.564 A  
HETATM   23  C   UNL     2     -11.630  10.408  70.705  1.00  0.00    -0.450 A  
ENDBRANCH  15  18
ENDBRANCH  13  15
ENDBRANCH  12  13
ENDBRANCH  10  12
TORSDOF 4
ENDMDL
MODEL       25
REMARK 921   NORMALIZED FREE ENERGY PREDICTED BY IDOCK:   -5.78 KCAL/MOL
REMARK 922        TOTAL FREE ENERGY PREDICTED BY IDOCK:   -7.78 KCAL/MOL
REMARK 923 INTER-LIGAND FREE ENERGY PREDICTED BY IDOCK:   -6.44 KCAL/MOL
REMARK 924 INTRA-LIGAND FREE ENERGY PREDICTED BY IDOCK:   -1.34 KCAL/MOL
REMARK 927      BINDING AFFINITY PREDICTED BY RF-SCORE:    0.00 PKD
ROOT
HETATM    1 BR   UNL     1      -9.483   9.445  65.335  1.00  0.00    -0.276 Br 
HETATM    2  C   UNL     2      -9.631  11.445  68.725  1.00  0.00    -0.129 C  
HETATM    3  N   UNL     2     -10.595  12.620  68.351  1.00  0.00    -0.238 N  
HETATM    4  C   UNL     2     -11.904  12.216  68.998  1.00  0.00    -0.306 C  
HETATM    5  C   UNL     2     -10.654  12.753  66.801  1.00  0.00    -0.252 C  
HETATM    6  C   UNL     2      -9.251  13.297  66.466  1.00  0.00    -0.182 C  
HETATM    7  C   UNL     2      -8.801  14.048  67.734  1.00  0.00    -0.187 C  
HETATM    8  C   UNL     2     -10.013  14.011  68.689  1.00  0.00    -0.203 C  
HETATM    9  C   UNL     2     -11.111  15.077  68.433  1.00  0.00    -0.284 C  
HETATM   10  C   UNL     2     -11.541  15.168  66.969  1.00  0.00    -0.174 C  
HETATM   11  C   UNL     2     -11.742  13.772  66.392  1.00  0.00    -0.404 C  
ENDROOT
BRANCH  10  12
HETATM   12  O   UNL     2     -10.496  15.788  66.189  1.00  0.00    -0.294 OA 
BRANCH  12  13
HETATM   13  C   UNL     2     -10.755  16.937  65.499  1.00  0.00    -0.163 C  
HETATM   14  O   UNL     2     -11.384  17.004  64.448  1.00  0.00    -1.140 OA 
BRANCH  13  15
HETATM   15  C   UNL     2     -10.121  18.124  66.264  1.00  0.00    -0.371 C  
HETATM   16  O   UNL     2     -10.944  18.658  67.302  1.00  0.00    -0.387 OA 
HETATM   17  H   UNL     2     -10.554  19.386  67.771  1.00  0.00     0.000 HD 
BRANCH  15  18
HETATM   18  C   UNL     2      -8.759  17.727  66.795  1.00  0.00    -0.273 A  
HETATM   19  C   UNL     2      -8.542  17.767  68.187  1.00  0.00    -0.262 A  
HETATM   20  C   UNL     2      -7.303  17.480  68.722  1.00  0.00    -0.260 A  
HETATM   21  C   UNL     2      -6.243  17.146  67.891  1.00  0.00    -0.150 A  
HETATM   22  C   UNL     2      -6.427  17.099  66.507  1.00  0.00    -0.268 A  
HETATM   23  C   UNL     2      -7.677  17.397  65.961  1.00  0.00    -0.233 A  
ENDBRANCH  15  18
ENDBRANCH  13  15
ENDBRANCH  12  13
ENDBRANCH  10  12
TORSDOF 4
ENDMDL
MODEL       26
REMARK 921   NORMALIZED FREE ENERGY PREDICTED BY IDOCK:   -5.78 KCAL/MOL
REMARK 922        TOTAL FREE ENERGY PREDICTED BY IDOCK:   -7.78 KCAL/MOL
REMARK 923 INTER-LIGAND FREE ENERGY PREDICTED BY IDOCK:   -7.08 KCAL/MOL
REMARK 924 INTRA-LIGAND FREE ENERGY PREDICTED BY IDOCK:   -0.70 KCAL/MOL
REMARK 927      BINDING AFFINITY PREDICTED BY RF-SCORE:    0.00 PKD
ROOT
HETATM    1 BR   UNL     1     -12.707  10.416  71.329  1.00  0.00    -0.574 Br 
HETATM    2  C   UNL     2      -9.773   9.240  68.978  1.00  0.00    -0.162 C  
HETATM    3  N   UNL     2      -9.233  10.610  68.447  1.00  0.00    -0.152 N  
HETATM    4  C   UNL     2      -7.966  10.819  69.251  1.00  0.00    -0.106 C  
HETATM    5  C   UNL     2     -10.322  11.700  68.660  1.00  0.00    -0.215 C  
HETATM    6  C   UNL     2     -11.396  11.296  67.630  1.00  0.00    -0.352 C  
HETATM    7  C   UNL     2     -10.627  10.546  66.526  1.00  0.00    -0.240 C  
HETATM    8  C   UNL     2      -9.136  10.665  66.906  1.00  0.00    -0.155 C  
HETATM    9  C   UNL     2      -8.438  11.991  66.506  1.00  0.00    -0.065 C  
HETATM   10  C   UNL     2      -9.229  13.238  66.902  1.00  0.00    -0.241 C  
HETATM   11  C   UNL     2      -9.752  13.099  68.327  1.00  0.00    -0.223 C  
ENDROOT
BRANCH  10  12
HETATM   12  O   UNL     2     -10.387  13.375  66.051  1.00  0.00    -0.285 OA 
BRANCH  12  13
HETATM   13  C   UNL     2     -11.150  14.505  66.119  1.00  0.00    -0.334 C  
HETATM   14  O   UNL     2     -12.260  14.578  66.638  1.00  0.00    -0.379 OA 
BRANCH  13  15
HETATM   15  C   UNL     2     -10.383  15.659  65.433  1.00  0.00    -0.393 C  
HETATM   16  O   UNL     2     -10.919  16.048  64.167  1.00  0.00    -0.975 OA 
HETATM   17  H   UNL     2     -10.448  16.756  63.746  1.00  0.00     0.000 HD 
BRANCH  15  18
HETATM   18  C   UNL     2     -10.283  16.844  66.371  1.00  0.00    -0.326 A  
HETATM   19  C   UNL     2     -10.495  18.135  65.849  1.00  0.00    -0.292 A  
HETATM   20  C   UNL     2     -10.352  19.255  66.642  1.00  0.00    -0.529 A  
HETATM   21  C   UNL     2      -9.995  19.125  67.978  1.00  0.00    -0.458 A  
HETATM   22  C   UNL     2      -9.777  17.858  68.523  1.00  0.00    -0.352 A  
HETATM   23  C   UNL     2      -9.912  16.723  67.722  1.00  0.00    -0.268 A  
ENDBRANCH  15  18
ENDBRANCH  13  15
ENDBRANCH  12  13
ENDBRANCH  10  12
TORSDOF 4
ENDMDL
MODEL       27
REMARK 921   NORMALIZED FREE ENERGY PREDICTED BY IDOCK:   -5.72 KCAL/MOL
REMARK 922        TOTAL FREE ENERGY PREDICTED BY IDOCK:   -7.70 KCAL/MOL
REMARK 923 INTER-LIGAND FREE ENERGY PREDICTED BY IDOCK:   -6.86 KCAL/MOL
REMARK 924 INTRA-LIGAND FREE ENERGY PREDICTED BY IDOCK:   -0.83 KCAL/MOL
REMARK 927      BINDING AFFINITY PREDICTED BY RF-SCORE:    0.00 PKD
ROOT
HETATM    1 BR   UNL     1      -7.583  11.003  68.811  1.00  0.00    -0.135 Br 
HETATM    2  C   UNL     2     -11.061  11.044  66.963  1.00  0.00    -0.244 C  
HETATM    3  N   UNL     2     -10.930  12.333  66.083  1.00  0.00    -0.281 N  
HETATM    4  C   UNL     2     -10.656  11.781  64.698  1.00  0.00    -0.308 C  
HETATM    5  C   UNL     2      -9.795  13.226  66.660  1.00  0.00    -0.276 C  
HETATM    6  C   UNL     2     -10.415  13.733  67.978  1.00  0.00    -0.245 C  
HETATM    7  C   UNL     2     -11.937  13.704  67.739  1.00  0.00    -0.387 C  
HETATM    8  C   UNL     2     -12.116  13.307  66.258  1.00  0.00    -0.414 C  
HETATM    9  C   UNL     2     -11.964  14.454  65.225  1.00  0.00    -0.382 C  
HETATM   10  C   UNL     2     -10.712  15.304  65.440  1.00  0.00    -0.391 C  
HETATM   11  C   UNL     2      -9.508  14.409  65.707  1.00  0.00    -0.130 C  
ENDROOT
BRANCH  10  12
HETATM   12  O   UNL     2     -10.876  16.132  66.611  1.00  0.00    -0.268 OA 
BRANCH  12  13
HETATM   13  C   UNL     2     -10.266  17.352  66.672  1.00  0.00    -0.324 C  
HETATM   14  O   UNL     2      -9.853  17.984  65.706  1.00  0.00    -0.539 OA 
BRANCH  13  15
HETATM   15  C   UNL     2     -10.186  17.788  68.155  1.00  0.00    -0.382 C  
HETATM   16  O   UNL     2     -10.784  16.866  69.069  1.00  0.00    -0.328 OA 
HETATM   17  H   UNL     2     -10.735  17.134  69.979  1.00  0.00     0.000 HD 
BRANCH  15  18
HETATM   18  C   UNL     2      -8.748  18.077  68.532  1.00  0.00    -0.304 A  
HETATM   19  C   UNL     2      -7.874  16.991  68.734  1.00  0.00    -0.253 A  
HETATM   20  C   UNL     2      -6.572  17.192  69.142  1.00  0.00    -0.231 A  
HETATM   21  C   UNL     2      -6.099  18.479  69.361  1.00  0.00    -0.268 A  
HETATM   22  C   UNL     2      -6.942  19.575  69.170  1.00  0.00    -0.392 A  
HETATM   23  C   UNL     2      -8.263  19.376  68.765  1.00  0.00    -0.382 A  
ENDBRANCH  15  18
ENDBRANCH  13  15
ENDBRANCH  12  13
ENDBRANCH  10  12
TORSDOF 4
ENDMDL
MODEL       28
REMARK 921   NORMALIZED FREE ENERGY PREDICTED BY IDOCK:   -5.65 KCAL/MOL
REMARK 922        TOTAL FREE ENERGY PREDICTED BY IDOCK:   -7.61 KCAL/MOL
REMARK 923 INTER-LIGAND FREE ENERGY PREDICTED BY IDOCK:   -6.71 KCAL/MOL
REMARK 924 INTRA-LIGAND FREE ENERGY PREDICTED BY IDOCK:   -0.90 KCAL/MOL
REMARK 927      BINDING AFFINITY PREDICTED BY RF-SCORE:    0.00 PKD
ROOT
HETATM    1 BR   UNL     1      -5.901  16.792  69.344  1.00  0.00    -0.191 Br 
HETATM    2  C   UNL     2      -8.491  16.209  66.435  1.00  0.00    -0.334 C  
HETATM    3  N   UNL     2      -9.813  15.972  67.239  1.00  0.00    -0.233 N  
HETATM    4  C   UNL     2     -10.552  17.286  67.090  1.00  0.00    -0.256 C  
HETATM    5  C   UNL     2      -9.453  15.595  68.705  1.00  0.00    -0.214 C  
HETATM    6  C   UNL     2      -8.854  14.183  68.543  1.00  0.00    -0.173 C  
HETATM    7  C   UNL     2      -9.508  13.617  67.268  1.00  0.00    -0.230 C  
HETATM    8  C   UNL     2     -10.545  14.673  66.830  1.00  0.00    -0.281 C  
HETATM    9  C   UNL     2     -11.910  14.628  67.565  1.00  0.00    -0.375 C  
HETATM   10  C   UNL     2     -11.781  14.553  69.086  1.00  0.00    -0.314 C  
HETATM   11  C   UNL     2     -10.731  15.544  69.574  1.00  0.00    -0.272 C  
ENDROOT
BRANCH  10  12
HETATM   12  O   UNL     2     -11.320  13.241  69.473  1.00  0.00    -0.240 OA 
BRANCH  12  13
HETATM   13  C   UNL     2     -12.137  12.419  70.195  1.00  0.00    -0.290 C  
HETATM   14  O   UNL     2     -12.754  12.746  71.204  1.00  0.00    -0.359 OA 
BRANCH  13  15
HETATM   15  C   UNL     2     -12.144  11.023  69.529  1.00  0.00    -0.329 C  
HETATM   16  O   UNL     2     -12.278  11.054  68.107  1.00  0.00    -0.765 OA 
HETATM   17  H   UNL     2     -12.283  10.197  67.698  1.00  0.00     0.000 HD 
BRANCH  15  18
HETATM   18  C   UNL     2     -10.912  10.245  69.945  1.00  0.00    -0.358 A  
HETATM   19  C   UNL     2     -10.941   9.543  71.166  1.00  0.00    -0.438 A  
HETATM   20  C   UNL     2      -9.827   8.871  71.627  1.00  0.00    -0.387 A  
HETATM   21  C   UNL     2      -8.652   8.878  70.887  1.00  0.00    -0.242 A  
HETATM   22  C   UNL     2      -8.593   9.567  69.674  1.00  0.00    -0.189 A  
HETATM   23  C   UNL     2      -9.715  10.254  69.208  1.00  0.00    -0.240 A  
ENDBRANCH  15  18
ENDBRANCH  13  15
ENDBRANCH  12  13
ENDBRANCH  10  12
TORSDOF 4
ENDMDL
MODEL       29
REMARK 921   NORMALIZED FREE ENERGY PREDICTED BY IDOCK:   -5.65 KCAL/MOL
REMARK 922        TOTAL FREE ENERGY PREDICTED BY IDOCK:   -7.61 KCAL/MOL
REMARK 923 INTER-LIGAND FREE ENERGY PREDICTED BY IDOCK:   -6.70 KCAL/MOL
REMARK 924 INTRA-LIGAND FREE ENERGY PREDICTED BY IDOCK:   -0.90 KCAL/MOL
REMARK 927      BINDING AFFINITY PREDICTED BY RF-SCORE:    0.00 PKD
ROOT
HETATM    1 BR   UNL     1     -11.770  16.022  71.861  1.00  0.00    -0.574 Br 
HETATM    2  C   UNL     2      -9.273  17.229  69.064  1.00  0.00    -0.109 C  
HETATM    3  N   UNL     2      -9.951  16.655  67.775  1.00  0.00    -0.256 N  
HETATM    4  C   UNL     2     -10.604  17.873  67.153  1.00  0.00    -0.307 C  
HETATM    5  C   UNL     2     -10.942  15.528  68.183  1.00  0.00    -0.312 C  
HETATM    6  C   UNL     2      -9.990  14.404  68.639  1.00  0.00    -0.241 C  
HETATM    7  C   UNL     2      -8.683  14.650  67.863  1.00  0.00    -0.169 C  
HETATM    8  C   UNL     2      -8.984  15.821  66.904  1.00  0.00    -0.240 C  
HETATM    9  C   UNL     2      -9.710  15.448  65.585  1.00  0.00    -0.366 C  
HETATM   10  C   UNL     2     -10.932  14.555  65.795  1.00  0.00    -0.319 C  
HETATM   11  C   UNL     2     -11.770  15.073  66.959  1.00  0.00    -0.199 C  
ENDROOT
BRANCH  10  12
HETATM   12  O   UNL     2     -10.509  13.222  66.155  1.00  0.00    -0.283 OA 
BRANCH  12  13
HETATM   13  C   UNL     2     -11.377  12.176  66.030  1.00  0.00    -0.358 C  
HETATM   14  O   UNL     2     -12.509  12.249  65.565  1.00  0.00    -0.597 OA 
BRANCH  13  15
HETATM   15  C   UNL     2     -10.691  10.900  66.574  1.00  0.00    -0.209 C  
HETATM   16  O   UNL     2      -9.301  10.803  66.258  1.00  0.00    -0.171 OA 
HETATM   17  H   UNL     2      -8.880  10.020  66.592  1.00  0.00     0.000 HD 
BRANCH  15  18
HETATM   18  C   UNL     2     -10.922  10.785  68.067  1.00  0.00    -0.336 A  
HETATM   19  C   UNL     2     -10.060   9.962  68.819  1.00  0.00    -0.186 A  
HETATM   20  C   UNL     2     -10.262   9.768  70.170  1.00  0.00    -0.328 A  
HETATM   21  C   UNL     2     -11.327  10.386  70.813  1.00  0.00    -0.370 A  
HETATM   22  C   UNL     2     -12.198  11.206  70.093  1.00  0.00    -0.417 A  
HETATM   23  C   UNL     2     -12.002  11.398  68.725  1.00  0.00    -0.353 A  
ENDBRANCH  15  18
ENDBRANCH  13  15
ENDBRANCH  12  13
ENDBRANCH  10  12
TORSDOF 4
ENDMDL
MODEL       30
REMARK 921   NORMALIZED FREE ENERGY PREDICTED BY IDOCK:   -5.62 KCAL/MOL
REMARK 922        TOTAL FREE ENERGY PREDICTED BY IDOCK:   -7.58 KCAL/MOL
REMARK 923 INTER-LIGAND FREE ENERGY PREDICTED BY IDOCK:   -6.93 KCAL/MOL
REMARK 924 INTRA-LIGAND FREE ENERGY PREDICTED BY IDOCK:   -0.65 KCAL/MOL
REMARK 927      BINDING AFFINITY PREDICTED BY RF-SCORE:    0.00 PKD
ROOT
HETATM    1 BR   UNL     1     -12.162  10.989  70.585  1.00  0.00    -0.503 Br 
HETATM    2  C   UNL     2     -11.400  11.413  66.744  1.00  0.00    -0.179 C  
HETATM    3  N   UNL     2     -10.417  12.631  66.755  1.00  0.00    -0.239 N  
HETATM    4  C   UNL     2      -9.062  11.987  66.541  1.00  0.00    -0.202 C  
HETATM    5  C   UNL     2     -10.567  13.390  68.105  1.00  0.00    -0.245 C  
HETATM    6  C   UNL     2     -11.961  14.034  67.966  1.00  0.00    -0.386 C  
HETATM    7  C   UNL     2     -12.174  14.198  66.449  1.00  0.00    -0.473 C  
HETATM    8  C   UNL     2     -10.846  13.763  65.794  1.00  0.00    -0.277 C  
HETATM    9  C   UNL     2      -9.723  14.832  65.764  1.00  0.00    -0.347 C  
HETATM   10  C   UNL     2      -9.496  15.515  67.112  1.00  0.00    -0.215 C  
HETATM   11  C   UNL     2      -9.477  14.480  68.230  1.00  0.00    -0.207 C  
ENDROOT
BRANCH  10  12
HETATM   12  O   UNL     2     -10.593  16.409  67.398  1.00  0.00    -0.314 OA 
BRANCH  12  13
HETATM   13  C   UNL     2     -10.341  17.666  67.869  1.00  0.00    -0.371 C  
HETATM   14  O   UNL     2     -10.379  17.999  69.049  1.00  0.00    -0.350 OA 
BRANCH  13  15
HETATM   15  C   UNL     2     -10.007  18.583  66.668  1.00  0.00    -0.372 C  
HETATM   16  O   UNL     2     -10.893  19.694  66.517  1.00  0.00    -0.447 OA 
HETATM   17  H   UNL     2     -10.688  20.256  65.780  1.00  0.00     0.000 HD 
BRANCH  15  18
HETATM   18  C   UNL     2      -8.566  19.039  66.752  1.00  0.00    -0.313 A  
HETATM   19  C   UNL     2      -8.303  20.373  67.123  1.00  0.00    -0.382 A  
HETATM   20  C   UNL     2      -7.013  20.862  67.153  1.00  0.00    -0.426 A  
HETATM   21  C   UNL     2      -5.947  20.041  66.813  1.00  0.00    -0.190 A  
HETATM   22  C   UNL     2      -6.176  18.715  66.439  1.00  0.00    -0.205 A  
HETATM   23  C   UNL     2      -7.480  18.219  66.401  1.00  0.00    -0.284 A  
ENDBRANCH  15  18
ENDBRANCH  13  15
ENDBRANCH  12  13
ENDBRANCH  10  12
TORSDOF 4
ENDMDL
MODEL       31
REMARK 921   NORMALIZED FREE ENERGY PREDICTED BY IDOCK:   -5.60 KCAL/MOL
REMARK 922        TOTAL FREE ENERGY PREDICTED BY IDOCK:   -7.55 KCAL/MOL
REMARK 923 INTER-LIGAND FREE ENERGY PREDICTED BY IDOCK:   -6.69 KCAL/MOL
REMARK 924 INTRA-LIGAND FREE ENERGY PREDICTED BY IDOCK:   -0.86 KCAL/MOL
REMARK 927      BINDING AFFINITY PREDICTED BY RF-SCORE:    0.00 PKD
ROOT
HETATM    1 BR   UNL     1     -11.773   9.565  71.410  1.00  0.00    -0.488 Br 
HETATM    2  C   UNL     2      -8.828   8.396  69.070  1.00  0.00    -0.146 C  
HETATM    3  N   UNL     2      -8.590   9.680  68.206  1.00  0.00    -0.119 N  
HETATM    4  C   UNL     2      -7.335  10.278  68.811  1.00  0.00    -0.086 C  
HETATM    5  C   UNL     2      -9.848  10.591  68.295  1.00  0.00    -0.149 C  
HETATM    6  C   UNL     2     -10.891   9.787  67.493  1.00  0.00    -0.286 C  
HETATM    7  C   UNL     2     -10.067   8.946  66.500  1.00  0.00    -0.356 C  
HETATM    8  C   UNL     2      -8.604   9.398  66.687  1.00  0.00    -0.130 C  
HETATM    9  C   UNL     2      -8.195  10.696  65.944  1.00  0.00    -0.159 C  
HETATM   10  C   UNL     2      -9.178  11.849  66.146  1.00  0.00    -0.199 C  
HETATM   11  C   UNL     2      -9.573  11.952  67.615  1.00  0.00    -0.185 C  
ENDROOT
BRANCH  10  12
HETATM   12  O   UNL     2     -10.394  11.591  65.412  1.00  0.00    -0.252 OA 
BRANCH  12  13
HETATM   13  C   UNL     2     -10.617  12.225  64.223  1.00  0.00    -0.354 C  
HETATM   14  O   UNL     2      -9.974  12.045  63.194  1.00  0.00    -0.407 OA 
BRANCH  13  15
HETATM   15  C   UNL     2     -11.806  13.200  64.402  1.00  0.00    -0.388 C  
HETATM   16  O   UNL     2     -13.040  12.563  64.735  1.00  0.00    -0.853 OA 
HETATM   17  H   UNL     2     -13.769  13.161  64.844  1.00  0.00     0.000 HD 
BRANCH  15  18
HETATM   18  C   UNL     2     -11.451  14.267  65.416  1.00  0.00    -0.332 A  
HETATM   19  C   UNL     2     -10.480  15.228  65.070  1.00  0.00    -0.411 A  
HETATM   20  C   UNL     2     -10.069  16.184  65.976  1.00  0.00    -0.372 A  
HETATM   21  C   UNL     2     -10.612  16.213  67.254  1.00  0.00    -0.305 A  
HETATM   22  C   UNL     2     -11.575  15.273  67.627  1.00  0.00    -0.249 A  
HETATM   23  C   UNL     2     -11.987  14.300  66.715  1.00  0.00    -0.462 A  
ENDBRANCH  15  18
ENDBRANCH  13  15
ENDBRANCH  12  13
ENDBRANCH  10  12
TORSDOF 4
ENDMDL
MODEL       32
REMARK 921   NORMALIZED FREE ENERGY PREDICTED BY IDOCK:   -5.59 KCAL/MOL
REMARK 922        TOTAL FREE ENERGY PREDICTED BY IDOCK:   -7.54 KCAL/MOL
REMARK 923 INTER-LIGAND FREE ENERGY PREDICTED BY IDOCK:   -6.76 KCAL/MOL
REMARK 924 INTRA-LIGAND FREE ENERGY PREDICTED BY IDOCK:   -0.78 KCAL/MOL
REMARK 927      BINDING AFFINITY PREDICTED BY RF-SCORE:    0.00 PKD
ROOT
HETATM    1 BR   UNL     1     -10.649  18.831  67.314  1.00  0.00    -0.497 Br 
HETATM    2  C   UNL     2      -8.847  15.509  66.203  1.00  0.00    -0.238 C  
HETATM    3  N   UNL     2      -9.962  14.444  66.479  1.00  0.00    -0.273 N  
HETATM    4  C   UNL     2     -10.501  14.138  65.096  1.00  0.00    -0.402 C  
HETATM    5  C   UNL     2     -11.006  15.048  67.462  1.00  0.00    -0.307 C  
HETATM    6  C   UNL     2     -10.213  15.113  68.783  1.00  0.00    -0.235 C  
HETATM    7  C   UNL     2      -9.155  14.000  68.667  1.00  0.00    -0.107 C  
HETATM    8  C   UNL     2      -9.469  13.264  67.347  1.00  0.00    -0.218 C  
HETATM    9  C   UNL     2     -10.596  12.201  67.414  1.00  0.00    -0.253 C  
HETATM   10  C   UNL     2     -11.865  12.703  68.103  1.00  0.00    -0.315 C  
HETATM   11  C   UNL     2     -12.218  14.099  67.604  1.00  0.00    -0.231 C  
ENDROOT
BRANCH  10  12
HETATM   12  O   UNL     2     -11.637  12.820  69.524  1.00  0.00    -0.284 OA 
BRANCH  12  13
HETATM   13  C   UNL     2     -11.790  11.728  70.329  1.00  0.00    -0.295 C  
HETATM   14  O   UNL     2     -10.994  10.800  70.420  1.00  0.00    -0.210 OA 
BRANCH  13  15
HETATM   15  C   UNL     2     -13.128  11.866  71.095  1.00  0.00    -0.039 C  
HETATM   16  O   UNL     2     -13.317  10.891  72.122  1.00  0.00    -0.586 OA 
HETATM   17  H   UNL     2     -14.138  10.976  72.592  1.00  0.00     0.000 HD 
BRANCH  15  18
HETATM   18  C   UNL     2     -13.269  13.271  71.642  1.00  0.00    -0.446 A  
HETATM   19  C   UNL     2     -12.540  13.620  72.797  1.00  0.00     0.089 A  
HETATM   20  C   UNL     2     -12.679  14.864  73.377  1.00  0.00    -0.636 A  
HETATM   21  C   UNL     2     -13.546  15.798  72.827  1.00  0.00    -0.662 A  
HETATM   22  C   UNL     2     -14.282  15.481  71.683  1.00  0.00    -0.523 A  
HETATM   23  C   UNL     2     -14.151  14.221  71.098  1.00  0.00    -0.093 A  
ENDBRANCH  15  18
ENDBRANCH  13  15
ENDBRANCH  12  13
ENDBRANCH  10  12
TORSDOF 4
ENDMDL
MODEL       33
REMARK 921   NORMALIZED FREE ENERGY PREDICTED BY IDOCK:   -5.59 KCAL/MOL
REMARK 922        TOTAL FREE ENERGY PREDICTED BY IDOCK:   -7.53 KCAL/MOL
REMARK 923 INTER-LIGAND FREE ENERGY PREDICTED BY IDOCK:   -6.32 KCAL/MOL
REMARK 924 INTRA-LIGAND FREE ENERGY PREDICTED BY IDOCK:   -1.22 KCAL/MOL
REMARK 927      BINDING AFFINITY PREDICTED BY RF-SCORE:    0.00 PKD
ROOT
HETATM    1 BR   UNL     1      -6.274  13.258  69.474  1.00  0.00    -0.106 Br 
HETATM    2  C   UNL     2      -8.248   9.862  69.192  1.00  0.00    -0.128 C  
HETATM    3  N   UNL     2      -8.776   9.931  67.720  1.00  0.00    -0.128 N  
HETATM    4  C   UNL     2      -7.852   8.990  66.974  1.00  0.00    -0.098 C  
HETATM    5  C   UNL     2      -8.726  11.408  67.233  1.00  0.00    -0.148 C  
HETATM    6  C   UNL     2      -9.846  12.065  68.065  1.00  0.00    -0.199 C  
HETATM    7  C   UNL     2     -10.829  10.922  68.382  1.00  0.00    -0.266 C  
HETATM    8  C   UNL     2     -10.300   9.694  67.612  1.00  0.00    -0.237 C  
HETATM    9  C   UNL     2     -10.679   9.620  66.110  1.00  0.00     0.183 C  
HETATM   10  C   UNL     2     -10.422  10.922  65.352  1.00  0.00    -0.223 C  
HETATM   11  C   UNL     2      -9.056  11.486  65.725  1.00  0.00    -0.164 C  
ENDROOT
BRANCH  10  12
HETATM   12  O   UNL     2     -11.396  11.914  65.740  1.00  0.00    -0.332 OA 
BRANCH  12  13
HETATM   13  C   UNL     2     -12.181  12.502  64.790  1.00  0.00    -0.465 C  
HETATM   14  O   UNL     2     -13.190  12.005  64.300  1.00  0.00    -0.710 OA 
BRANCH  13  15
HETATM   15  C   UNL     2     -11.582  13.886  64.444  1.00  0.00    -0.382 C  
HETATM   16  O   UNL     2     -12.435  14.712  63.650  1.00  0.00    -1.070 OA 
HETATM   17  H   UNL     2     -12.067  15.561  63.437  1.00  0.00     0.000 HD 
BRANCH  15  18
HETATM   18  C   UNL     2     -11.157  14.598  65.712  1.00  0.00    -0.331 A  
HETATM   19  C   UNL     2      -9.846  15.107  65.790  1.00  0.00    -0.384 A  
HETATM   20  C   UNL     2      -9.383  15.706  66.944  1.00  0.00    -0.252 A  
HETATM   21  C   UNL     2     -10.210  15.817  68.054  1.00  0.00    -0.229 A  
HETATM   22  C   UNL     2     -11.515  15.320  68.006  1.00  0.00    -0.351 A  
HETATM   23  C   UNL     2     -11.984  14.706  66.843  1.00  0.00    -0.294 A  
ENDBRANCH  15  18
ENDBRANCH  13  15
ENDBRANCH  12  13
ENDBRANCH  10  12
TORSDOF 4
ENDMDL
MODEL       34
REMARK 921   NORMALIZED FREE ENERGY PREDICTED BY IDOCK:   -5.58 KCAL/MOL
REMARK 922        TOTAL FREE ENERGY PREDICTED BY IDOCK:   -7.52 KCAL/MOL
REMARK 923 INTER-LIGAND FREE ENERGY PREDICTED BY IDOCK:   -6.73 KCAL/MOL
REMARK 924 INTRA-LIGAND FREE ENERGY PREDICTED BY IDOCK:   -0.79 KCAL/MOL
REMARK 927      BINDING AFFINITY PREDICTED BY RF-SCORE:    0.00 PKD
ROOT
HETATM    1 BR   UNL     1     -10.103  18.225  67.985  1.00  0.00    -0.407 Br 
HETATM    2  C   UNL     2      -9.838  15.317  65.342  1.00  0.00    -0.283 C  
HETATM    3  N   UNL     2     -10.784  14.239  65.970  1.00  0.00    -0.298 N  
HETATM    4  C   UNL     2     -12.039  14.346  65.129  1.00  0.00    -0.395 C  
HETATM    5  C   UNL     2     -10.986  14.561  67.479  1.00  0.00    -0.293 C  
HETATM    6  C   UNL     2      -9.601  14.236  68.072  1.00  0.00    -0.223 C  
HETATM    7  C   UNL     2      -8.999  13.181  67.124  1.00  0.00    -0.228 C  
HETATM    8  C   UNL     2     -10.113  12.853  66.108  1.00  0.00    -0.276 C  
HETATM    9  C   UNL     2     -11.185  11.836  66.580  1.00  0.00    -0.383 C  
HETATM   10  C   UNL     2     -11.750  12.147  67.965  1.00  0.00    -0.344 C  
HETATM   11  C   UNL     2     -12.065  13.634  68.084  1.00  0.00    -0.310 C  
ENDROOT
BRANCH  10  12
HETATM   12  O   UNL     2     -10.761  11.855  68.975  1.00  0.00    -0.214 OA 
BRANCH  12  13
HETATM   13  C   UNL     2     -11.000  10.878  69.898  1.00  0.00    -0.199 C  
HETATM   14  O   UNL     2     -11.973  10.834  70.644  1.00  0.00    -0.311 OA 
BRANCH  13  15
HETATM   15  C   UNL     2      -9.842   9.853  69.841  1.00  0.00    -0.245 C  
HETATM   16  O   UNL     2      -9.280   9.535  71.115  1.00  0.00    -0.285 OA 
HETATM   17  H   UNL     2      -8.569   8.906  71.080  1.00  0.00     0.000 HD 
BRANCH  15  18
HETATM   18  C   UNL     2     -10.293   8.603  69.115  1.00  0.00    -0.227 A  
HETATM   19  C   UNL     2     -10.725   7.501  69.878  1.00  0.00    -0.254 A  
HETATM   20  C   UNL     2     -11.086   6.314  69.273  1.00  0.00    -0.461 A  
HETATM   21  C   UNL     2     -11.026   6.188  67.892  1.00  0.00    -0.399 A  
HETATM   22  C   UNL     2     -10.601   7.263  67.109  1.00  0.00    -0.416 A  
HETATM   23  C   UNL     2     -10.228   8.463  67.718  1.00  0.00    -0.283 A  
ENDBRANCH  15  18
ENDBRANCH  13  15
ENDBRANCH  12  13
ENDBRANCH  10  12
TORSDOF 4
ENDMDL
MODEL       35
REMARK 921   NORMALIZED FREE ENERGY PREDICTED BY IDOCK:   -5.54 KCAL/MOL
REMARK 922        TOTAL FREE ENERGY PREDICTED BY IDOCK:   -7.47 KCAL/MOL
REMARK 923 INTER-LIGAND FREE ENERGY PREDICTED BY IDOCK:   -6.97 KCAL/MOL
REMARK 924 INTRA-LIGAND FREE ENERGY PREDICTED BY IDOCK:   -0.51 KCAL/MOL
REMARK 927      BINDING AFFINITY PREDICTED BY RF-SCORE:    0.00 PKD
ROOT
HETATM    1 BR   UNL     1      -6.331  10.442  65.523  1.00  0.00    -0.115 Br 
HETATM    2  C   UNL     2     -10.244  10.284  65.102  1.00  0.00    -0.224 C  
HETATM    3  N   UNL     2     -10.629  11.798  65.204  1.00  0.00    -0.273 N  
HETATM    4  C   UNL     2     -10.894  12.187  63.764  1.00  0.00    -0.432 C  
HETATM    5  C   UNL     2      -9.461  12.573  65.879  1.00  0.00    -0.107 C  
HETATM    6  C   UNL     2      -9.532  12.069  67.335  1.00  0.00    -0.177 C  
HETATM    7  C   UNL     2     -11.003  11.664  67.545  1.00  0.00    -0.312 C  
HETATM    8  C   UNL     2     -11.735  12.072  66.249  1.00  0.00    -0.246 C  
HETATM    9  C   UNL     2     -12.148  13.563  66.145  1.00  0.00    -0.482 C  
HETATM   10  C   UNL     2     -11.019  14.533  66.492  1.00  0.00    -0.321 C  
HETATM   11  C   UNL     2      -9.723  14.095  65.820  1.00  0.00    -0.246 C  
ENDROOT
BRANCH  10  12
HETATM   12  O   UNL     2     -10.773  14.509  67.914  1.00  0.00    -0.241 OA 
BRANCH  12  13
HETATM   13  C   UNL     2     -11.185  15.552  68.693  1.00  0.00    -0.325 C  
HETATM   14  O   UNL     2     -12.330  15.722  69.100  1.00  0.00    -0.212 OA 
BRANCH  13  15
HETATM   15  C   UNL     2      -9.970  16.472  68.965  1.00  0.00    -0.275 C  
HETATM   16  O   UNL     2      -8.704  15.850  68.743  1.00  0.00    -0.186 OA 
HETATM   17  H   UNL     2      -7.959  16.414  68.910  1.00  0.00     0.000 HD 
BRANCH  15  18
HETATM   18  C   UNL     2     -10.100  17.751  68.164  1.00  0.00    -0.362 A  
HETATM   19  C   UNL     2     -10.362  17.655  66.783  1.00  0.00    -0.331 A  
HETATM   20  C   UNL     2     -10.425  18.783  65.991  1.00  0.00    -0.483 A  
HETATM   21  C   UNL     2     -10.230  20.040  66.548  1.00  0.00    -0.598 A  
HETATM   22  C   UNL     2      -9.968  20.166  67.914  1.00  0.00    -0.537 A  
HETATM   23  C   UNL     2      -9.895  19.026  68.717  1.00  0.00    -0.485 A  
ENDBRANCH  15  18
ENDBRANCH  13  15
ENDBRANCH  12  13
ENDBRANCH  10  12
TORSDOF 4
ENDMDL
MODEL       36
REMARK 921   NORMALIZED FREE ENERGY PREDICTED BY IDOCK:   -5.51 KCAL/MOL
REMARK 922        TOTAL FREE ENERGY PREDICTED BY IDOCK:   -7.44 KCAL/MOL
REMARK 923 INTER-LIGAND FREE ENERGY PREDICTED BY IDOCK:   -7.09 KCAL/MOL
REMARK 924 INTRA-LIGAND FREE ENERGY PREDICTED BY IDOCK:   -0.35 KCAL/MOL
REMARK 927      BINDING AFFINITY PREDICTED BY RF-SCORE:    0.00 PKD
ROOT
HETATM    1 BR   UNL     1     -10.768  19.951  67.468  1.00  0.00    -0.328 Br 
HETATM    2  C   UNL     2      -7.786  17.700  68.717  1.00  0.00    -0.242 C  
HETATM    3  N   UNL     2      -8.033  16.382  67.910  1.00  0.00    -0.151 N  
HETATM    4  C   UNL     2      -6.993  16.447  66.810  1.00  0.00    -0.177 C  
HETATM    5  C   UNL     2      -9.506  16.364  67.408  1.00  0.00    -0.227 C  
HETATM    6  C   UNL     2     -10.295  16.157  68.716  1.00  0.00    -0.248 C  
HETATM    7  C   UNL     2      -9.323  15.420  69.656  1.00  0.00    -0.208 C  
HETATM    8  C   UNL     2      -8.069  15.123  68.806  1.00  0.00    -0.166 C  
HETATM    9  C   UNL     2      -8.151  13.873  67.891  1.00  0.00    -0.158 C  
HETATM   10  C   UNL     2      -9.432  13.810  67.059  1.00  0.00    -0.255 C  
HETATM   11  C   UNL     2      -9.729  15.174  66.446  1.00  0.00    -0.300 C  
ENDROOT
BRANCH  10  12
HETATM   12  O   UNL     2     -10.553  13.489  67.910  1.00  0.00    -0.240 OA 
BRANCH  12  13
HETATM   13  C   UNL     2     -11.288  12.364  67.671  1.00  0.00    -0.312 C  
HETATM   14  O   UNL     2     -11.957  12.158  66.664  1.00  0.00    -0.616 OA 
BRANCH  13  15
HETATM   15  C   UNL     2     -11.133  11.409  68.878  1.00  0.00    -0.233 C  
HETATM   16  O   UNL     2      -9.778  11.173  69.267  1.00  0.00    -0.409 OA 
HETATM   17  H   UNL     2      -9.683  10.586  70.008  1.00  0.00     0.000 HD 
BRANCH  15  18
HETATM   18  C   UNL     2     -11.957  11.912  70.045  1.00  0.00    -0.409 A  
HETATM   19  C   UNL     2     -12.051  13.302  70.252  1.00  0.00    -0.405 A  
HETATM   20  C   UNL     2     -12.734  13.816  71.336  1.00  0.00    -0.450 A  
HETATM   21  C   UNL     2     -13.342  12.962  72.246  1.00  0.00    -0.597 A  
HETATM   22  C   UNL     2     -13.265  11.579  72.068  1.00  0.00    -0.443 A  
HETATM   23  C   UNL     2     -12.568  11.056  70.977  1.00  0.00    -0.512 A  
ENDBRANCH  15  18
ENDBRANCH  13  15
ENDBRANCH  12  13
ENDBRANCH  10  12
TORSDOF 4
ENDMDL
MODEL       37
REMARK 921   NORMALIZED FREE ENERGY PREDICTED BY IDOCK:   -5.47 KCAL/MOL
REMARK 922        TOTAL FREE ENERGY PREDICTED BY IDOCK:   -7.39 KCAL/MOL
REMARK 923 INTER-LIGAND FREE ENERGY PREDICTED BY IDOCK:   -6.14 KCAL/MOL
REMARK 924 INTRA-LIGAND FREE ENERGY PREDICTED BY IDOCK:   -1.25 KCAL/MOL
REMARK 927      BINDING AFFINITY PREDICTED BY RF-SCORE:    0.00 PKD
ROOT
HETATM    1 BR   UNL     1      -9.972  10.280  66.303  1.00  0.00    -0.306 Br 
HETATM    2  C   UNL     2      -8.547   6.610  66.420  1.00  0.00    -0.130 C  
HETATM    3  N   UNL     2      -9.493   5.944  67.476  1.00  0.00    -0.110 N  
HETATM    4  C   UNL     2     -10.437   5.119  66.625  1.00  0.00    -0.275 C  
HETATM    5  C   UNL     2     -10.182   7.059  68.313  1.00  0.00    -0.182 C  
HETATM    6  C   UNL     2      -9.011   7.610  69.152  1.00  0.00    -0.135 C  
HETATM    7  C   UNL     2      -8.021   6.436  69.273  1.00  0.00    -0.110 C  
HETATM    8  C   UNL     2      -8.723   5.231  68.611  1.00  0.00    -0.093 C  
HETATM    9  C   UNL     2      -9.747   4.474  69.496  1.00  0.00    -0.282 C  
HETATM   10  C   UNL     2     -10.741   5.396  70.202  1.00  0.00    -0.225 C  
HETATM   11  C   UNL     2     -11.265   6.447  69.231  1.00  0.00    -0.440 C  
ENDROOT
BRANCH  10  12
HETATM   12  O   UNL     2     -10.075   6.112  71.263  1.00  0.00    -0.183 OA 
BRANCH  12  13
HETATM   13  C   UNL     2     -10.692   6.264  72.472  1.00  0.00    -0.226 C  
HETATM   14  O   UNL     2     -11.291   5.380  73.076  1.00  0.00    -0.302 OA 
BRANCH  13  15
HETATM   15  C   UNL     2     -10.508   7.728  72.938  1.00  0.00    -0.350 C  
HETATM   16  O   UNL     2      -9.156   8.188  72.900  1.00  0.00    -0.221 OA 
HETATM   17  H   UNL     2      -9.043   9.087  73.186  1.00  0.00     0.000 HD 
BRANCH  15  18
HETATM   18  C   UNL     2     -11.418   8.642  72.144  1.00  0.00    -0.443 A  
HETATM   19  C   UNL     2     -10.835   9.568  71.257  1.00  0.00    -0.413 A  
HETATM   20  C   UNL     2     -11.611  10.469  70.557  1.00  0.00    -0.441 A  
HETATM   21  C   UNL     2     -12.990  10.476  70.719  1.00  0.00    -0.413 A  
HETATM   22  C   UNL     2     -13.597   9.571  71.592  1.00  0.00    -0.426 A  
HETATM   23  C   UNL     2     -12.814   8.663  72.308  1.00  0.00    -0.438 A  
ENDBRANCH  15  18
ENDBRANCH  13  15
ENDBRANCH  12  13
ENDBRANCH  10  12
TORSDOF 4
ENDMDL
MODEL       38
REMARK 921   NORMALIZED FREE ENERGY PREDICTED BY IDOCK:   -5.47 KCAL/MOL
REMARK 922        TOTAL FREE ENERGY PREDICTED BY IDOCK:   -7.38 KCAL/MOL
REMARK 923 INTER-LIGAND FREE ENERGY PREDICTED BY IDOCK:   -6.93 KCAL/MOL
REMARK 924 INTRA-LIGAND FREE ENERGY PREDICTED BY IDOCK:   -0.46 KCAL/MOL
REMARK 927      BINDING AFFINITY PREDICTED BY RF-SCORE:    0.00 PKD
ROOT
HETATM    1 BR   UNL     1      -7.787   7.767  74.200  1.00  0.00    -0.258 Br 
HETATM    2  C   UNL     2      -9.569   6.326  70.996  1.00  0.00    -0.175 C  
HETATM    3  N   UNL     2      -9.346   7.486  69.969  1.00  0.00    -0.154 N  
HETATM    4  C   UNL     2      -8.229   6.962  69.090  1.00  0.00    -0.121 C  
HETATM    5  C   UNL     2      -9.001   8.790  70.745  1.00  0.00    -0.192 C  
HETATM    6  C   UNL     2     -10.345   9.136  71.416  1.00  0.00    -0.409 C  
HETATM    7  C   UNL     2     -11.419   8.512  70.504  1.00  0.00    -0.198 C  
HETATM    8  C   UNL     2     -10.653   7.949  69.288  1.00  0.00    -0.188 C  
HETATM    9  C   UNL     2     -10.293   8.974  68.181  1.00  0.00    -0.262 C  
HETATM   10  C   UNL     2      -9.647  10.250  68.721  1.00  0.00    -0.175 C  
HETATM   11  C   UNL     2      -8.586   9.906  69.759  1.00  0.00    -0.219 C  
ENDROOT
BRANCH  10  12
HETATM   12  O   UNL     2     -10.639  11.052  69.398  1.00  0.00    -0.223 OA 
BRANCH  12  13
HETATM   13  C   UNL     2     -11.423  11.911  68.682  1.00  0.00    -0.294 C  
HETATM   14  O   UNL     2     -12.181  11.585  67.774  1.00  0.00    -0.560 OA 
BRANCH  13  15
HETATM   15  C   UNL     2     -11.188  13.346  69.209  1.00  0.00    -0.219 C  
HETATM   16  O   UNL     2     -11.168  14.348  68.190  1.00  0.00    -0.260 OA 
HETATM   17  H   UNL     2     -11.024  15.229  68.514  1.00  0.00     0.000 HD 
BRANCH  15  18
HETATM   18  C   UNL     2     -12.207  13.677  70.281  1.00  0.00    -0.423 A  
HETATM   19  C   UNL     2     -12.689  14.998  70.366  1.00  0.00    -0.371 A  
HETATM   20  C   UNL     2     -13.567  15.372  71.362  1.00  0.00    -0.604 A  
HETATM   21  C   UNL     2     -13.992  14.444  72.303  1.00  0.00    -0.610 A  
HETATM   22  C   UNL     2     -13.531  13.127  72.245  1.00  0.00    -0.665 A  
HETATM   23  C   UNL     2     -12.635  12.747  71.244  1.00  0.00    -0.347 A  
ENDBRANCH  15  18
ENDBRANCH  13  15
ENDBRANCH  12  13
ENDBRANCH  10  12
TORSDOF 4
ENDMDL
MODEL       39
REMARK 921   NORMALIZED FREE ENERGY PREDICTED BY IDOCK:   -5.47 KCAL/MOL
REMARK 922        TOTAL FREE ENERGY PREDICTED BY IDOCK:   -7.38 KCAL/MOL
REMARK 923 INTER-LIGAND FREE ENERGY PREDICTED BY IDOCK:   -6.87 KCAL/MOL
REMARK 924 INTRA-LIGAND FREE ENERGY PREDICTED BY IDOCK:   -0.51 KCAL/MOL
REMARK 927      BINDING AFFINITY PREDICTED BY RF-SCORE:    0.00 PKD
ROOT
HETATM    1 BR   UNL     1     -10.306  11.986  63.785  1.00  0.00    -0.503 Br 
HETATM    2  C   UNL     2      -9.186  12.278  67.550  1.00  0.00    -0.181 C  
HETATM    3  N   UNL     2      -9.941  13.574  67.999  1.00  0.00    -0.241 N  
HETATM    4  C   UNL     2     -11.105  13.037  68.807  1.00  0.00    -0.270 C  
HETATM    5  C   UNL     2     -10.349  14.385  66.735  1.00  0.00    -0.273 C  
HETATM    6  C   UNL     2      -8.990  14.900  66.223  1.00  0.00    -0.193 C  
HETATM    7  C   UNL     2      -8.093  14.969  67.474  1.00  0.00    -0.200 C  
HETATM    8  C   UNL     2      -9.011  14.616  68.662  1.00  0.00    -0.184 C  
HETATM    9  C   UNL     2      -9.886  15.773  69.211  1.00  0.00    -0.265 C  
HETATM   10  C   UNL     2     -10.634  16.540  68.121  1.00  0.00    -0.329 C  
HETATM   11  C   UNL     2     -11.263  15.568  67.130  1.00  0.00    -0.204 C  
ENDROOT
BRANCH  10  12
HETATM   12  O   UNL     2      -9.706  17.351  67.369  1.00  0.00    -0.259 OA 
BRANCH  12  13
HETATM   13  C   UNL     2     -10.162  18.425  66.659  1.00  0.00    -0.394 C  
HETATM   14  O   UNL     2     -10.642  18.374  65.531  1.00  0.00    -0.627 OA 
BRANCH  13  15
HETATM   15  C   UNL     2      -9.967  19.699  67.515  1.00  0.00    -0.388 C  
HETATM   16  O   UNL     2     -10.624  19.657  68.783  1.00  0.00    -0.499 OA 
HETATM   17  H   UNL     2     -10.504  20.440  69.309  1.00  0.00     0.000 HD 
BRANCH  15  18
HETATM   18  C   UNL     2      -8.490  19.995  67.673  1.00  0.00    -0.378 A  
HETATM   19  C   UNL     2      -7.802  20.576  66.591  1.00  0.00    -0.215 A  
HETATM   20  C   UNL     2      -6.443  20.808  66.654  1.00  0.00    -0.330 A  
HETATM   21  C   UNL     2      -5.729  20.468  67.795  1.00  0.00    -0.265 A  
HETATM   22  C   UNL     2      -6.384  19.889  68.884  1.00  0.00    -0.337 A  
HETATM   23  C   UNL     2      -7.757  19.646  68.820  1.00  0.00    -0.337 A  
ENDBRANCH  15  18
ENDBRANCH  13  15
ENDBRANCH  12  13
ENDBRANCH  10  12
TORSDOF 4
ENDMDL
MODEL       40
REMARK 921   NORMALIZED FREE ENERGY PREDICTED BY IDOCK:   -5.44 KCAL/MOL
REMARK 922        TOTAL FREE ENERGY PREDICTED BY IDOCK:   -7.36 KCAL/MOL
REMARK 923 INTER-LIGAND FREE ENERGY PREDICTED BY IDOCK:   -7.03 KCAL/MOL
REMARK 924 INTRA-LIGAND FREE ENERGY PREDICTED BY IDOCK:   -0.32 KCAL/MOL
REMARK 927      BINDING AFFINITY PREDICTED BY RF-SCORE:    0.00 PKD
ROOT
HETATM    1 BR   UNL     1      -6.947   9.599  70.243  1.00  0.00    -0.135 Br 
HETATM    2  C   UNL     2     -10.303   9.118  68.239  1.00  0.00    -0.214 C  
HETATM    3  N   UNL     2     -10.116  10.143  67.070  1.00  0.00    -0.213 N  
HETATM    4  C   UNL     2      -9.757   9.263  65.890  1.00  0.00    -0.285 C  
HETATM    5  C   UNL     2      -9.019  11.171  67.469  1.00  0.00    -0.139 C  
HETATM    6  C   UNL     2      -9.720  11.986  68.574  1.00  0.00    -0.165 C  
HETATM    7  C   UNL     2     -11.224  11.874  68.258  1.00  0.00    -0.317 C  
HETATM    8  C   UNL     2     -11.311  11.112  66.919  1.00  0.00    -0.090 C  
HETATM    9  C   UNL     2     -11.093  11.962  65.640  1.00  0.00    -0.362 C  
HETATM   10  C   UNL     2      -9.856  12.857  65.707  1.00  0.00    -0.209 C  
HETATM   11  C   UNL     2      -8.672  12.078  66.265  1.00  0.00    -0.027 C  
ENDROOT
BRANCH  10  12
HETATM   12  O   UNL     2     -10.093  13.952  66.618  1.00  0.00    -0.261 OA 
BRANCH  12  13
HETATM   13  C   UNL     2     -11.104  14.836  66.370  1.00  0.00    -0.340 C  
HETATM   14  O   UNL     2     -12.265  14.703  66.744  1.00  0.00    -0.314 OA 
BRANCH  13  15
HETATM   15  C   UNL     2     -10.537  16.014  65.544  1.00  0.00    -0.398 C  
HETATM   16  O   UNL     2     -11.235  16.263  64.323  1.00  0.00    -1.101 OA 
HETATM   17  H   UNL     2     -10.886  16.987  63.816  1.00  0.00     0.000 HD 
BRANCH  15  18
HETATM   18  C   UNL     2     -10.472  17.262  66.401  1.00  0.00    -0.263 A  
HETATM   19  C   UNL     2     -10.453  18.517  65.761  1.00  0.00    -0.277 A  
HETATM   20  C   UNL     2     -10.328  19.684  66.487  1.00  0.00    -0.601 A  
HETATM   21  C   UNL     2     -10.218  19.638  67.870  1.00  0.00    -0.574 A  
HETATM   22  C   UNL     2     -10.233  18.408  68.532  1.00  0.00    -0.394 A  
HETATM   23  C   UNL     2     -10.351  17.225  67.801  1.00  0.00    -0.356 A  
ENDBRANCH  15  18
ENDBRANCH  13  15
ENDBRANCH  12  13
ENDBRANCH  10  12
TORSDOF 4
ENDMDL
MODEL       41
REMARK 921   NORMALIZED FREE ENERGY PREDICTED BY IDOCK:   -5.43 KCAL/MOL
REMARK 922        TOTAL FREE ENERGY PREDICTED BY IDOCK:   -7.34 KCAL/MOL
REMARK 923 INTER-LIGAND FREE ENERGY PREDICTED BY IDOCK:   -6.87 KCAL/MOL
REMARK 924 INTRA-LIGAND FREE ENERGY PREDICTED BY IDOCK:   -0.47 KCAL/MOL
REMARK 927      BINDING AFFINITY PREDICTED BY RF-SCORE:    0.00 PKD
ROOT
HETATM    1 BR   UNL     1     -10.168  20.100  67.211  1.00  0.00    -0.495 Br 
HETATM    2  C   UNL     2      -8.060  17.222  68.880  1.00  0.00    -0.189 C  
HETATM    3  N   UNL     2      -8.256  16.058  67.852  1.00  0.00    -0.147 N  
HETATM    4  C   UNL     2      -6.942  16.034  67.099  1.00  0.00    -0.207 C  
HETATM    5  C   UNL     2      -9.501  16.365  66.971  1.00  0.00    -0.230 C  
HETATM    6  C   UNL     2     -10.662  16.182  67.970  1.00  0.00    -0.321 C  
HETATM    7  C   UNL     2     -10.131  15.188  69.020  1.00  0.00    -0.244 C  
HETATM    8  C   UNL     2      -8.743  14.746  68.509  1.00  0.00    -0.174 C  
HETATM    9  C   UNL     2      -8.741  13.629  67.434  1.00  0.00    -0.214 C  
HETATM   10  C   UNL     2      -9.716  13.888  66.285  1.00  0.00    -0.289 C  
HETATM   11  C   UNL     2      -9.610  15.336  65.822  1.00  0.00    -0.359 C  
ENDROOT
BRANCH  10  12
HETATM   12  O   UNL     2     -11.072  13.701  66.742  1.00  0.00    -0.299 OA 
BRANCH  12  13
HETATM   13  C   UNL     2     -11.716  12.523  66.495  1.00  0.00    -0.391 C  
HETATM   14  O   UNL     2     -12.479  12.318  65.557  1.00  0.00    -0.597 OA 
BRANCH  13  15
HETATM   15  C   UNL     2     -11.322  11.507  67.594  1.00  0.00    -0.291 C  
HETATM   16  O   UNL     2     -12.410  11.087  68.420  1.00  0.00    -0.762 OA 
HETATM   17  H   UNL     2     -12.168  10.464  69.094  1.00  0.00     0.000 HD 
BRANCH  15  18
HETATM   18  C   UNL     2     -10.617  10.320  66.972  1.00  0.00    -0.302 A  
HETATM   19  C   UNL     2     -10.650   9.086  67.652  1.00  0.00    -0.298 A  
HETATM   20  C   UNL     2      -9.972   7.987  67.166  1.00  0.00    -0.303 A  
HETATM   21  C   UNL     2      -9.240   8.083  65.989  1.00  0.00    -0.179 A  
HETATM   22  C   UNL     2      -9.188   9.292  65.294  1.00  0.00    -0.275 A  
HETATM   23  C   UNL     2      -9.866  10.408  65.787  1.00  0.00    -0.300 A  
ENDBRANCH  15  18
ENDBRANCH  13  15
ENDBRANCH  12  13
ENDBRANCH  10  12
TORSDOF 4
ENDMDL
MODEL       42
REMARK 921   NORMALIZED FREE ENERGY PREDICTED BY IDOCK:   -5.43 KCAL/MOL
REMARK 922        TOTAL FREE ENERGY PREDICTED BY IDOCK:   -7.34 KCAL/MOL
REMARK 923 INTER-LIGAND FREE ENERGY PREDICTED BY IDOCK:   -6.99 KCAL/MOL
REMARK 924 INTRA-LIGAND FREE ENERGY PREDICTED BY IDOCK:   -0.35 KCAL/MOL
REMARK 927      BINDING AFFINITY PREDICTED BY RF-SCORE:    0.00 PKD
ROOT
HETATM    1 BR   UNL     1      -8.166   7.404  65.475  1.00  0.00    -0.135 Br 
HETATM    2  C   UNL     2      -7.523   5.341  68.768  1.00  0.00    -0.074 C  
HETATM    3  N   UNL     2      -8.959   5.297  69.391  1.00  0.00    -0.099 N  
HETATM    4  C   UNL     2      -9.429   3.890  69.082  1.00  0.00    -0.176 C  
HETATM    5  C   UNL     2      -9.822   6.423  68.754  1.00  0.00    -0.139 C  
HETATM    6  C   UNL     2      -9.193   7.696  69.352  1.00  0.00    -0.149 C  
HETATM    7  C   UNL     2      -8.579   7.246  70.691  1.00  0.00    -0.142 C  
HETATM    8  C   UNL     2      -8.993   5.770  70.862  1.00  0.00    -0.145 C  
HETATM    9  C   UNL     2     -10.420   5.527  71.421  1.00  0.00    -0.305 C  
HETATM   10  C   UNL     2     -11.499   6.344  70.711  1.00  0.00    -0.353 C  
HETATM   11  C   UNL     2     -11.296   6.286  69.202  1.00  0.00    -0.358 C  
ENDROOT
BRANCH  10  12
HETATM   12  O   UNL     2     -11.388   7.733  71.087  1.00  0.00    -0.260 OA 
BRANCH  12  13
HETATM   13  C   UNL     2     -11.883   8.154  72.288  1.00  0.00    -0.382 C  
HETATM   14  O   UNL     2     -11.372   7.928  73.381  1.00  0.00    -0.250 OA 
BRANCH  13  15
HETATM   15  C   UNL     2     -13.183   8.952  72.033  1.00  0.00    -0.409 C  
HETATM   16  O   UNL     2     -14.057   9.023  73.160  1.00  0.00    -1.130 OA 
HETATM   17  H   UNL     2     -14.856   9.513  73.003  1.00  0.00     0.000 HD 
BRANCH  15  18
HETATM   18  C   UNL     2     -12.848  10.334  71.512  1.00  0.00    -0.557 A  
HETATM   19  C   UNL     2     -13.370  11.453  72.190  1.00  0.00    -0.271 A  
HETATM   20  C   UNL     2     -13.152  12.733  71.724  1.00  0.00    -0.455 A  
HETATM   21  C   UNL     2     -12.409  12.939  70.569  1.00  0.00    -0.362 A  
HETATM   22  C   UNL     2     -11.880  11.849  69.874  1.00  0.00    -0.418 A  
HETATM   23  C   UNL     2     -12.105  10.552  70.339  1.00  0.00    -0.418 A  
ENDBRANCH  15  18
ENDBRANCH  13  15
ENDBRANCH  12  13
ENDBRANCH  10  12
TORSDOF 4
ENDMDL
MODEL       43
REMARK 921   NORMALIZED FREE ENERGY PREDICTED BY IDOCK:   -5.42 KCAL/MOL
REMARK 922        TOTAL FREE ENERGY PREDICTED BY IDOCK:   -7.32 KCAL/MOL
REMARK 923 INTER-LIGAND FREE ENERGY PREDICTED BY IDOCK:   -6.56 KCAL/MOL
REMARK 924 INTRA-LIGAND FREE ENERGY PREDICTED BY IDOCK:   -0.76 KCAL/MOL
REMARK 927      BINDING AFFINITY PREDICTED BY RF-SCORE:    0.00 PKD
ROOT
HETATM    1 BR   UNL     1     -10.638  11.847  63.593  1.00  0.00    -0.542 Br 
HETATM    2  C   UNL     2      -7.551  10.260  65.456  1.00  0.00    -0.149 C  
HETATM    3  N   UNL     2      -8.261   9.370  66.530  1.00  0.00    -0.114 N  
HETATM    4  C   UNL     2      -8.127   7.970  65.965  1.00  0.00    -0.110 C  
HETATM    5  C   UNL     2      -9.727   9.860  66.705  1.00  0.00    -0.198 C  
HETATM    6  C   UNL     2      -9.536  11.218  67.409  1.00  0.00    -0.182 C  
HETATM    7  C   UNL     2      -8.199  11.092  68.163  1.00  0.00    -0.124 C  
HETATM    8  C   UNL     2      -7.747   9.629  67.965  1.00  0.00    -0.086 C  
HETATM    9  C   UNL     2      -8.394   8.586  68.912  1.00  0.00    -0.118 C  
HETATM   10  C   UNL     2      -9.915   8.705  69.003  1.00  0.00    -0.192 C  
HETATM   11  C   UNL     2     -10.512   8.885  67.612  1.00  0.00    -0.320 C  
ENDROOT
BRANCH  10  12
HETATM   12  O   UNL     2     -10.269   9.884  69.758  1.00  0.00    -0.215 OA 
BRANCH  12  13
HETATM   13  C   UNL     2     -11.176   9.792  70.774  1.00  0.00    -0.348 C  
HETATM   14  O   UNL     2     -10.961   9.282  71.869  1.00  0.00    -0.363 OA 
BRANCH  13  15
HETATM   15  C   UNL     2     -12.504  10.435  70.308  1.00  0.00    -0.223 C  
HETATM   16  O   UNL     2     -13.671   9.700  70.679  1.00  0.00    -0.579 OA 
HETATM   17  H   UNL     2     -14.487  10.094  70.393  1.00  0.00     0.000 HD 
BRANCH  15  18
HETATM   18  C   UNL     2     -12.583  11.868  70.792  1.00  0.00    -0.325 A  
HETATM   19  C   UNL     2     -13.313  12.142  71.965  1.00  0.00    -0.470 A  
HETATM   20  C   UNL     2     -13.474  13.436  72.417  1.00  0.00    -0.685 A  
HETATM   21  C   UNL     2     -12.915  14.495  71.715  1.00  0.00    -0.413 A  
HETATM   22  C   UNL     2     -12.187  14.255  70.548  1.00  0.00    -0.427 A  
HETATM   23  C   UNL     2     -12.029  12.948  70.083  1.00  0.00    -0.373 A  
ENDBRANCH  15  18
ENDBRANCH  13  15
ENDBRANCH  12  13
ENDBRANCH  10  12
TORSDOF 4
ENDMDL
MODEL       44
REMARK 921   NORMALIZED FREE ENERGY PREDICTED BY IDOCK:   -5.41 KCAL/MOL
REMARK 922        TOTAL FREE ENERGY PREDICTED BY IDOCK:   -7.31 KCAL/MOL
REMARK 923 INTER-LIGAND FREE ENERGY PREDICTED BY IDOCK:   -6.42 KCAL/MOL
REMARK 924 INTRA-LIGAND FREE ENERGY PREDICTED BY IDOCK:   -0.89 KCAL/MOL
REMARK 927      BINDING AFFINITY PREDICTED BY RF-SCORE:    0.00 PKD
ROOT
HETATM    1 BR   UNL     1      -5.732   9.548  64.767  1.00  0.00    -0.074 Br 
HETATM    2  C   UNL     2      -8.144   8.537  67.713  1.00  0.00    -0.115 C  
HETATM    3  N   UNL     2      -9.456   9.291  67.312  1.00  0.00    -0.140 N  
HETATM    4  C   UNL     2     -10.333   8.190  66.753  1.00  0.00    -0.291 C  
HETATM    5  C   UNL     2      -9.104  10.416  66.297  1.00  0.00    -0.158 C  
HETATM    6  C   UNL     2      -8.345  11.427  67.179  1.00  0.00    -0.155 C  
HETATM    7  C   UNL     2      -8.889  11.202  68.603  1.00  0.00    -0.155 C  
HETATM    8  C   UNL     2     -10.023  10.166  68.453  1.00  0.00    -0.156 C  
HETATM    9  C   UNL     2     -11.398  10.727  68.004  1.00  0.00    -0.378 C  
HETATM   10  C   UNL     2     -11.310  11.655  66.793  1.00  0.00    -0.286 C  
HETATM   11  C   UNL     2     -10.395  11.053  65.733  1.00  0.00    -0.316 C  
ENDROOT
BRANCH  10  12
HETATM   12  O   UNL     2     -10.717  12.912  67.182  1.00  0.00    -0.249 OA 
BRANCH  12  13
HETATM   13  C   UNL     2     -11.514  13.940  67.598  1.00  0.00    -0.324 C  
HETATM   14  O   UNL     2     -12.525  14.328  67.021  1.00  0.00    -0.304 OA 
BRANCH  13  15
HETATM   15  C   UNL     2     -10.923  14.522  68.904  1.00  0.00    -0.256 C  
HETATM   16  O   UNL     2     -10.527  15.891  68.807  1.00  0.00    -0.220 OA 
HETATM   17  H   UNL     2     -10.164  16.249  69.609  1.00  0.00     0.000 HD 
BRANCH  15  18
HETATM   18  C   UNL     2     -11.893  14.313  70.048  1.00  0.00    -0.378 A  
HETATM   19  C   UNL     2     -12.454  15.446  70.670  1.00  0.00    -0.478 A  
HETATM   20  C   UNL     2     -13.293  15.319  71.758  1.00  0.00    -0.540 A  
HETATM   21  C   UNL     2     -13.598  14.061  72.261  1.00  0.00    -0.622 A  
HETATM   22  C   UNL     2     -13.056  12.920  71.667  1.00  0.00    -0.430 A  
HETATM   23  C   UNL     2     -12.201  13.045  70.570  1.00  0.00    -0.392 A  
ENDBRANCH  15  18
ENDBRANCH  13  15
ENDBRANCH  12  13
ENDBRANCH  10  12
TORSDOF 4
ENDMDL
MODEL       45
REMARK 921   NORMALIZED FREE ENERGY PREDICTED BY IDOCK:   -5.40 KCAL/MOL
REMARK 922        TOTAL FREE ENERGY PREDICTED BY IDOCK:   -7.30 KCAL/MOL
REMARK 923 INTER-LIGAND FREE ENERGY PREDICTED BY IDOCK:   -6.26 KCAL/MOL
REMARK 924 INTRA-LIGAND FREE ENERGY PREDICTED BY IDOCK:   -1.05 KCAL/MOL
REMARK 927      BINDING AFFINITY PREDICTED BY RF-SCORE:    0.00 PKD
ROOT
HETATM    1 BR   UNL     1      -9.561   3.880  71.474  1.00  0.00    -0.245 Br 
HETATM    2  C   UNL     2      -9.295   4.465  67.588  1.00  0.00    -0.154 C  
HETATM    3  N   UNL     2      -8.969   5.995  67.526  1.00  0.00    -0.112 N  
HETATM    4  C   UNL     2      -7.484   6.022  67.225  1.00  0.00    -0.081 C  
HETATM    5  C   UNL     2      -9.367   6.653  68.879  1.00  0.00    -0.128 C  
HETATM    6  C   UNL     2     -10.907   6.595  68.830  1.00  0.00    -0.326 C  
HETATM    7  C   UNL     2     -11.259   6.592  67.331  1.00  0.00    -0.301 C  
HETATM    8  C   UNL     2      -9.917   6.778  66.590  1.00  0.00    -0.142 C  
HETATM    9  C   UNL     2      -9.401   8.236  66.478  1.00  0.00    -0.263 C  
HETATM   10  C   UNL     2      -9.430   8.996  67.804  1.00  0.00    -0.141 C  
HETATM   11  C   UNL     2      -8.881   8.120  68.924  1.00  0.00    -0.141 C  
ENDROOT
BRANCH  10  12
HETATM   12  O   UNL     2     -10.794   9.309  68.159  1.00  0.00    -0.188 OA 
BRANCH  12  13
HETATM   13  C   UNL     2     -11.182  10.613  68.280  1.00  0.00    -0.301 C  
HETATM   14  O   UNL     2     -11.650  11.298  67.376  1.00  0.00    -0.519 OA 
BRANCH  13  15
HETATM   15  C   UNL     2     -10.928  11.068  69.737  1.00  0.00    -0.193 C  
HETATM   16  O   UNL     2     -11.306  12.420  70.002  1.00  0.00    -0.509 OA 
HETATM   17  H   UNL     2     -11.150  12.700  70.896  1.00  0.00     0.000 HD 
BRANCH  15  18
HETATM   18  C   UNL     2     -11.600  10.113  70.702  1.00  0.00    -0.429 A  
HETATM   19  C   UNL     2     -13.001  10.173  70.841  1.00  0.00    -0.432 A  
HETATM   20  C   UNL     2     -13.660   9.373  71.751  1.00  0.00    -0.461 A  
HETATM   21  C   UNL     2     -12.946   8.491  72.551  1.00  0.00    -0.300 A  
HETATM   22  C   UNL     2     -11.557   8.410  72.437  1.00  0.00    -0.450 A  
HETATM   23  C   UNL     2     -10.885   9.224  71.522  1.00  0.00    -0.442 A  
ENDBRANCH  15  18
ENDBRANCH  13  15
ENDBRANCH  12  13
ENDBRANCH  10  12
TORSDOF 4
ENDMDL
MODEL       46
REMARK 921   NORMALIZED FREE ENERGY PREDICTED BY IDOCK:   -5.36 KCAL/MOL
REMARK 922        TOTAL FREE ENERGY PREDICTED BY IDOCK:   -7.25 KCAL/MOL
REMARK 923 INTER-LIGAND FREE ENERGY PREDICTED BY IDOCK:   -6.58 KCAL/MOL
REMARK 924 INTRA-LIGAND FREE ENERGY PREDICTED BY IDOCK:   -0.68 KCAL/MOL
REMARK 927      BINDING AFFINITY PREDICTED BY RF-SCORE:    0.00 PKD
ROOT
HETATM    1 BR   UNL     1      -9.025  11.027  62.647  1.00  0.00    -0.344 Br 
HETATM    2  C   UNL     2     -12.346  12.098  64.473  1.00  0.00    -0.307 C  
HETATM    3  N   UNL     2     -11.951  13.505  65.035  1.00  0.00    -0.354 N  
HETATM    4  C   UNL     2     -12.639  14.465  64.086  1.00  0.00    -0.037 C  
HETATM    5  C   UNL     2     -10.400  13.622  65.062  1.00  0.00    -0.374 C  
HETATM    6  C   UNL     2     -10.018  12.645  66.192  1.00  0.00    -0.269 C  
HETATM    7  C   UNL     2     -11.249  12.603  67.116  1.00  0.00    -0.348 C  
HETATM    8  C   UNL     2     -12.230  13.651  66.549  1.00  0.00    -0.404 C  
HETATM    9  C   UNL     2     -11.960  15.122  66.957  1.00  0.00     0.093 C  
HETATM   10  C   UNL     2     -10.503  15.547  66.775  1.00  0.00    -0.295 C  
HETATM   11  C   UNL     2      -9.978  15.064  65.428  1.00  0.00    -0.365 C  
ENDROOT
BRANCH  10  12
HETATM   12  O   UNL     2      -9.681  14.922  67.784  1.00  0.00    -0.210 OA 
BRANCH  12  13
HETATM   13  C   UNL     2      -9.460  15.559  68.971  1.00  0.00    -0.242 C  
HETATM   14  O   UNL     2     -10.074  15.346  70.012  1.00  0.00    -0.287 OA 
BRANCH  13  15
HETATM   15  C   UNL     2      -8.319  16.585  68.774  1.00  0.00    -0.248 C  
HETATM   16  O   UNL     2      -7.225  16.100  67.993  1.00  0.00    -0.123 OA 
HETATM   17  H   UNL     2      -6.524  16.730  67.872  1.00  0.00     0.000 HD 
BRANCH  15  18
HETATM   18  C   UNL     2      -8.873  17.872  68.201  1.00  0.00    -0.265 A  
HETATM   19  C   UNL     2      -8.259  18.417  67.055  1.00  0.00    -0.253 A  
HETATM   20  C   UNL     2      -8.679  19.621  66.528  1.00  0.00    -0.402 A  
HETATM   21  C   UNL     2      -9.722  20.319  67.123  1.00  0.00    -0.592 A  
HETATM   22  C   UNL     2     -10.349  19.804  68.260  1.00  0.00    -0.536 A  
HETATM   23  C   UNL     2      -9.921  18.591  68.801  1.00  0.00    -0.417 A  
ENDBRANCH  15  18
ENDBRANCH  13  15
ENDBRANCH  12  13
ENDBRANCH  10  12
TORSDOF 4
ENDMDL
MODEL       47
REMARK 921   NORMALIZED FREE ENERGY PREDICTED BY IDOCK:   -5.35 KCAL/MOL
REMARK 922        TOTAL FREE ENERGY PREDICTED BY IDOCK:   -7.24 KCAL/MOL
REMARK 923 INTER-LIGAND FREE ENERGY PREDICTED BY IDOCK:   -6.30 KCAL/MOL
REMARK 924 INTRA-LIGAND FREE ENERGY PREDICTED BY IDOCK:   -0.94 KCAL/MOL
REMARK 927      BINDING AFFINITY PREDICTED BY RF-SCORE:    0.00 PKD
ROOT
HETATM    1 BR   UNL     1     -10.750  19.518  66.273  1.00  0.00    -0.473 Br 
HETATM    2  C   UNL     2      -7.957  18.146  68.689  1.00  0.00    -0.288 C  
HETATM    3  N   UNL     2      -7.716  16.715  68.103  1.00  0.00    -0.168 N  
HETATM    4  C   UNL     2      -6.415  16.866  67.340  1.00  0.00    -0.154 C  
HETATM    5  C   UNL     2      -8.937  16.314  67.227  1.00  0.00    -0.195 C  
HETATM    6  C   UNL     2     -10.042  16.106  68.282  1.00  0.00    -0.232 C  
HETATM    7  C   UNL     2      -9.295  15.723  69.573  1.00  0.00    -0.238 C  
HETATM    8  C   UNL     2      -7.809  15.601  69.171  1.00  0.00    -0.220 C  
HETATM    9  C   UNL     2      -7.392  14.259  68.516  1.00  0.00    -0.117 C  
HETATM   10  C   UNL     2      -8.325  13.814  67.390  1.00  0.00    -0.193 C  
HETATM   11  C   UNL     2      -8.648  14.992  66.478  1.00  0.00    -0.179 C  
ENDROOT
BRANCH  10  12
HETATM   12  O   UNL     2      -9.581  13.367  67.943  1.00  0.00    -0.202 OA 
BRANCH  12  13
HETATM   13  C   UNL     2      -9.817  12.031  68.102  1.00  0.00    -0.201 C  
HETATM   14  O   UNL     2      -9.024  11.226  68.580  1.00  0.00    -0.161 OA 
BRANCH  13  15
HETATM   15  C   UNL     2     -11.238  11.716  67.578  1.00  0.00    -0.293 C  
HETATM   16  O   UNL     2     -12.283  12.398  68.274  1.00  0.00    -0.275 OA 
HETATM   17  H   UNL     2     -13.155  12.205  67.952  1.00  0.00     0.000 HD 
BRANCH  15  18
HETATM   18  C   UNL     2     -11.310  11.981  66.088  1.00  0.00    -0.407 A  
HETATM   19  C   UNL     2     -12.225  12.944  65.620  1.00  0.00    -0.519 A  
HETATM   20  C   UNL     2     -12.381  13.180  64.269  1.00  0.00    -0.421 A  
HETATM   21  C   UNL     2     -11.631  12.465  63.344  1.00  0.00    -0.541 A  
HETATM   22  C   UNL     2     -10.716  11.504  63.779  1.00  0.00    -0.474 A  
HETATM   23  C   UNL     2     -10.562  11.256  65.144  1.00  0.00    -0.343 A  
ENDBRANCH  15  18
ENDBRANCH  13  15
ENDBRANCH  12  13
ENDBRANCH  10  12
TORSDOF 4
ENDMDL
MODEL       48
REMARK 921   NORMALIZED FREE ENERGY PREDICTED BY IDOCK:   -5.33 KCAL/MOL
REMARK 922        TOTAL FREE ENERGY PREDICTED BY IDOCK:   -7.22 KCAL/MOL
REMARK 923 INTER-LIGAND FREE ENERGY PREDICTED BY IDOCK:   -6.54 KCAL/MOL
REMARK 924 INTRA-LIGAND FREE ENERGY PREDICTED BY IDOCK:   -0.68 KCAL/MOL
REMARK 927      BINDING AFFINITY PREDICTED BY RF-SCORE:    0.00 PKD
ROOT
HETATM    1 BR   UNL     1     -12.210  10.852  71.012  1.00  0.00    -0.444 Br 
HETATM    2  C   UNL     2     -11.089  10.586  67.246  1.00  0.00    -0.213 C  
HETATM    3  N   UNL     2     -10.197  11.864  67.096  1.00  0.00    -0.207 N  
HETATM    4  C   UNL     2      -8.787  11.311  67.135  1.00  0.00    -0.153 C  
HETATM    5  C   UNL     2     -10.536  12.855  68.247  1.00  0.00    -0.242 C  
HETATM    6  C   UNL     2     -11.949  13.336  67.860  1.00  0.00    -0.349 C  
HETATM    7  C   UNL     2     -12.016  13.183  66.329  1.00  0.00    -0.473 C  
HETATM    8  C   UNL     2     -10.602  12.746  65.893  1.00  0.00    -0.274 C  
HETATM    9  C   UNL     2      -9.556  13.882  65.746  1.00  0.00    -0.114 C  
HETATM   10  C   UNL     2      -9.516  14.832  66.943  1.00  0.00    -0.240 C  
HETATM   11  C   UNL     2      -9.541  14.039  68.244  1.00  0.00    -0.224 C  
ENDROOT
BRANCH  10  12
HETATM   12  O   UNL     2     -10.695  15.665  66.947  1.00  0.00    -0.311 OA 
BRANCH  12  13
HETATM   13  C   UNL     2     -10.650  16.909  66.385  1.00  0.00    -0.183 C  
HETATM   14  O   UNL     2     -10.659  17.141  65.180  1.00  0.00    -0.695 OA 
BRANCH  13  15
HETATM   15  C   UNL     2     -10.582  17.959  67.519  1.00  0.00    -0.376 C  
HETATM   16  O   UNL     2     -11.021  17.476  68.790  1.00  0.00    -0.260 OA 
HETATM   17  H   UNL     2     -10.979  18.121  69.487  1.00  0.00     0.000 HD 
BRANCH  15  18
HETATM   18  C   UNL     2      -9.185  18.537  67.606  1.00  0.00    -0.292 A  
HETATM   19  C   UNL     2      -9.003  19.903  67.316  1.00  0.00    -0.420 A  
HETATM   20  C   UNL     2      -7.745  20.469  67.316  1.00  0.00    -0.375 A  
HETATM   21  C   UNL     2      -6.630  19.694  67.603  1.00  0.00    -0.254 A  
HETATM   22  C   UNL     2      -6.778  18.336  67.893  1.00  0.00    -0.208 A  
HETATM   23  C   UNL     2      -8.049  17.758  67.887  1.00  0.00    -0.235 A  
ENDBRANCH  15  18
ENDBRANCH  13  15
ENDBRANCH  12  13
ENDBRANCH  10  12
TORSDOF 4
ENDMDL
MODEL       49
REMARK 921   NORMALIZED FREE ENERGY PREDICTED BY IDOCK:   -5.32 KCAL/MOL
REMARK 922        TOTAL FREE ENERGY PREDICTED BY IDOCK:   -7.20 KCAL/MOL
REMARK 923 INTER-LIGAND FREE ENERGY PREDICTED BY IDOCK:   -6.11 KCAL/MOL
REMARK 924 INTRA-LIGAND FREE ENERGY PREDICTED BY IDOCK:   -1.09 KCAL/MOL
REMARK 927      BINDING AFFINITY PREDICTED BY RF-SCORE:    0.00 PKD
ROOT
HETATM    1 BR   UNL     1     -12.185  12.516  65.011  1.00  0.00    -0.485 Br 
HETATM    2  C   UNL     2      -8.758  11.955  66.870  1.00  0.00    -0.191 C  
HETATM    3  N   UNL     2      -8.717  10.393  66.980  1.00  0.00    -0.130 N  
HETATM    4  C   UNL     2      -7.734   9.994  65.899  1.00  0.00    -0.116 C  
HETATM    5  C   UNL     2     -10.156   9.834  66.786  1.00  0.00    -0.231 C  
HETATM    6  C   UNL     2     -10.860  10.283  68.082  1.00  0.00    -0.312 C  
HETATM    7  C   UNL     2      -9.734  10.404  69.126  1.00  0.00    -0.234 C  
HETATM    8  C   UNL     2      -8.458   9.896  68.421  1.00  0.00    -0.111 C  
HETATM    9  C   UNL     2      -8.273   8.356  68.381  1.00  0.00    -0.124 C  
HETATM   10  C   UNL     2      -9.520   7.605  67.915  1.00  0.00    -0.143 C  
HETATM   11  C   UNL     2     -10.123   8.291  66.695  1.00  0.00    -0.351 C  
ENDROOT
BRANCH  10  12
HETATM   12  O   UNL     2     -10.528   7.643  68.947  1.00  0.00    -0.211 OA 
BRANCH  12  13
HETATM   13  C   UNL     2     -10.689   6.573  69.781  1.00  0.00    -0.269 C  
HETATM   14  O   UNL     2     -10.819   5.408  69.418  1.00  0.00    -0.252 OA 
BRANCH  13  15
HETATM   15  C   UNL     2     -10.680   7.082  71.242  1.00  0.00    -0.221 C  
HETATM   16  O   UNL     2      -9.526   7.849  71.588  1.00  0.00    -0.144 OA 
HETATM   17  H   UNL     2      -9.521   8.161  72.485  1.00  0.00     0.000 HD 
BRANCH  15  18
HETATM   18  C   UNL     2     -11.953   7.850  71.529  1.00  0.00    -0.333 A  
HETATM   19  C   UNL     2     -13.181   7.159  71.483  1.00  0.00    -0.419 A  
HETATM   20  C   UNL     2     -14.377   7.821  71.671  1.00  0.00    -0.607 A  
HETATM   21  C   UNL     2     -14.389   9.188  71.911  1.00  0.00    -0.221 A  
HETATM   22  C   UNL     2     -13.188   9.900  71.961  1.00  0.00    -0.555 A  
HETATM   23  C   UNL     2     -11.976   9.236  71.763  1.00  0.00    -0.455 A  
ENDBRANCH  15  18
ENDBRANCH  13  15
ENDBRANCH  12  13
ENDBRANCH  10  12
TORSDOF 4
ENDMDL
MODEL       50
REMARK 921   NORMALIZED FREE ENERGY PREDICTED BY IDOCK:   -5.28 KCAL/MOL
REMARK 922        TOTAL FREE ENERGY PREDICTED BY IDOCK:   -7.16 KCAL/MOL
REMARK 923 INTER-LIGAND FREE ENERGY PREDICTED BY IDOCK:   -6.80 KCAL/MOL
REMARK 924 INTRA-LIGAND FREE ENERGY PREDICTED BY IDOCK:   -0.35 KCAL/MOL
REMARK 927      BINDING AFFINITY PREDICTED BY RF-SCORE:    0.00 PKD
ROOT
HETATM    1 BR   UNL     1      -6.650  17.889  65.819  1.00  0.00    -0.197 Br 
HETATM    2  C   UNL     2     -10.483  17.770  66.719  1.00  0.00    -0.300 C  
HETATM    3  N   UNL     2     -10.516  16.622  67.784  1.00  0.00    -0.307 N  
HETATM    4  C   UNL     2     -10.643  17.369  69.096  1.00  0.00    -0.161 C  
HETATM    5  C   UNL     2      -9.223  15.769  67.648  1.00  0.00    -0.200 C  
HETATM    6  C   UNL     2      -9.449  15.043  66.306  1.00  0.00    -0.342 C  
HETATM    7  C   UNL     2     -10.979  14.965  66.149  1.00  0.00    -0.334 C  
HETATM    8  C   UNL     2     -11.561  15.530  67.462  1.00  0.00    -0.106 C  
HETATM    9  C   UNL     2     -11.621  14.543  68.657  1.00  0.00    -0.346 C  
HETATM   10  C   UNL     2     -10.312  13.790  68.891  1.00  0.00    -0.136 C  
HETATM   11  C   UNL     2      -9.130  14.748  68.806  1.00  0.00    -0.191 C  
ENDROOT
BRANCH  10  12
HETATM   12  O   UNL     2     -10.120  12.807  67.850  1.00  0.00    -0.218 OA 
BRANCH  12  13
HETATM   13  C   UNL     2     -10.815  11.633  67.887  1.00  0.00    -0.210 C  
HETATM   14  O   UNL     2     -11.826  11.390  67.235  1.00  0.00    -0.594 OA 
BRANCH  13  15
HETATM   15  C   UNL     2     -10.116  10.678  68.883  1.00  0.00    -0.202 C  
HETATM   16  O   UNL     2      -8.836  11.130  69.327  1.00  0.00    -0.377 OA 
HETATM   17  H   UNL     2      -8.407  10.544  69.938  1.00  0.00     0.000 HD 
BRANCH  15  18
HETATM   18  C   UNL     2     -11.032  10.392  70.055  1.00  0.00    -0.370 A  
HETATM   19  C   UNL     2     -10.749   9.280  70.873  1.00  0.00    -0.371 A  
HETATM   20  C   UNL     2     -11.585   8.933  71.915  1.00  0.00    -0.442 A  
HETATM   21  C   UNL     2     -12.726   9.680  72.173  1.00  0.00    -0.427 A  
HETATM   22  C   UNL     2     -13.033  10.787  71.378  1.00  0.00    -0.535 A  
HETATM   23  C   UNL     2     -12.195  11.136  70.318  1.00  0.00    -0.436 A  
ENDBRANCH  15  18
ENDBRANCH  13  15
ENDBRANCH  12  13
ENDBRANCH  10  12
TORSDOF 4
ENDMDL
MODEL       51
REMARK 921   NORMALIZED FREE ENERGY PREDICTED BY IDOCK:   -5.27 KCAL/MOL
REMARK 922        TOTAL FREE ENERGY PREDICTED BY IDOCK:   -7.14 KCAL/MOL
REMARK 923 INTER-LIGAND FREE ENERGY PREDICTED BY IDOCK:   -5.89 KCAL/MOL
REMARK 924 INTRA-LIGAND FREE ENERGY PREDICTED BY IDOCK:   -1.25 KCAL/MOL
REMARK 927      BINDING AFFINITY PREDICTED BY RF-SCORE:    0.00 PKD
ROOT
HETATM    1 BR   UNL     1     -10.266  18.224  67.749  1.00  0.00    -0.424 Br 
HETATM    2  C   UNL     2     -10.198  15.265  65.151  1.00  0.00    -0.339 C  
HETATM    3  N   UNL     2     -11.047  14.180  65.894  1.00  0.00    -0.302 N  
HETATM    4  C   UNL     2     -12.385  14.238  65.185  1.00  0.00    -0.424 C  
HETATM    5  C   UNL     2     -11.103  14.531  67.409  1.00  0.00    -0.314 C  
HETATM    6  C   UNL     2      -9.656  14.251  67.863  1.00  0.00    -0.221 C  
HETATM    7  C   UNL     2      -9.128  13.189  66.880  1.00  0.00    -0.231 C  
HETATM    8  C   UNL     2     -10.332  12.813  65.990  1.00  0.00    -0.276 C  
HETATM    9  C   UNL     2     -11.323  11.782  66.590  1.00  0.00    -0.381 C  
HETATM   10  C   UNL     2     -11.751  12.111  68.020  1.00  0.00    -0.344 C  
HETATM   11  C   UNL     2     -12.090  13.592  68.140  1.00  0.00    -0.310 C  
ENDROOT
BRANCH  10  12
HETATM   12  O   UNL     2     -10.657  11.865  68.928  1.00  0.00    -0.217 OA 
BRANCH  12  13
HETATM   13  C   UNL     2     -10.794  10.938  69.922  1.00  0.00    -0.141 C  
HETATM   14  O   UNL     2     -11.755  10.850  70.678  1.00  0.00    -0.331 OA 
BRANCH  13  15
HETATM   15  C   UNL     2      -9.538  10.034  69.927  1.00  0.00    -0.192 C  
HETATM   16  O   UNL     2      -9.489   9.107  71.014  1.00  0.00    -0.252 OA 
HETATM   17  H   UNL     2      -8.718   8.552  71.017  1.00  0.00     0.000 HD 
BRANCH  15  18
HETATM   18  C   UNL     2      -9.407   9.323  68.596  1.00  0.00    -0.139 A  
HETATM   19  C   UNL     2      -8.258   9.561  67.817  1.00  0.00    -0.114 A  
HETATM   20  C   UNL     2      -8.115   8.992  66.568  1.00  0.00    -0.111 A  
HETATM   21  C   UNL     2      -9.111   8.171  66.056  1.00  0.00    -0.218 A  
HETATM   22  C   UNL     2     -10.262   7.917  66.805  1.00  0.00    -0.358 A  
HETATM   23  C   UNL     2     -10.414   8.497  68.066  1.00  0.00    -0.249 A  
ENDBRANCH  15  18
ENDBRANCH  13  15
ENDBRANCH  12  13
ENDBRANCH  10  12
TORSDOF 4
ENDMDL
MODEL       52
REMARK 921   NORMALIZED FREE ENERGY PREDICTED BY IDOCK:   -5.26 KCAL/MOL
REMARK 922        TOTAL FREE ENERGY PREDICTED BY IDOCK:   -7.13 KCAL/MOL
REMARK 923 INTER-LIGAND FREE ENERGY PREDICTED BY IDOCK:   -6.06 KCAL/MOL
REMARK 924 INTRA-LIGAND FREE ENERGY PREDICTED BY IDOCK:   -1.07 KCAL/MOL
REMARK 927      BINDING AFFINITY PREDICTED BY RF-SCORE:    0.00 PKD
ROOT
HETATM    1 BR   UNL     1     -11.002   8.558  71.585  1.00  0.00    -0.388 Br 
HETATM    2  C   UNL     2      -8.941   7.597  68.369  1.00  0.00    -0.128 C  
HETATM    3  N   UNL     2      -8.378   8.991  67.933  1.00  0.00    -0.117 N  
HETATM    4  C   UNL     2      -6.932   8.939  68.384  1.00  0.00    -0.065 C  
HETATM    5  C   UNL     2      -9.224  10.111  68.604  1.00  0.00    -0.157 C  
HETATM    6  C   UNL     2     -10.568   9.998  67.856  1.00  0.00    -0.298 C  
HETATM    7  C   UNL     2     -10.209   9.404  66.480  1.00  0.00    -0.308 C  
HETATM    8  C   UNL     2      -8.668   9.324  66.452  1.00  0.00    -0.132 C  
HETATM    9  C   UNL     2      -7.928  10.638  66.091  1.00  0.00    -0.151 C  
HETATM   10  C   UNL     2      -8.421  11.851  66.879  1.00  0.00    -0.174 C  
HETATM   11  C   UNL     2      -8.579  11.493  68.352  1.00  0.00    -0.159 C  
ENDROOT
BRANCH  10  12
HETATM   12  O   UNL     2      -9.729  12.241  66.409  1.00  0.00    -0.224 OA 
BRANCH  12  13
HETATM   13  C   UNL     2     -10.098  13.556  66.440  1.00  0.00    -0.294 C  
HETATM   14  O   UNL     2      -9.339  14.506  66.279  1.00  0.00    -0.285 OA 
BRANCH  13  15
HETATM   15  C   UNL     2     -11.619  13.633  66.712  1.00  0.00    -0.364 C  
HETATM   16  O   UNL     2     -12.351  12.487  66.274  1.00  0.00    -0.570 OA 
HETATM   17  H   UNL     2     -13.285  12.535  66.442  1.00  0.00     0.000 HD 
BRANCH  15  18
HETATM   18  C   UNL     2     -11.867  13.913  68.180  1.00  0.00    -0.407 A  
HETATM   19  C   UNL     2     -11.894  15.253  68.614  1.00  0.00    -0.329 A  
HETATM   20  C   UNL     2     -12.051  15.566  69.949  1.00  0.00    -0.378 A  
HETATM   21  C   UNL     2     -12.186  14.555  70.892  1.00  0.00    -0.409 A  
HETATM   22  C   UNL     2     -12.162  13.218  70.492  1.00  0.00    -0.416 A  
HETATM   23  C   UNL     2     -11.996  12.897  69.143  1.00  0.00    -0.308 A  
ENDBRANCH  15  18
ENDBRANCH  13  15
ENDBRANCH  12  13
ENDBRANCH  10  12
TORSDOF 4
ENDMDL
MODEL       53
REMARK 921   NORMALIZED FREE ENERGY PREDICTED BY IDOCK:   -5.23 KCAL/MOL
REMARK 922        TOTAL FREE ENERGY PREDICTED BY IDOCK:   -7.10 KCAL/MOL
REMARK 923 INTER-LIGAND FREE ENERGY PREDICTED BY IDOCK:   -6.10 KCAL/MOL
REMARK 924 INTRA-LIGAND FREE ENERGY PREDICTED BY IDOCK:   -1.00 KCAL/MOL
REMARK 927      BINDING AFFINITY PREDICTED BY RF-SCORE:    0.00 PKD
ROOT
HETATM    1 BR   UNL     1     -11.404   6.442  70.326  1.00  0.00    -0.469 Br 
HETATM    2  C   UNL     2      -8.885   6.868  67.328  1.00  0.00    -0.118 C  
HETATM    3  N   UNL     2      -8.285   8.283  67.625  1.00  0.00    -0.125 N  
HETATM    4  C   UNL     2      -6.919   7.967  68.200  1.00  0.00    -0.077 C  
HETATM    5  C   UNL     2      -9.236   9.042  68.595  1.00  0.00    -0.136 C  
HETATM    6  C   UNL     2     -10.455   9.333  67.697  1.00  0.00    -0.325 C  
HETATM    7  C   UNL     2      -9.892   9.377  66.263  1.00  0.00    -0.351 C  
HETATM    8  C   UNL     2      -8.363   9.239  66.413  1.00  0.00    -0.118 C  
HETATM    9  C   UNL     2      -7.596  10.540  66.767  1.00  0.00    -0.115 C  
HETATM   10  C   UNL     2      -8.216  11.315  67.929  1.00  0.00    -0.123 C  
HETATM   11  C   UNL     2      -8.581  10.362  69.062  1.00  0.00    -0.158 C  
ENDROOT
BRANCH  10  12
HETATM   12  O   UNL     2      -9.447  11.936  67.503  1.00  0.00    -0.171 OA 
BRANCH  12  13
HETATM   13  C   UNL     2      -9.891  13.066  68.129  1.00  0.00    -0.228 C  
HETATM   14  O   UNL     2      -9.173  13.914  68.648  1.00  0.00    -0.179 OA 
BRANCH  13  15
HETATM   15  C   UNL     2     -11.437  13.085  68.071  1.00  0.00    -0.309 C  
HETATM   16  O   UNL     2     -11.999  12.167  67.131  1.00  0.00    -0.580 OA 
HETATM   17  H   UNL     2     -12.948  12.179  67.096  1.00  0.00     0.000 HD 
BRANCH  15  18
HETATM   18  C   UNL     2     -12.009  12.867  69.457  1.00  0.00    -0.346 A  
HETATM   19  C   UNL     2     -12.156  11.545  69.923  1.00  0.00    -0.389 A  
HETATM   20  C   UNL     2     -12.731  11.284  71.150  1.00  0.00    -0.492 A  
HETATM   21  C   UNL     2     -13.177  12.328  71.949  1.00  0.00    -0.481 A  
HETATM   22  C   UNL     2     -13.046  13.648  71.513  1.00  0.00    -0.431 A  
HETATM   23  C   UNL     2     -12.472  13.916  70.269  1.00  0.00    -0.380 A  
ENDBRANCH  15  18
ENDBRANCH  13  15
ENDBRANCH  12  13
ENDBRANCH  10  12
TORSDOF 4
ENDMDL
MODEL       54
REMARK 921   NORMALIZED FREE ENERGY PREDICTED BY IDOCK:   -5.21 KCAL/MOL
REMARK 922        TOTAL FREE ENERGY PREDICTED BY IDOCK:   -7.06 KCAL/MOL
REMARK 923 INTER-LIGAND FREE ENERGY PREDICTED BY IDOCK:   -6.06 KCAL/MOL
REMARK 924 INTRA-LIGAND FREE ENERGY PREDICTED BY IDOCK:   -1.00 KCAL/MOL
REMARK 927      BINDING AFFINITY PREDICTED BY RF-SCORE:    0.00 PKD
ROOT
HETATM    1 BR   UNL     1     -11.941  13.053  63.623  1.00  0.00    -0.601 Br 
HETATM    2  C   UNL     2      -9.887  12.326  66.904  1.00  0.00    -0.209 C  
HETATM    3  N   UNL     2     -10.315  13.529  67.811  1.00  0.00    -0.237 N  
HETATM    4  C   UNL     2     -11.305  12.905  68.774  1.00  0.00    -0.290 C  
HETATM    5  C   UNL     2     -10.907  14.654  66.913  1.00  0.00    -0.305 C  
HETATM    6  C   UNL     2      -9.659  15.169  66.169  1.00  0.00    -0.344 C  
HETATM    7  C   UNL     2      -8.478  14.859  67.108  1.00  0.00    -0.244 C  
HETATM    8  C   UNL     2      -9.111  14.300  68.399  1.00  0.00    -0.194 C  
HETATM    9  C   UNL     2      -9.648  15.353  69.403  1.00  0.00    -0.270 C  
HETATM   10  C   UNL     2     -10.528  16.421  68.752  1.00  0.00    -0.300 C  
HETATM   11  C   UNL     2     -11.516  15.773  67.789  1.00  0.00    -0.175 C  
ENDROOT
BRANCH  10  12
HETATM   12  O   UNL     2      -9.712  17.314  67.965  1.00  0.00    -0.261 OA 
BRANCH  12  13
HETATM   13  C   UNL     2      -9.409  18.557  68.444  1.00  0.00    -0.334 C  
HETATM   14  O   UNL     2     -10.229  19.421  68.734  1.00  0.00    -0.419 OA 
BRANCH  13  15
HETATM   15  C   UNL     2      -7.870  18.681  68.550  1.00  0.00    -0.328 C  
HETATM   16  O   UNL     2      -7.251  17.648  69.318  1.00  0.00    -0.203 OA 
HETATM   17  H   UNL     2      -6.307  17.724  69.383  1.00  0.00     0.000 HD 
BRANCH  15  18
HETATM   18  C   UNL     2      -7.262  18.772  67.166  1.00  0.00    -0.217 A  
HETATM   19  C   UNL     2      -6.306  17.810  66.786  1.00  0.00    -0.209 A  
HETATM   20  C   UNL     2      -5.671  17.881  65.564  1.00  0.00    -0.137 A  
HETATM   21  C   UNL     2      -5.968  18.912  64.681  1.00  0.00    -0.268 A  
HETATM   22  C   UNL     2      -6.910  19.881  65.030  1.00  0.00    -0.197 A  
HETATM   23  C   UNL     2      -7.549  19.817  66.270  1.00  0.00    -0.320 A  
ENDBRANCH  15  18
ENDBRANCH  13  15
ENDBRANCH  12  13
ENDBRANCH  10  12
TORSDOF 4
ENDMDL
MODEL       55
REMARK 921   NORMALIZED FREE ENERGY PREDICTED BY IDOCK:   -5.20 KCAL/MOL
REMARK 922        TOTAL FREE ENERGY PREDICTED BY IDOCK:   -7.06 KCAL/MOL
REMARK 923 INTER-LIGAND FREE ENERGY PREDICTED BY IDOCK:   -6.21 KCAL/MOL
REMARK 924 INTRA-LIGAND FREE ENERGY PREDICTED BY IDOCK:   -0.85 KCAL/MOL
REMARK 927      BINDING AFFINITY PREDICTED BY RF-SCORE:    0.00 PKD
ROOT
HETATM    1 BR   UNL     1      -6.498   9.433  70.655  1.00  0.00    -0.091 Br 
HETATM    2  C   UNL     2      -7.486   6.420  72.992  1.00  0.00    -0.094 C  
HETATM    3  N   UNL     2      -8.841   5.964  72.354  1.00  0.00    -0.134 N  
HETATM    4  C   UNL     2      -8.461   4.716  71.583  1.00  0.00    -0.112 C  
HETATM    5  C   UNL     2      -9.403   7.121  71.478  1.00  0.00    -0.153 C  
HETATM    6  C   UNL     2      -9.817   8.162  72.537  1.00  0.00    -0.363 C  
HETATM    7  C   UNL     2     -10.118   7.341  73.806  1.00  0.00    -0.375 C  
HETATM    8  C   UNL     2      -9.989   5.863  73.384  1.00  0.00    -0.176 C  
HETATM    9  C   UNL     2     -11.227   5.248  72.679  1.00  0.00    -0.311 C  
HETATM   10  C   UNL     2     -11.777   6.118  71.549  1.00  0.00    -0.201 C  
HETATM   11  C   UNL     2     -10.637   6.638  70.682  1.00  0.00    -0.268 C  
ENDROOT
BRANCH  10  12
HETATM   12  O   UNL     2     -12.436   7.278  72.100  1.00  0.00    -0.262 OA 
BRANCH  12  13
HETATM   13  C   UNL     2     -13.630   7.692  71.582  1.00  0.00    -0.364 C  
HETATM   14  O   UNL     2     -14.280   7.087  70.735  1.00  0.00     0.202 OA 
BRANCH  13  15
HETATM   15  C   UNL     2     -14.011   9.039  72.240  1.00  0.00    -0.455 C  
HETATM   16  O   UNL     2     -13.837   9.068  73.658  1.00  0.00    -0.850 OA 
HETATM   17  H   UNL     2     -14.071   9.895  74.061  1.00  0.00     0.000 HD 
BRANCH  15  18
HETATM   18  C   UNL     2     -13.257  10.171  71.574  1.00  0.00    -0.496 A  
HETATM   19  C   UNL     2     -13.494  11.488  72.015  1.00  0.00    -0.298 A  
HETATM   20  C   UNL     2     -12.885  12.564  71.402  1.00  0.00    -0.359 A  
HETATM   21  C   UNL     2     -12.024  12.363  70.331  1.00  0.00    -0.342 A  
HETATM   22  C   UNL     2     -11.771  11.069  69.871  1.00  0.00    -0.424 A  
HETATM   23  C   UNL     2     -12.390   9.979  70.484  1.00  0.00    -0.282 A  
ENDBRANCH  15  18
ENDBRANCH  13  15
ENDBRANCH  12  13
ENDBRANCH  10  12
TORSDOF 4
ENDMDL
MODEL       56
REMARK 921   NORMALIZED FREE ENERGY PREDICTED BY IDOCK:   -5.19 KCAL/MOL
REMARK 922        TOTAL FREE ENERGY PREDICTED BY IDOCK:   -7.04 KCAL/MOL
REMARK 923 INTER-LIGAND FREE ENERGY PREDICTED BY IDOCK:   -6.55 KCAL/MOL
REMARK 924 INTRA-LIGAND FREE ENERGY PREDICTED BY IDOCK:   -0.49 KCAL/MOL
REMARK 927      BINDING AFFINITY PREDICTED BY RF-SCORE:    0.00 PKD
ROOT
HETATM    1 BR   UNL     1     -10.279  17.232  68.737  1.00  0.00    -0.361 Br 
HETATM    2  C   UNL     2     -10.247  14.949  65.527  1.00  0.00    -0.374 C  
HETATM    3  N   UNL     2     -10.965  13.662  66.055  1.00  0.00    -0.286 N  
HETATM    4  C   UNL     2     -12.357  13.774  65.468  1.00  0.00    -0.475 C  
HETATM    5  C   UNL     2     -10.915  13.656  67.610  1.00  0.00    -0.267 C  
HETATM    6  C   UNL     2      -9.422  13.396  67.889  1.00  0.00    -0.216 C  
HETATM    7  C   UNL     2      -8.914  12.627  66.654  1.00  0.00    -0.164 C  
HETATM    8  C   UNL     2     -10.162  12.369  65.784  1.00  0.00    -0.260 C  
HETATM    9  C   UNL     2     -11.035  11.155  66.195  1.00  0.00    -0.203 C  
HETATM   10  C   UNL     2     -11.363  11.118  67.687  1.00  0.00    -0.284 C  
HETATM   11  C   UNL     2     -11.780  12.503  68.169  1.00  0.00    -0.400 C  
ENDROOT
BRANCH  10  12
HETATM   12  O   UNL     2     -10.184  10.760  68.439  1.00  0.00    -0.163 OA 
BRANCH  12  13
HETATM   13  C   UNL     2      -9.769   9.459  68.472  1.00  0.00    -0.149 C  
HETATM   14  O   UNL     2      -9.623   8.739  67.489  1.00  0.00    -0.144 OA 
BRANCH  13  15
HETATM   15  C   UNL     2      -9.520   9.060  69.946  1.00  0.00    -0.177 C  
HETATM   16  O   UNL     2      -8.749  10.007  70.687  1.00  0.00    -0.345 OA 
HETATM   17  H   UNL     2      -8.597   9.762  71.591  1.00  0.00     0.000 HD 
BRANCH  15  18
HETATM   18  C   UNL     2     -10.838   8.770  70.632  1.00  0.00    -0.273 A  
HETATM   19  C   UNL     2     -11.361   7.463  70.560  1.00  0.00    -0.295 A  
HETATM   20  C   UNL     2     -12.589   7.157  71.111  1.00  0.00    -0.384 A  
HETATM   21  C   UNL     2     -13.333   8.140  71.749  1.00  0.00    -0.370 A  
HETATM   22  C   UNL     2     -12.841   9.444  71.835  1.00  0.00    -0.497 A  
HETATM   23  C   UNL     2     -11.603   9.760  71.272  1.00  0.00    -0.465 A  
ENDBRANCH  15  18
ENDBRANCH  13  15
ENDBRANCH  12  13
ENDBRANCH  10  12
TORSDOF 4
ENDMDL
MODEL       57
REMARK 921   NORMALIZED FREE ENERGY PREDICTED BY IDOCK:   -5.13 KCAL/MOL
REMARK 922        TOTAL FREE ENERGY PREDICTED BY IDOCK:   -6.97 KCAL/MOL
REMARK 923 INTER-LIGAND FREE ENERGY PREDICTED BY IDOCK:   -6.28 KCAL/MOL
REMARK 924 INTRA-LIGAND FREE ENERGY PREDICTED BY IDOCK:   -0.69 KCAL/MOL
REMARK 927      BINDING AFFINITY PREDICTED BY RF-SCORE:    0.00 PKD
ROOT
HETATM    1 BR   UNL     1     -12.349  15.298  70.675  1.00  0.00    -0.470 Br 
HETATM    2  C   UNL     2     -11.265  15.540  66.896  1.00  0.00    -0.159 C  
HETATM    3  N   UNL     2     -11.360  14.042  66.450  1.00  0.00    -0.323 N  
HETATM    4  C   UNL     2     -12.651  13.996  65.658  1.00  0.00    -0.512 C  
HETATM    5  C   UNL     2     -11.343  13.135  67.714  1.00  0.00    -0.290 C  
HETATM    6  C   UNL     2      -9.891  13.289  68.207  1.00  0.00    -0.231 C  
HETATM    7  C   UNL     2      -9.075  13.631  66.946  1.00  0.00    -0.249 C  
HETATM    8  C   UNL     2     -10.069  13.531  65.770  1.00  0.00    -0.287 C  
HETATM    9  C   UNL     2     -10.334  12.103  65.226  1.00  0.00    -0.310 C  
HETATM   10  C   UNL     2     -10.642  11.082  66.320  1.00  0.00    -0.237 C  
HETATM   11  C   UNL     2     -11.630  11.667  67.323  1.00  0.00    -0.316 C  
ENDROOT
BRANCH  10  12
HETATM   12  O   UNL     2      -9.439  10.777  67.058  1.00  0.00    -0.162 OA 
BRANCH  12  13
HETATM   13  C   UNL     2      -8.954   9.501  67.069  1.00  0.00    -0.134 C  
HETATM   14  O   UNL     2      -7.766   9.198  67.094  1.00  0.00    -0.097 OA 
BRANCH  13  15
HETATM   15  C   UNL     2     -10.150   8.520  67.043  1.00  0.00    -0.277 C  
HETATM   16  O   UNL     2     -10.023   7.469  66.084  1.00  0.00    -0.451 OA 
HETATM   17  H   UNL     2     -10.757   6.866  66.068  1.00  0.00     0.000 HD 
BRANCH  15  18
HETATM   18  C   UNL     2     -10.395   7.967  68.432  1.00  0.00    -0.235 A  
HETATM   19  C   UNL     2     -10.897   6.656  68.555  1.00  0.00    -0.319 A  
HETATM   20  C   UNL     2     -11.201   6.124  69.791  1.00  0.00    -0.494 A  
HETATM   21  C   UNL     2     -11.016   6.879  70.941  1.00  0.00    -0.290 A  
HETATM   22  C   UNL     2     -10.522   8.182  70.851  1.00  0.00    -0.229 A  
HETATM   23  C   UNL     2     -10.220   8.727  69.602  1.00  0.00    -0.210 A  
ENDBRANCH  15  18
ENDBRANCH  13  15
ENDBRANCH  12  13
ENDBRANCH  10  12
TORSDOF 4
ENDMDL
MODEL       58
REMARK 921   NORMALIZED FREE ENERGY PREDICTED BY IDOCK:   -5.13 KCAL/MOL
REMARK 922        TOTAL FREE ENERGY PREDICTED BY IDOCK:   -6.97 KCAL/MOL
REMARK 923 INTER-LIGAND FREE ENERGY PREDICTED BY IDOCK:   -5.62 KCAL/MOL
REMARK 924 INTRA-LIGAND FREE ENERGY PREDICTED BY IDOCK:   -1.35 KCAL/MOL
REMARK 927      BINDING AFFINITY PREDICTED BY RF-SCORE:    0.00 PKD
ROOT
HETATM    1 BR   UNL     1      -9.085   9.913  62.340  1.00  0.00    -0.314 Br 
HETATM    2  C   UNL     2      -6.974   8.819  65.480  1.00  0.00    -0.076 C  
HETATM    3  N   UNL     2      -8.081   8.730  66.583  1.00  0.00    -0.103 N  
HETATM    4  C   UNL     2      -8.313   7.239  66.724  1.00  0.00    -0.119 C  
HETATM    5  C   UNL     2      -9.327   9.537  66.116  1.00  0.00    -0.198 C  
HETATM    6  C   UNL     2      -8.825  10.993  66.205  1.00  0.00    -0.187 C  
HETATM    7  C   UNL     2      -7.725  10.970  67.284  1.00  0.00    -0.118 C  
HETATM    8  C   UNL     2      -7.734   9.537  67.855  1.00  0.00    -0.087 C  
HETATM    9  C   UNL     2      -8.812   9.242  68.931  1.00  0.00    -0.135 C  
HETATM   10  C   UNL     2     -10.212   9.706  68.532  1.00  0.00    -0.193 C  
HETATM   11  C   UNL     2     -10.507   9.311  67.090  1.00  0.00    -0.319 C  
ENDROOT
BRANCH  10  12
HETATM   12  O   UNL     2     -10.286  11.146  68.587  1.00  0.00    -0.191 OA 
BRANCH  12  13
HETATM   13  C   UNL     2     -11.486  11.758  68.811  1.00  0.00    -0.291 C  
HETATM   14  O   UNL     2     -12.482  11.211  69.274  1.00  0.00    -0.377 OA 
BRANCH  13  15
HETATM   15  C   UNL     2     -11.371  13.240  68.381  1.00  0.00    -0.291 C  
HETATM   16  O   UNL     2     -10.260  13.931  68.955  1.00  0.00    -0.390 OA 
HETATM   17  H   UNL     2     -10.190  14.840  68.692  1.00  0.00     0.000 HD 
BRANCH  15  18
HETATM   18  C   UNL     2     -11.356  13.340  66.870  1.00  0.00    -0.351 A  
HETATM   19  C   UNL     2     -12.267  12.556  66.135  1.00  0.00    -0.215 A  
HETATM   20  C   UNL     2     -12.255  12.557  64.755  1.00  0.00    -0.532 A  
HETATM   21  C   UNL     2     -11.338  13.338  64.065  1.00  0.00    -0.403 A  
HETATM   22  C   UNL     2     -10.422  14.125  64.767  1.00  0.00    -0.432 A  
HETATM   23  C   UNL     2     -10.425  14.120  66.163  1.00  0.00    -0.297 A  
ENDBRANCH  15  18
ENDBRANCH  13  15
ENDBRANCH  12  13
ENDBRANCH  10  12
TORSDOF 4
ENDMDL
MODEL       59
REMARK 921   NORMALIZED FREE ENERGY PREDICTED BY IDOCK:   -5.12 KCAL/MOL
REMARK 922        TOTAL FREE ENERGY PREDICTED BY IDOCK:   -6.96 KCAL/MOL
REMARK 923 INTER-LIGAND FREE ENERGY PREDICTED BY IDOCK:   -6.33 KCAL/MOL
REMARK 924 INTRA-LIGAND FREE ENERGY PREDICTED BY IDOCK:   -0.63 KCAL/MOL
REMARK 927      BINDING AFFINITY PREDICTED BY RF-SCORE:    0.00 PKD
ROOT
HETATM    1 BR   UNL     1      -9.323   3.461  68.382  1.00  0.00    -0.220 Br 
HETATM    2  C   UNL     2      -9.046   5.051  71.976  1.00  0.00    -0.136 C  
HETATM    3  N   UNL     2     -10.316   5.966  72.009  1.00  0.00    -0.201 N  
HETATM    4  C   UNL     2     -11.287   5.183  72.870  1.00  0.00    -0.282 C  
HETATM    5  C   UNL     2     -10.799   6.214  70.551  1.00  0.00    -0.300 C  
HETATM    6  C   UNL     2      -9.692   7.128  69.990  1.00  0.00    -0.171 C  
HETATM    7  C   UNL     2      -9.115   7.856  71.219  1.00  0.00    -0.161 C  
HETATM    8  C   UNL     2      -9.999   7.425  72.409  1.00  0.00    -0.180 C  
HETATM    9  C   UNL     2     -11.339   8.190  72.570  1.00  0.00    -0.469 C  
HETATM   10  C   UNL     2     -12.139   8.295  71.272  1.00  0.00    -0.280 C  
HETATM   11  C   UNL     2     -12.159   6.950  70.555  1.00  0.00    -0.315 C  
ENDROOT
BRANCH  10  12
HETATM   12  O   UNL     2     -11.500   9.229  70.376  1.00  0.00    -0.263 OA 
BRANCH  12  13
HETATM   13  C   UNL     2     -12.029  10.476  70.203  1.00  0.00    -0.316 C  
HETATM   14  O   UNL     2     -13.197  10.784  70.419  1.00  0.00    -0.158 OA 
BRANCH  13  15
HETATM   15  C   UNL     2     -10.913  11.417  69.692  1.00  0.00    -0.110 C  
HETATM   16  O   UNL     2      -9.630  10.799  69.582  1.00  0.00    -0.426 OA 
HETATM   17  H   UNL     2      -8.945  11.377  69.268  1.00  0.00     0.000 HD 
BRANCH  15  18
HETATM   18  C   UNL     2     -11.330  12.048  68.379  1.00  0.00    -0.332 A  
HETATM   19  C   UNL     2     -11.169  11.303  67.194  1.00  0.00    -0.344 A  
HETATM   20  C   UNL     2     -11.471  11.850  65.964  1.00  0.00    -0.344 A  
HETATM   21  C   UNL     2     -11.940  13.154  65.875  1.00  0.00    -0.479 A  
HETATM   22  C   UNL     2     -12.109  13.917  67.032  1.00  0.00    -0.451 A  
HETATM   23  C   UNL     2     -11.797  13.370  68.278  1.00  0.00    -0.393 A  
ENDBRANCH  15  18
ENDBRANCH  13  15
ENDBRANCH  12  13
ENDBRANCH  10  12
TORSDOF 4
ENDMDL
MODEL       60
REMARK 921   NORMALIZED FREE ENERGY PREDICTED BY IDOCK:   -5.09 KCAL/MOL
REMARK 922        TOTAL FREE ENERGY PREDICTED BY IDOCK:   -6.92 KCAL/MOL
REMARK 923 INTER-LIGAND FREE ENERGY PREDICTED BY IDOCK:   -5.72 KCAL/MOL
REMARK 924 INTRA-LIGAND FREE ENERGY PREDICTED BY IDOCK:   -1.20 KCAL/MOL
REMARK 927      BINDING AFFINITY PREDICTED BY RF-SCORE:    0.00 PKD
ROOT
HETATM    1 BR   UNL     1     -10.830   5.913  69.164  1.00  0.00    -0.373 Br 
HETATM    2  C   UNL     2      -8.196   7.883  66.998  1.00  0.00    -0.117 C  
HETATM    3  N   UNL     2      -8.236   9.297  67.671  1.00  0.00    -0.114 N  
HETATM    4  C   UNL     2      -6.969   9.321  68.503  1.00  0.00    -0.067 C  
HETATM    5  C   UNL     2      -9.551   9.430  68.490  1.00  0.00    -0.147 C  
HETATM    6  C   UNL     2     -10.620   9.512  67.382  1.00  0.00    -0.337 C  
HETATM    7  C   UNL     2      -9.884  10.095  66.161  1.00  0.00    -0.297 C  
HETATM    8  C   UNL     2      -8.465  10.442  66.659  1.00  0.00    -0.126 C  
HETATM    9  C   UNL     2      -8.320  11.793  67.406  1.00  0.00    -0.159 C  
HETATM   10  C   UNL     2      -9.373  12.002  68.494  1.00  0.00    -0.124 C  
HETATM   11  C   UNL     2      -9.534  10.733  69.323  1.00  0.00    -0.103 C  
ENDROOT
BRANCH  10  12
HETATM   12  O   UNL     2     -10.657  12.264  67.889  1.00  0.00    -0.202 OA 
BRANCH  12  13
HETATM   13  C   UNL     2     -11.251  13.482  68.055  1.00  0.00    -0.271 C  
HETATM   14  O   UNL     2     -11.811  13.862  69.078  1.00  0.00    -0.315 OA 
BRANCH  13  15
HETATM   15  C   UNL     2     -11.098  14.287  66.742  1.00  0.00    -0.314 C  
HETATM   16  O   UNL     2      -9.838  14.946  66.604  1.00  0.00    -0.243 OA 
HETATM   17  H   UNL     2      -9.744  15.440  65.798  1.00  0.00     0.000 HD 
BRANCH  15  18
HETATM   18  C   UNL     2     -11.381  13.393  65.552  1.00  0.00    -0.310 A  
HETATM   19  C   UNL     2     -10.336  13.132  64.644  1.00  0.00    -0.381 A  
HETATM   20  C   UNL     2     -10.553  12.379  63.508  1.00  0.00    -0.451 A  
HETATM   21  C   UNL     2     -11.815  11.865  63.241  1.00  0.00    -0.418 A  
HETATM   22  C   UNL     2     -12.870  12.108  64.123  1.00  0.00    -0.344 A  
HETATM   23  C   UNL     2     -12.657  12.876  65.269  1.00  0.00    -0.502 A  
ENDBRANCH  15  18
ENDBRANCH  13  15
ENDBRANCH  12  13
ENDBRANCH  10  12
TORSDOF 4
ENDMDL
MODEL       61
REMARK 921   NORMALIZED FREE ENERGY PREDICTED BY IDOCK:   -5.08 KCAL/MOL
REMARK 922        TOTAL FREE ENERGY PREDICTED BY IDOCK:   -6.91 KCAL/MOL
REMARK 923 INTER-LIGAND FREE ENERGY PREDICTED BY IDOCK:   -6.17 KCAL/MOL
REMARK 924 INTRA-LIGAND FREE ENERGY PREDICTED BY IDOCK:   -0.74 KCAL/MOL
REMARK 927      BINDING AFFINITY PREDICTED BY RF-SCORE:    0.00 PKD
ROOT
HETATM    1 BR   UNL     1      -8.998   3.967  69.629  1.00  0.00    -0.180 Br 
HETATM    2  C   UNL     2     -10.730   6.296  72.292  1.00  0.00    -0.229 C  
HETATM    3  N   UNL     2     -11.224   7.479  71.395  1.00  0.00    -0.239 N  
HETATM    4  C   UNL     2     -12.709   7.213  71.255  1.00  0.00    -0.366 C  
HETATM    5  C   UNL     2     -10.435   7.462  70.054  1.00  0.00    -0.226 C  
HETATM    6  C   UNL     2      -9.023   7.893  70.500  1.00  0.00    -0.145 C  
HETATM    7  C   UNL     2      -9.247   8.739  71.768  1.00  0.00    -0.332 C  
HETATM    8  C   UNL     2     -10.777   8.863  71.919  1.00  0.00    -0.356 C  
HETATM    9  C   UNL     2     -11.457   9.957  71.055  1.00  0.00    -0.466 C  
HETATM   10  C   UNL     2     -11.030   9.927  69.588  1.00  0.00    -0.252 C  
HETATM   11  C   UNL     2     -11.030   8.494  69.069  1.00  0.00     0.082 C  
ENDROOT
BRANCH  10  12
HETATM   12  O   UNL     2      -9.675  10.409  69.463  1.00  0.00    -0.219 OA 
BRANCH  12  13
HETATM   13  C   UNL     2      -9.306  11.122  68.358  1.00  0.00    -0.185 C  
HETATM   14  O   UNL     2      -8.580  10.707  67.461  1.00  0.00    -0.122 OA 
BRANCH  13  15
HETATM   15  C   UNL     2      -9.954  12.524  68.439  1.00  0.00    -0.212 C  
HETATM   16  O   UNL     2      -9.098  13.535  68.974  1.00  0.00    -0.378 OA 
HETATM   17  H   UNL     2      -9.496  14.396  69.023  1.00  0.00     0.000 HD 
BRANCH  15  18
HETATM   18  C   UNL     2     -10.490  12.925  67.080  1.00  0.00    -0.244 A  
HETATM   19  C   UNL     2     -11.643  12.277  66.594  1.00  0.00    -0.438 A  
HETATM   20  C   UNL     2     -12.138  12.555  65.336  1.00  0.00    -0.494 A  
HETATM   21  C   UNL     2     -11.501  13.484  64.524  1.00  0.00    -0.407 A  
HETATM   22  C   UNL     2     -10.356  14.141  64.978  1.00  0.00    -0.443 A  
HETATM   23  C   UNL     2      -9.847  13.857  66.247  1.00  0.00    -0.318 A  
ENDBRANCH  15  18
ENDBRANCH  13  15
ENDBRANCH  12  13
ENDBRANCH  10  12
TORSDOF 4
ENDMDL
MODEL       62
REMARK 921   NORMALIZED FREE ENERGY PREDICTED BY IDOCK:   -5.07 KCAL/MOL
REMARK 922        TOTAL FREE ENERGY PREDICTED BY IDOCK:   -6.90 KCAL/MOL
REMARK 923 INTER-LIGAND FREE ENERGY PREDICTED BY IDOCK:   -7.26 KCAL/MOL
REMARK 924 INTRA-LIGAND FREE ENERGY PREDICTED BY IDOCK:    0.36 KCAL/MOL
REMARK 927      BINDING AFFINITY PREDICTED BY RF-SCORE:    0.00 PKD
ROOT
HETATM    1 BR   UNL     1      -5.724   5.881  72.530  1.00  0.00    -0.032 Br 
HETATM    2  C   UNL     2      -9.440   4.603  72.253  1.00  0.00    -0.141 C  
HETATM    3  N   UNL     2     -10.058   5.658  71.275  1.00  0.00    -0.198 N  
HETATM    4  C   UNL     2     -10.129   4.911  69.958  1.00  0.00    -0.266 C  
HETATM    5  C   UNL     2      -9.152   6.922  71.254  1.00  0.00    -0.149 C  
HETATM    6  C   UNL     2      -9.394   7.521  72.654  1.00  0.00    -0.208 C  
HETATM    7  C   UNL     2     -10.802   7.042  73.054  1.00  0.00    -0.342 C  
HETATM    8  C   UNL     2     -11.354   6.300  71.819  1.00  0.00    -0.294 C  
HETATM    9  C   UNL     2     -11.963   7.194  70.707  1.00  0.00    -0.352 C  
HETATM   10  C   UNL     2     -11.068   8.369  70.314  1.00  0.00    -0.213 C  
HETATM   11  C   UNL     2      -9.625   7.902  70.156  1.00  0.00    -0.175 C  
ENDROOT
BRANCH  10  12
HETATM   12  O   UNL     2     -11.067   9.358  71.365  1.00  0.00    -0.335 OA 
BRANCH  12  13
HETATM   13  C   UNL     2     -12.077  10.274  71.438  1.00  0.00    -0.362 C  
HETATM   14  O   UNL     2     -13.018  10.227  72.224  1.00  0.00    -0.378 OA 
BRANCH  13  15
HETATM   15  C   UNL     2     -11.831  11.363  70.367  1.00  0.00    -0.335 C  
HETATM   16  O   UNL     2     -12.337  11.035  69.071  1.00  0.00    -0.633 OA 
HETATM   17  H   UNL     2     -12.185  11.703  68.414  1.00  0.00     0.000 HD 
BRANCH  15  18
HETATM   18  C   UNL     2     -12.376  12.692  70.846  1.00  0.00    -0.352 A  
HETATM   19  C   UNL     2     -12.048  13.855  70.121  1.00  0.00    -0.418 A  
HETATM   20  C   UNL     2     -12.462  15.100  70.548  1.00  0.00    -0.429 A  
HETATM   21  C   UNL     2     -13.214  15.226  71.708  1.00  0.00    -0.512 A  
HETATM   22  C   UNL     2     -13.554  14.092  72.448  1.00  0.00    -0.658 A  
HETATM   23  C   UNL     2     -13.130  12.831  72.024  1.00  0.00    -0.474 A  
ENDBRANCH  15  18
ENDBRANCH  13  15
ENDBRANCH  12  13
ENDBRANCH  10  12
TORSDOF 4
ENDMDL
MODEL       63
REMARK 921   NORMALIZED FREE ENERGY PREDICTED BY IDOCK:   -5.07 KCAL/MOL
REMARK 922        TOTAL FREE ENERGY PREDICTED BY IDOCK:   -6.90 KCAL/MOL
REMARK 923 INTER-LIGAND FREE ENERGY PREDICTED BY IDOCK:   -5.92 KCAL/MOL
REMARK 924 INTRA-LIGAND FREE ENERGY PREDICTED BY IDOCK:   -0.97 KCAL/MOL
REMARK 927      BINDING AFFINITY PREDICTED BY RF-SCORE:    0.00 PKD
ROOT
HETATM    1 BR   UNL     1     -14.381   8.346  71.847  1.00  0.00    -0.560 Br 
HETATM    2  C   UNL     2     -11.579   5.689  72.623  1.00  0.00    -0.251 C  
HETATM    3  N   UNL     2     -10.306   6.405  72.057  1.00  0.00    -0.195 N  
HETATM    4  C   UNL     2      -9.608   6.910  73.304  1.00  0.00    -0.166 C  
HETATM    5  C   UNL     2     -10.752   7.521  71.068  1.00  0.00    -0.231 C  
HETATM    6  C   UNL     2     -11.285   6.706  69.874  1.00  0.00    -0.421 C  
HETATM    7  C   UNL     2     -10.525   5.367  69.934  1.00  0.00    -0.378 C  
HETATM    8  C   UNL     2      -9.501   5.522  71.077  1.00  0.00    -0.163 C  
HETATM    9  C   UNL     2      -8.188   6.265  70.715  1.00  0.00    -0.125 C  
HETATM   10  C   UNL     2      -8.418   7.581  69.973  1.00  0.00    -0.137 C  
HETATM   11  C   UNL     2      -9.535   8.374  70.641  1.00  0.00    -0.191 C  
ENDROOT
BRANCH  10  12
HETATM   12  O   UNL     2      -8.856   7.312  68.624  1.00  0.00    -0.130 OA 
BRANCH  12  13
HETATM   13  C   UNL     2      -8.383   8.071  67.592  1.00  0.00    -0.128 C  
HETATM   14  O   UNL     2      -7.269   8.583  67.544  1.00  0.00    -0.082 OA 
BRANCH  13  15
HETATM   15  C   UNL     2      -9.486   8.173  66.511  1.00  0.00    -0.221 C  
HETATM   16  O   UNL     2     -10.452   7.122  66.560  1.00  0.00    -0.487 OA 
HETATM   17  H   UNL     2     -11.129   7.185  65.897  1.00  0.00     0.000 HD 
BRANCH  15  18
HETATM   18  C   UNL     2     -10.151   9.532  66.579  1.00  0.00    -0.326 A  
HETATM   19  C   UNL     2      -9.957  10.430  65.510  1.00  0.00    -0.348 A  
HETATM   20  C   UNL     2     -10.484  11.704  65.547  1.00  0.00    -0.321 A  
HETATM   21  C   UNL     2     -11.221  12.124  66.647  1.00  0.00    -0.375 A  
HETATM   22  C   UNL     2     -11.430  11.257  67.721  1.00  0.00    -0.350 A  
HETATM   23  C   UNL     2     -10.891   9.970  67.691  1.00  0.00    -0.336 A  
ENDBRANCH  15  18
ENDBRANCH  13  15
ENDBRANCH  12  13
ENDBRANCH  10  12
TORSDOF 4
ENDMDL
MODEL       64
REMARK 921   NORMALIZED FREE ENERGY PREDICTED BY IDOCK:   -5.06 KCAL/MOL
REMARK 922        TOTAL FREE ENERGY PREDICTED BY IDOCK:   -6.88 KCAL/MOL
REMARK 923 INTER-LIGAND FREE ENERGY PREDICTED BY IDOCK:   -6.05 KCAL/MOL
REMARK 924 INTRA-LIGAND FREE ENERGY PREDICTED BY IDOCK:   -0.83 KCAL/MOL
REMARK 927      BINDING AFFINITY PREDICTED BY RF-SCORE:    0.00 PKD
ROOT
HETATM    1 BR   UNL     1      -7.258   5.662  66.985  1.00  0.00    -0.076 Br 
HETATM    2  C   UNL     2      -9.003   6.763  70.340  1.00  0.00    -0.152 C  
HETATM    3  N   UNL     2      -9.989   7.867  69.830  1.00  0.00    -0.184 N  
HETATM    4  C   UNL     2     -11.331   7.163  69.834  1.00  0.00    -0.163 C  
HETATM    5  C   UNL     2      -9.520   8.356  68.430  1.00  0.00    -0.139 C  
HETATM    6  C   UNL     2      -8.232   9.132  68.769  1.00  0.00    -0.109 C  
HETATM    7  C   UNL     2      -8.424   9.608  70.222  1.00  0.00    -0.221 C  
HETATM    8  C   UNL     2      -9.862   9.197  70.605  1.00  0.00    -0.249 C  
HETATM    9  C   UNL     2     -10.989  10.151  70.131  1.00  0.00    -0.376 C  
HETATM   10  C   UNL     2     -10.880  10.535  68.656  1.00  0.00    -0.237 C  
HETATM   11  C   UNL     2     -10.575   9.303  67.812  1.00  0.00    -0.307 C  
ENDROOT
BRANCH  10  12
HETATM   12  O   UNL     2      -9.777  11.446  68.467  1.00  0.00    -0.190 OA 
BRANCH  12  13
HETATM   13  C   UNL     2     -10.018  12.741  68.107  1.00  0.00    -0.229 C  
HETATM   14  O   UNL     2     -10.698  13.537  68.747  1.00  0.00    -0.247 OA 
BRANCH  13  15
HETATM   15  C   UNL     2      -9.296  13.023  66.768  1.00  0.00    -0.244 C  
HETATM   16  O   UNL     2      -8.152  12.198  66.536  1.00  0.00    -0.384 OA 
HETATM   17  H   UNL     2      -7.709  12.372  65.714  1.00  0.00     0.000 HD 
BRANCH  15  18
HETATM   18  C   UNL     2     -10.279  12.930  65.620  1.00  0.00    -0.295 A  
HETATM   19  C   UNL     2     -11.171  14.000  65.411  1.00  0.00    -0.319 A  
HETATM   20  C   UNL     2     -12.132  13.942  64.422  1.00  0.00    -0.477 A  
HETATM   21  C   UNL     2     -12.235  12.819  63.613  1.00  0.00    -0.597 A  
HETATM   22  C   UNL     2     -11.366  11.742  63.798  1.00  0.00    -0.524 A  
HETATM   23  C   UNL     2     -10.398  11.793  64.802  1.00  0.00    -0.333 A  
ENDBRANCH  15  18
ENDBRANCH  13  15
ENDBRANCH  12  13
ENDBRANCH  10  12
TORSDOF 4
ENDMDL
MODEL       65
REMARK 921   NORMALIZED FREE ENERGY PREDICTED BY IDOCK:   -5.04 KCAL/MOL
REMARK 922        TOTAL FREE ENERGY PREDICTED BY IDOCK:   -6.86 KCAL/MOL
REMARK 923 INTER-LIGAND FREE ENERGY PREDICTED BY IDOCK:   -5.68 KCAL/MOL
REMARK 924 INTRA-LIGAND FREE ENERGY PREDICTED BY IDOCK:   -1.18 KCAL/MOL
REMARK 927      BINDING AFFINITY PREDICTED BY RF-SCORE:    0.00 PKD
ROOT
HETATM    1 BR   UNL     1      -5.205  12.994  67.830  1.00  0.00    -0.103 Br 
HETATM    2  C   UNL     2      -6.289  16.661  66.887  1.00  0.00    -0.173 C  
HETATM    3  N   UNL     2      -7.543  16.859  67.804  1.00  0.00    -0.166 N  
HETATM    4  C   UNL     2      -7.019  17.734  68.925  1.00  0.00    -0.250 C  
HETATM    5  C   UNL     2      -8.063  15.465  68.259  1.00  0.00    -0.136 C  
HETATM    6  C   UNL     2      -8.641  14.888  66.952  1.00  0.00    -0.269 C  
HETATM    7  C   UNL     2      -9.038  16.119  66.114  1.00  0.00    -0.382 C  
HETATM    8  C   UNL     2      -8.790  17.339  67.027  1.00  0.00    -0.228 C  
HETATM    9  C   UNL     2      -9.911  17.659  68.050  1.00  0.00    -0.326 C  
HETATM   10  C   UNL     2     -10.378  16.439  68.843  1.00  0.00    -0.270 C  
HETATM   11  C   UNL     2      -9.177  15.629  69.318  1.00  0.00    -0.269 C  
ENDROOT
BRANCH  10  12
HETATM   12  O   UNL     2     -11.150  15.566  67.990  1.00  0.00    -0.299 OA 
BRANCH  12  13
HETATM   13  C   UNL     2     -11.964  14.620  68.544  1.00  0.00    -0.263 C  
HETATM   14  O   UNL     2     -12.290  14.573  69.726  1.00  0.00    -0.316 OA 
BRANCH  13  15
HETATM   15  C   UNL     2     -12.394  13.631  67.435  1.00  0.00    -0.107 C  
HETATM   16  O   UNL     2     -12.760  14.256  66.203  1.00  0.00    -0.489 OA 
HETATM   17  H   UNL     2     -13.024  13.649  65.523  1.00  0.00     0.000 HD 
BRANCH  15  18
HETATM   18  C   UNL     2     -11.314  12.591  67.222  1.00  0.00    -0.373 A  
HETATM   19  C   UNL     2     -10.981  12.229  65.902  1.00  0.00    -0.338 A  
HETATM   20  C   UNL     2     -10.051  11.242  65.648  1.00  0.00    -0.295 A  
HETATM   21  C   UNL     2      -9.426  10.584  66.699  1.00  0.00    -0.199 A  
HETATM   22  C   UNL     2      -9.736  10.921  68.019  1.00  0.00    -0.176 A  
HETATM   23  C   UNL     2     -10.682  11.914  68.279  1.00  0.00    -0.253 A  
ENDBRANCH  15  18
ENDBRANCH  13  15
ENDBRANCH  12  13
ENDBRANCH  10  12
TORSDOF 4
ENDMDL
MODEL       66
REMARK 921   NORMALIZED FREE ENERGY PREDICTED BY IDOCK:   -5.04 KCAL/MOL
REMARK 922        TOTAL FREE ENERGY PREDICTED BY IDOCK:   -6.85 KCAL/MOL
REMARK 923 INTER-LIGAND FREE ENERGY PREDICTED BY IDOCK:   -5.93 KCAL/MOL
REMARK 924 INTRA-LIGAND FREE ENERGY PREDICTED BY IDOCK:   -0.93 KCAL/MOL
REMARK 927      BINDING AFFINITY PREDICTED BY RF-SCORE:    0.00 PKD
ROOT
HETATM    1 BR   UNL     1     -10.633   5.478  71.132  1.00  0.00    -0.276 Br 
HETATM    2  C   UNL     2      -9.151   6.537  67.639  1.00  0.00    -0.112 C  
HETATM    3  N   UNL     2      -8.583   7.960  67.962  1.00  0.00    -0.126 N  
HETATM    4  C   UNL     2      -7.090   7.723  68.070  1.00  0.00    -0.085 C  
HETATM    5  C   UNL     2      -9.251   8.488  69.264  1.00  0.00    -0.153 C  
HETATM    6  C   UNL     2     -10.698   8.757  68.804  1.00  0.00    -0.111 C  
HETATM    7  C   UNL     2     -10.590   9.037  67.293  1.00  0.00    -0.301 C  
HETATM    8  C   UNL     2      -9.079   9.045  66.979  1.00  0.00    -0.130 C  
HETATM    9  C   UNL     2      -8.329  10.367  67.290  1.00  0.00    -0.122 C  
HETATM   10  C   UNL     2      -8.625  10.921  68.683  1.00  0.00    -0.153 C  
HETATM   11  C   UNL     2      -8.575   9.803  69.717  1.00  0.00    -0.215 C  
ENDROOT
BRANCH  10  12
HETATM   12  O   UNL     2      -9.965  11.457  68.723  1.00  0.00    -0.206 OA 
BRANCH  12  13
HETATM   13  C   UNL     2     -10.205  12.723  68.272  1.00  0.00    -0.244 C  
HETATM   14  O   UNL     2      -9.377  13.628  68.233  1.00  0.00    -0.200 OA 
BRANCH  13  15
HETATM   15  C   UNL     2     -11.685  12.815  67.828  1.00  0.00    -0.359 C  
HETATM   16  O   UNL     2     -12.419  13.868  68.456  1.00  0.00    -0.442 OA 
HETATM   17  H   UNL     2     -13.327  13.924  68.183  1.00  0.00     0.000 HD 
BRANCH  15  18
HETATM   18  C   UNL     2     -11.766  12.916  66.319  1.00  0.00    -0.457 A  
HETATM   19  C   UNL     2     -12.365  14.058  65.752  1.00  0.00    -0.506 A  
HETATM   20  C   UNL     2     -12.526  14.174  64.387  1.00  0.00    -0.325 A  
HETATM   21  C   UNL     2     -12.097  13.157  63.544  1.00  0.00    -0.585 A  
HETATM   22  C   UNL     2     -11.501  12.012  64.077  1.00  0.00    -0.484 A  
HETATM   23  C   UNL     2     -11.344  11.888  65.458  1.00  0.00    -0.334 A  
ENDBRANCH  15  18
ENDBRANCH  13  15
ENDBRANCH  12  13
ENDBRANCH  10  12
TORSDOF 4
ENDMDL
MODEL       67
REMARK 921   NORMALIZED FREE ENERGY PREDICTED BY IDOCK:   -5.01 KCAL/MOL
REMARK 922        TOTAL FREE ENERGY PREDICTED BY IDOCK:   -6.82 KCAL/MOL
REMARK 923 INTER-LIGAND FREE ENERGY PREDICTED BY IDOCK:   -6.10 KCAL/MOL
REMARK 924 INTRA-LIGAND FREE ENERGY PREDICTED BY IDOCK:   -0.73 KCAL/MOL
REMARK 927      BINDING AFFINITY PREDICTED BY RF-SCORE:    0.00 PKD
ROOT
HETATM    1 BR   UNL     1      -6.589   9.724  63.659  1.00  0.00    -0.123 Br 
HETATM    2  C   UNL     2     -10.196  10.748  64.866  1.00  0.00    -0.320 C  
HETATM    3  N   UNL     2      -9.941  11.053  66.380  1.00  0.00    -0.214 N  
HETATM    4  C   UNL     2      -9.932  12.568  66.432  1.00  0.00    -0.252 C  
HETATM    5  C   UNL     2      -8.606  10.383  66.814  1.00  0.00    -0.124 C  
HETATM    6  C   UNL     2      -8.969   8.885  66.789  1.00  0.00    -0.155 C  
HETATM    7  C   UNL     2     -10.489   8.839  67.037  1.00  0.00    -0.338 C  
HETATM    8  C   UNL     2     -10.907  10.297  67.320  1.00  0.00    -0.250 C  
HETATM    9  C   UNL     2     -10.675  10.800  68.769  1.00  0.00    -0.243 C  
HETATM   10  C   UNL     2      -9.275  10.495  69.302  1.00  0.00    -0.148 C  
HETATM   11  C   UNL     2      -8.226  10.825  68.246  1.00  0.00    -0.124 C  
ENDROOT
BRANCH  10  12
HETATM   12  O   UNL     2      -9.153   9.083  69.575  1.00  0.00    -0.144 OA 
BRANCH  12  13
HETATM   13  C   UNL     2      -9.296   8.623  70.853  1.00  0.00    -0.189 C  
HETATM   14  O   UNL     2      -8.719   9.078  71.836  1.00  0.00    -0.363 OA 
BRANCH  13  15
HETATM   15  C   UNL     2     -10.296   7.442  70.842  1.00  0.00    -0.200 C  
HETATM   16  O   UNL     2      -9.856   6.296  71.572  1.00  0.00    -0.172 OA 
HETATM   17  H   UNL     2     -10.470   5.572  71.565  1.00  0.00     0.000 HD 
BRANCH  15  18
HETATM   18  C   UNL     2     -11.653   7.910  71.324  1.00  0.00    -0.304 A  
HETATM   19  C   UNL     2     -12.733   7.007  71.271  1.00  0.00    -0.400 A  
HETATM   20  C   UNL     2     -14.006   7.398  71.635  1.00  0.00    -0.523 A  
HETATM   21  C   UNL     2     -14.242   8.698  72.062  1.00  0.00    -0.524 A  
HETATM   22  C   UNL     2     -13.191   9.616  72.124  1.00  0.00    -0.535 A  
HETATM   23  C   UNL     2     -11.904   9.226  71.748  1.00  0.00    -0.454 A  
ENDBRANCH  15  18
ENDBRANCH  13  15
ENDBRANCH  12  13
ENDBRANCH  10  12
TORSDOF 4
ENDMDL
MODEL       68
REMARK 921   NORMALIZED FREE ENERGY PREDICTED BY IDOCK:   -4.99 KCAL/MOL
REMARK 922        TOTAL FREE ENERGY PREDICTED BY IDOCK:   -6.79 KCAL/MOL
REMARK 923 INTER-LIGAND FREE ENERGY PREDICTED BY IDOCK:   -5.53 KCAL/MOL
REMARK 924 INTRA-LIGAND FREE ENERGY PREDICTED BY IDOCK:   -1.26 KCAL/MOL
REMARK 927      BINDING AFFINITY PREDICTED BY RF-SCORE:    0.00 PKD
ROOT
HETATM    1 BR   UNL     1      -5.840  16.247  67.530  1.00  0.00    -0.181 Br 
HETATM    2  C   UNL     2      -9.452  16.608  66.002  1.00  0.00    -0.251 C  
HETATM    3  N   UNL     2     -10.316  15.853  67.067  1.00  0.00    -0.292 N  
HETATM    4  C   UNL     2     -10.971  16.978  67.844  1.00  0.00    -0.226 C  
HETATM    5  C   UNL     2      -9.388  14.936  67.914  1.00  0.00    -0.191 C  
HETATM    6  C   UNL     2      -8.999  13.840  66.902  1.00  0.00    -0.234 C  
HETATM    7  C   UNL     2     -10.166  13.793  65.897  1.00  0.00    -0.322 C  
HETATM    8  C   UNL     2     -11.227  14.769  66.448  1.00  0.00    -0.342 C  
HETATM    9  C   UNL     2     -12.149  14.209  67.562  1.00  0.00    -0.363 C  
HETATM   10  C   UNL     2     -11.388  13.502  68.683  1.00  0.00    -0.288 C  
HETATM   11  C   UNL     2     -10.174  14.325  69.097  1.00  0.00    -0.100 C  
ENDROOT
BRANCH  10  12
HETATM   12  O   UNL     2     -10.883  12.235  68.209  1.00  0.00    -0.206 OA 
BRANCH  12  13
HETATM   13  C   UNL     2     -11.498  11.075  68.583  1.00  0.00    -0.308 C  
HETATM   14  O   UNL     2     -12.635  10.992  69.034  1.00  0.00    -0.378 OA 
BRANCH  13  15
HETATM   15  C   UNL     2     -10.519   9.900  68.344  1.00  0.00    -0.208 C  
HETATM   16  O   UNL     2     -11.131   8.610  68.389  1.00  0.00    -0.437 OA 
HETATM   17  H   UNL     2     -10.530   7.890  68.243  1.00  0.00     0.000 HD 
BRANCH  15  18
HETATM   18  C   UNL     2      -9.773  10.106  67.041  1.00  0.00    -0.224 A  
HETATM   19  C   UNL     2     -10.510  10.128  65.841  1.00  0.00    -0.141 A  
HETATM   20  C   UNL     2      -9.877  10.247  64.620  1.00  0.00    -0.396 A  
HETATM   21  C   UNL     2      -8.494  10.346  64.557  1.00  0.00    -0.172 A  
HETATM   22  C   UNL     2      -7.737  10.326  65.730  1.00  0.00    -0.143 A  
HETATM   23  C   UNL     2      -8.373  10.198  66.967  1.00  0.00    -0.125 A  
ENDBRANCH  15  18
ENDBRANCH  13  15
ENDBRANCH  12  13
ENDBRANCH  10  12
TORSDOF 4
ENDMDL
MODEL       69
REMARK 921   NORMALIZED FREE ENERGY PREDICTED BY IDOCK:   -4.98 KCAL/MOL
REMARK 922        TOTAL FREE ENERGY PREDICTED BY IDOCK:   -6.79 KCAL/MOL
REMARK 923 INTER-LIGAND FREE ENERGY PREDICTED BY IDOCK:   -6.18 KCAL/MOL
REMARK 924 INTRA-LIGAND FREE ENERGY PREDICTED BY IDOCK:   -0.61 KCAL/MOL
REMARK 927      BINDING AFFINITY PREDICTED BY RF-SCORE:    0.00 PKD
ROOT
HETATM    1 BR   UNL     1     -12.557   9.948  71.139  1.00  0.00    -0.482 Br 
HETATM    2  C   UNL     2     -11.080   6.540  69.831  1.00  0.00    -0.371 C  
HETATM    3  N   UNL     2      -9.745   7.015  69.164  1.00  0.00    -0.156 N  
HETATM    4  C   UNL     2      -8.690   6.620  70.177  1.00  0.00    -0.141 C  
HETATM    5  C   UNL     2      -9.835   8.544  68.886  1.00  0.00    -0.176 C  
HETATM    6  C   UNL     2     -10.869   8.608  67.744  1.00  0.00    -0.075 C  
HETATM    7  C   UNL     2     -10.760   7.247  67.031  1.00  0.00    -0.406 C  
HETATM    8  C   UNL     2      -9.584   6.515  67.711  1.00  0.00    -0.122 C  
HETATM    9  C   UNL     2      -8.167   6.902  67.214  1.00  0.00    -0.118 C  
HETATM   10  C   UNL     2      -7.936   8.412  67.147  1.00  0.00    -0.104 C  
HETATM   11  C   UNL     2      -8.467   9.082  68.409  1.00  0.00    -0.129 C  
ENDROOT
BRANCH  10  12
HETATM   12  O   UNL     2      -8.678   8.972  66.042  1.00  0.00    -0.142 OA 
BRANCH  12  13
HETATM   13  C   UNL     2      -8.289  10.161  65.495  1.00  0.00    -0.158 C  
HETATM   14  O   UNL     2      -7.453  10.919  65.976  1.00  0.00    -0.145 OA 
BRANCH  13  15
HETATM   15  C   UNL     2      -9.079  10.381  64.183  1.00  0.00    -0.242 C  
HETATM   16  O   UNL     2      -9.410   9.176  63.490  1.00  0.00    -0.385 OA 
HETATM   17  H   UNL     2      -9.894   9.311  62.685  1.00  0.00     0.000 HD 
BRANCH  15  18
HETATM   18  C   UNL     2     -10.315  11.212  64.457  1.00  0.00    -0.400 A  
HETATM   19  C   UNL     2     -11.008  11.767  63.363  1.00  0.00    -0.458 A  
HETATM   20  C   UNL     2     -12.101  12.586  63.555  1.00  0.00    -0.653 A  
HETATM   21  C   UNL     2     -12.539  12.877  64.841  1.00  0.00    -0.525 A  
HETATM   22  C   UNL     2     -11.871  12.342  65.945  1.00  0.00    -0.467 A  
HETATM   23  C   UNL     2     -10.759  11.520  65.754  1.00  0.00    -0.325 A  
ENDBRANCH  15  18
ENDBRANCH  13  15
ENDBRANCH  12  13
ENDBRANCH  10  12
TORSDOF 4
ENDMDL
MODEL       70
REMARK 921   NORMALIZED FREE ENERGY PREDICTED BY IDOCK:   -4.97 KCAL/MOL
REMARK 922        TOTAL FREE ENERGY PREDICTED BY IDOCK:   -6.78 KCAL/MOL
REMARK 923 INTER-LIGAND FREE ENERGY PREDICTED BY IDOCK:   -6.23 KCAL/MOL
REMARK 924 INTRA-LIGAND FREE ENERGY PREDICTED BY IDOCK:   -0.55 KCAL/MOL
REMARK 927      BINDING AFFINITY PREDICTED BY RF-SCORE:    0.00 PKD
ROOT
HETATM    1 BR   UNL     1     -11.829  16.032  71.812  1.00  0.00    -0.607 Br 
HETATM    2  C   UNL     2      -9.224  17.199  69.098  1.00  0.00    -0.042 C  
HETATM    3  N   UNL     2      -9.875  16.646  67.785  1.00  0.00    -0.247 N  
HETATM    4  C   UNL     2     -10.482  17.882  67.151  1.00  0.00    -0.353 C  
HETATM    5  C   UNL     2     -10.903  15.539  68.157  1.00  0.00    -0.296 C  
HETATM    6  C   UNL     2      -9.989  14.392  68.635  1.00  0.00    -0.241 C  
HETATM    7  C   UNL     2      -8.654  14.614  67.899  1.00  0.00    -0.165 C  
HETATM    8  C   UNL     2      -8.901  15.796  66.939  1.00  0.00    -0.245 C  
HETATM    9  C   UNL     2      -9.596  15.446  65.597  1.00  0.00    -0.323 C  
HETATM   10  C   UNL     2     -10.842  14.578  65.765  1.00  0.00    -0.315 C  
HETATM   11  C   UNL     2     -11.703  15.108  66.906  1.00  0.00    -0.093 C  
ENDROOT
BRANCH  10  12
HETATM   12  O   UNL     2     -10.459  13.235  66.130  1.00  0.00    -0.283 OA 
BRANCH  12  13
HETATM   13  C   UNL     2     -11.419  12.290  66.351  1.00  0.00    -0.378 C  
HETATM   14  O   UNL     2     -12.425  12.132  65.667  1.00  0.00    -0.501 OA 
BRANCH  13  15
HETATM   15  C   UNL     2     -11.022  11.468  67.600  1.00  0.00    -0.242 C  
HETATM   16  O   UNL     2     -12.098  10.730  68.181  1.00  0.00    -0.802 OA 
HETATM   17  H   UNL     2     -11.854  10.225  68.948  1.00  0.00     0.000 HD 
BRANCH  15  18
HETATM   18  C   UNL     2      -9.852  10.563  67.273  1.00  0.00    -0.209 A  
HETATM   19  C   UNL     2      -9.998   9.625  66.232  1.00  0.00    -0.335 A  
HETATM   20  C   UNL     2      -8.990   8.732  65.933  1.00  0.00    -0.240 A  
HETATM   21  C   UNL     2      -7.807   8.744  66.661  1.00  0.00    -0.100 A  
HETATM   22  C   UNL     2      -7.634   9.662  67.699  1.00  0.00    -0.091 A  
HETATM   23  C   UNL     2      -8.655  10.562  68.010  1.00  0.00    -0.121 A  
ENDBRANCH  15  18
ENDBRANCH  13  15
ENDBRANCH  12  13
ENDBRANCH  10  12
TORSDOF 4
ENDMDL
MODEL       71
REMARK 921   NORMALIZED FREE ENERGY PREDICTED BY IDOCK:   -4.96 KCAL/MOL
REMARK 922        TOTAL FREE ENERGY PREDICTED BY IDOCK:   -6.76 KCAL/MOL
REMARK 923 INTER-LIGAND FREE ENERGY PREDICTED BY IDOCK:   -6.09 KCAL/MOL
REMARK 924 INTRA-LIGAND FREE ENERGY PREDICTED BY IDOCK:   -0.67 KCAL/MOL
REMARK 927      BINDING AFFINITY PREDICTED BY RF-SCORE:    0.00 PKD
ROOT
HETATM    1 BR   UNL     1      -6.435   8.322  73.806  1.00  0.00    -0.143 Br 
HETATM    2  C   UNL     2     -10.273   7.469  73.574  1.00  0.00    -0.324 C  
HETATM    3  N   UNL     2     -10.340   6.705  72.209  1.00  0.00    -0.195 N  
HETATM    4  C   UNL     2     -10.454   5.253  72.627  1.00  0.00    -0.218 C  
HETATM    5  C   UNL     2      -9.067   7.041  71.379  1.00  0.00    -0.147 C  
HETATM    6  C   UNL     2      -9.306   8.515  70.996  1.00  0.00    -0.231 C  
HETATM    7  C   UNL     2     -10.837   8.684  70.996  1.00  0.00    -0.302 C  
HETATM    8  C   UNL     2     -11.410   7.274  71.250  1.00  0.00    -0.264 C  
HETATM    9  C   UNL     2     -11.500   6.346  70.011  1.00  0.00    -0.496 C  
HETATM   10  C   UNL     2     -10.211   6.298  69.191  1.00  0.00    -0.187 C  
HETATM   11  C   UNL     2      -9.005   6.156  70.112  1.00  0.00    -0.149 C  
ENDROOT
BRANCH  10  12
HETATM   12  O   UNL     2     -10.038   7.541  68.477  1.00  0.00    -0.173 OA 
BRANCH  12  13
HETATM   13  C   UNL     2     -10.414   7.631  67.168  1.00  0.00    -0.342 C  
HETATM   14  O   UNL     2     -11.279   6.945  66.632  1.00  0.00    -0.151 OA 
BRANCH  13  15
HETATM   15  C   UNL     2      -9.566   8.732  66.487  1.00  0.00    -0.237 C  
HETATM   16  O   UNL     2      -9.044   8.363  65.210  1.00  0.00    -0.398 OA 
HETATM   17  H   UNL     2      -8.523   9.039  64.792  1.00  0.00     0.000 HD 
BRANCH  15  18
HETATM   18  C   UNL     2     -10.361  10.019  66.402  1.00  0.00    -0.249 A  
HETATM   19  C   UNL     2     -10.410  10.699  65.169  1.00  0.00    -0.331 A  
HETATM   20  C   UNL     2     -11.064  11.907  65.049  1.00  0.00    -0.360 A  
HETATM   21  C   UNL     2     -11.689  12.476  66.151  1.00  0.00    -0.466 A  
HETATM   22  C   UNL     2     -11.657  11.826  67.386  1.00  0.00    -0.352 A  
HETATM   23  C   UNL     2     -10.989  10.607  67.514  1.00  0.00    -0.371 A  
ENDBRANCH  15  18
ENDBRANCH  13  15
ENDBRANCH  12  13
ENDBRANCH  10  12
TORSDOF 4
ENDMDL
MODEL       72
REMARK 921   NORMALIZED FREE ENERGY PREDICTED BY IDOCK:   -4.95 KCAL/MOL
REMARK 922        TOTAL FREE ENERGY PREDICTED BY IDOCK:   -6.75 KCAL/MOL
REMARK 923 INTER-LIGAND FREE ENERGY PREDICTED BY IDOCK:   -6.15 KCAL/MOL
REMARK 924 INTRA-LIGAND FREE ENERGY PREDICTED BY IDOCK:   -0.60 KCAL/MOL
REMARK 927      BINDING AFFINITY PREDICTED BY RF-SCORE:    0.00 PKD
ROOT
HETATM    1 BR   UNL     1      -7.102  16.960  69.047  1.00  0.00    -0.221 Br 
HETATM    2  C   UNL     2      -9.158  15.349  66.099  1.00  0.00    -0.304 C  
HETATM    3  N   UNL     2     -10.262  14.563  66.883  1.00  0.00    -0.261 N  
HETATM    4  C   UNL     2     -11.489  15.437  66.725  1.00  0.00    -0.045 C  
HETATM    5  C   UNL     2      -9.793  14.365  68.354  1.00  0.00    -0.234 C  
HETATM    6  C   UNL     2      -8.647  13.346  68.197  1.00  0.00    -0.174 C  
HETATM    7  C   UNL     2      -8.981  12.565  66.912  1.00  0.00    -0.212 C  
HETATM    8  C   UNL     2     -10.364  13.080  66.461  1.00  0.00    -0.274 C  
HETATM    9  C   UNL     2     -11.588  12.450  67.175  1.00  0.00    -0.435 C  
HETATM   10  C   UNL     2     -11.458  12.426  68.698  1.00  0.00    -0.303 C  
HETATM   11  C   UNL     2     -10.938  13.766  69.204  1.00  0.00    -0.246 C  
ENDROOT
BRANCH  10  12
HETATM   12  O   UNL     2     -10.485  11.433  69.090  1.00  0.00    -0.200 OA 
BRANCH  12  13
HETATM   13  C   UNL     2     -10.875  10.139  69.285  1.00  0.00    -0.235 C  
HETATM   14  O   UNL     2     -10.608   9.201  68.541  1.00  0.00    -0.212 OA 
BRANCH  13  15
HETATM   15  C   UNL     2     -11.703  10.067  70.590  1.00  0.00    -0.337 C  
HETATM   16  O   UNL     2     -13.109   9.913  70.383  1.00  0.00    -0.582 OA 
HETATM   17  H   UNL     2     -13.617   9.869  71.184  1.00  0.00     0.000 HD 
BRANCH  15  18
HETATM   18  C   UNL     2     -11.160   8.974  71.487  1.00  0.00    -0.419 A  
HETATM   19  C   UNL     2     -12.056   8.011  71.991  1.00  0.00    -0.377 A  
HETATM   20  C   UNL     2     -11.630   7.031  72.865  1.00  0.00    -0.074 A  
HETATM   21  C   UNL     2     -10.301   6.981  73.264  1.00  0.00    -0.343 A  
HETATM   22  C   UNL     2      -9.390   7.923  72.782  1.00  0.00    -0.297 A  
HETATM   23  C   UNL     2      -9.819   8.920  71.904  1.00  0.00    -0.364 A  
ENDBRANCH  15  18
ENDBRANCH  13  15
ENDBRANCH  12  13
ENDBRANCH  10  12
TORSDOF 4
ENDMDL
MODEL       73
REMARK 921   NORMALIZED FREE ENERGY PREDICTED BY IDOCK:   -4.95 KCAL/MOL
REMARK 922        TOTAL FREE ENERGY PREDICTED BY IDOCK:   -6.75 KCAL/MOL
REMARK 923 INTER-LIGAND FREE ENERGY PREDICTED BY IDOCK:   -6.10 KCAL/MOL
REMARK 924 INTRA-LIGAND FREE ENERGY PREDICTED BY IDOCK:   -0.65 KCAL/MOL
REMARK 927      BINDING AFFINITY PREDICTED BY RF-SCORE:    0.00 PKD
ROOT
HETATM    1 BR   UNL     1      -7.783   2.877  68.459  1.00  0.00    -0.056 Br 
HETATM    2  C   UNL     2      -8.828   5.721  65.942  1.00  0.00    -0.150 C  
HETATM    3  N   UNL     2      -8.763   6.987  66.860  1.00  0.00    -0.119 N  
HETATM    4  C   UNL     2      -7.466   7.652  66.444  1.00  0.00    -0.084 C  
HETATM    5  C   UNL     2      -8.811   6.536  68.348  1.00  0.00    -0.123 C  
HETATM    6  C   UNL     2     -10.264   6.042  68.494  1.00  0.00    -0.227 C  
HETATM    7  C   UNL     2     -11.061   6.829  67.436  1.00  0.00    -0.366 C  
HETATM    8  C   UNL     2     -10.059   7.829  66.821  1.00  0.00    -0.270 C  
HETATM    9  C   UNL     2      -9.821   9.132  67.628  1.00  0.00    -0.217 C  
HETATM   10  C   UNL     2      -9.545   8.887  69.112  1.00  0.00    -0.162 C  
HETATM   11  C   UNL     2      -8.554   7.742  69.282  1.00  0.00    -0.138 C  
ENDROOT
BRANCH  10  12
HETATM   12  O   UNL     2     -10.761   8.480  69.775  1.00  0.00    -0.229 OA 
BRANCH  12  13
HETATM   13  C   UNL     2     -11.180   9.141  70.893  1.00  0.00    -0.295 C  
HETATM   14  O   UNL     2     -10.539   9.246  71.934  1.00  0.00    -0.324 OA 
BRANCH  13  15
HETATM   15  C   UNL     2     -12.587   9.725  70.622  1.00  0.00    -0.112 C  
HETATM   16  O   UNL     2     -13.644   9.042  71.299  1.00  0.00    -0.513 OA 
HETATM   17  H   UNL     2     -14.508   9.400  71.132  1.00  0.00     0.000 HD 
BRANCH  15  18
HETATM   18  C   UNL     2     -12.603  11.206  70.938  1.00  0.00    -0.483 A  
HETATM   19  C   UNL     2     -13.399  11.657  72.009  1.00  0.00    -0.405 A  
HETATM   20  C   UNL     2     -13.503  13.001  72.301  1.00  0.00    -0.645 A  
HETATM   21  C   UNL     2     -12.819  13.937  71.537  1.00  0.00    -0.441 A  
HETATM   22  C   UNL     2     -12.023  13.520  70.468  1.00  0.00    -0.344 A  
HETATM   23  C   UNL     2     -11.922  12.162  70.164  1.00  0.00    -0.394 A  
ENDBRANCH  15  18
ENDBRANCH  13  15
ENDBRANCH  12  13
ENDBRANCH  10  12
TORSDOF 4
ENDMDL
MODEL       74
REMARK 921   NORMALIZED FREE ENERGY PREDICTED BY IDOCK:   -4.93 KCAL/MOL
REMARK 922        TOTAL FREE ENERGY PREDICTED BY IDOCK:   -6.72 KCAL/MOL
REMARK 923 INTER-LIGAND FREE ENERGY PREDICTED BY IDOCK:   -5.97 KCAL/MOL
REMARK 924 INTRA-LIGAND FREE ENERGY PREDICTED BY IDOCK:   -0.76 KCAL/MOL
REMARK 927      BINDING AFFINITY PREDICTED BY RF-SCORE:    0.00 PKD
ROOT
HETATM    1 BR   UNL     1      -6.431  20.196  64.781  1.00  0.00    -0.277 Br 
HETATM    2  C   UNL     2      -8.039  19.586  68.324  1.00  0.00    -0.334 C  
HETATM    3  N   UNL     2      -8.257  18.036  68.303  1.00  0.00    -0.284 N  
HETATM    4  C   UNL     2      -7.130  17.515  69.172  1.00  0.00    -0.195 C  
HETATM    5  C   UNL     2      -8.221  17.540  66.829  1.00  0.00    -0.244 C  
HETATM    6  C   UNL     2      -9.535  18.111  66.259  1.00  0.00    -0.231 C  
HETATM    7  C   UNL     2     -10.472  18.243  67.474  1.00  0.00    -0.431 C  
HETATM    8  C   UNL     2      -9.703  17.624  68.661  1.00  0.00    -0.332 C  
HETATM    9  C   UNL     2      -9.759  16.078  68.772  1.00  0.00    -0.226 C  
HETATM   10  C   UNL     2      -9.451  15.362  67.457  1.00  0.00    -0.205 C  
HETATM   11  C   UNL     2      -8.238  15.994  66.784  1.00  0.00    -0.307 C  
ENDROOT
BRANCH  10  12
HETATM   12  O   UNL     2     -10.557  15.521  66.542  1.00  0.00    -0.299 OA 
BRANCH  12  13
HETATM   13  C   UNL     2     -10.712  14.646  65.505  1.00  0.00    -0.349 C  
HETATM   14  O   UNL     2     -10.493  14.904  64.326  1.00  0.00     0.112 OA 
BRANCH  13  15
HETATM   15  C   UNL     2     -11.208  13.295  66.072  1.00  0.00    -0.297 C  
HETATM   16  O   UNL     2     -12.544  12.957  65.694  1.00  0.00    -0.555 OA 
HETATM   17  H   UNL     2     -12.848  12.127  66.042  1.00  0.00     0.000 HD 
BRANCH  15  18
HETATM   18  C   UNL     2     -10.239  12.191  65.699  1.00  0.00    -0.285 A  
HETATM   19  C   UNL     2      -9.101  11.996  66.506  1.00  0.00    -0.202 A  
HETATM   20  C   UNL     2      -8.151  11.050  66.179  1.00  0.00    -0.141 A  
HETATM   21  C   UNL     2      -8.304  10.271  65.040  1.00  0.00    -0.169 A  
HETATM   22  C   UNL     2      -9.422  10.443  64.220  1.00  0.00    -0.349 A  
HETATM   23  C   UNL     2     -10.381  11.405  64.543  1.00  0.00    -0.369 A  
ENDBRANCH  15  18
ENDBRANCH  13  15
ENDBRANCH  12  13
ENDBRANCH  10  12
TORSDOF 4
ENDMDL
MODEL       75
REMARK 921   NORMALIZED FREE ENERGY PREDICTED BY IDOCK:   -4.93 KCAL/MOL
REMARK 922        TOTAL FREE ENERGY PREDICTED BY IDOCK:   -6.72 KCAL/MOL
REMARK 923 INTER-LIGAND FREE ENERGY PREDICTED BY IDOCK:   -6.34 KCAL/MOL
REMARK 924 INTRA-LIGAND FREE ENERGY PREDICTED BY IDOCK:   -0.38 KCAL/MOL
REMARK 927      BINDING AFFINITY PREDICTED BY RF-SCORE:    0.00 PKD
ROOT
HETATM    1 BR   UNL     1      -5.607  18.266  65.758  1.00  0.00    -0.243 Br 
HETATM    2  C   UNL     2      -9.431  18.970  66.385  1.00  0.00    -0.347 C  
HETATM    3  N   UNL     2      -9.766  17.906  67.484  1.00  0.00    -0.272 N  
HETATM    4  C   UNL     2      -9.820  18.727  68.757  1.00  0.00    -0.384 C  
HETATM    5  C   UNL     2      -8.669  16.803  67.471  1.00  0.00    -0.199 C  
HETATM    6  C   UNL     2      -8.955  16.073  66.143  1.00  0.00    -0.381 C  
HETATM    7  C   UNL     2     -10.456  16.298  65.879  1.00  0.00    -0.359 C  
HETATM    8  C   UNL     2     -10.990  17.033  67.127  1.00  0.00     0.031 C  
HETATM    9  C   UNL     2     -11.327  16.139  68.348  1.00  0.00    -0.345 C  
HETATM   10  C   UNL     2     -10.218  15.149  68.702  1.00  0.00    -0.227 C  
HETATM   11  C   UNL     2      -8.862  15.843  68.668  1.00  0.00    -0.206 C  
ENDROOT
BRANCH  10  12
HETATM   12  O   UNL     2     -10.166  14.098  67.713  1.00  0.00    -0.237 OA 
BRANCH  12  13
HETATM   13  C   UNL     2      -9.974  12.804  68.105  1.00  0.00    -0.229 C  
HETATM   14  O   UNL     2      -8.884  12.291  68.337  1.00  0.00    -0.184 OA 
BRANCH  13  15
HETATM   15  C   UNL     2     -11.353  12.109  68.201  1.00  0.00    -0.293 C  
HETATM   16  O   UNL     2     -11.975  11.867  66.938  1.00  0.00    -0.614 OA 
HETATM   17  H   UNL     2     -12.821  11.440  66.997  1.00  0.00     0.000 HD 
BRANCH  15  18
HETATM   18  C   UNL     2     -11.233  10.832  69.006  1.00  0.00    -0.322 A  
HETATM   19  C   UNL     2     -10.713   9.685  68.374  1.00  0.00    -0.251 A  
HETATM   20  C   UNL     2     -10.641   8.478  69.038  1.00  0.00    -0.173 A  
HETATM   21  C   UNL     2     -11.085   8.374  70.350  1.00  0.00    -0.240 A  
HETATM   22  C   UNL     2     -11.607   9.493  71.001  1.00  0.00    -0.419 A  
HETATM   23  C   UNL     2     -11.689  10.715  70.330  1.00  0.00    -0.446 A  
ENDBRANCH  15  18
ENDBRANCH  13  15
ENDBRANCH  12  13
ENDBRANCH  10  12
TORSDOF 4
ENDMDL
MODEL       76
REMARK 921   NORMALIZED FREE ENERGY PREDICTED BY IDOCK:   -4.92 KCAL/MOL
REMARK 922        TOTAL FREE ENERGY PREDICTED BY IDOCK:   -6.71 KCAL/MOL
REMARK 923 INTER-LIGAND FREE ENERGY PREDICTED BY IDOCK:   -6.21 KCAL/MOL
REMARK 924 INTRA-LIGAND FREE ENERGY PREDICTED BY IDOCK:   -0.50 KCAL/MOL
REMARK 927      BINDING AFFINITY PREDICTED BY RF-SCORE:    0.00 PKD
ROOT
HETATM    1 BR   UNL     1      -6.896  17.503  68.859  1.00  0.00    -0.250 Br 
HETATM    2  C   UNL     2     -10.561  17.210  67.446  1.00  0.00    -0.297 C  
HETATM    3  N   UNL     2     -10.890  15.709  67.745  1.00  0.00    -0.301 N  
HETATM    4  C   UNL     2     -11.795  15.786  68.958  1.00  0.00    -0.355 C  
HETATM    5  C   UNL     2      -9.560  14.936  67.979  1.00  0.00    -0.207 C  
HETATM    6  C   UNL     2      -8.944  14.911  66.566  1.00  0.00    -0.288 C  
HETATM    7  C   UNL     2     -10.145  15.000  65.606  1.00  0.00    -0.390 C  
HETATM    8  C   UNL     2     -11.399  14.942  66.504  1.00  0.00    -0.319 C  
HETATM    9  C   UNL     2     -11.847  13.527  66.951  1.00  0.00    -0.452 C  
HETATM   10  C   UNL     2     -10.707  12.675  67.509  1.00  0.00    -0.225 C  
HETATM   11  C   UNL     2      -9.855  13.499  68.467  1.00  0.00    -0.189 C  
ENDROOT
BRANCH  10  12
HETATM   12  O   UNL     2      -9.835  12.261  66.435  1.00  0.00    -0.219 OA 
BRANCH  12  13
HETATM   13  C   UNL     2      -9.157  11.079  66.528  1.00  0.00    -0.173 C  
HETATM   14  O   UNL     2      -7.997  10.959  66.908  1.00  0.00    -0.126 OA 
BRANCH  13  15
HETATM   15  C   UNL     2     -10.096   9.937  66.072  1.00  0.00    -0.244 C  
HETATM   16  O   UNL     2      -9.647   9.240  64.908  1.00  0.00    -0.447 OA 
HETATM   17  H   UNL     2     -10.224   8.539  64.629  1.00  0.00     0.000 HD 
BRANCH  15  18
HETATM   18  C   UNL     2     -10.341   8.981  67.221  1.00  0.00    -0.342 A  
HETATM   19  C   UNL     2     -10.422   9.504  68.526  1.00  0.00    -0.247 A  
HETATM   20  C   UNL     2     -10.579   8.675  69.617  1.00  0.00    -0.219 A  
HETATM   21  C   UNL     2     -10.660   7.299  69.443  1.00  0.00    -0.238 A  
HETATM   22  C   UNL     2     -10.581   6.751  68.161  1.00  0.00    -0.279 A  
HETATM   23  C   UNL     2     -10.414   7.587  67.056  1.00  0.00    -0.409 A  
ENDBRANCH  15  18
ENDBRANCH  13  15
ENDBRANCH  12  13
ENDBRANCH  10  12
TORSDOF 4
ENDMDL
MODEL       77
REMARK 921   NORMALIZED FREE ENERGY PREDICTED BY IDOCK:   -4.92 KCAL/MOL
REMARK 922        TOTAL FREE ENERGY PREDICTED BY IDOCK:   -6.71 KCAL/MOL
REMARK 923 INTER-LIGAND FREE ENERGY PREDICTED BY IDOCK:   -6.19 KCAL/MOL
REMARK 924 INTRA-LIGAND FREE ENERGY PREDICTED BY IDOCK:   -0.52 KCAL/MOL
REMARK 927      BINDING AFFINITY PREDICTED BY RF-SCORE:    0.00 PKD
ROOT
HETATM    1 BR   UNL     1     -10.323  19.992  66.145  1.00  0.00    -0.524 Br 
HETATM    2  C   UNL     2      -7.909  18.092  68.610  1.00  0.00    -0.295 C  
HETATM    3  N   UNL     2      -7.878  16.662  67.973  1.00  0.00    -0.166 N  
HETATM    4  C   UNL     2      -6.536  16.623  67.270  1.00  0.00    -0.180 C  
HETATM    5  C   UNL     2      -9.106  16.501  67.032  1.00  0.00    -0.211 C  
HETATM    6  C   UNL     2     -10.278  16.441  68.032  1.00  0.00    -0.264 C  
HETATM    7  C   UNL     2      -9.664  15.893  69.334  1.00  0.00    -0.268 C  
HETATM    8  C   UNL     2      -8.202  15.542  68.987  1.00  0.00    -0.227 C  
HETATM    9  C   UNL     2      -7.980  14.173  68.293  1.00  0.00    -0.140 C  
HETATM   10  C   UNL     2      -8.920  13.930  67.113  1.00  0.00    -0.235 C  
HETATM   11  C   UNL     2      -9.003  15.177  66.240  1.00  0.00    -0.274 C  
ENDROOT
BRANCH  10  12
HETATM   12  O   UNL     2     -10.256  13.677  67.595  1.00  0.00    -0.234 OA 
BRANCH  12  13
HETATM   13  C   UNL     2     -11.222  13.248  66.730  1.00  0.00    -0.304 C  
HETATM   14  O   UNL     2     -12.039  13.970  66.168  1.00  0.00    -0.402 OA 
BRANCH  13  15
HETATM   15  C   UNL     2     -11.107  11.711  66.587  1.00  0.00    -0.307 C  
HETATM   16  O   UNL     2     -10.061  11.282  65.714  1.00  0.00    -0.228 OA 
HETATM   17  H   UNL     2      -9.991  10.339  65.626  1.00  0.00     0.000 HD 
BRANCH  15  18
HETATM   18  C   UNL     2     -10.974  11.073  67.955  1.00  0.00    -0.317 A  
HETATM   19  C   UNL     2     -12.029  11.231  68.875  1.00  0.00    -0.378 A  
HETATM   20  C   UNL     2     -11.936  10.728  70.157  1.00  0.00    -0.432 A  
HETATM   21  C   UNL     2     -10.791  10.054  70.561  1.00  0.00    -0.380 A  
HETATM   22  C   UNL     2      -9.729   9.883  69.671  1.00  0.00    -0.252 A  
HETATM   23  C   UNL     2      -9.816  10.398  68.376  1.00  0.00    -0.173 A  
ENDBRANCH  15  18
ENDBRANCH  13  15
ENDBRANCH  12  13
ENDBRANCH  10  12
TORSDOF 4
ENDMDL
MODEL       78
REMARK 921   NORMALIZED FREE ENERGY PREDICTED BY IDOCK:   -4.92 KCAL/MOL
REMARK 922        TOTAL FREE ENERGY PREDICTED BY IDOCK:   -6.71 KCAL/MOL
REMARK 923 INTER-LIGAND FREE ENERGY PREDICTED BY IDOCK:   -5.59 KCAL/MOL
REMARK 924 INTRA-LIGAND FREE ENERGY PREDICTED BY IDOCK:   -1.12 KCAL/MOL
REMARK 927      BINDING AFFINITY PREDICTED BY RF-SCORE:    0.00 PKD
ROOT
HETATM    1 BR   UNL     1     -10.369   4.743  65.861  1.00  0.00    -0.272 Br 
HETATM    2  C   UNL     2      -7.501   6.831  67.573  1.00  0.00    -0.097 C  
HETATM    3  N   UNL     2      -8.322   7.760  68.529  1.00  0.00    -0.128 N  
HETATM    4  C   UNL     2      -8.120   7.125  69.890  1.00  0.00    -0.125 C  
HETATM    5  C   UNL     2      -9.800   7.803  68.046  1.00  0.00    -0.163 C  
HETATM    6  C   UNL     2      -9.695   8.609  66.737  1.00  0.00    -0.298 C  
HETATM    7  C   UNL     2      -8.449   9.498  66.915  1.00  0.00    -0.128 C  
HETATM    8  C   UNL     2      -7.972   9.257  68.363  1.00  0.00    -0.102 C  
HETATM    9  C   UNL     2      -8.715  10.058  69.464  1.00  0.00    -0.205 C  
HETATM   10  C   UNL     2     -10.237   9.987  69.346  1.00  0.00    -0.222 C  
HETATM   11  C   UNL     2     -10.678   8.553  69.075  1.00  0.00    -0.113 C  
ENDROOT
BRANCH  10  12
HETATM   12  O   UNL     2     -10.678  10.771  68.217  1.00  0.00    -0.184 OA 
BRANCH  12  13
HETATM   13  C   UNL     2     -11.100  12.056  68.406  1.00  0.00    -0.245 C  
HETATM   14  O   UNL     2     -11.901  12.418  69.262  1.00  0.00    -0.303 OA 
BRANCH  13  15
HETATM   15  C   UNL     2     -10.403  12.961  67.363  1.00  0.00    -0.233 C  
HETATM   16  O   UNL     2      -8.976  12.938  67.428  1.00  0.00    -0.181 OA 
HETATM   17  H   UNL     2      -8.548  13.494  66.788  1.00  0.00     0.000 HD 
BRANCH  15  18
HETATM   18  C   UNL     2     -10.892  12.618  65.971  1.00  0.00    -0.306 A  
HETATM   19  C   UNL     2     -12.251  12.828  65.665  1.00  0.00    -0.503 A  
HETATM   20  C   UNL     2     -12.767  12.473  64.435  1.00  0.00    -0.447 A  
HETATM   21  C   UNL     2     -11.947  11.898  63.474  1.00  0.00    -0.567 A  
HETATM   22  C   UNL     2     -10.596  11.676  63.749  1.00  0.00    -0.473 A  
HETATM   23  C   UNL     2     -10.072  12.026  64.994  1.00  0.00    -0.293 A  
ENDBRANCH  15  18
ENDBRANCH  13  15
ENDBRANCH  12  13
ENDBRANCH  10  12
TORSDOF 4
ENDMDL
MODEL       79
REMARK 921   NORMALIZED FREE ENERGY PREDICTED BY IDOCK:   -4.91 KCAL/MOL
REMARK 922        TOTAL FREE ENERGY PREDICTED BY IDOCK:   -6.70 KCAL/MOL
REMARK 923 INTER-LIGAND FREE ENERGY PREDICTED BY IDOCK:   -5.75 KCAL/MOL
REMARK 924 INTRA-LIGAND FREE ENERGY PREDICTED BY IDOCK:   -0.95 KCAL/MOL
REMARK 927      BINDING AFFINITY PREDICTED BY RF-SCORE:    0.00 PKD
ROOT
HETATM    1 BR   UNL     1      -8.406   4.043  68.904  1.00  0.00    -0.097 Br 
HETATM    2  C   UNL     2      -9.024   5.421  72.542  1.00  0.00    -0.133 C  
HETATM    3  N   UNL     2     -10.412   6.126  72.375  1.00  0.00    -0.193 N  
HETATM    4  C   UNL     2     -11.378   5.149  73.016  1.00  0.00    -0.309 C  
HETATM    5  C   UNL     2     -10.667   6.390  70.863  1.00  0.00    -0.250 C  
HETATM    6  C   UNL     2      -9.643   7.499  70.547  1.00  0.00    -0.168 C  
HETATM    7  C   UNL     2      -9.416   8.225  71.887  1.00  0.00    -0.287 C  
HETATM    8  C   UNL     2     -10.412   7.587  72.878  1.00  0.00    -0.318 C  
HETATM    9  C   UNL     2     -11.866   8.125  72.819  1.00  0.00    -0.296 C  
HETATM   10  C   UNL     2     -12.434   8.189  71.402  1.00  0.00    -0.292 C  
HETATM   11  C   UNL     2     -12.108   6.907  70.646  1.00  0.00    -0.363 C  
ENDROOT
BRANCH  10  12
HETATM   12  O   UNL     2     -11.809   9.267  70.672  1.00  0.00    -0.267 OA 
BRANCH  12  13
HETATM   13  C   UNL     2     -12.313  10.532  70.764  1.00  0.00    -0.378 C  
HETATM   14  O   UNL     2     -13.041  10.939  71.664  1.00  0.00    -0.430 OA 
BRANCH  13  15
HETATM   15  C   UNL     2     -11.816  11.349  69.548  1.00  0.00    -0.357 C  
HETATM   16  O   UNL     2     -11.377  12.670  69.871  1.00  0.00    -0.493 OA 
HETATM   17  H   UNL     2     -11.072  13.171  69.124  1.00  0.00     0.000 HD 
BRANCH  15  18
HETATM   18  C   UNL     2     -10.739  10.579  68.813  1.00  0.00    -0.249 A  
HETATM   19  C   UNL     2      -9.390  10.890  69.077  1.00  0.00    -0.144 A  
HETATM   20  C   UNL     2      -8.369  10.267  68.391  1.00  0.00    -0.119 A  
HETATM   21  C   UNL     2      -8.657   9.317  67.420  1.00  0.00    -0.122 A  
HETATM   22  C   UNL     2      -9.984   8.988  67.135  1.00  0.00    -0.286 A  
HETATM   23  C   UNL     2     -11.021   9.622  67.822  1.00  0.00    -0.203 A  
ENDBRANCH  15  18
ENDBRANCH  13  15
ENDBRANCH  12  13
ENDBRANCH  10  12
TORSDOF 4
ENDMDL
MODEL       80
REMARK 921   NORMALIZED FREE ENERGY PREDICTED BY IDOCK:   -4.91 KCAL/MOL
REMARK 922        TOTAL FREE ENERGY PREDICTED BY IDOCK:   -6.69 KCAL/MOL
REMARK 923 INTER-LIGAND FREE ENERGY PREDICTED BY IDOCK:   -5.39 KCAL/MOL
REMARK 924 INTRA-LIGAND FREE ENERGY PREDICTED BY IDOCK:   -1.31 KCAL/MOL
REMARK 927      BINDING AFFINITY PREDICTED BY RF-SCORE:    0.00 PKD
ROOT
HETATM    1 BR   UNL     1     -11.146   6.726  70.059  1.00  0.00    -0.387 Br 
HETATM    2  C   UNL     2      -9.972   7.994  66.520  1.00  0.00    -0.213 C  
HETATM    3  N   UNL     2      -8.953   9.115  66.914  1.00  0.00    -0.122 N  
HETATM    4  C   UNL     2      -7.607   8.460  66.680  1.00  0.00    -0.089 C  
HETATM    5  C   UNL     2      -9.217   9.543  68.387  1.00  0.00    -0.130 C  
HETATM    6  C   UNL     2     -10.565  10.283  68.276  1.00  0.00    -0.255 C  
HETATM    7  C   UNL     2     -10.612  10.811  66.829  1.00  0.00    -0.307 C  
HETATM    8  C   UNL     2      -9.239  10.464  66.216  1.00  0.00    -0.166 C  
HETATM    9  C   UNL     2      -8.082  11.442  66.548  1.00  0.00    -0.141 C  
HETATM   10  C   UNL     2      -7.974  11.775  68.036  1.00  0.00    -0.141 C  
HETATM   11  C   UNL     2      -8.109  10.507  68.870  1.00  0.00    -0.138 C  
ENDROOT
BRANCH  10  12
HETATM   12  O   UNL     2      -9.063  12.640  68.424  1.00  0.00    -0.190 OA 
BRANCH  12  13
HETATM   13  C   UNL     2      -8.834  13.969  68.633  1.00  0.00    -0.104 C  
HETATM   14  O   UNL     2      -7.739  14.469  68.869  1.00  0.00    -0.129 OA 
BRANCH  13  15
HETATM   15  C   UNL     2     -10.181  14.724  68.525  1.00  0.00    -0.232 C  
HETATM   16  O   UNL     2     -10.101  16.113  68.848  1.00  0.00    -0.216 OA 
HETATM   17  H   UNL     2     -10.928  16.576  68.781  1.00  0.00     0.000 HD 
BRANCH  15  18
HETATM   18  C   UNL     2     -10.781  14.515  67.150  1.00  0.00    -0.286 A  
HETATM   19  C   UNL     2     -12.142  14.163  67.057  1.00  0.00    -0.449 A  
HETATM   20  C   UNL     2     -12.726  13.897  65.836  1.00  0.00    -0.466 A  
HETATM   21  C   UNL     2     -11.975  13.972  64.671  1.00  0.00    -0.449 A  
HETATM   22  C   UNL     2     -10.623  14.317  64.732  1.00  0.00    -0.434 A  
HETATM   23  C   UNL     2     -10.026  14.580  65.966  1.00  0.00    -0.343 A  
ENDBRANCH  15  18
ENDBRANCH  13  15
ENDBRANCH  12  13
ENDBRANCH  10  12
TORSDOF 4
ENDMDL
MODEL       81
REMARK 921   NORMALIZED FREE ENERGY PREDICTED BY IDOCK:   -4.90 KCAL/MOL
REMARK 922        TOTAL FREE ENERGY PREDICTED BY IDOCK:   -6.69 KCAL/MOL
REMARK 923 INTER-LIGAND FREE ENERGY PREDICTED BY IDOCK:   -6.03 KCAL/MOL
REMARK 924 INTRA-LIGAND FREE ENERGY PREDICTED BY IDOCK:   -0.66 KCAL/MOL
REMARK 927      BINDING AFFINITY PREDICTED BY RF-SCORE:    0.00 PKD
ROOT
HETATM    1 BR   UNL     1      -7.499   7.728  74.564  1.00  0.00    -0.223 Br 
HETATM    2  C   UNL     2     -10.142   6.144  72.111  1.00  0.00    -0.183 C  
HETATM    3  N   UNL     2      -9.723   6.787  70.746  1.00  0.00    -0.179 N  
HETATM    4  C   UNL     2      -8.993   5.661  70.041  1.00  0.00    -0.137 C  
HETATM    5  C   UNL     2      -8.854   8.047  71.026  1.00  0.00    -0.139 C  
HETATM    6  C   UNL     2      -9.887   9.035  71.605  1.00  0.00    -0.366 C  
HETATM    7  C   UNL     2     -11.237   8.598  71.004  1.00  0.00    -0.321 C  
HETATM    8  C   UNL     2     -10.901   7.465  70.011  1.00  0.00    -0.252 C  
HETATM    9  C   UNL     2     -10.410   7.915  68.610  1.00  0.00    -0.224 C  
HETATM   10  C   UNL     2      -9.308   8.972  68.663  1.00  0.00    -0.136 C  
HETATM   11  C   UNL     2      -8.263   8.593  69.706  1.00  0.00    -0.121 C  
ENDROOT
BRANCH  10  12
HETATM   12  O   UNL     2      -9.863  10.239  69.078  1.00  0.00    -0.186 OA 
BRANCH  12  13
HETATM   13  C   UNL     2      -9.806  11.314  68.239  1.00  0.00    -0.197 C  
HETATM   14  O   UNL     2      -8.775  11.821  67.809  1.00  0.00    -0.144 OA 
BRANCH  13  15
HETATM   15  C   UNL     2     -11.251  11.776  67.933  1.00  0.00    -0.267 C  
HETATM   16  O   UNL     2     -12.254  10.809  68.251  1.00  0.00    -0.815 OA 
HETATM   17  H   UNL     2     -13.140  11.092  68.063  1.00  0.00     0.000 HD 
BRANCH  15  18
HETATM   18  C   UNL     2     -11.528  13.097  68.620  1.00  0.00    -0.342 A  
HETATM   19  C   UNL     2     -11.166  14.287  67.959  1.00  0.00    -0.300 A  
HETATM   20  C   UNL     2     -11.334  15.516  68.564  1.00  0.00    -0.356 A  
HETATM   21  C   UNL     2     -11.867  15.598  69.844  1.00  0.00    -0.374 A  
HETATM   22  C   UNL     2     -12.234  14.435  70.524  1.00  0.00    -0.411 A  
HETATM   23  C   UNL     2     -12.058  13.189  69.919  1.00  0.00    -0.357 A  
ENDBRANCH  15  18
ENDBRANCH  13  15
ENDBRANCH  12  13
ENDBRANCH  10  12
TORSDOF 4
ENDMDL
MODEL       82
REMARK 921   NORMALIZED FREE ENERGY PREDICTED BY IDOCK:   -4.90 KCAL/MOL
REMARK 922        TOTAL FREE ENERGY PREDICTED BY IDOCK:   -6.68 KCAL/MOL
REMARK 923 INTER-LIGAND FREE ENERGY PREDICTED BY IDOCK:   -5.45 KCAL/MOL
REMARK 924 INTRA-LIGAND FREE ENERGY PREDICTED BY IDOCK:   -1.23 KCAL/MOL
REMARK 927      BINDING AFFINITY PREDICTED BY RF-SCORE:    0.00 PKD
ROOT
HETATM    1 BR   UNL     1      -7.094   3.748  70.747  1.00  0.00    -0.034 Br 
HETATM    2  C   UNL     2      -8.554   5.107  67.350  1.00  0.00    -0.104 C  
HETATM    3  N   UNL     2      -8.788   6.616  67.695  1.00  0.00    -0.118 N  
HETATM    4  C   UNL     2      -7.630   7.313  67.010  1.00  0.00    -0.106 C  
HETATM    5  C   UNL     2      -8.821   6.783  69.241  1.00  0.00    -0.137 C  
HETATM    6  C   UNL     2     -10.153   6.101  69.616  1.00  0.00    -0.226 C  
HETATM    7  C   UNL     2     -11.035   6.233  68.360  1.00  0.00    -0.409 C  
HETATM    8  C   UNL     2     -10.222   7.094  67.371  1.00  0.00    -0.226 C  
HETATM    9  C   UNL     2     -10.288   8.628  67.593  1.00  0.00    -0.317 C  
HETATM   10  C   UNL     2     -10.045   9.043  69.044  1.00  0.00    -0.195 C  
HETATM   11  C   UNL     2      -8.856   8.282  69.617  1.00  0.00    -0.139 C  
ENDROOT
BRANCH  10  12
HETATM   12  O   UNL     2     -11.188   8.690  69.852  1.00  0.00    -0.177 OA 
BRANCH  12  13
HETATM   13  C   UNL     2     -11.774   9.631  70.649  1.00  0.00    -0.280 C  
HETATM   14  O   UNL     2     -11.566  10.839  70.586  1.00  0.00    -0.322 OA 
BRANCH  13  15
HETATM   15  C   UNL     2     -12.729   8.916  71.634  1.00  0.00    -0.349 C  
HETATM   16  O   UNL     2     -13.978   8.529  71.061  1.00  0.00    -0.592 OA 
HETATM   17  H   UNL     2     -14.565   8.091  71.666  1.00  0.00     0.000 HD 
BRANCH  15  18
HETATM   18  C   UNL     2     -12.027   7.732  72.267  1.00  0.00    -0.356 A  
HETATM   19  C   UNL     2     -10.788   7.946  72.903  1.00  0.00    -0.451 A  
HETATM   20  C   UNL     2     -10.073   6.895  73.439  1.00  0.00    -0.289 A  
HETATM   21  C   UNL     2     -10.569   5.600  73.359  1.00  0.00    -0.288 A  
HETATM   22  C   UNL     2     -11.794   5.357  72.734  1.00  0.00    -0.162 A  
HETATM   23  C   UNL     2     -12.516   6.417  72.183  1.00  0.00    -0.173 A  
ENDBRANCH  15  18
ENDBRANCH  13  15
ENDBRANCH  12  13
ENDBRANCH  10  12
TORSDOF 4
ENDMDL
MODEL       83
REMARK 921   NORMALIZED FREE ENERGY PREDICTED BY IDOCK:   -4.89 KCAL/MOL
REMARK 922        TOTAL FREE ENERGY PREDICTED BY IDOCK:   -6.67 KCAL/MOL
REMARK 923 INTER-LIGAND FREE ENERGY PREDICTED BY IDOCK:   -6.22 KCAL/MOL
REMARK 924 INTRA-LIGAND FREE ENERGY PREDICTED BY IDOCK:   -0.45 KCAL/MOL
REMARK 927      BINDING AFFINITY PREDICTED BY RF-SCORE:    0.00 PKD
ROOT
HETATM    1 BR   UNL     1      -9.875   8.853  71.348  1.00  0.00    -0.384 Br 
HETATM    2  C   UNL     2     -10.631   9.035  67.487  1.00  0.00    -0.237 C  
HETATM    3  N   UNL     2      -9.821  10.309  67.072  1.00  0.00    -0.185 N  
HETATM    4  C   UNL     2      -8.593   9.736  66.395  1.00  0.00    -0.124 C  
HETATM    5  C   UNL     2      -9.524  11.156  68.343  1.00  0.00    -0.189 C  
HETATM    6  C   UNL     2     -10.920  11.700  68.707  1.00  0.00    -0.274 C  
HETATM    7  C   UNL     2     -11.693  11.737  67.376  1.00  0.00    -0.304 C  
HETATM    8  C   UNL     2     -10.671  11.337  66.291  1.00  0.00    -0.257 C  
HETATM    9  C   UNL     2      -9.734  12.468  65.792  1.00  0.00    -0.196 C  
HETATM   10  C   UNL     2      -9.083  13.263  66.923  1.00  0.00    -0.232 C  
HETATM   11  C   UNL     2      -8.563  12.317  67.999  1.00  0.00    -0.176 C  
ENDROOT
BRANCH  10  12
HETATM   12  O   UNL     2     -10.068  14.106  67.559  1.00  0.00    -0.233 OA 
BRANCH  12  13
HETATM   13  C   UNL     2      -9.766  15.407  67.844  1.00  0.00    -0.207 C  
HETATM   14  O   UNL     2      -9.680  15.882  68.972  1.00  0.00    -0.214 OA 
BRANCH  13  15
HETATM   15  C   UNL     2      -9.559  16.167  66.512  1.00  0.00    -0.262 C  
HETATM   16  O   UNL     2     -10.554  15.898  65.524  1.00  0.00    -0.363 OA 
HETATM   17  H   UNL     2     -10.427  16.364  64.706  1.00  0.00     0.000 HD 
BRANCH  15  18
HETATM   18  C   UNL     2      -9.440  17.654  66.778  1.00  0.00    -0.285 A  
HETATM   19  C   UNL     2     -10.561  18.472  66.533  1.00  0.00    -0.375 A  
HETATM   20  C   UNL     2     -10.491  19.840  66.695  1.00  0.00    -0.615 A  
HETATM   21  C   UNL     2      -9.305  20.436  67.105  1.00  0.00    -0.537 A  
HETATM   22  C   UNL     2      -8.178  19.651  67.354  1.00  0.00    -0.333 A  
HETATM   23  C   UNL     2      -8.242  18.267  67.184  1.00  0.00    -0.239 A  
ENDBRANCH  15  18
ENDBRANCH  13  15
ENDBRANCH  12  13
ENDBRANCH  10  12
TORSDOF 4
ENDMDL
MODEL       84
REMARK 921   NORMALIZED FREE ENERGY PREDICTED BY IDOCK:   -4.88 KCAL/MOL
REMARK 922        TOTAL FREE ENERGY PREDICTED BY IDOCK:   -6.67 KCAL/MOL
REMARK 923 INTER-LIGAND FREE ENERGY PREDICTED BY IDOCK:   -5.85 KCAL/MOL
REMARK 924 INTRA-LIGAND FREE ENERGY PREDICTED BY IDOCK:   -0.81 KCAL/MOL
REMARK 927      BINDING AFFINITY PREDICTED BY RF-SCORE:    0.00 PKD
ROOT
HETATM    1 BR   UNL     1     -12.561  11.924  63.240  1.00  0.00    -0.191 Br 
HETATM    2  C   UNL     2     -12.015  14.926  65.729  1.00  0.00    -0.052 C  
HETATM    3  N   UNL     2     -10.705  14.485  66.465  1.00  0.00    -0.307 N  
HETATM    4  C   UNL     2      -9.638  15.349  65.824  1.00  0.00    -0.333 C  
HETATM    5  C   UNL     2     -10.504  12.955  66.267  1.00  0.00    -0.270 C  
HETATM    6  C   UNL     2     -11.637  12.362  67.128  1.00  0.00    -0.435 C  
HETATM    7  C   UNL     2     -11.909  13.422  68.213  1.00  0.00    -0.393 C  
HETATM    8  C   UNL     2     -10.838  14.513  68.004  1.00  0.00    -0.244 C  
HETATM    9  C   UNL     2      -9.445  14.222  68.622  1.00  0.00    -0.178 C  
HETATM   10  C   UNL     2      -8.911  12.829  68.290  1.00  0.00    -0.175 C  
HETATM   11  C   UNL     2      -9.124  12.521  66.813  1.00  0.00    -0.214 C  
ENDROOT
BRANCH  10  12
HETATM   12  O   UNL     2      -9.651  11.833  69.029  1.00  0.00    -0.020 OA 
BRANCH  12  13
HETATM   13  C   UNL     2      -9.117  10.591  69.218  1.00  0.00    -0.145 C  
HETATM   14  O   UNL     2      -7.946  10.362  69.505  1.00  0.00    -0.155 OA 
BRANCH  13  15
HETATM   15  C   UNL     2     -10.231   9.539  69.005  1.00  0.00    -0.200 C  
HETATM   16  O   UNL     2      -9.749   8.224  68.723  1.00  0.00    -0.152 OA 
HETATM   17  H   UNL     2     -10.433   7.578  68.592  1.00  0.00     0.000 HD 
BRANCH  15  18
HETATM   18  C   UNL     2     -11.170   9.533  70.194  1.00  0.00    -0.275 A  
HETATM   19  C   UNL     2     -11.022   8.520  71.163  1.00  0.00    -0.306 A  
HETATM   20  C   UNL     2     -11.889   8.426  72.232  1.00  0.00    -0.456 A  
HETATM   21  C   UNL     2     -12.929   9.336  72.370  1.00  0.00    -0.450 A  
HETATM   22  C   UNL     2     -13.101  10.350  71.426  1.00  0.00    -0.512 A  
HETATM   23  C   UNL     2     -12.231  10.443  70.338  1.00  0.00    -0.389 A  
ENDBRANCH  15  18
ENDBRANCH  13  15
ENDBRANCH  12  13
ENDBRANCH  10  12
TORSDOF 4
ENDMDL
MODEL       85
REMARK 921   NORMALIZED FREE ENERGY PREDICTED BY IDOCK:   -4.88 KCAL/MOL
REMARK 922        TOTAL FREE ENERGY PREDICTED BY IDOCK:   -6.66 KCAL/MOL
REMARK 923 INTER-LIGAND FREE ENERGY PREDICTED BY IDOCK:   -6.17 KCAL/MOL
REMARK 924 INTRA-LIGAND FREE ENERGY PREDICTED BY IDOCK:   -0.49 KCAL/MOL
REMARK 927      BINDING AFFINITY PREDICTED BY RF-SCORE:    0.00 PKD
ROOT
HETATM    1 BR   UNL     1      -7.689   7.918  74.563  1.00  0.00    -0.275 Br 
HETATM    2  C   UNL     2     -10.668   5.905  72.953  1.00  0.00    -0.249 C  
HETATM    3  N   UNL     2     -10.450   6.194  71.430  1.00  0.00    -0.218 N  
HETATM    4  C   UNL     2      -9.835   4.908  70.917  1.00  0.00    -0.207 C  
HETATM    5  C   UNL     2      -9.545   7.451  71.277  1.00  0.00    -0.161 C  
HETATM    6  C   UNL     2     -10.479   8.585  71.745  1.00  0.00    -0.370 C  
HETATM    7  C   UNL     2     -11.903   8.071  71.461  1.00  0.00    -0.328 C  
HETATM    8  C   UNL     2     -11.720   6.725  70.728  1.00  0.00    -0.386 C  
HETATM    9  C   UNL     2     -11.437   6.816  69.206  1.00  0.00    -0.162 C  
HETATM   10  C   UNL     2     -10.335   7.813  68.850  1.00  0.00    -0.213 C  
HETATM   11  C   UNL     2      -9.151   7.650  69.796  1.00  0.00    -0.147 C  
ENDROOT
BRANCH  10  12
HETATM   12  O   UNL     2     -10.819   9.162  69.027  1.00  0.00    -0.191 OA 
BRANCH  12  13
HETATM   13  C   UNL     2     -10.805  10.033  67.976  1.00  0.00    -0.260 C  
HETATM   14  O   UNL     2     -10.408   9.770  66.846  1.00  0.00    -0.233 OA 
BRANCH  13  15
HETATM   15  C   UNL     2     -11.369  11.392  68.456  1.00  0.00    -0.271 C  
HETATM   16  O   UNL     2     -10.906  11.794  69.746  1.00  0.00    -0.458 OA 
HETATM   17  H   UNL     2     -11.252  12.628  70.041  1.00  0.00     0.000 HD 
BRANCH  15  18
HETATM   18  C   UNL     2     -11.093  12.461  67.419  1.00  0.00    -0.320 A  
HETATM   19  C   UNL     2     -12.028  12.648  66.381  1.00  0.00    -0.425 A  
HETATM   20  C   UNL     2     -11.798  13.561  65.373  1.00  0.00    -0.379 A  
HETATM   21  C   UNL     2     -10.632  14.315  65.365  1.00  0.00    -0.367 A  
HETATM   22  C   UNL     2      -9.687  14.151  66.380  1.00  0.00    -0.313 A  
HETATM   23  C   UNL     2      -9.912  13.222  67.398  1.00  0.00    -0.233 A  
ENDBRANCH  15  18
ENDBRANCH  13  15
ENDBRANCH  12  13
ENDBRANCH  10  12
TORSDOF 4
ENDMDL
MODEL       86
REMARK 921   NORMALIZED FREE ENERGY PREDICTED BY IDOCK:   -4.87 KCAL/MOL
REMARK 922        TOTAL FREE ENERGY PREDICTED BY IDOCK:   -6.65 KCAL/MOL
REMARK 923 INTER-LIGAND FREE ENERGY PREDICTED BY IDOCK:   -5.89 KCAL/MOL
REMARK 924 INTRA-LIGAND FREE ENERGY PREDICTED BY IDOCK:   -0.76 KCAL/MOL
REMARK 927      BINDING AFFINITY PREDICTED BY RF-SCORE:    0.00 PKD
ROOT
HETATM    1 BR   UNL     1     -12.658  11.879  63.374  1.00  0.00    -0.329 Br 
HETATM    2  C   UNL     2     -11.920  14.795  65.917  1.00  0.00    -0.152 C  
HETATM    3  N   UNL     2     -10.559  14.330  66.535  1.00  0.00    -0.283 N  
HETATM    4  C   UNL     2      -9.543  15.218  65.845  1.00  0.00    -0.342 C  
HETATM    5  C   UNL     2     -10.375  12.808  66.269  1.00  0.00    -0.258 C  
HETATM    6  C   UNL     2     -11.439  12.184  67.194  1.00  0.00    -0.413 C  
HETATM    7  C   UNL     2     -11.627  13.205  68.332  1.00  0.00    -0.372 C  
HETATM    8  C   UNL     2     -10.574  14.305  68.080  1.00  0.00    -0.245 C  
HETATM    9  C   UNL     2      -9.138  13.995  68.579  1.00  0.00    -0.163 C  
HETATM   10  C   UNL     2      -8.633  12.615  68.160  1.00  0.00    -0.188 C  
HETATM   11  C   UNL     2      -8.958  12.358  66.693  1.00  0.00    -0.184 C  
ENDROOT
BRANCH  10  12
HETATM   12  O   UNL     2      -9.315  11.593  68.917  1.00  0.00    -0.097 OA 
BRANCH  12  13
HETATM   13  C   UNL     2      -8.666  10.435  69.235  1.00  0.00    -0.150 C  
HETATM   14  O   UNL     2      -7.511  10.163  68.921  1.00  0.00    -0.077 OA 
BRANCH  13  15
HETATM   15  C   UNL     2      -9.630   9.537  70.046  1.00  0.00    -0.238 C  
HETATM   16  O   UNL     2     -10.752  10.229  70.596  1.00  0.00    -0.399 OA 
HETATM   17  H   UNL     2     -11.343   9.678  71.094  1.00  0.00     0.000 HD 
BRANCH  15  18
HETATM   18  C   UNL     2     -10.073   8.359  69.203  1.00  0.00    -0.206 A  
HETATM   19  C   UNL     2     -10.165   8.529  67.807  1.00  0.00    -0.283 A  
HETATM   20  C   UNL     2     -10.626   7.513  66.996  1.00  0.00    -0.409 A  
HETATM   21  C   UNL     2     -11.008   6.297  67.548  1.00  0.00    -0.444 A  
HETATM   22  C   UNL     2     -10.929   6.100  68.928  1.00  0.00    -0.424 A  
HETATM   23  C   UNL     2     -10.472   7.129  69.753  1.00  0.00    -0.238 A  
ENDBRANCH  15  18
ENDBRANCH  13  15
ENDBRANCH  12  13
ENDBRANCH  10  12
TORSDOF 4
ENDMDL
MODEL       87
REMARK 921   NORMALIZED FREE ENERGY PREDICTED BY IDOCK:   -4.87 KCAL/MOL
REMARK 922        TOTAL FREE ENERGY PREDICTED BY IDOCK:   -6.64 KCAL/MOL
REMARK 923 INTER-LIGAND FREE ENERGY PREDICTED BY IDOCK:   -6.27 KCAL/MOL
REMARK 924 INTRA-LIGAND FREE ENERGY PREDICTED BY IDOCK:   -0.38 KCAL/MOL
REMARK 927      BINDING AFFINITY PREDICTED BY RF-SCORE:    0.00 PKD
ROOT
HETATM    1 BR   UNL     1      -6.592  18.320  66.864  1.00  0.00    -0.217 Br 
HETATM    2  C   UNL     2     -10.372  17.867  67.877  1.00  0.00    -0.389 C  
HETATM    3  N   UNL     2     -10.401  16.360  68.301  1.00  0.00    -0.266 N  
HETATM    4  C   UNL     2     -10.422  16.425  69.815  1.00  0.00    -0.246 C  
HETATM    5  C   UNL     2      -9.158  15.641  67.701  1.00  0.00    -0.192 C  
HETATM    6  C   UNL     2      -9.491  15.614  66.195  1.00  0.00    -0.376 C  
HETATM    7  C   UNL     2     -11.030  15.642  66.127  1.00  0.00    -0.206 C  
HETATM    8  C   UNL     2     -11.512  15.554  67.590  1.00  0.00    -0.209 C  
HETATM    9  C   UNL     2     -11.553  14.131  68.206  1.00  0.00    -0.356 C  
HETATM   10  C   UNL     2     -10.271  13.332  67.979  1.00  0.00    -0.240 C  
HETATM   11  C   UNL     2      -9.051  14.203  68.257  1.00  0.00    -0.190 C  
ENDROOT
BRANCH  10  12
HETATM   12  O   UNL     2     -10.181  12.931  66.594  1.00  0.00    -0.240 OA 
BRANCH  12  13
HETATM   13  C   UNL     2     -10.954  11.905  66.133  1.00  0.00    -0.308 C  
HETATM   14  O   UNL     2     -11.633  11.161  66.833  1.00  0.00    -0.428 OA 
BRANCH  13  15
HETATM   15  C   UNL     2     -10.822  11.844  64.592  1.00  0.00    -0.311 C  
HETATM   16  O   UNL     2     -10.500  13.095  63.983  1.00  0.00    -0.479 OA 
HETATM   17  H   UNL     2     -10.419  13.058  63.037  1.00  0.00     0.000 HD 
BRANCH  15  18
HETATM   18  C   UNL     2      -9.826  10.772  64.201  1.00  0.00    -0.384 A  
HETATM   19  C   UNL     2      -9.550  10.578  62.833  1.00  0.00    -0.355 A  
HETATM   20  C   UNL     2      -8.702   9.574  62.413  1.00  0.00    -0.236 A  
HETATM   21  C   UNL     2      -8.103   8.733  63.342  1.00  0.00    -0.170 A  
HETATM   22  C   UNL     2      -8.358   8.900  64.704  1.00  0.00    -0.179 A  
HETATM   23  C   UNL     2      -9.222   9.910  65.132  1.00  0.00    -0.288 A  
ENDBRANCH  15  18
ENDBRANCH  13  15
ENDBRANCH  12  13
ENDBRANCH  10  12
TORSDOF 4
ENDMDL
MODEL       88
REMARK 921   NORMALIZED FREE ENERGY PREDICTED BY IDOCK:   -4.85 KCAL/MOL
REMARK 922        TOTAL FREE ENERGY PREDICTED BY IDOCK:   -6.62 KCAL/MOL
REMARK 923 INTER-LIGAND FREE ENERGY PREDICTED BY IDOCK:   -5.88 KCAL/MOL
REMARK 924 INTRA-LIGAND FREE ENERGY PREDICTED BY IDOCK:   -0.74 KCAL/MOL
REMARK 927      BINDING AFFINITY PREDICTED BY RF-SCORE:    0.00 PKD
ROOT
HETATM    1 BR   UNL     1     -11.910  14.331  64.934  1.00  0.00    -0.439 Br 
HETATM    2  C   UNL     2     -10.437  13.519  68.496  1.00  0.00    -0.244 C  
HETATM    3  N   UNL     2      -9.493  12.312  68.173  1.00  0.00    -0.209 N  
HETATM    4  C   UNL     2      -8.113  12.937  68.189  1.00  0.00    -0.158 C  
HETATM    5  C   UNL     2      -9.909  11.695  66.807  1.00  0.00    -0.200 C  
HETATM    6  C   UNL     2     -11.261  11.035  67.144  1.00  0.00    -0.290 C  
HETATM    7  C   UNL     2     -11.184  10.715  68.649  1.00  0.00    -0.337 C  
HETATM    8  C   UNL     2      -9.749  11.086  69.079  1.00  0.00    -0.134 C  
HETATM    9  C   UNL     2      -8.657  10.025  68.786  1.00  0.00    -0.131 C  
HETATM   10  C   UNL     2      -8.702   9.484  67.357  1.00  0.00    -0.125 C  
HETATM   11  C   UNL     2      -8.880  10.629  66.366  1.00  0.00    -0.164 C  
ENDROOT
BRANCH  10  12
HETATM   12  O   UNL     2      -9.848   8.620  67.196  1.00  0.00    -0.172 OA 
BRANCH  12  13
HETATM   13  C   UNL     2      -9.666   7.299  66.901  1.00  0.00    -0.194 C  
HETATM   14  O   UNL     2      -8.671   6.825  66.363  1.00  0.00    -0.127 OA 
BRANCH  13  15
HETATM   15  C   UNL     2     -10.921   6.517  67.357  1.00  0.00    -0.378 C  
HETATM   16  O   UNL     2     -11.336   5.495  66.448  1.00  0.00    -0.627 OA 
HETATM   17  H   UNL     2     -12.106   5.015  66.728  1.00  0.00     0.000 HD 
BRANCH  15  18
HETATM   18  C   UNL     2     -10.705   5.957  68.748  1.00  0.00    -0.354 A  
HETATM   19  C   UNL     2     -11.288   6.628  69.840  1.00  0.00    -0.422 A  
HETATM   20  C   UNL     2     -11.072   6.202  71.135  1.00  0.00    -0.360 A  
HETATM   21  C   UNL     2     -10.269   5.096  71.381  1.00  0.00    -0.282 A  
HETATM   22  C   UNL     2      -9.676   4.412  70.318  1.00  0.00    -0.281 A  
HETATM   23  C   UNL     2      -9.887   4.845  69.007  1.00  0.00    -0.250 A  
ENDBRANCH  15  18
ENDBRANCH  13  15
ENDBRANCH  12  13
ENDBRANCH  10  12
TORSDOF 4
ENDMDL
MODEL       89
REMARK 921   NORMALIZED FREE ENERGY PREDICTED BY IDOCK:   -4.84 KCAL/MOL
REMARK 922        TOTAL FREE ENERGY PREDICTED BY IDOCK:   -6.62 KCAL/MOL
REMARK 923 INTER-LIGAND FREE ENERGY PREDICTED BY IDOCK:   -5.44 KCAL/MOL
REMARK 924 INTRA-LIGAND FREE ENERGY PREDICTED BY IDOCK:   -1.18 KCAL/MOL
REMARK 927      BINDING AFFINITY PREDICTED BY RF-SCORE:    0.00 PKD
ROOT
HETATM    1 BR   UNL     1      -5.374   9.577  66.207  1.00  0.00    -0.044 Br 
HETATM    2  C   UNL     2      -9.163   9.754  65.145  1.00  0.00    -0.240 C  
HETATM    3  N   UNL     2      -9.778  10.580  66.325  1.00  0.00    -0.197 N  
HETATM    4  C   UNL     2      -9.962  11.959  65.725  1.00  0.00    -0.236 C  
HETATM    5  C   UNL     2      -8.806  10.527  67.539  1.00  0.00    -0.131 C  
HETATM    6  C   UNL     2      -8.937   9.061  67.999  1.00  0.00    -0.133 C  
HETATM    7  C   UNL     2     -10.344   8.626  67.548  1.00  0.00    -0.336 C  
HETATM    8  C   UNL     2     -11.004   9.894  66.968  1.00  0.00    -0.027 C  
HETATM    9  C   UNL     2     -11.625  10.870  68.002  1.00  0.00    -0.295 C  
HETATM   10  C   UNL     2     -10.691  11.195  69.167  1.00  0.00    -0.221 C  
HETATM   11  C   UNL     2      -9.287  11.488  68.651  1.00  0.00    -0.142 C  
ENDROOT
BRANCH  10  12
HETATM   12  O   UNL     2     -10.578  10.050  70.039  1.00  0.00    -0.257 OA 
BRANCH  12  13
HETATM   13  C   UNL     2     -11.496   9.858  71.031  1.00  0.00    -0.388 C  
HETATM   14  O   UNL     2     -12.538  10.493  71.162  1.00  0.00    -0.344 OA 
BRANCH  13  15
HETATM   15  C   UNL     2     -10.997   8.717  71.949  1.00  0.00    -0.365 C  
HETATM   16  O   UNL     2     -11.960   8.271  72.905  1.00  0.00    -0.535 OA 
HETATM   17  H   UNL     2     -11.653   7.571  73.469  1.00  0.00     0.000 HD 
BRANCH  15  18
HETATM   18  C   UNL     2     -10.485   7.565  71.110  1.00  0.00    -0.216 A  
HETATM   19  C   UNL     2     -11.408   6.834  70.336  1.00  0.00    -0.399 A  
HETATM   20  C   UNL     2     -11.010   5.735  69.604  1.00  0.00    -0.385 A  
HETATM   21  C   UNL     2      -9.682   5.328  69.619  1.00  0.00    -0.250 A  
HETATM   22  C   UNL     2      -8.745   6.032  70.378  1.00  0.00    -0.144 A  
HETATM   23  C   UNL     2      -9.145   7.140  71.127  1.00  0.00    -0.152 A  
ENDBRANCH  15  18
ENDBRANCH  13  15
ENDBRANCH  12  13
ENDBRANCH  10  12
TORSDOF 4
ENDMDL
MODEL       90
REMARK 921   NORMALIZED FREE ENERGY PREDICTED BY IDOCK:   -4.84 KCAL/MOL
REMARK 922        TOTAL FREE ENERGY PREDICTED BY IDOCK:   -6.61 KCAL/MOL
REMARK 923 INTER-LIGAND FREE ENERGY PREDICTED BY IDOCK:   -6.10 KCAL/MOL
REMARK 924 INTRA-LIGAND FREE ENERGY PREDICTED BY IDOCK:   -0.51 KCAL/MOL
REMARK 927      BINDING AFFINITY PREDICTED BY RF-SCORE:    0.00 PKD
ROOT
HETATM    1 BR   UNL     1      -5.218  18.774  69.731  1.00  0.00    -0.209 Br 
HETATM    2  C   UNL     2      -7.177  18.963  66.319  1.00  0.00    -0.249 C  
HETATM    3  N   UNL     2      -8.628  18.591  66.773  1.00  0.00    -0.275 N  
HETATM    4  C   UNL     2      -9.340  19.928  66.793  1.00  0.00    -0.384 C  
HETATM    5  C   UNL     2      -8.559  17.875  68.153  1.00  0.00    -0.264 C  
HETATM    6  C   UNL     2      -7.921  16.520  67.787  1.00  0.00    -0.171 C  
HETATM    7  C   UNL     2      -8.304  16.285  66.313  1.00  0.00    -0.343 C  
HETATM    8  C   UNL     2      -9.248  17.447  65.939  1.00  0.00     0.056 C  
HETATM    9  C   UNL     2     -10.730  17.279  66.363  1.00  0.00    -0.072 C  
HETATM   10  C   UNL     2     -10.902  16.851  67.820  1.00  0.00    -0.281 C  
HETATM   11  C   UNL     2      -9.982  17.668  68.721  1.00  0.00    -0.358 C  
ENDROOT
BRANCH  10  12
HETATM   12  O   UNL     2     -10.509  15.471  67.975  1.00  0.00    -0.249 OA 
BRANCH  12  13
HETATM   13  C   UNL     2     -11.208  14.656  68.818  1.00  0.00    -0.267 C  
HETATM   14  O   UNL     2     -11.095  14.638  70.040  1.00  0.00    -0.235 OA 
BRANCH  13  15
HETATM   15  C   UNL     2     -12.152  13.767  67.973  1.00  0.00    -0.280 C  
HETATM   16  O   UNL     2     -12.590  14.373  66.755  1.00  0.00    -0.540 OA 
HETATM   17  H   UNL     2     -13.170  13.828  66.237  1.00  0.00     0.000 HD 
BRANCH  15  18
HETATM   18  C   UNL     2     -11.503  12.424  67.713  1.00  0.00    -0.383 A  
HETATM   19  C   UNL     2     -10.914  12.194  66.454  1.00  0.00    -0.327 A  
HETATM   20  C   UNL     2     -10.366  10.968  66.138  1.00  0.00    -0.306 A  
HETATM   21  C   UNL     2     -10.388   9.933  67.065  1.00  0.00    -0.303 A  
HETATM   22  C   UNL     2     -10.966  10.131  68.320  1.00  0.00    -0.299 A  
HETATM   23  C   UNL     2     -11.528  11.368  68.641  1.00  0.00    -0.359 A  
ENDBRANCH  15  18
ENDBRANCH  13  15
ENDBRANCH  12  13
ENDBRANCH  10  12
TORSDOF 4
ENDMDL
MODEL       91
REMARK 921   NORMALIZED FREE ENERGY PREDICTED BY IDOCK:   -4.83 KCAL/MOL
REMARK 922        TOTAL FREE ENERGY PREDICTED BY IDOCK:   -6.60 KCAL/MOL
REMARK 923 INTER-LIGAND FREE ENERGY PREDICTED BY IDOCK:   -6.12 KCAL/MOL
REMARK 924 INTRA-LIGAND FREE ENERGY PREDICTED BY IDOCK:   -0.48 KCAL/MOL
REMARK 927      BINDING AFFINITY PREDICTED BY RF-SCORE:    0.00 PKD
ROOT
HETATM    1 BR   UNL     1      -6.973   7.914  73.928  1.00  0.00    -0.151 Br 
HETATM    2  C   UNL     2      -8.955   6.422  70.868  1.00  0.00    -0.144 C  
HETATM    3  N   UNL     2      -8.858   7.594  69.835  1.00  0.00    -0.143 N  
HETATM    4  C   UNL     2      -7.798   7.116  68.864  1.00  0.00    -0.115 C  
HETATM    5  C   UNL     2      -8.500   8.907  70.590  1.00  0.00    -0.184 C  
HETATM    6  C   UNL     2      -9.797   9.200  71.370  1.00  0.00    -0.354 C  
HETATM    7  C   UNL     2     -10.917   8.540  70.543  1.00  0.00    -0.263 C  
HETATM    8  C   UNL     2     -10.233   8.012  69.265  1.00  0.00    -0.213 C  
HETATM    9  C   UNL     2     -10.001   9.054  68.140  1.00  0.00    -0.206 C  
HETATM   10  C   UNL     2      -9.361  10.351  68.635  1.00  0.00    -0.167 C  
HETATM   11  C   UNL     2      -8.207  10.041  69.581  1.00  0.00    -0.185 C  
ENDROOT
BRANCH  10  12
HETATM   12  O   UNL     2     -10.323  11.112  69.396  1.00  0.00    -0.173 OA 
BRANCH  12  13
HETATM   13  C   UNL     2     -11.437  11.607  68.781  1.00  0.00    -0.285 C  
HETATM   14  O   UNL     2     -12.513  11.023  68.693  1.00  0.00    -0.462 OA 
BRANCH  13  15
HETATM   15  C   UNL     2     -11.109  13.012  68.222  1.00  0.00    -0.263 C  
HETATM   16  O   UNL     2      -9.819  13.502  68.593  1.00  0.00    -0.329 OA 
HETATM   17  H   UNL     2      -9.618  14.364  68.250  1.00  0.00     0.000 HD 
BRANCH  15  18
HETATM   18  C   UNL     2     -11.287  13.024  66.718  1.00  0.00    -0.365 A  
HETATM   19  C   UNL     2     -12.000  14.089  66.134  1.00  0.00    -0.440 A  
HETATM   20  C   UNL     2     -12.249  14.119  64.777  1.00  0.00    -0.457 A  
HETATM   21  C   UNL     2     -11.797  13.091  63.961  1.00  0.00    -0.510 A  
HETATM   22  C   UNL     2     -11.088  12.021  64.511  1.00  0.00    -0.384 A  
HETATM   23  C   UNL     2     -10.841  11.983  65.885  1.00  0.00    -0.329 A  
ENDBRANCH  15  18
ENDBRANCH  13  15
ENDBRANCH  12  13
ENDBRANCH  10  12
TORSDOF 4
ENDMDL
MODEL       92
REMARK 921   NORMALIZED FREE ENERGY PREDICTED BY IDOCK:   -4.83 KCAL/MOL
REMARK 922        TOTAL FREE ENERGY PREDICTED BY IDOCK:   -6.60 KCAL/MOL
REMARK 923 INTER-LIGAND FREE ENERGY PREDICTED BY IDOCK:   -5.83 KCAL/MOL
REMARK 924 INTRA-LIGAND FREE ENERGY PREDICTED BY IDOCK:   -0.78 KCAL/MOL
REMARK 927      BINDING AFFINITY PREDICTED BY RF-SCORE:    0.00 PKD
ROOT
HETATM    1 BR   UNL     1      -8.162   6.093  65.669  1.00  0.00    -0.146 Br 
HETATM    2  C   UNL     2      -7.206   6.623  69.453  1.00  0.00    -0.090 C  
HETATM    3  N   UNL     2      -8.536   7.217  70.029  1.00  0.00    -0.138 N  
HETATM    4  C   UNL     2      -9.150   6.045  70.766  1.00  0.00    -0.153 C  
HETATM    5  C   UNL     2      -9.396   7.765  68.854  1.00  0.00    -0.146 C  
HETATM    6  C   UNL     2      -8.592   9.004  68.410  1.00  0.00    -0.130 C  
HETATM    7  C   UNL     2      -7.826   9.454  69.669  1.00  0.00    -0.105 C  
HETATM    8  C   UNL     2      -8.322   8.536  70.806  1.00  0.00    -0.139 C  
HETATM    9  C   UNL     2      -9.666   8.939  71.465  1.00  0.00    -0.372 C  
HETATM   10  C   UNL     2     -10.772   9.244  70.456  1.00  0.00    -0.257 C  
HETATM   11  C   UNL     2     -10.795   8.181  69.363  1.00  0.00    -0.096 C  
ENDROOT
BRANCH  10  12
HETATM   12  O   UNL     2     -10.504  10.502  69.800  1.00  0.00    -0.244 OA 
BRANCH  12  13
HETATM   13  C   UNL     2     -11.539  11.248  69.313  1.00  0.00    -0.322 C  
HETATM   14  O   UNL     2     -12.723  10.933  69.365  1.00  0.00    -0.284 OA 
BRANCH  13  15
HETATM   15  C   UNL     2     -10.961  12.542  68.691  1.00  0.00    -0.255 C  
HETATM   16  O   UNL     2      -9.541  12.660  68.799  1.00  0.00    -0.403 OA 
HETATM   17  H   UNL     2      -9.187  13.454  68.417  1.00  0.00     0.000 HD 
BRANCH  15  18
HETATM   18  C   UNL     2     -11.413  12.670  67.251  1.00  0.00    -0.402 A  
HETATM   19  C   UNL     2     -10.930  11.740  66.310  1.00  0.00    -0.346 A  
HETATM   20  C   UNL     2     -11.255  11.846  64.973  1.00  0.00    -0.350 A  
HETATM   21  C   UNL     2     -12.071  12.880  64.533  1.00  0.00    -0.473 A  
HETATM   22  C   UNL     2     -12.564  13.818  65.443  1.00  0.00    -0.534 A  
HETATM   23  C   UNL     2     -12.230  13.718  66.794  1.00  0.00    -0.440 A  
ENDBRANCH  15  18
ENDBRANCH  13  15
ENDBRANCH  12  13
ENDBRANCH  10  12
TORSDOF 4
ENDMDL
MODEL       93
REMARK 921   NORMALIZED FREE ENERGY PREDICTED BY IDOCK:   -4.82 KCAL/MOL
REMARK 922        TOTAL FREE ENERGY PREDICTED BY IDOCK:   -6.59 KCAL/MOL
REMARK 923 INTER-LIGAND FREE ENERGY PREDICTED BY IDOCK:   -5.83 KCAL/MOL
REMARK 924 INTRA-LIGAND FREE ENERGY PREDICTED BY IDOCK:   -0.76 KCAL/MOL
REMARK 927      BINDING AFFINITY PREDICTED BY RF-SCORE:    0.00 PKD
ROOT
HETATM    1 BR   UNL     1      -6.713  10.550  65.510  1.00  0.00    -0.050 Br 
HETATM    2  C   UNL     2     -10.529  10.651  66.479  1.00  0.00    -0.224 C  
HETATM    3  N   UNL     2     -10.883  12.149  66.191  1.00  0.00    -0.271 N  
HETATM    4  C   UNL     2     -11.633  12.083  64.876  1.00  0.00    -0.273 C  
HETATM    5  C   UNL     2      -9.568  12.979  66.145  1.00  0.00    -0.202 C  
HETATM    6  C   UNL     2      -9.127  12.975  67.622  1.00  0.00    -0.198 C  
HETATM    7  C   UNL     2     -10.429  12.805  68.427  1.00  0.00    -0.253 C  
HETATM    8  C   UNL     2     -11.568  12.849  67.387  1.00  0.00    -0.360 C  
HETATM    9  C   UNL     2     -12.019  14.262  66.934  1.00  0.00    -0.467 C  
HETATM   10  C   UNL     2     -10.857  15.176  66.546  1.00  0.00    -0.317 C  
HETATM   11  C   UNL     2      -9.862  14.422  65.672  1.00  0.00    -0.322 C  
ENDROOT
BRANCH  10  12
HETATM   12  O   UNL     2     -10.138  15.583  67.730  1.00  0.00    -0.229 OA 
BRANCH  12  13
HETATM   13  C   UNL     2     -10.154  16.891  68.120  1.00  0.00    -0.299 C  
HETATM   14  O   UNL     2     -11.080  17.673  67.931  1.00  0.00    -0.226 OA 
BRANCH  13  15
HETATM   15  C   UNL     2      -8.816  17.210  68.829  1.00  0.00    -0.235 C  
HETATM   16  O   UNL     2      -8.060  16.055  69.199  1.00  0.00    -0.222 OA 
HETATM   17  H   UNL     2      -7.239  16.251  69.634  1.00  0.00     0.000 HD 
BRANCH  15  18
HETATM   18  C   UNL     2      -7.992  18.154  67.978  1.00  0.00    -0.269 A  
HETATM   19  C   UNL     2      -7.613  17.738  66.687  1.00  0.00    -0.271 A  
HETATM   20  C   UNL     2      -6.808  18.528  65.892  1.00  0.00    -0.318 A  
HETATM   21  C   UNL     2      -6.355  19.755  66.358  1.00  0.00    -0.187 A  
HETATM   22  C   UNL     2      -6.714  20.194  67.635  1.00  0.00    -0.284 A  
HETATM   23  C   UNL     2      -7.521  19.393  68.445  1.00  0.00    -0.355 A  
ENDBRANCH  15  18
ENDBRANCH  13  15
ENDBRANCH  12  13
ENDBRANCH  10  12
TORSDOF 4
ENDMDL
MODEL       94
REMARK 921   NORMALIZED FREE ENERGY PREDICTED BY IDOCK:   -4.81 KCAL/MOL
REMARK 922        TOTAL FREE ENERGY PREDICTED BY IDOCK:   -6.57 KCAL/MOL
REMARK 923 INTER-LIGAND FREE ENERGY PREDICTED BY IDOCK:   -5.72 KCAL/MOL
REMARK 924 INTRA-LIGAND FREE ENERGY PREDICTED BY IDOCK:   -0.85 KCAL/MOL
REMARK 927      BINDING AFFINITY PREDICTED BY RF-SCORE:    0.00 PKD
ROOT
HETATM    1 BR   UNL     1     -13.171  11.236  71.913  1.00  0.00    -0.329 Br 
HETATM    2  C   UNL     2     -11.335   7.828  72.638  1.00  0.00    -0.393 C  
HETATM    3  N   UNL     2      -9.976   8.042  71.890  1.00  0.00    -0.182 N  
HETATM    4  C   UNL     2      -9.004   8.341  73.013  1.00  0.00    -0.241 C  
HETATM    5  C   UNL     2     -10.144   9.192  70.856  1.00  0.00    -0.287 C  
HETATM    6  C   UNL     2     -11.059   8.548  69.795  1.00  0.00    -0.067 C  
HETATM    7  C   UNL     2     -10.784   7.036  69.897  1.00  0.00    -0.265 C  
HETATM    8  C   UNL     2      -9.634   6.891  70.917  1.00  0.00    -0.164 C  
HETATM    9  C   UNL     2      -8.204   7.126  70.364  1.00  0.00    -0.126 C  
HETATM   10  C   UNL     2      -8.074   8.404  69.535  1.00  0.00    -0.113 C  
HETATM   11  C   UNL     2      -8.775   9.560  70.238  1.00  0.00    -0.270 C  
ENDROOT
BRANCH  10  12
HETATM   12  O   UNL     2      -8.737   8.233  68.265  1.00  0.00    -0.135 OA 
BRANCH  12  13
HETATM   13  C   UNL     2      -8.349   8.980  67.190  1.00  0.00    -0.110 C  
HETATM   14  O   UNL     2      -7.366   9.713  67.157  1.00  0.00    -0.087 OA 
BRANCH  13  15
HETATM   15  C   UNL     2      -9.355   8.744  66.038  1.00  0.00    -0.232 C  
HETATM   16  O   UNL     2     -10.389   7.808  66.346  1.00  0.00    -0.487 OA 
HETATM   17  H   UNL     2     -11.006   7.663  65.639  1.00  0.00     0.000 HD 
BRANCH  15  18
HETATM   18  C   UNL     2      -9.934  10.066  65.578  1.00  0.00    -0.367 A  
HETATM   19  C   UNL     2     -10.650  10.847  66.507  1.00  0.00    -0.295 A  
HETATM   20  C   UNL     2     -11.254  12.028  66.129  1.00  0.00    -0.394 A  
HETATM   21  C   UNL     2     -11.165  12.468  64.815  1.00  0.00    -0.344 A  
HETATM   22  C   UNL     2     -10.464  11.715  63.871  1.00  0.00    -0.433 A  
HETATM   23  C   UNL     2      -9.857  10.516  64.248  1.00  0.00    -0.402 A  
ENDBRANCH  15  18
ENDBRANCH  13  15
ENDBRANCH  12  13
ENDBRANCH  10  12
TORSDOF 4
ENDMDL
MODEL       95
REMARK 921   NORMALIZED FREE ENERGY PREDICTED BY IDOCK:   -4.81 KCAL/MOL
REMARK 922        TOTAL FREE ENERGY PREDICTED BY IDOCK:   -6.57 KCAL/MOL
REMARK 923 INTER-LIGAND FREE ENERGY PREDICTED BY IDOCK:   -6.08 KCAL/MOL
REMARK 924 INTRA-LIGAND FREE ENERGY PREDICTED BY IDOCK:   -0.49 KCAL/MOL
REMARK 927      BINDING AFFINITY PREDICTED BY RF-SCORE:    0.00 PKD
ROOT
HETATM    1 BR   UNL     1      -6.300  10.666  65.756  1.00  0.00    -0.088 Br 
HETATM    2  C   UNL     2      -9.927  11.787  64.705  1.00  0.00    -0.243 C  
HETATM    3  N   UNL     2     -10.334  12.694  65.915  1.00  0.00    -0.271 N  
HETATM    4  C   UNL     2     -10.177  14.098  65.366  1.00  0.00    -0.358 C  
HETATM    5  C   UNL     2      -9.413  12.366  67.126  1.00  0.00    -0.198 C  
HETATM    6  C   UNL     2      -9.896  10.959  67.532  1.00  0.00    -0.192 C  
HETATM    7  C   UNL     2     -11.363  10.892  67.068  1.00  0.00    -0.105 C  
HETATM    8  C   UNL     2     -11.694  12.301  66.534  1.00  0.00    -0.352 C  
HETATM    9  C   UNL     2     -12.070  13.360  67.604  1.00  0.00    -0.311 C  
HETATM   10  C   UNL     2     -11.094  13.410  68.779  1.00  0.00    -0.262 C  
HETATM   11  C   UNL     2      -9.657  13.375  68.272  1.00  0.00    -0.220 C  
ENDROOT
BRANCH  10  12
HETATM   12  O   UNL     2     -11.266  12.241  69.608  1.00  0.00    -0.173 OA 
BRANCH  12  13
HETATM   13  C   UNL     2     -12.104  12.290  70.685  1.00  0.00    -0.237 C  
HETATM   14  O   UNL     2     -12.233  13.250  71.438  1.00  0.00    -0.184 OA 
BRANCH  13  15
HETATM   15  C   UNL     2     -12.850  10.938  70.789  1.00  0.00    -0.289 C  
HETATM   16  O   UNL     2     -13.497  10.532  69.582  1.00  0.00    -0.287 OA 
HETATM   17  H   UNL     2     -13.955   9.702  69.646  1.00  0.00     0.000 HD 
BRANCH  15  18
HETATM   18  C   UNL     2     -11.906   9.864  71.291  1.00  0.00    -0.479 A  
HETATM   19  C   UNL     2     -12.403   8.899  72.189  1.00  0.00    -0.449 A  
HETATM   20  C   UNL     2     -11.574   7.937  72.730  1.00  0.00    -0.387 A  
HETATM   21  C   UNL     2     -10.227   7.907  72.394  1.00  0.00    -0.327 A  
HETATM   22  C   UNL     2      -9.706   8.852  71.507  1.00  0.00    -0.372 A  
HETATM   23  C   UNL     2     -10.539   9.831  70.965  1.00  0.00    -0.295 A  
ENDBRANCH  15  18
ENDBRANCH  13  15
ENDBRANCH  12  13
ENDBRANCH  10  12
TORSDOF 4
ENDMDL
MODEL       96
REMARK 921   NORMALIZED FREE ENERGY PREDICTED BY IDOCK:   -4.78 KCAL/MOL
REMARK 922        TOTAL FREE ENERGY PREDICTED BY IDOCK:   -6.54 KCAL/MOL
REMARK 923 INTER-LIGAND FREE ENERGY PREDICTED BY IDOCK:   -5.68 KCAL/MOL
REMARK 924 INTRA-LIGAND FREE ENERGY PREDICTED BY IDOCK:   -0.86 KCAL/MOL
REMARK 927      BINDING AFFINITY PREDICTED BY RF-SCORE:    0.00 PKD
ROOT
HETATM    1 BR   UNL     1     -11.756  12.652  64.476  1.00  0.00    -0.449 Br 
HETATM    2  C   UNL     2      -9.254  12.408  67.508  1.00  0.00    -0.183 C  
HETATM    3  N   UNL     2      -9.025  10.861  67.598  1.00  0.00    -0.140 N  
HETATM    4  C   UNL     2      -7.656  10.676  66.975  1.00  0.00    -0.110 C  
HETATM    5  C   UNL     2     -10.180  10.135  66.850  1.00  0.00    -0.236 C  
HETATM    6  C   UNL     2     -11.383  10.390  67.780  1.00  0.00    -0.205 C  
HETATM    7  C   UNL     2     -10.771  10.579  69.181  1.00  0.00    -0.266 C  
HETATM    8  C   UNL     2      -9.263  10.297  69.016  1.00  0.00    -0.183 C  
HETATM    9  C   UNL     2      -8.849   8.802  69.024  1.00  0.00    -0.137 C  
HETATM   10  C   UNL     2      -9.697   7.930  68.098  1.00  0.00    -0.159 C  
HETATM   11  C   UNL     2      -9.884   8.620  66.752  1.00  0.00    -0.322 C  
ENDROOT
BRANCH  10  12
HETATM   12  O   UNL     2     -11.016   7.759  68.659  1.00  0.00    -0.018 OA 
BRANCH  12  13
HETATM   13  C   UNL     2     -11.222   6.830  69.639  1.00  0.00    -0.292 C  
HETATM   14  O   UNL     2     -10.952   5.637  69.549  1.00  0.00    -0.334 OA 
BRANCH  13  15
HETATM   15  C   UNL     2     -11.851   7.537  70.863  1.00  0.00    -0.267 C  
HETATM   16  O   UNL     2     -13.243   7.270  71.042  1.00  0.00    -0.584 OA 
HETATM   17  H   UNL     2     -13.628   7.704  71.794  1.00  0.00     0.000 HD 
BRANCH  15  18
HETATM   18  C   UNL     2     -11.064   7.203  72.113  1.00  0.00    -0.282 A  
HETATM   19  C   UNL     2     -10.011   8.058  72.493  1.00  0.00    -0.338 A  
HETATM   20  C   UNL     2      -9.218   7.769  73.585  1.00  0.00    -0.344 A  
HETATM   21  C   UNL     2      -9.449   6.621  74.332  1.00  0.00    -0.279 A  
HETATM   22  C   UNL     2     -10.486   5.754  73.978  1.00  0.00    -0.286 A  
HETATM   23  C   UNL     2     -11.284   6.039  72.869  1.00  0.00    -0.265 A  
ENDBRANCH  15  18
ENDBRANCH  13  15
ENDBRANCH  12  13
ENDBRANCH  10  12
TORSDOF 4
ENDMDL
MODEL       97
REMARK 921   NORMALIZED FREE ENERGY PREDICTED BY IDOCK:   -4.77 KCAL/MOL
REMARK 922        TOTAL FREE ENERGY PREDICTED BY IDOCK:   -6.52 KCAL/MOL
REMARK 923 INTER-LIGAND FREE ENERGY PREDICTED BY IDOCK:   -6.03 KCAL/MOL
REMARK 924 INTRA-LIGAND FREE ENERGY PREDICTED BY IDOCK:   -0.48 KCAL/MOL
REMARK 927      BINDING AFFINITY PREDICTED BY RF-SCORE:    0.00 PKD
ROOT
HETATM    1 BR   UNL     1      -9.483   9.723  64.798  1.00  0.00    -0.256 Br 
HETATM    2  C   UNL     2     -10.681  11.616  68.037  1.00  0.00    -0.208 C  
HETATM    3  N   UNL     2     -10.570  13.110  67.582  1.00  0.00    -0.226 N  
HETATM    4  C   UNL     2     -12.009  13.499  67.311  1.00  0.00    -0.365 C  
HETATM    5  C   UNL     2      -9.632  13.194  66.344  1.00  0.00    -0.255 C  
HETATM    6  C   UNL     2      -8.252  12.884  66.957  1.00  0.00    -0.086 C  
HETATM    7  C   UNL     2      -8.362  13.323  68.429  1.00  0.00    -0.131 C  
HETATM    8  C   UNL     2      -9.752  13.981  68.563  1.00  0.00    -0.215 C  
HETATM    9  C   UNL     2      -9.849  15.459  68.103  1.00  0.00    -0.213 C  
HETATM   10  C   UNL     2      -9.228  15.711  66.729  1.00  0.00    -0.251 C  
HETATM   11  C   UNL     2      -9.654  14.622  65.751  1.00  0.00    -0.266 C  
ENDROOT
BRANCH  10  12
HETATM   12  O   UNL     2      -7.789  15.641  66.821  1.00  0.00    -0.228 OA 
BRANCH  12  13
HETATM   13  C   UNL     2      -7.114  16.536  67.600  1.00  0.00    -0.133 C  
HETATM   14  O   UNL     2      -6.590  16.279  68.679  1.00  0.00    -0.127 OA 
BRANCH  13  15
HETATM   15  C   UNL     2      -7.129  17.912  66.894  1.00  0.00    -0.183 C  
HETATM   16  O   UNL     2      -6.970  17.844  65.476  1.00  0.00    -0.456 OA 
HETATM   17  H   UNL     2      -6.978  18.689  65.042  1.00  0.00     0.000 HD 
BRANCH  15  18
HETATM   18  C   UNL     2      -8.385  18.672  67.267  1.00  0.00    -0.270 A  
HETATM   19  C   UNL     2      -9.157  19.243  66.236  1.00  0.00    -0.354 A  
HETATM   20  C   UNL     2     -10.275  20.000  66.520  1.00  0.00    -0.598 A  
HETATM   21  C   UNL     2     -10.658  20.213  67.838  1.00  0.00    -0.314 A  
HETATM   22  C   UNL     2      -9.912  19.660  68.881  1.00  0.00    -0.524 A  
HETATM   23  C   UNL     2      -8.776  18.900  68.598  1.00  0.00    -0.374 A  
ENDBRANCH  15  18
ENDBRANCH  13  15
ENDBRANCH  12  13
ENDBRANCH  10  12
TORSDOF 4
ENDMDL
MODEL       98
REMARK 921   NORMALIZED FREE ENERGY PREDICTED BY IDOCK:   -4.75 KCAL/MOL
REMARK 922        TOTAL FREE ENERGY PREDICTED BY IDOCK:   -6.50 KCAL/MOL
REMARK 923 INTER-LIGAND FREE ENERGY PREDICTED BY IDOCK:   -5.50 KCAL/MOL
REMARK 924 INTRA-LIGAND FREE ENERGY PREDICTED BY IDOCK:   -1.00 KCAL/MOL
REMARK 927      BINDING AFFINITY PREDICTED BY RF-SCORE:    0.00 PKD
ROOT
HETATM    1 BR   UNL     1      -5.886   7.787  65.508  1.00  0.00    -0.038 Br 
HETATM    2  C   UNL     2      -7.512   8.900  68.918  1.00  0.00    -0.082 C  
HETATM    3  N   UNL     2      -8.959   9.287  68.461  1.00  0.00    -0.129 N  
HETATM    4  C   UNL     2      -9.793   8.105  68.912  1.00  0.00    -0.176 C  
HETATM    5  C   UNL     2      -8.956   9.528  66.924  1.00  0.00    -0.131 C  
HETATM    6  C   UNL     2      -8.159  10.842  66.800  1.00  0.00    -0.142 C  
HETATM    7  C   UNL     2      -8.373  11.565  68.144  1.00  0.00    -0.152 C  
HETATM    8  C   UNL     2      -9.382  10.699  68.925  1.00  0.00    -0.184 C  
HETATM    9  C   UNL     2     -10.876  10.905  68.564  1.00  0.00    -0.262 C  
HETATM   10  C   UNL     2     -11.147  10.880  67.060  1.00  0.00    -0.202 C  
HETATM   11  C   UNL     2     -10.401   9.720  66.410  1.00  0.00    -0.247 C  
ENDROOT
BRANCH  10  12
HETATM   12  O   UNL     2     -10.642  12.087  66.450  1.00  0.00    -0.230 OA 
BRANCH  12  13
HETATM   13  C   UNL     2     -11.469  12.863  65.690  1.00  0.00    -0.332 C  
HETATM   14  O   UNL     2     -12.619  12.572  65.376  1.00  0.00    -0.656 OA 
BRANCH  13  15
HETATM   15  C   UNL     2     -10.711  14.153  65.298  1.00  0.00    -0.364 C  
HETATM   16  O   UNL     2     -11.422  14.997  64.392  1.00  0.00    -0.603 OA 
HETATM   17  H   UNL     2     -10.956  15.789  64.151  1.00  0.00     0.000 HD 
BRANCH  15  18
HETATM   18  C   UNL     2     -10.300  14.910  66.544  1.00  0.00    -0.295 A  
HETATM   19  C   UNL     2      -8.927  15.090  66.800  1.00  0.00    -0.293 A  
HETATM   20  C   UNL     2      -8.493  15.714  67.952  1.00  0.00    -0.153 A  
HETATM   21  C   UNL     2      -9.413  16.179  68.883  1.00  0.00    -0.244 A  
HETATM   22  C   UNL     2     -10.781  16.014  68.657  1.00  0.00    -0.281 A  
HETATM   23  C   UNL     2     -11.223  15.375  67.497  1.00  0.00    -0.302 A  
ENDBRANCH  15  18
ENDBRANCH  13  15
ENDBRANCH  12  13
ENDBRANCH  10  12
TORSDOF 4
ENDMDL
MODEL       99
REMARK 921   NORMALIZED FREE ENERGY PREDICTED BY IDOCK:   -4.72 KCAL/MOL
REMARK 922        TOTAL FREE ENERGY PREDICTED BY IDOCK:   -6.46 KCAL/MOL
REMARK 923 INTER-LIGAND FREE ENERGY PREDICTED BY IDOCK:   -5.82 KCAL/MOL
REMARK 924 INTRA-LIGAND FREE ENERGY PREDICTED BY IDOCK:   -0.64 KCAL/MOL
REMARK 927      BINDING AFFINITY PREDICTED BY RF-SCORE:    0.00 PKD
ROOT
HETATM    1 BR   UNL     1     -11.430  15.867  69.588  1.00  0.00    -0.343 Br 
HETATM    2  C   UNL     2     -10.431  14.388  66.076  1.00  0.00    -0.301 C  
HETATM    3  N   UNL     2     -10.816  12.881  66.253  1.00  0.00    -0.272 N  
HETATM    4  C   UNL     2     -12.116  12.762  65.483  1.00  0.00    -0.465 C  
HETATM    5  C   UNL     2     -10.933  12.563  67.772  1.00  0.00    -0.234 C  
HETATM    6  C   UNL     2      -9.463  12.631  68.234  1.00  0.00    -0.203 C  
HETATM    7  C   UNL     2      -8.635  12.290  66.981  1.00  0.00    -0.191 C  
HETATM    8  C   UNL     2      -9.664  11.916  65.893  1.00  0.00    -0.238 C  
HETATM    9  C   UNL     2     -10.207  10.464  65.944  1.00  0.00    -0.302 C  
HETATM   10  C   UNL     2     -10.669  10.036  67.336  1.00  0.00    -0.274 C  
HETATM   11  C   UNL     2     -11.500  11.140  67.979  1.00  0.00    -0.366 C  
ENDROOT
BRANCH  10  12
HETATM   12  O   UNL     2      -9.523   9.834  68.191  1.00  0.00    -0.135 OA 
BRANCH  12  13
HETATM   13  C   UNL     2      -9.667   9.169  69.375  1.00  0.00    -0.170 C  
HETATM   14  O   UNL     2      -9.489   9.658  70.486  1.00  0.00    -0.256 OA 
BRANCH  13  15
HETATM   15  C   UNL     2     -10.085   7.710  69.072  1.00  0.00    -0.198 C  
HETATM   16  O   UNL     2      -9.079   6.937  68.415  1.00  0.00    -0.128 OA 
HETATM   17  H   UNL     2      -9.335   6.042  68.229  1.00  0.00     0.000 HD 
BRANCH  15  18
HETATM   18  C   UNL     2     -10.553   7.032  70.343  1.00  0.00    -0.244 A  
HETATM   19  C   UNL     2      -9.707   6.082  70.949  1.00  0.00    -0.207 A  
HETATM   20  C   UNL     2     -10.107   5.385  72.071  1.00  0.00    -0.240 A  
HETATM   21  C   UNL     2     -11.361   5.612  72.623  1.00  0.00    -0.356 A  
HETATM   22  C   UNL     2     -12.222   6.546  72.043  1.00  0.00    -0.343 A  
HETATM   23  C   UNL     2     -11.824   7.247  70.904  1.00  0.00    -0.351 A  
ENDBRANCH  15  18
ENDBRANCH  13  15
ENDBRANCH  12  13
ENDBRANCH  10  12
TORSDOF 4
ENDMDL
MODEL      100
REMARK 921   NORMALIZED FREE ENERGY PREDICTED BY IDOCK:   -4.72 KCAL/MOL
REMARK 922        TOTAL FREE ENERGY PREDICTED BY IDOCK:   -6.46 KCAL/MOL
REMARK 923 INTER-LIGAND FREE ENERGY PREDICTED BY IDOCK:   -5.68 KCAL/MOL
REMARK 924 INTRA-LIGAND FREE ENERGY PREDICTED BY IDOCK:   -0.77 KCAL/MOL
REMARK 927      BINDING AFFINITY PREDICTED BY RF-SCORE:    0.00 PKD
ROOT
HETATM    1 BR   UNL     1      -7.190   4.152  69.948  1.00  0.00    -0.046 Br 
HETATM    2  C   UNL     2      -9.024   5.769  73.037  1.00  0.00    -0.122 C  
HETATM    3  N   UNL     2     -10.206   6.521  72.337  1.00  0.00    -0.183 N  
HETATM    4  C   UNL     2     -11.398   5.626  72.610  1.00  0.00    -0.305 C  
HETATM    5  C   UNL     2      -9.867   6.706  70.830  1.00  0.00    -0.183 C  
HETATM    6  C   UNL     2      -8.732   7.749  70.875  1.00  0.00    -0.137 C  
HETATM    7  C   UNL     2      -8.973   8.543  72.173  1.00  0.00    -0.300 C  
HETATM    8  C   UNL     2     -10.302   8.008  72.746  1.00  0.00    -0.339 C  
HETATM    9  C   UNL     2     -11.595   8.603  72.128  1.00  0.00    -0.440 C  
HETATM   10  C   UNL     2     -11.593   8.607  70.600  1.00  0.00    -0.200 C  
HETATM   11  C   UNL     2     -11.090   7.269  70.071  1.00  0.00    -0.262 C  
ENDROOT
BRANCH  10  12
HETATM   12  O   UNL     2     -10.677   9.611  70.114  1.00  0.00    -0.234 OA 
BRANCH  12  13
HETATM   13  C   UNL     2     -11.136  10.621  69.317  1.00  0.00    -0.252 C  
HETATM   14  O   UNL     2     -12.316  10.926  69.172  1.00  0.00    -0.435 OA 
BRANCH  13  15
HETATM   15  C   UNL     2      -9.924  11.300  68.636  1.00  0.00    -0.204 C  
HETATM   16  O   UNL     2      -8.680  11.082  69.303  1.00  0.00    -0.364 OA 
HETATM   17  H   UNL     2      -7.936  11.499  68.886  1.00  0.00     0.000 HD 
BRANCH  15  18
HETATM   18  C   UNL     2      -9.846  10.881  67.182  1.00  0.00    -0.213 A  
HETATM   19  C   UNL     2     -10.414  11.725  66.208  1.00  0.00    -0.281 A  
HETATM   20  C   UNL     2     -10.430  11.364  64.876  1.00  0.00    -0.363 A  
HETATM   21  C   UNL     2      -9.883  10.153  64.474  1.00  0.00    -0.334 A  
HETATM   22  C   UNL     2      -9.314   9.295  65.417  1.00  0.00    -0.292 A  
HETATM   23  C   UNL     2      -9.302   9.653  66.767  1.00  0.00    -0.193 A  
ENDBRANCH  15  18
ENDBRANCH  13  15
ENDBRANCH  12  13
ENDBRANCH  10  12
TORSDOF 4
ENDMDL
MODEL      101
REMARK 921   NORMALIZED FREE ENERGY PREDICTED BY IDOCK:   -4.71 KCAL/MOL
REMARK 922        TOTAL FREE ENERGY PREDICTED BY IDOCK:   -6.45 KCAL/MOL
REMARK 923 INTER-LIGAND FREE ENERGY PREDICTED BY IDOCK:   -5.77 KCAL/MOL
REMARK 924 INTRA-LIGAND FREE ENERGY PREDICTED BY IDOCK:   -0.69 KCAL/MOL
REMARK 927      BINDING AFFINITY PREDICTED BY RF-SCORE:    0.00 PKD
ROOT
HETATM    1 BR   UNL     1     -12.458  12.000  63.117  1.00  0.00    -0.131 Br 
HETATM    2  C   UNL     2      -9.656  11.008  65.701  1.00  0.00    -0.226 C  
HETATM    3  N   UNL     2     -10.269  11.537  67.041  1.00  0.00    -0.209 N  
HETATM    4  C   UNL     2     -10.772  10.276  67.715  1.00  0.00    -0.275 C  
HETATM    5  C   UNL     2     -11.375  12.582  66.715  1.00  0.00    -0.334 C  
HETATM    6  C   UNL     2     -10.553  13.773  66.182  1.00  0.00    -0.291 C  
HETATM    7  C   UNL     2      -9.171  13.633  66.849  1.00  0.00    -0.257 C  
HETATM    8  C   UNL     2      -9.302  12.449  67.830  1.00  0.00    -0.196 C  
HETATM    9  C   UNL     2      -9.945  12.773  69.203  1.00  0.00     0.385 C  
HETATM   10  C   UNL     2     -11.245  13.568  69.094  1.00  0.00    -0.260 C  
HETATM   11  C   UNL     2     -12.132  12.979  68.003  1.00  0.00    -0.220 C  
ENDROOT
BRANCH  10  12
HETATM   12  O   UNL     2     -10.957  14.927  68.700  1.00  0.00    -0.240 OA 
BRANCH  12  13
HETATM   13  C   UNL     2     -11.083  15.939  69.608  1.00  0.00    -0.320 C  
HETATM   14  O   UNL     2     -12.050  16.114  70.341  1.00  0.00    -0.247 OA 
BRANCH  13  15
HETATM   15  C   UNL     2      -9.809  16.816  69.546  1.00  0.00     0.004 C  
HETATM   16  O   UNL     2      -8.609  16.086  69.287  1.00  0.00    -0.251 OA 
HETATM   17  H   UNL     2      -7.827  16.624  69.250  1.00  0.00     0.000 HD 
BRANCH  15  18
HETATM   18  C   UNL     2      -9.998  17.932  68.540  1.00  0.00    -0.379 A  
HETATM   19  C   UNL     2     -10.430  17.601  67.241  1.00  0.00    -0.338 A  
HETATM   20  C   UNL     2     -10.557  18.568  66.265  1.00  0.00    -0.370 A  
HETATM   21  C   UNL     2     -10.258  19.894  66.552  1.00  0.00    -0.611 A  
HETATM   22  C   UNL     2      -9.826  20.252  67.831  1.00  0.00    -0.492 A  
HETATM   23  C   UNL     2      -9.689  19.275  68.819  1.00  0.00    -0.510 A  
ENDBRANCH  15  18
ENDBRANCH  13  15
ENDBRANCH  12  13
ENDBRANCH  10  12
TORSDOF 4
ENDMDL
MODEL      102
REMARK 921   NORMALIZED FREE ENERGY PREDICTED BY IDOCK:   -4.69 KCAL/MOL
REMARK 922        TOTAL FREE ENERGY PREDICTED BY IDOCK:   -6.42 KCAL/MOL
REMARK 923 INTER-LIGAND FREE ENERGY PREDICTED BY IDOCK:   -5.78 KCAL/MOL
REMARK 924 INTRA-LIGAND FREE ENERGY PREDICTED BY IDOCK:   -0.64 KCAL/MOL
REMARK 927      BINDING AFFINITY PREDICTED BY RF-SCORE:    0.00 PKD
ROOT
HETATM    1 BR   UNL     1     -10.622  12.150  63.903  1.00  0.00    -0.510 Br 
HETATM    2  C   UNL     2      -7.494  10.063  65.074  1.00  0.00    -0.139 C  
HETATM    3  N   UNL     2      -8.169   8.966  65.964  1.00  0.00    -0.114 N  
HETATM    4  C   UNL     2      -8.151   7.738  65.077  1.00  0.00    -0.139 C  
HETATM    5  C   UNL     2      -9.591   9.449  66.372  1.00  0.00    -0.224 C  
HETATM    6  C   UNL     2      -9.278  10.593  67.358  1.00  0.00    -0.153 C  
HETATM    7  C   UNL     2      -7.897  10.245  67.946  1.00  0.00    -0.101 C  
HETATM    8  C   UNL     2      -7.539   8.858  67.371  1.00  0.00    -0.089 C  
HETATM    9  C   UNL     2      -8.168   7.641  68.098  1.00  0.00    -0.124 C  
HETATM   10  C   UNL     2      -9.670   7.787  68.341  1.00  0.00    -0.159 C  
HETATM   11  C   UNL     2     -10.358   8.313  67.087  1.00  0.00    -0.387 C  
ENDROOT
BRANCH  10  12
HETATM   12  O   UNL     2      -9.905   8.762  69.379  1.00  0.00    -0.179 OA 
BRANCH  12  13
HETATM   13  C   UNL     2      -9.511   8.500  70.660  1.00  0.00    -0.174 C  
HETATM   14  O   UNL     2      -8.618   9.091  71.259  1.00  0.00    -0.212 OA 
BRANCH  13  15
HETATM   15  C   UNL     2     -10.375   7.342  71.214  1.00  0.00    -0.192 C  
HETATM   16  O   UNL     2      -9.830   6.708  72.372  1.00  0.00    -0.160 OA 
HETATM   17  H   UNL     2     -10.360   5.997  72.712  1.00  0.00     0.000 HD 
BRANCH  15  18
HETATM   18  C   UNL     2     -11.787   7.827  71.468  1.00  0.00    -0.324 A  
HETATM   19  C   UNL     2     -11.974   9.150  71.915  1.00  0.00    -0.443 A  
HETATM   20  C   UNL     2     -13.231   9.625  72.226  1.00  0.00    -0.492 A  
HETATM   21  C   UNL     2     -14.341   8.799  72.101  1.00  0.00    -0.481 A  
HETATM   22  C   UNL     2     -14.186   7.482  71.662  1.00  0.00    -0.592 A  
HETATM   23  C   UNL     2     -12.915   6.995  71.355  1.00  0.00    -0.395 A  
ENDBRANCH  15  18
ENDBRANCH  13  15
ENDBRANCH  12  13
ENDBRANCH  10  12
TORSDOF 4
ENDMDL
MODEL      103
REMARK 921   NORMALIZED FREE ENERGY PREDICTED BY IDOCK:   -4.67 KCAL/MOL
REMARK 922        TOTAL FREE ENERGY PREDICTED BY IDOCK:   -6.40 KCAL/MOL
REMARK 923 INTER-LIGAND FREE ENERGY PREDICTED BY IDOCK:   -5.59 KCAL/MOL
REMARK 924 INTRA-LIGAND FREE ENERGY PREDICTED BY IDOCK:   -0.80 KCAL/MOL
REMARK 927      BINDING AFFINITY PREDICTED BY RF-SCORE:    0.00 PKD
ROOT
HETATM    1 BR   UNL     1      -7.183   8.120  70.975  1.00  0.00    -0.062 Br 
HETATM    2  C   UNL     2      -8.620   7.090  67.455  1.00  0.00    -0.121 C  
HETATM    3  N   UNL     2      -8.450   8.421  66.649  1.00  0.00    -0.109 N  
HETATM    4  C   UNL     2      -7.236   8.151  65.783  1.00  0.00    -0.068 C  
HETATM    5  C   UNL     2      -8.281   9.601  67.650  1.00  0.00    -0.114 C  
HETATM    6  C   UNL     2      -9.691   9.712  68.265  1.00  0.00    -0.162 C  
HETATM    7  C   UNL     2     -10.641   9.161  67.186  1.00  0.00    -0.286 C  
HETATM    8  C   UNL     2      -9.753   8.879  65.955  1.00  0.00    -0.238 C  
HETATM    9  C   UNL     2      -9.428  10.102  65.060  1.00  0.00    -0.330 C  
HETATM   10  C   UNL     2      -8.943  11.320  65.846  1.00  0.00    -0.197 C  
HETATM   11  C   UNL     2      -7.918  10.898  66.891  1.00  0.00    -0.138 C  
ENDROOT
BRANCH  10  12
HETATM   12  O   UNL     2     -10.047  11.908  66.567  1.00  0.00    -0.199 OA 
BRANCH  12  13
HETATM   13  C   UNL     2     -11.061  12.515  65.882  1.00  0.00    -0.299 C  
HETATM   14  O   UNL     2     -12.213  12.099  65.811  1.00  0.00    -0.586 OA 
BRANCH  13  15
HETATM   15  C   UNL     2     -10.507  13.798  65.218  1.00  0.00    -0.363 C  
HETATM   16  O   UNL     2     -11.377  14.374  64.242  1.00  0.00    -0.589 OA 
HETATM   17  H   UNL     2     -11.037  15.161  63.835  1.00  0.00     0.000 HD 
BRANCH  15  18
HETATM   18  C   UNL     2     -10.133  14.810  66.282  1.00  0.00    -0.299 A  
HETATM   19  C   UNL     2     -11.124  15.223  67.195  1.00  0.00    -0.323 A  
HETATM   20  C   UNL     2     -10.858  16.190  68.143  1.00  0.00    -0.329 A  
HETATM   21  C   UNL     2      -9.600  16.775  68.211  1.00  0.00    -0.244 A  
HETATM   22  C   UNL     2      -8.599  16.386  67.319  1.00  0.00    -0.200 A  
HETATM   23  C   UNL     2      -8.866  15.414  66.353  1.00  0.00    -0.340 A  
ENDBRANCH  15  18
ENDBRANCH  13  15
ENDBRANCH  12  13
ENDBRANCH  10  12
TORSDOF 4
ENDMDL
MODEL      104
REMARK 921   NORMALIZED FREE ENERGY PREDICTED BY IDOCK:   -4.64 KCAL/MOL
REMARK 922        TOTAL FREE ENERGY PREDICTED BY IDOCK:   -6.37 KCAL/MOL
REMARK 923 INTER-LIGAND FREE ENERGY PREDICTED BY IDOCK:   -5.70 KCAL/MOL
REMARK 924 INTRA-LIGAND FREE ENERGY PREDICTED BY IDOCK:   -0.67 KCAL/MOL
REMARK 927      BINDING AFFINITY PREDICTED BY RF-SCORE:    0.00 PKD
ROOT
HETATM    1 BR   UNL     1      -8.402   4.498  66.537  1.00  0.00    -0.105 Br 
HETATM    2  C   UNL     2      -6.684   7.792  65.228  1.00  0.00    -0.047 C  
HETATM    3  N   UNL     2      -7.148   8.832  66.303  1.00  0.00    -0.081 N  
HETATM    4  C   UNL     2      -5.917   9.013  67.166  1.00  0.00    -0.057 C  
HETATM    5  C   UNL     2      -8.388   8.265  67.053  1.00  0.00    -0.122 C  
HETATM    6  C   UNL     2      -9.484   8.330  65.970  1.00  0.00    -0.189 C  
HETATM    7  C   UNL     2      -9.048   9.470  65.030  1.00  0.00    -0.281 C  
HETATM    8  C   UNL     2      -7.796  10.091  65.684  1.00  0.00    -0.138 C  
HETATM    9  C   UNL     2      -8.062  11.114  66.820  1.00  0.00    -0.155 C  
HETATM   10  C   UNL     2      -9.063  10.618  67.863  1.00  0.00    -0.145 C  
HETATM   11  C   UNL     2      -8.753   9.177  68.248  1.00  0.00    -0.129 C  
ENDROOT
BRANCH  10  12
HETATM   12  O   UNL     2     -10.393  10.617  67.302  1.00  0.00    -0.198 OA 
BRANCH  12  13
HETATM   13  C   UNL     2     -11.164  11.741  67.378  1.00  0.00    -0.297 C  
HETATM   14  O   UNL     2     -12.062  12.036  66.596  1.00  0.00    -0.615 OA 
BRANCH  13  15
HETATM   15  C   UNL     2     -10.711  12.567  68.606  1.00  0.00    -0.234 C  
HETATM   16  O   UNL     2     -10.531  13.959  68.340  1.00  0.00    -0.235 OA 
HETATM   17  H   UNL     2     -10.252  14.465  69.094  1.00  0.00     0.000 HD 
BRANCH  15  18
HETATM   18  C   UNL     2     -11.669  12.349  69.758  1.00  0.00    -0.361 A  
HETATM   19  C   UNL     2     -12.250  13.476  70.372  1.00  0.00    -0.426 A  
HETATM   20  C   UNL     2     -13.079  13.342  71.467  1.00  0.00    -0.427 A  
HETATM   21  C   UNL     2     -13.354  12.083  71.984  1.00  0.00    -0.447 A  
HETATM   22  C   UNL     2     -12.792  10.947  71.398  1.00  0.00    -0.554 A  
HETATM   23  C   UNL     2     -11.947  11.080  70.295  1.00  0.00    -0.452 A  
ENDBRANCH  15  18
ENDBRANCH  13  15
ENDBRANCH  12  13
ENDBRANCH  10  12
TORSDOF 4
ENDMDL
MODEL      105
REMARK 921   NORMALIZED FREE ENERGY PREDICTED BY IDOCK:   -4.63 KCAL/MOL
REMARK 922        TOTAL FREE ENERGY PREDICTED BY IDOCK:   -6.35 KCAL/MOL
REMARK 923 INTER-LIGAND FREE ENERGY PREDICTED BY IDOCK:   -5.75 KCAL/MOL
REMARK 924 INTRA-LIGAND FREE ENERGY PREDICTED BY IDOCK:   -0.60 KCAL/MOL
REMARK 927      BINDING AFFINITY PREDICTED BY RF-SCORE:    0.00 PKD
ROOT
HETATM    1 BR   UNL     1     -12.600  15.416  70.610  1.00  0.00    -0.490 Br 
HETATM    2  C   UNL     2     -10.618  15.626  67.213  1.00  0.00    -0.305 C  
HETATM    3  N   UNL     2     -10.974  14.248  66.560  1.00  0.00    -0.311 N  
HETATM    4  C   UNL     2     -12.007  14.615  65.514  1.00  0.00    -0.256 C  
HETATM    5  C   UNL     2     -11.487  13.282  67.666  1.00  0.00    -0.321 C  
HETATM    6  C   UNL     2     -10.204  12.995  68.472  1.00  0.00    -0.218 C  
HETATM    7  C   UNL     2      -9.051  13.192  67.468  1.00  0.00    -0.205 C  
HETATM    8  C   UNL     2      -9.727  13.454  66.106  1.00  0.00    -0.250 C  
HETATM    9  C   UNL     2     -10.202  12.197  65.332  1.00  0.00    -0.299 C  
HETATM   10  C   UNL     2     -11.008  11.222  66.190  1.00  0.00    -0.191 C  
HETATM   11  C   UNL     2     -12.029  11.980  67.030  1.00  0.00    -0.099 C  
ENDROOT
BRANCH  10  12
HETATM   12  O   UNL     2     -10.132  10.547  67.117  1.00  0.00    -0.192 OA 
BRANCH  12  13
HETATM   13  C   UNL     2     -10.451   9.298  67.566  1.00  0.00    -0.274 C  
HETATM   14  O   UNL     2     -10.570   8.302  66.860  1.00  0.00    -0.321 OA 
BRANCH  13  15
HETATM   15  C   UNL     2     -10.637   9.359  69.101  1.00  0.00    -0.218 C  
HETATM   16  O   UNL     2     -11.930   9.801  69.517  1.00  0.00    -0.446 OA 
HETATM   17  H   UNL     2     -12.044   9.839  70.459  1.00  0.00     0.000 HD 
BRANCH  15  18
HETATM   18  C   UNL     2     -10.293   8.019  69.718  1.00  0.00    -0.219 A  
HETATM   19  C   UNL     2     -11.326   7.264  70.306  1.00  0.00    -0.266 A  
HETATM   20  C   UNL     2     -11.061   6.067  70.940  1.00  0.00    -0.352 A  
HETATM   21  C   UNL     2      -9.761   5.586  71.008  1.00  0.00    -0.229 A  
HETATM   22  C   UNL     2      -8.715   6.313  70.435  1.00  0.00    -0.146 A  
HETATM   23  C   UNL     2      -8.978   7.528  69.800  1.00  0.00    -0.141 A  
ENDBRANCH  15  18
ENDBRANCH  13  15
ENDBRANCH  12  13
ENDBRANCH  10  12
TORSDOF 4
ENDMDL
MODEL      106
REMARK 921   NORMALIZED FREE ENERGY PREDICTED BY IDOCK:   -4.63 KCAL/MOL
REMARK 922        TOTAL FREE ENERGY PREDICTED BY IDOCK:   -6.35 KCAL/MOL
REMARK 923 INTER-LIGAND FREE ENERGY PREDICTED BY IDOCK:   -5.97 KCAL/MOL
REMARK 924 INTRA-LIGAND FREE ENERGY PREDICTED BY IDOCK:   -0.38 KCAL/MOL
REMARK 927      BINDING AFFINITY PREDICTED BY RF-SCORE:    0.00 PKD
ROOT
HETATM    1 BR   UNL     1      -6.444  20.155  65.051  1.00  0.00    -0.331 Br 
HETATM    2  C   UNL     2     -10.166  19.727  66.268  1.00  0.00    -0.509 C  
HETATM    3  N   UNL     2      -9.984  18.762  67.487  1.00  0.00    -0.323 N  
HETATM    4  C   UNL     2     -10.124  19.683  68.683  1.00  0.00    -0.447 C  
HETATM    5  C   UNL     2      -8.603  18.056  67.373  1.00  0.00    -0.244 C  
HETATM    6  C   UNL     2      -8.817  17.110  66.175  1.00  0.00    -0.220 C  
HETATM    7  C   UNL     2     -10.332  16.828  66.155  1.00  0.00    -0.338 C  
HETATM    8  C   UNL     2     -10.898  17.518  67.415  1.00  0.00    -0.170 C  
HETATM    9  C   UNL     2     -10.756  16.728  68.742  1.00  0.00    -0.341 C  
HETATM   10  C   UNL     2      -9.349  16.179  68.976  1.00  0.00    -0.248 C  
HETATM   11  C   UNL     2      -8.308  17.246  68.656  1.00  0.00    -0.255 C  
ENDROOT
BRANCH  10  12
HETATM   12  O   UNL     2      -9.097  15.077  68.078  1.00  0.00    -0.174 OA 
BRANCH  12  13
HETATM   13  C   UNL     2      -9.565  13.831  68.383  1.00  0.00    -0.206 C  
HETATM   14  O   UNL     2     -10.688  13.584  68.811  1.00  0.00    -0.247 OA 
BRANCH  13  15
HETATM   15  C   UNL     2      -8.445  12.802  68.100  1.00  0.00    -0.177 C  
HETATM   16  O   UNL     2      -7.642  12.484  69.238  1.00  0.00    -0.326 OA 
HETATM   17  H   UNL     2      -6.954  11.853  69.065  1.00  0.00     0.000 HD 
BRANCH  15  18
HETATM   18  C   UNL     2      -9.035  11.552  67.482  1.00  0.00    -0.159 A  
HETATM   19  C   UNL     2      -8.997  10.353  68.221  1.00  0.00    -0.135 A  
HETATM   20  C   UNL     2      -9.460   9.170  67.682  1.00  0.00    -0.164 A  
HETATM   21  C   UNL     2      -9.975   9.144  66.393  1.00  0.00    -0.358 A  
HETATM   22  C   UNL     2     -10.025  10.316  65.636  1.00  0.00    -0.347 A  
HETATM   23  C   UNL     2      -9.549  11.514  66.174  1.00  0.00    -0.248 A  
ENDBRANCH  15  18
ENDBRANCH  13  15
ENDBRANCH  12  13
ENDBRANCH  10  12
TORSDOF 4
ENDMDL
MODEL      107
REMARK 921   NORMALIZED FREE ENERGY PREDICTED BY IDOCK:   -4.60 KCAL/MOL
REMARK 922        TOTAL FREE ENERGY PREDICTED BY IDOCK:   -6.31 KCAL/MOL
REMARK 923 INTER-LIGAND FREE ENERGY PREDICTED BY IDOCK:   -5.69 KCAL/MOL
REMARK 924 INTRA-LIGAND FREE ENERGY PREDICTED BY IDOCK:   -0.61 KCAL/MOL
REMARK 927      BINDING AFFINITY PREDICTED BY RF-SCORE:    0.00 PKD
ROOT
HETATM    1 BR   UNL     1      -7.557   5.813  64.148  1.00  0.00    -0.089 Br 
HETATM    2  C   UNL     2      -8.512   5.602  67.964  1.00  0.00    -0.102 C  
HETATM    3  N   UNL     2      -9.553   6.765  68.088  1.00  0.00    -0.123 N  
HETATM    4  C   UNL     2     -10.883   6.040  68.129  1.00  0.00    -0.281 C  
HETATM    5  C   UNL     2      -9.379   7.731  66.880  1.00  0.00    -0.169 C  
HETATM    6  C   UNL     2      -8.026   8.402  67.190  1.00  0.00    -0.104 C  
HETATM    7  C   UNL     2      -7.891   8.337  68.723  1.00  0.00    -0.115 C  
HETATM    8  C   UNL     2      -9.224   7.750  69.232  1.00  0.00    -0.145 C  
HETATM    9  C   UNL     2     -10.399   8.754  69.367  1.00  0.00    -0.217 C  
HETATM   10  C   UNL     2     -10.597   9.629  68.130  1.00  0.00    -0.226 C  
HETATM   11  C   UNL     2     -10.514   8.780  66.866  1.00  0.00    -0.319 C  
ENDROOT
BRANCH  10  12
HETATM   12  O   UNL     2      -9.533  10.601  68.042  1.00  0.00    -0.153 OA 
BRANCH  12  13
HETATM   13  C   UNL     2      -9.832  11.932  67.976  1.00  0.00    -0.190 C  
HETATM   14  O   UNL     2      -9.022  12.845  68.094  1.00  0.00    -0.194 OA 
BRANCH  13  15
HETATM   15  C   UNL     2     -11.353  12.083  67.732  1.00  0.00    -0.303 C  
HETATM   16  O   UNL     2     -12.020  12.907  68.689  1.00  0.00    -0.313 OA 
HETATM   17  H   UNL     2     -12.953  13.000  68.539  1.00  0.00     0.000 HD 
BRANCH  15  18
HETATM   18  C   UNL     2     -11.604  12.570  66.320  1.00  0.00    -0.449 A  
HETATM   19  C   UNL     2     -11.185  11.761  65.245  1.00  0.00    -0.315 A  
HETATM   20  C   UNL     2     -11.328  12.183  63.939  1.00  0.00    -0.501 A  
HETATM   21  C   UNL     2     -11.893  13.422  63.663  1.00  0.00    -0.451 A  
HETATM   22  C   UNL     2     -12.317  14.246  64.708  1.00  0.00    -0.440 A  
HETATM   23  C   UNL     2     -12.166  13.826  66.031  1.00  0.00    -0.495 A  
ENDBRANCH  15  18
ENDBRANCH  13  15
ENDBRANCH  12  13
ENDBRANCH  10  12
TORSDOF 4
ENDMDL
MODEL      108
REMARK 921   NORMALIZED FREE ENERGY PREDICTED BY IDOCK:   -4.56 KCAL/MOL
REMARK 922        TOTAL FREE ENERGY PREDICTED BY IDOCK:   -6.26 KCAL/MOL
REMARK 923 INTER-LIGAND FREE ENERGY PREDICTED BY IDOCK:   -5.48 KCAL/MOL
REMARK 924 INTRA-LIGAND FREE ENERGY PREDICTED BY IDOCK:   -0.79 KCAL/MOL
REMARK 927      BINDING AFFINITY PREDICTED BY RF-SCORE:    0.00 PKD
ROOT
HETATM    1 BR   UNL     1     -11.248   8.756  71.859  1.00  0.00    -0.448 Br 
HETATM    2  C   UNL     2      -9.581   7.919  68.389  1.00  0.00    -0.150 C  
HETATM    3  N   UNL     2      -9.029   9.321  67.964  1.00  0.00    -0.128 N  
HETATM    4  C   UNL     2      -7.544   9.211  68.248  1.00  0.00    -0.083 C  
HETATM    5  C   UNL     2      -9.764  10.423  68.780  1.00  0.00    -0.183 C  
HETATM    6  C   UNL     2     -11.184  10.382  68.181  1.00  0.00    -0.333 C  
HETATM    7  C   UNL     2     -10.996   9.854  66.746  1.00  0.00     0.009 C  
HETATM    8  C   UNL     2      -9.470   9.739  66.543  1.00  0.00    -0.177 C  
HETATM    9  C   UNL     2      -8.735  11.053  66.169  1.00  0.00    -0.188 C  
HETATM   10  C   UNL     2      -9.104  12.234  67.067  1.00  0.00    -0.201 C  
HETATM   11  C   UNL     2      -9.110  11.802  68.528  1.00  0.00    -0.144 C  
ENDROOT
BRANCH  10  12
HETATM   12  O   UNL     2     -10.443  12.679  66.765  1.00  0.00    -0.238 OA 
BRANCH  12  13
HETATM   13  C   UNL     2     -10.632  13.814  66.029  1.00  0.00    -0.290 C  
HETATM   14  O   UNL     2     -10.226  13.991  64.885  1.00  0.00    -0.405 OA 
BRANCH  13  15
HETATM   15  C   UNL     2     -11.435  14.825  66.882  1.00  0.00    -0.347 C  
HETATM   16  O   UNL     2     -12.247  14.223  67.892  1.00  0.00    -0.573 OA 
HETATM   17  H   UNL     2     -12.740  14.844  68.416  1.00  0.00     0.000 HD 
BRANCH  15  18
HETATM   18  C   UNL     2     -10.501  15.858  67.476  1.00  0.00    -0.298 A  
HETATM   19  C   UNL     2     -10.530  17.168  66.958  1.00  0.00    -0.282 A  
HETATM   20  C   UNL     2      -9.657  18.134  67.414  1.00  0.00    -0.275 A  
HETATM   21  C   UNL     2      -8.727  17.826  68.399  1.00  0.00    -0.292 A  
HETATM   22  C   UNL     2      -8.673  16.535  68.931  1.00  0.00    -0.247 A  
HETATM   23  C   UNL     2      -9.550  15.554  68.466  1.00  0.00    -0.203 A  
ENDBRANCH  15  18
ENDBRANCH  13  15
ENDBRANCH  12  13
ENDBRANCH  10  12
TORSDOF 4
ENDMDL
MODEL      109
REMARK 921   NORMALIZED FREE ENERGY PREDICTED BY IDOCK:   -4.55 KCAL/MOL
REMARK 922        TOTAL FREE ENERGY PREDICTED BY IDOCK:   -6.25 KCAL/MOL
REMARK 923 INTER-LIGAND FREE ENERGY PREDICTED BY IDOCK:   -5.73 KCAL/MOL
REMARK 924 INTRA-LIGAND FREE ENERGY PREDICTED BY IDOCK:   -0.51 KCAL/MOL
REMARK 927      BINDING AFFINITY PREDICTED BY RF-SCORE:    0.00 PKD
ROOT
HETATM    1 BR   UNL     1      -9.450   4.311  71.061  1.00  0.00    -0.249 Br 
HETATM    2  C   UNL     2      -9.342   5.154  67.215  1.00  0.00    -0.122 C  
HETATM    3  N   UNL     2      -8.733   6.597  67.231  1.00  0.00    -0.118 N  
HETATM    4  C   UNL     2      -7.294   6.371  66.810  1.00  0.00    -0.079 C  
HETATM    5  C   UNL     2      -8.903   7.203  68.653  1.00  0.00    -0.126 C  
HETATM    6  C   UNL     2     -10.425   7.438  68.728  1.00  0.00    -0.215 C  
HETATM    7  C   UNL     2     -10.872   7.624  67.266  1.00  0.00    -0.263 C  
HETATM    8  C   UNL     2      -9.574   7.617  66.431  1.00  0.00    -0.153 C  
HETATM    9  C   UNL     2      -8.796   8.958  66.377  1.00  0.00    -0.178 C  
HETATM   10  C   UNL     2      -8.588   9.597  67.749  1.00  0.00    -0.125 C  
HETATM   11  C   UNL     2      -8.143   8.545  68.758  1.00  0.00    -0.120 C  
ENDROOT
BRANCH  10  12
HETATM   12  O   UNL     2      -9.839  10.129  68.236  1.00  0.00    -0.142 OA 
BRANCH  12  13
HETATM   13  C   UNL     2     -10.037  11.480  68.263  1.00  0.00    -0.199 C  
HETATM   14  O   UNL     2      -9.148  12.324  68.306  1.00  0.00    -0.194 OA 
BRANCH  13  15
HETATM   15  C   UNL     2     -11.560  11.754  68.234  1.00  0.00    -0.308 C  
HETATM   16  O   UNL     2     -12.364  10.624  68.576  1.00  0.00    -0.814 OA 
HETATM   17  H   UNL     2     -13.299  10.792  68.558  1.00  0.00     0.000 HD 
BRANCH  15  18
HETATM   18  C   UNL     2     -11.888  12.944  69.111  1.00  0.00    -0.353 A  
HETATM   19  C   UNL     2     -11.796  14.235  68.555  1.00  0.00    -0.382 A  
HETATM   20  C   UNL     2     -12.020  15.359  69.324  1.00  0.00    -0.335 A  
HETATM   21  C   UNL     2     -12.341  15.232  70.669  1.00  0.00    -0.427 A  
HETATM   22  C   UNL     2     -12.438  13.965  71.249  1.00  0.00    -0.440 A  
HETATM   23  C   UNL     2     -12.205  12.826  70.476  1.00  0.00    -0.389 A  
ENDBRANCH  15  18
ENDBRANCH  13  15
ENDBRANCH  12  13
ENDBRANCH  10  12
TORSDOF 4
ENDMDL
MODEL      110
REMARK 921   NORMALIZED FREE ENERGY PREDICTED BY IDOCK:   -4.54 KCAL/MOL
REMARK 922        TOTAL FREE ENERGY PREDICTED BY IDOCK:   -6.24 KCAL/MOL
REMARK 923 INTER-LIGAND FREE ENERGY PREDICTED BY IDOCK:   -5.52 KCAL/MOL
REMARK 924 INTRA-LIGAND FREE ENERGY PREDICTED BY IDOCK:   -0.72 KCAL/MOL
REMARK 927      BINDING AFFINITY PREDICTED BY RF-SCORE:    0.00 PKD
ROOT
HETATM    1 BR   UNL     1      -8.676  15.629  66.401  1.00  0.00    -0.319 Br 
HETATM    2  C   UNL     2      -8.189  11.759  65.847  1.00  0.00     0.360 C  
HETATM    3  N   UNL     2      -9.536  11.194  66.410  1.00  0.00    -0.194 N  
HETATM    4  C   UNL     2     -10.325  10.865  65.158  1.00  0.00    -0.278 C  
HETATM    5  C   UNL     2     -10.193  12.267  67.325  1.00  0.00    -0.210 C  
HETATM    6  C   UNL     2      -9.251  12.276  68.546  1.00  0.00    -0.089 C  
HETATM    7  C   UNL     2      -8.626  10.868  68.578  1.00  0.00    -0.152 C  
HETATM    8  C   UNL     2      -9.332  10.076  67.457  1.00  0.00    -0.144 C  
HETATM    9  C   UNL     2     -10.719   9.482  67.816  1.00  0.00    -0.302 C  
HETATM   10  C   UNL     2     -11.658  10.487  68.482  1.00  0.00    -0.148 C  
HETATM   11  C   UNL     2     -11.613  11.819  67.741  1.00  0.00    -0.374 C  
ENDROOT
BRANCH  10  12
HETATM   12  O   UNL     2     -11.216  10.752  69.830  1.00  0.00    -0.269 OA 
BRANCH  12  13
HETATM   13  C   UNL     2     -12.132  11.037  70.802  1.00  0.00    -0.366 C  
HETATM   14  O   UNL     2     -12.474  12.165  71.141  1.00  0.00    -0.343 OA 
BRANCH  13  15
HETATM   15  C   UNL     2     -12.652   9.705  71.393  1.00  0.00    -0.371 C  
HETATM   16  O   UNL     2     -13.841   9.213  70.771  1.00  0.00    -0.570 OA 
HETATM   17  H   UNL     2     -14.160   8.396  71.134  1.00  0.00     0.000 HD 
BRANCH  15  18
HETATM   18  C   UNL     2     -11.552   8.664  71.369  1.00  0.00    -0.354 A  
HETATM   19  C   UNL     2     -11.800   7.438  70.722  1.00  0.00    -0.288 A  
HETATM   20  C   UNL     2     -10.860   6.428  70.726  1.00  0.00    -0.321 A  
HETATM   21  C   UNL     2      -9.644   6.608  71.372  1.00  0.00    -0.174 A  
HETATM   22  C   UNL     2      -9.370   7.813  72.023  1.00  0.00    -0.199 A  
HETATM   23  C   UNL     2     -10.322   8.834  72.029  1.00  0.00    -0.411 A  
ENDBRANCH  15  18
ENDBRANCH  13  15
ENDBRANCH  12  13
ENDBRANCH  10  12
TORSDOF 4
ENDMDL
MODEL      111
REMARK 921   NORMALIZED FREE ENERGY PREDICTED BY IDOCK:   -4.54 KCAL/MOL
REMARK 922        TOTAL FREE ENERGY PREDICTED BY IDOCK:   -6.23 KCAL/MOL
REMARK 923 INTER-LIGAND FREE ENERGY PREDICTED BY IDOCK:   -5.72 KCAL/MOL
REMARK 924 INTRA-LIGAND FREE ENERGY PREDICTED BY IDOCK:   -0.52 KCAL/MOL
REMARK 927      BINDING AFFINITY PREDICTED BY RF-SCORE:    0.00 PKD
ROOT
HETATM    1 BR   UNL     1      -9.001  10.659  62.438  1.00  0.00    -0.348 Br 
HETATM    2  C   UNL     2     -10.987  13.408  64.440  1.00  0.00    -0.395 C  
HETATM    3  N   UNL     2     -10.289  13.338  65.840  1.00  0.00    -0.287 N  
HETATM    4  C   UNL     2      -9.392  14.559  65.843  1.00  0.00    -0.095 C  
HETATM    5  C   UNL     2      -9.536  11.982  65.963  1.00  0.00    -0.234 C  
HETATM    6  C   UNL     2     -10.697  10.972  66.071  1.00  0.00    -0.242 C  
HETATM    7  C   UNL     2     -11.866  11.773  66.675  1.00  0.00    -0.036 C  
HETATM    8  C   UNL     2     -11.289  13.165  67.006  1.00  0.00    -0.312 C  
HETATM    9  C   UNL     2     -10.507  13.275  68.341  1.00  0.00    -0.261 C  
HETATM   10  C   UNL     2      -9.472  12.168  68.534  1.00  0.00    -0.122 C  
HETATM   11  C   UNL     2      -8.678  11.960  67.249  1.00  0.00    -0.171 C  
ENDROOT
BRANCH  10  12
HETATM   12  O   UNL     2     -10.137  10.918  68.813  1.00  0.00    -0.180 OA 
BRANCH  12  13
HETATM   13  C   UNL     2      -9.796  10.199  69.922  1.00  0.00    -0.177 C  
HETATM   14  O   UNL     2      -8.652   9.888  70.238  1.00  0.00    -0.175 OA 
BRANCH  13  15
HETATM   15  C   UNL     2     -11.088   9.847  70.697  1.00  0.00    -0.340 C  
HETATM   16  O   UNL     2     -12.285   9.970  69.927  1.00  0.00    -0.481 OA 
HETATM   17  H   UNL     2     -13.077   9.755  70.403  1.00  0.00     0.000 HD 
BRANCH  15  18
HETATM   18  C   UNL     2     -10.967   8.465  71.303  1.00  0.00    -0.305 A  
HETATM   19  C   UNL     2     -10.775   7.367  70.441  1.00  0.00    -0.250 A  
HETATM   20  C   UNL     2     -10.724   6.078  70.931  1.00  0.00    -0.329 A  
HETATM   21  C   UNL     2     -10.862   5.842  72.293  1.00  0.00    -0.292 A  
HETATM   22  C   UNL     2     -11.055   6.910  73.171  1.00  0.00    -0.239 A  
HETATM   23  C   UNL     2     -11.116   8.215  72.679  1.00  0.00    -0.450 A  
ENDBRANCH  15  18
ENDBRANCH  13  15
ENDBRANCH  12  13
ENDBRANCH  10  12
TORSDOF 4
ENDMDL
MODEL      112
REMARK 921   NORMALIZED FREE ENERGY PREDICTED BY IDOCK:   -4.53 KCAL/MOL
REMARK 922        TOTAL FREE ENERGY PREDICTED BY IDOCK:   -6.23 KCAL/MOL
REMARK 923 INTER-LIGAND FREE ENERGY PREDICTED BY IDOCK:   -5.36 KCAL/MOL
REMARK 924 INTRA-LIGAND FREE ENERGY PREDICTED BY IDOCK:   -0.87 KCAL/MOL
REMARK 927      BINDING AFFINITY PREDICTED BY RF-SCORE:    0.00 PKD
ROOT
HETATM    1 BR   UNL     1      -8.257   3.878  68.067  1.00  0.00    -0.100 Br 
HETATM    2  C   UNL     2      -7.580   6.535  65.240  1.00  0.00    -0.088 C  
HETATM    3  N   UNL     2      -7.286   7.820  66.085  1.00  0.00    -0.072 N  
HETATM    4  C   UNL     2      -5.778   7.949  66.008  1.00  0.00    -0.037 C  
HETATM    5  C   UNL     2      -7.846   7.619  67.522  1.00  0.00    -0.119 C  
HETATM    6  C   UNL     2      -9.369   7.664  67.289  1.00  0.00    -0.174 C  
HETATM    7  C   UNL     2      -9.553   8.520  66.022  1.00  0.00    -0.236 C  
HETATM    8  C   UNL     2      -8.144   9.033  65.659  1.00  0.00    -0.115 C  
HETATM    9  C   UNL     2      -7.654  10.278  66.443  1.00  0.00    -0.117 C  
HETATM   10  C   UNL     2      -7.847  10.161  67.955  1.00  0.00    -0.101 C  
HETATM   11  C   UNL     2      -7.403   8.785  68.437  1.00  0.00    -0.086 C  
ENDROOT
BRANCH  10  12
HETATM   12  O   UNL     2      -9.248  10.278  68.280  1.00  0.00    -0.134 OA 
BRANCH  12  13
HETATM   13  C   UNL     2      -9.894  11.465  68.084  1.00  0.00    -0.191 C  
HETATM   14  O   UNL     2      -9.445  12.570  68.369  1.00  0.00    -0.214 OA 
BRANCH  13  15
HETATM   15  C   UNL     2     -11.275  11.174  67.449  1.00  0.00    -0.294 C  
HETATM   16  O   UNL     2     -12.364  11.213  68.374  1.00  0.00    -0.697 OA 
HETATM   17  H   UNL     2     -13.211  11.035  67.985  1.00  0.00     0.000 HD 
BRANCH  15  18
HETATM   18  C   UNL     2     -11.515  12.109  66.282  1.00  0.00    -0.433 A  
HETATM   19  C   UNL     2     -12.364  13.217  66.471  1.00  0.00    -0.311 A  
HETATM   20  C   UNL     2     -12.671  14.065  65.427  1.00  0.00    -0.499 A  
HETATM   21  C   UNL     2     -12.144  13.836  64.163  1.00  0.00    -0.478 A  
HETATM   22  C   UNL     2     -11.301  12.744  63.944  1.00  0.00    -0.498 A  
HETATM   23  C   UNL     2     -10.994  11.879  64.997  1.00  0.00    -0.365 A  
ENDBRANCH  15  18
ENDBRANCH  13  15
ENDBRANCH  12  13
ENDBRANCH  10  12
TORSDOF 4
ENDMDL
MODEL      113
REMARK 921   NORMALIZED FREE ENERGY PREDICTED BY IDOCK:   -4.52 KCAL/MOL
REMARK 922        TOTAL FREE ENERGY PREDICTED BY IDOCK:   -6.22 KCAL/MOL
REMARK 923 INTER-LIGAND FREE ENERGY PREDICTED BY IDOCK:   -5.58 KCAL/MOL
REMARK 924 INTRA-LIGAND FREE ENERGY PREDICTED BY IDOCK:   -0.64 KCAL/MOL
REMARK 927      BINDING AFFINITY PREDICTED BY RF-SCORE:    0.00 PKD
ROOT
HETATM    1 BR   UNL     1      -6.514   8.398  72.390  1.00  0.00    -0.090 Br 
HETATM    2  C   UNL     2      -9.265   6.616  70.205  1.00  0.00    -0.156 C  
HETATM    3  N   UNL     2      -9.088   7.343  68.830  1.00  0.00    -0.132 N  
HETATM    4  C   UNL     2      -8.339   6.325  67.993  1.00  0.00    -0.114 C  
HETATM    5  C   UNL     2      -8.325   8.680  69.059  1.00  0.00    -0.119 C  
HETATM    6  C   UNL     2      -9.375   9.532  69.801  1.00  0.00    -0.227 C  
HETATM    7  C   UNL     2     -10.736   8.971  69.348  1.00  0.00    -0.202 C  
HETATM    8  C   UNL     2     -10.412   7.913  68.273  1.00  0.00    -0.164 C  
HETATM    9  C   UNL     2     -10.148   8.457  66.844  1.00  0.00    -0.364 C  
HETATM   10  C   UNL     2      -9.163   9.625  66.810  1.00  0.00    -0.149 C  
HETATM   11  C   UNL     2      -7.963   9.328  67.702  1.00  0.00    -0.103 C  
ENDROOT
BRANCH  10  12
HETATM   12  O   UNL     2      -9.790  10.810  67.346  1.00  0.00    -0.172 OA 
BRANCH  12  13
HETATM   13  C   UNL     2     -10.868  11.354  66.710  1.00  0.00    -0.286 C  
HETATM   14  O   UNL     2     -11.994  11.454  67.188  1.00  0.00    -0.532 OA 
BRANCH  13  15
HETATM   15  C   UNL     2     -10.428  11.815  65.300  1.00  0.00    -0.274 C  
HETATM   16  O   UNL     2     -10.968  11.033  64.234  1.00  0.00    -0.349 OA 
HETATM   17  H   UNL     2     -10.698  11.315  63.369  1.00  0.00     0.000 HD 
BRANCH  15  18
HETATM   18  C   UNL     2     -10.742  13.285  65.114  1.00  0.00    -0.333 A  
HETATM   19  C   UNL     2     -11.863  13.640  64.338  1.00  0.00    -0.460 A  
HETATM   20  C   UNL     2     -12.160  14.962  64.080  1.00  0.00    -0.289 A  
HETATM   21  C   UNL     2     -11.351  15.971  64.587  1.00  0.00    -0.312 A  
HETATM   22  C   UNL     2     -10.233  15.650  65.360  1.00  0.00    -0.401 A  
HETATM   23  C   UNL     2      -9.925  14.313  65.615  1.00  0.00    -0.346 A  
ENDBRANCH  15  18
ENDBRANCH  13  15
ENDBRANCH  12  13
ENDBRANCH  10  12
TORSDOF 4
ENDMDL
MODEL      114
REMARK 921   NORMALIZED FREE ENERGY PREDICTED BY IDOCK:   -4.52 KCAL/MOL
REMARK 922        TOTAL FREE ENERGY PREDICTED BY IDOCK:   -6.21 KCAL/MOL
REMARK 923 INTER-LIGAND FREE ENERGY PREDICTED BY IDOCK:   -5.37 KCAL/MOL
REMARK 924 INTRA-LIGAND FREE ENERGY PREDICTED BY IDOCK:   -0.85 KCAL/MOL
REMARK 927      BINDING AFFINITY PREDICTED BY RF-SCORE:    0.00 PKD
ROOT
HETATM    1 BR   UNL     1     -10.879   6.501  67.303  1.00  0.00    -0.483 Br 
HETATM    2  C   UNL     2      -9.043   9.312  65.243  1.00  0.00    -0.215 C  
HETATM    3  N   UNL     2      -8.848  10.418  66.334  1.00  0.00    -0.144 N  
HETATM    4  C   UNL     2      -7.383  10.292  66.699  1.00  0.00    -0.109 C  
HETATM    5  C   UNL     2      -9.833  10.151  67.508  1.00  0.00    -0.177 C  
HETATM    6  C   UNL     2     -11.198  10.486  66.873  1.00  0.00     0.003 C  
HETATM    7  C   UNL     2     -10.880  11.503  65.760  1.00  0.00    -0.319 C  
HETATM    8  C   UNL     2      -9.372  11.803  65.890  1.00  0.00    -0.202 C  
HETATM    9  C   UNL     2      -8.979  12.844  66.970  1.00  0.00    -0.225 C  
HETATM   10  C   UNL     2      -9.628  12.586  68.329  1.00  0.00    -0.209 C  
HETATM   11  C   UNL     2      -9.535  11.107  68.685  1.00  0.00    -0.196 C  
ENDROOT
BRANCH  10  12
HETATM   12  O   UNL     2     -11.035  12.906  68.269  1.00  0.00    -0.235 OA 
BRANCH  12  13
HETATM   13  C   UNL     2     -11.622  13.587  69.296  1.00  0.00    -0.316 C  
HETATM   14  O   UNL     2     -11.711  13.184  70.451  1.00  0.00    -0.221 OA 
BRANCH  13  15
HETATM   15  C   UNL     2     -12.150  14.937  68.754  1.00  0.00    -0.177 C  
HETATM   16  O   UNL     2     -12.953  15.667  69.683  1.00  0.00    -0.494 OA 
HETATM   17  H   UNL     2     -13.277  16.495  69.349  1.00  0.00     0.000 HD 
BRANCH  15  18
HETATM   18  C   UNL     2     -10.996  15.778  68.249  1.00  0.00    -0.325 A  
HETATM   19  C   UNL     2     -10.796  15.879  66.858  1.00  0.00    -0.240 A  
HETATM   20  C   UNL     2      -9.723  16.577  66.342  1.00  0.00    -0.305 A  
HETATM   21  C   UNL     2      -8.818  17.196  67.194  1.00  0.00    -0.232 A  
HETATM   22  C   UNL     2      -8.989  17.112  68.578  1.00  0.00    -0.265 A  
HETATM   23  C   UNL     2     -10.069  16.399  69.103  1.00  0.00    -0.278 A  
ENDBRANCH  15  18
ENDBRANCH  13  15
ENDBRANCH  12  13
ENDBRANCH  10  12
TORSDOF 4
ENDMDL
MODEL      115
REMARK 921   NORMALIZED FREE ENERGY PREDICTED BY IDOCK:   -4.51 KCAL/MOL
REMARK 922        TOTAL FREE ENERGY PREDICTED BY IDOCK:   -6.21 KCAL/MOL
REMARK 923 INTER-LIGAND FREE ENERGY PREDICTED BY IDOCK:   -5.59 KCAL/MOL
REMARK 924 INTRA-LIGAND FREE ENERGY PREDICTED BY IDOCK:   -0.61 KCAL/MOL
REMARK 927      BINDING AFFINITY PREDICTED BY RF-SCORE:    0.00 PKD
ROOT
HETATM    1 BR   UNL     1     -12.148  12.779  63.504  1.00  0.00    -0.622 Br 
HETATM    2  C   UNL     2     -10.809  13.760  67.076  1.00  0.00    -0.284 C  
HETATM    3  N   UNL     2      -9.761  12.626  67.336  1.00  0.00    -0.196 N  
HETATM    4  C   UNL     2      -8.434  13.316  67.092  1.00  0.00    -0.176 C  
HETATM    5  C   UNL     2     -10.056  11.434  66.380  1.00  0.00    -0.218 C  
HETATM    6  C   UNL     2     -11.370  10.870  66.957  1.00  0.00    -0.105 C  
HETATM    7  C   UNL     2     -11.349  11.256  68.448  1.00  0.00    -0.348 C  
HETATM    8  C   UNL     2      -9.971  11.907  68.688  1.00  0.00    -0.154 C  
HETATM    9  C   UNL     2      -8.788  10.929  68.912  1.00  0.00    -0.143 C  
HETATM   10  C   UNL     2      -8.717   9.812  67.872  1.00  0.00    -0.125 C  
HETATM   11  C   UNL     2      -8.928  10.381  66.473  1.00  0.00    -0.161 C  
ENDROOT
BRANCH  10  12
HETATM   12  O   UNL     2      -9.784   8.866  68.095  1.00  0.00    -0.153 OA 
BRANCH  12  13
HETATM   13  C   UNL     2      -9.543   7.528  67.967  1.00  0.00    -0.143 C  
HETATM   14  O   UNL     2      -8.461   7.029  67.675  1.00  0.00    -0.122 OA 
BRANCH  13  15
HETATM   15  C   UNL     2     -10.858   6.762  68.246  1.00  0.00    -0.226 C  
HETATM   16  O   UNL     2     -11.065   5.627  67.405  1.00  0.00    -0.334 OA 
HETATM   17  H   UNL     2     -11.872   5.157  67.577  1.00  0.00     0.000 HD 
BRANCH  15  18
HETATM   18  C   UNL     2     -10.933   6.380  69.710  1.00  0.00    -0.417 A  
HETATM   19  C   UNL     2     -10.148   5.301  70.164  1.00  0.00    -0.333 A  
HETATM   20  C   UNL     2     -10.224   4.867  71.471  1.00  0.00    -0.264 A  
HETATM   21  C   UNL     2     -11.083   5.491  72.366  1.00  0.00    -0.312 A  
HETATM   22  C   UNL     2     -11.874   6.561  71.945  1.00  0.00    -0.381 A  
HETATM   23  C   UNL     2     -11.806   6.999  70.621  1.00  0.00    -0.377 A  
ENDBRANCH  15  18
ENDBRANCH  13  15
ENDBRANCH  12  13
ENDBRANCH  10  12
TORSDOF 4
ENDMDL
MODEL      116
REMARK 921   NORMALIZED FREE ENERGY PREDICTED BY IDOCK:   -4.50 KCAL/MOL
REMARK 922        TOTAL FREE ENERGY PREDICTED BY IDOCK:   -6.19 KCAL/MOL
REMARK 923 INTER-LIGAND FREE ENERGY PREDICTED BY IDOCK:   -5.15 KCAL/MOL
REMARK 924 INTRA-LIGAND FREE ENERGY PREDICTED BY IDOCK:   -1.04 KCAL/MOL
REMARK 927      BINDING AFFINITY PREDICTED BY RF-SCORE:    0.00 PKD
ROOT
HETATM    1 BR   UNL     1     -10.317  12.411  66.946  1.00  0.00    -0.245 Br 
HETATM    2  C   UNL     2      -7.518   9.745  66.191  1.00  0.00    -0.101 C  
HETATM    3  N   UNL     2      -8.149   8.450  66.805  1.00  0.00    -0.098 N  
HETATM    4  C   UNL     2      -8.636   7.690  65.588  1.00  0.00    -0.123 C  
HETATM    5  C   UNL     2      -9.269   8.858  67.804  1.00  0.00    -0.141 C  
HETATM    6  C   UNL     2      -8.463   9.471  68.967  1.00  0.00    -0.128 C  
HETATM    7  C   UNL     2      -7.084   8.787  68.899  1.00  0.00    -0.066 C  
HETATM    8  C   UNL     2      -7.202   7.724  67.787  1.00  0.00    -0.094 C  
HETATM    9  C   UNL     2      -7.860   6.382  68.199  1.00  0.00    -0.105 C  
HETATM   10  C   UNL     2      -9.173   6.556  68.963  1.00  0.00    -0.130 C  
HETATM   11  C   UNL     2     -10.042   7.607  68.282  1.00  0.00    -0.214 C  
ENDROOT
BRANCH  10  12
HETATM   12  O   UNL     2      -8.904   7.046  70.294  1.00  0.00    -0.146 OA 
BRANCH  12  13
HETATM   13  C   UNL     2      -9.749   6.730  71.318  1.00  0.00    -0.172 C  
HETATM   14  O   UNL     2     -10.333   5.659  71.447  1.00  0.00    -0.211 OA 
BRANCH  13  15
HETATM   15  C   UNL     2      -9.842   7.945  72.271  1.00  0.00    -0.215 C  
HETATM   16  O   UNL     2      -8.654   8.736  72.330  1.00  0.00    -0.377 OA 
HETATM   17  H   UNL     2      -8.711   9.481  72.915  1.00  0.00     0.000 HD 
BRANCH  15  18
HETATM   18  C   UNL     2     -11.046   8.792  71.914  1.00  0.00    -0.434 A  
HETATM   19  C   UNL     2     -12.305   8.423  72.427  1.00  0.00    -0.412 A  
HETATM   20  C   UNL     2     -13.446   9.118  72.083  1.00  0.00    -0.530 A  
HETATM   21  C   UNL     2     -13.369  10.201  71.217  1.00  0.00    -0.394 A  
HETATM   22  C   UNL     2     -12.135  10.590  70.691  1.00  0.00    -0.452 A  
HETATM   23  C   UNL     2     -10.980   9.884  71.031  1.00  0.00    -0.360 A  
ENDBRANCH  15  18
ENDBRANCH  13  15
ENDBRANCH  12  13
ENDBRANCH  10  12
TORSDOF 4
ENDMDL
MODEL      117
REMARK 921   NORMALIZED FREE ENERGY PREDICTED BY IDOCK:   -4.49 KCAL/MOL
REMARK 922        TOTAL FREE ENERGY PREDICTED BY IDOCK:   -6.18 KCAL/MOL
REMARK 923 INTER-LIGAND FREE ENERGY PREDICTED BY IDOCK:   -5.58 KCAL/MOL
REMARK 924 INTRA-LIGAND FREE ENERGY PREDICTED BY IDOCK:   -0.61 KCAL/MOL
REMARK 927      BINDING AFFINITY PREDICTED BY RF-SCORE:    0.00 PKD
ROOT
HETATM    1 BR   UNL     1      -8.144  16.444  66.409  1.00  0.00    -0.315 Br 
HETATM    2  C   UNL     2     -11.695  14.782  66.790  1.00  0.00    -0.298 C  
HETATM    3  N   UNL     2     -11.363  13.544  67.690  1.00  0.00    -0.282 N  
HETATM    4  C   UNL     2     -11.859  13.967  69.059  1.00  0.00    -0.358 C  
HETATM    5  C   UNL     2      -9.835  13.259  67.616  1.00  0.00    -0.230 C  
HETATM    6  C   UNL     2      -9.671  12.731  66.177  1.00  0.00    -0.246 C  
HETATM    7  C   UNL     2     -11.039  12.123  65.816  1.00  0.00    -0.362 C  
HETATM    8  C   UNL     2     -11.885  12.213  67.104  1.00  0.00    -0.222 C  
HETATM    9  C   UNL     2     -11.649  11.092  68.150  1.00  0.00    -0.345 C  
HETATM   10  C   UNL     2     -10.172  10.844  68.454  1.00  0.00    -0.178 C  
HETATM   11  C   UNL     2      -9.443  12.170  68.641  1.00  0.00    -0.052 C  
ENDROOT
BRANCH  10  12
HETATM   12  O   UNL     2      -9.545  10.185  67.332  1.00  0.00    -0.151 OA 
BRANCH  12  13
HETATM   13  C   UNL     2      -9.142   8.886  67.446  1.00  0.00    -0.132 C  
HETATM   14  O   UNL     2      -7.977   8.512  67.539  1.00  0.00    -0.105 OA 
BRANCH  13  15
HETATM   15  C   UNL     2     -10.396   7.979  67.433  1.00  0.00    -0.284 C  
HETATM   16  O   UNL     2     -10.513   7.157  66.270  1.00  0.00    -0.442 OA 
HETATM   17  H   UNL     2     -11.282   6.601  66.263  1.00  0.00     0.000 HD 
BRANCH  15  18
HETATM   18  C   UNL     2     -10.446   7.148  68.698  1.00  0.00    -0.218 A  
HETATM   19  C   UNL     2     -10.144   5.774  68.612  1.00  0.00    -0.227 A  
HETATM   20  C   UNL     2     -10.237   4.955  69.718  1.00  0.00    -0.284 A  
HETATM   21  C   UNL     2     -10.632   5.477  70.943  1.00  0.00    -0.309 A  
HETATM   22  C   UNL     2     -10.939   6.834  71.059  1.00  0.00    -0.297 A  
HETATM   23  C   UNL     2     -10.854   7.665  69.940  1.00  0.00    -0.241 A  
ENDBRANCH  15  18
ENDBRANCH  13  15
ENDBRANCH  12  13
ENDBRANCH  10  12
TORSDOF 4
ENDMDL
MODEL      118
REMARK 921   NORMALIZED FREE ENERGY PREDICTED BY IDOCK:   -4.49 KCAL/MOL
REMARK 922        TOTAL FREE ENERGY PREDICTED BY IDOCK:   -6.18 KCAL/MOL
REMARK 923 INTER-LIGAND FREE ENERGY PREDICTED BY IDOCK:   -6.16 KCAL/MOL
REMARK 924 INTRA-LIGAND FREE ENERGY PREDICTED BY IDOCK:   -0.02 KCAL/MOL
REMARK 927      BINDING AFFINITY PREDICTED BY RF-SCORE:    0.00 PKD
ROOT
HETATM    1 BR   UNL     1     -10.616   4.877  66.199  1.00  0.00    -0.209 Br 
HETATM    2  C   UNL     2      -7.825   6.440  68.498  1.00  0.00    -0.105 C  
HETATM    3  N   UNL     2      -8.686   7.261  69.516  1.00  0.00    -0.134 N  
HETATM    4  C   UNL     2      -8.665   6.400  70.763  1.00  0.00    -0.140 C  
HETATM    5  C   UNL     2     -10.101   7.491  68.912  1.00  0.00    -0.192 C  
HETATM    6  C   UNL     2      -9.813   8.489  67.773  1.00  0.00    -0.218 C  
HETATM    7  C   UNL     2      -8.543   9.241  68.214  1.00  0.00    -0.125 C  
HETATM    8  C   UNL     2      -8.234   8.734  69.639  1.00  0.00    -0.113 C  
HETATM    9  C   UNL     2      -9.041   9.399  70.785  1.00  0.00    -0.268 C  
HETATM   10  C   UNL     2     -10.544   9.462  70.515  1.00  0.00    -0.271 C  
HETATM   11  C   UNL     2     -11.036   8.127  69.967  1.00  0.00    -0.146 C  
ENDROOT
BRANCH  10  12
HETATM   12  O   UNL     2     -10.818  10.450  69.499  1.00  0.00    -0.221 OA 
BRANCH  12  13
HETATM   13  C   UNL     2     -11.984  11.159  69.538  1.00  0.00    -0.355 C  
HETATM   14  O   UNL     2     -13.099  10.676  69.711  1.00  0.00    -0.081 OA 
BRANCH  13  15
HETATM   15  C   UNL     2     -11.657  12.656  69.325  1.00  0.00    -0.318 C  
HETATM   16  O   UNL     2     -11.999  13.151  68.029  1.00  0.00    -0.351 OA 
HETATM   17  H   UNL     2     -11.798  14.070  67.898  1.00  0.00     0.000 HD 
BRANCH  15  18
HETATM   18  C   UNL     2     -12.301  13.486  70.415  1.00  0.00    -0.397 A  
HETATM   19  C   UNL     2     -12.168  14.888  70.361  1.00  0.00    -0.393 A  
HETATM   20  C   UNL     2     -12.677  15.690  71.361  1.00  0.00    -0.535 A  
HETATM   21  C   UNL     2     -13.335  15.123  72.445  1.00  0.00    -0.522 A  
HETATM   22  C   UNL     2     -13.482  13.737  72.527  1.00  0.00    -0.682 A  
HETATM   23  C   UNL     2     -12.960  12.921  71.521  1.00  0.00    -0.388 A  
ENDBRANCH  15  18
ENDBRANCH  13  15
ENDBRANCH  12  13
ENDBRANCH  10  12
TORSDOF 4
ENDMDL
MODEL      119
REMARK 921   NORMALIZED FREE ENERGY PREDICTED BY IDOCK:   -4.47 KCAL/MOL
REMARK 922        TOTAL FREE ENERGY PREDICTED BY IDOCK:   -6.16 KCAL/MOL
REMARK 923 INTER-LIGAND FREE ENERGY PREDICTED BY IDOCK:   -5.22 KCAL/MOL
REMARK 924 INTRA-LIGAND FREE ENERGY PREDICTED BY IDOCK:   -0.94 KCAL/MOL
REMARK 927      BINDING AFFINITY PREDICTED BY RF-SCORE:    0.00 PKD
ROOT
HETATM    1 BR   UNL     1      -7.022   7.329  66.293  1.00  0.00    -0.067 Br 
HETATM    2  C   UNL     2      -7.012   4.573  69.106  1.00  0.00    -0.051 C  
HETATM    3  N   UNL     2      -8.502   4.613  69.586  1.00  0.00    -0.073 N  
HETATM    4  C   UNL     2      -9.108   3.382  68.943  1.00  0.00    -0.144 C  
HETATM    5  C   UNL     2      -9.142   5.959  69.137  1.00  0.00    -0.122 C  
HETATM    6  C   UNL     2      -8.427   6.980  70.044  1.00  0.00    -0.140 C  
HETATM    7  C   UNL     2      -8.027   6.184  71.301  1.00  0.00    -0.113 C  
HETATM    8  C   UNL     2      -8.640   4.780  71.116  1.00  0.00    -0.113 C  
HETATM    9  C   UNL     2     -10.139   4.640  71.491  1.00  0.00    -0.255 C  
HETATM   10  C   UNL     2     -11.021   5.732  70.887  1.00  0.00    -0.235 C  
HETATM   11  C   UNL     2     -10.661   5.951  69.422  1.00  0.00    -0.406 C  
ENDROOT
BRANCH  10  12
HETATM   12  O   UNL     2     -10.779   6.986  71.561  1.00  0.00    -0.220 OA 
BRANCH  12  13
HETATM   13  C   UNL     2     -11.737   7.959  71.550  1.00  0.00    -0.283 C  
HETATM   14  O   UNL     2     -12.946   7.761  71.490  1.00  0.00    -0.329 OA 
BRANCH  13  15
HETATM   15  C   UNL     2     -11.037   9.338  71.623  1.00  0.00    -0.368 C  
HETATM   16  O   UNL     2      -9.659   9.276  71.994  1.00  0.00    -0.235 OA 
HETATM   17  H   UNL     2      -9.230  10.122  72.039  1.00  0.00     0.000 HD 
BRANCH  15  18
HETATM   18  C   UNL     2     -11.219  10.079  70.315  1.00  0.00    -0.379 A  
HETATM   19  C   UNL     2     -10.777   9.465  69.127  1.00  0.00    -0.216 A  
HETATM   20  C   UNL     2     -10.857  10.120  67.915  1.00  0.00    -0.336 A  
HETATM   21  C   UNL     2     -11.378  11.405  67.849  1.00  0.00    -0.371 A  
HETATM   22  C   UNL     2     -11.823  12.040  69.010  1.00  0.00    -0.372 A  
HETATM   23  C   UNL     2     -11.736  11.384  70.239  1.00  0.00    -0.397 A  
ENDBRANCH  15  18
ENDBRANCH  13  15
ENDBRANCH  12  13
ENDBRANCH  10  12
TORSDOF 4
ENDMDL
MODEL      120
REMARK 921   NORMALIZED FREE ENERGY PREDICTED BY IDOCK:   -4.47 KCAL/MOL
REMARK 922        TOTAL FREE ENERGY PREDICTED BY IDOCK:   -6.16 KCAL/MOL
REMARK 923 INTER-LIGAND FREE ENERGY PREDICTED BY IDOCK:   -5.28 KCAL/MOL
REMARK 924 INTRA-LIGAND FREE ENERGY PREDICTED BY IDOCK:   -0.88 KCAL/MOL
REMARK 927      BINDING AFFINITY PREDICTED BY RF-SCORE:    0.00 PKD
ROOT
HETATM    1 BR   UNL     1     -10.646   5.180  66.570  1.00  0.00    -0.249 Br 
HETATM    2  C   UNL     2      -8.123   7.476  64.600  1.00  0.00    -0.101 C  
HETATM    3  N   UNL     2      -7.611   8.422  65.738  1.00  0.00    -0.083 N  
HETATM    4  C   UNL     2      -6.235   7.871  66.055  1.00  0.00    -0.042 C  
HETATM    5  C   UNL     2      -8.616   8.376  66.925  1.00  0.00    -0.125 C  
HETATM    6  C   UNL     2      -9.840   9.113  66.346  1.00  0.00    -0.350 C  
HETATM    7  C   UNL     2      -9.265  10.061  65.276  1.00  0.00    -0.268 C  
HETATM    8  C   UNL     2      -7.732   9.920  65.378  1.00  0.00    -0.130 C  
HETATM    9  C   UNL     2      -7.048  10.749  66.497  1.00  0.00    -0.138 C  
HETATM   10  C   UNL     2      -7.725  10.608  67.860  1.00  0.00    -0.100 C  
HETATM   11  C   UNL     2      -8.045   9.144  68.139  1.00  0.00    -0.104 C  
ENDROOT
BRANCH  10  12
HETATM   12  O   UNL     2      -8.986  11.310  67.855  1.00  0.00    -0.138 OA 
BRANCH  12  13
HETATM   13  C   UNL     2      -9.039  12.614  68.256  1.00  0.00    -0.181 C  
HETATM   14  O   UNL     2      -8.064  13.329  68.466  1.00  0.00    -0.145 OA 
BRANCH  13  15
HETATM   15  C   UNL     2     -10.524  13.024  68.402  1.00  0.00    -0.252 C  
HETATM   16  O   UNL     2     -10.754  14.059  69.360  1.00  0.00    -0.404 OA 
HETATM   17  H   UNL     2     -11.665  14.310  69.449  1.00  0.00     0.000 HD 
BRANCH  15  18
HETATM   18  C   UNL     2     -11.092  13.396  67.048  1.00  0.00    -0.310 A  
HETATM   19  C   UNL     2     -11.810  12.420  66.329  1.00  0.00    -0.431 A  
HETATM   20  C   UNL     2     -12.295  12.681  65.064  1.00  0.00    -0.561 A  
HETATM   21  C   UNL     2     -12.080  13.921  64.476  1.00  0.00    -0.473 A  
HETATM   22  C   UNL     2     -11.371  14.908  65.163  1.00  0.00    -0.379 A  
HETATM   23  C   UNL     2     -10.872  14.644  66.440  1.00  0.00    -0.315 A  
ENDBRANCH  15  18
ENDBRANCH  13  15
ENDBRANCH  12  13
ENDBRANCH  10  12
TORSDOF 4
ENDMDL
MODEL      121
REMARK 921   NORMALIZED FREE ENERGY PREDICTED BY IDOCK:   -4.47 KCAL/MOL
REMARK 922        TOTAL FREE ENERGY PREDICTED BY IDOCK:   -6.15 KCAL/MOL
REMARK 923 INTER-LIGAND FREE ENERGY PREDICTED BY IDOCK:   -5.31 KCAL/MOL
REMARK 924 INTRA-LIGAND FREE ENERGY PREDICTED BY IDOCK:   -0.85 KCAL/MOL
REMARK 927      BINDING AFFINITY PREDICTED BY RF-SCORE:    0.00 PKD
ROOT
HETATM    1 BR   UNL     1     -12.640  14.641  70.834  1.00  0.00    -0.437 Br 
HETATM    2  C   UNL     2     -11.641  15.530  67.129  1.00  0.00     0.026 C  
HETATM    3  N   UNL     2     -11.461  14.104  66.506  1.00  0.00    -0.345 N  
HETATM    4  C   UNL     2     -12.726  13.918  65.693  1.00  0.00    -0.495 C  
HETATM    5  C   UNL     2     -11.270  13.071  67.653  1.00  0.00    -0.280 C  
HETATM    6  C   UNL     2      -9.868  13.428  68.185  1.00  0.00    -0.234 C  
HETATM    7  C   UNL     2      -9.136  14.063  66.987  1.00  0.00    -0.256 C  
HETATM    8  C   UNL     2     -10.102  13.925  65.792  1.00  0.00    -0.320 C  
HETATM    9  C   UNL     2     -10.103  12.548  65.077  1.00  0.00    -0.258 C  
HETATM   10  C   UNL     2     -10.211  11.364  66.036  1.00  0.00    -0.245 C  
HETATM   11  C   UNL     2     -11.283  11.633  67.086  1.00  0.00    -0.371 C  
ENDROOT
BRANCH  10  12
HETATM   12  O   UNL     2      -8.968  11.199  66.752  1.00  0.00    -0.157 OA 
BRANCH  12  13
HETATM   13  C   UNL     2      -8.200  10.091  66.534  1.00  0.00    -0.119 C  
HETATM   14  O   UNL     2      -7.549   9.872  65.518  1.00  0.00    -0.113 OA 
BRANCH  13  15
HETATM   15  C   UNL     2      -8.298   9.173  67.776  1.00  0.00    -0.117 C  
HETATM   16  O   UNL     2      -8.936   9.777  68.902  1.00  0.00    -0.133 OA 
HETATM   17  H   UNL     2      -8.995   9.214  69.664  1.00  0.00     0.000 HD 
BRANCH  15  18
HETATM   18  C   UNL     2      -8.969   7.867  67.402  1.00  0.00    -0.133 A  
HETATM   19  C   UNL     2     -10.376   7.824  67.358  1.00  0.00    -0.354 A  
HETATM   20  C   UNL     2     -11.043   6.646  67.087  1.00  0.00    -0.427 A  
HETATM   21  C   UNL     2     -10.330   5.477  66.854  1.00  0.00    -0.315 A  
HETATM   22  C   UNL     2      -8.935   5.490  66.893  1.00  0.00    -0.111 A  
HETATM   23  C   UNL     2      -8.257   6.677  67.174  1.00  0.00    -0.113 A  
ENDBRANCH  15  18
ENDBRANCH  13  15
ENDBRANCH  12  13
ENDBRANCH  10  12
TORSDOF 4
ENDMDL
MODEL      122
REMARK 921   NORMALIZED FREE ENERGY PREDICTED BY IDOCK:   -4.45 KCAL/MOL
REMARK 922        TOTAL FREE ENERGY PREDICTED BY IDOCK:   -6.13 KCAL/MOL
REMARK 923 INTER-LIGAND FREE ENERGY PREDICTED BY IDOCK:   -5.63 KCAL/MOL
REMARK 924 INTRA-LIGAND FREE ENERGY PREDICTED BY IDOCK:   -0.51 KCAL/MOL
REMARK 927      BINDING AFFINITY PREDICTED BY RF-SCORE:    0.00 PKD
ROOT
HETATM    1 BR   UNL     1      -8.223   6.585  70.995  1.00  0.00    -0.122 Br 
HETATM    2  C   UNL     2      -8.167   7.615  67.193  1.00  0.00    -0.118 C  
HETATM    3  N   UNL     2      -8.121   9.177  67.295  1.00  0.00    -0.106 N  
HETATM    4  C   UNL     2      -6.673   9.502  66.989  1.00  0.00    -0.072 C  
HETATM    5  C   UNL     2      -8.594   9.605  68.714  1.00  0.00    -0.125 C  
HETATM    6  C   UNL     2     -10.100   9.276  68.670  1.00  0.00    -0.207 C  
HETATM    7  C   UNL     2     -10.484   9.369  67.181  1.00  0.00    -0.315 C  
HETATM    8  C   UNL     2      -9.218   9.870  66.456  1.00  0.00    -0.155 C  
HETATM    9  C   UNL     2      -8.973  11.401  66.500  1.00  0.00    -0.192 C  
HETATM   10  C   UNL     2      -9.102  11.998  67.900  1.00  0.00    -0.183 C  
HETATM   11  C   UNL     2      -8.377  11.123  68.915  1.00  0.00    -0.101 C  
ENDROOT
BRANCH  10  12
HETATM   12  O   UNL     2     -10.490  12.022  68.296  1.00  0.00    -0.192 OA 
BRANCH  12  13
HETATM   13  C   UNL     2     -11.322  12.987  67.802  1.00  0.00    -0.292 C  
HETATM   14  O   UNL     2     -12.275  12.784  67.058  1.00  0.00    -0.431 OA 
BRANCH  13  15
HETATM   15  C   UNL     2     -10.853  14.361  68.337  1.00  0.00    -0.248 C  
HETATM   16  O   UNL     2     -11.097  15.450  67.445  1.00  0.00    -0.321 OA 
HETATM   17  H   UNL     2     -10.809  16.293  67.773  1.00  0.00     0.000 HD 
BRANCH  15  18
HETATM   18  C   UNL     2     -11.464  14.622  69.698  1.00  0.00    -0.329 A  
HETATM   19  C   UNL     2     -12.488  13.766  70.151  1.00  0.00    -0.332 A  
HETATM   20  C   UNL     2     -13.126  13.994  71.353  1.00  0.00    -0.423 A  
HETATM   21  C   UNL     2     -12.766  15.079  72.140  1.00  0.00    -0.406 A  
HETATM   22  C   UNL     2     -11.756  15.946  71.717  1.00  0.00    -0.575 A  
HETATM   23  C   UNL     2     -11.114  15.723  70.498  1.00  0.00    -0.383 A  
ENDBRANCH  15  18
ENDBRANCH  13  15
ENDBRANCH  12  13
ENDBRANCH  10  12
TORSDOF 4
ENDMDL
MODEL      123
REMARK 921   NORMALIZED FREE ENERGY PREDICTED BY IDOCK:   -4.45 KCAL/MOL
REMARK 922        TOTAL FREE ENERGY PREDICTED BY IDOCK:   -6.13 KCAL/MOL
REMARK 923 INTER-LIGAND FREE ENERGY PREDICTED BY IDOCK:   -5.57 KCAL/MOL
REMARK 924 INTRA-LIGAND FREE ENERGY PREDICTED BY IDOCK:   -0.55 KCAL/MOL
REMARK 927      BINDING AFFINITY PREDICTED BY RF-SCORE:    0.00 PKD
ROOT
HETATM    1 BR   UNL     1      -5.668  11.619  66.845  1.00  0.00    -0.132 Br 
HETATM    2  C   UNL     2      -5.404  15.376  67.997  1.00  0.00    -0.129 C  
HETATM    3  N   UNL     2      -6.824  15.612  68.615  1.00  0.00    -0.116 N  
HETATM    4  C   UNL     2      -6.567  15.557  70.107  1.00  0.00    -0.007 C  
HETATM    5  C   UNL     2      -7.794  14.517  68.085  1.00  0.00    -0.135 C  
HETATM    6  C   UNL     2      -7.959  14.915  66.604  1.00  0.00     0.235 C  
HETATM    7  C   UNL     2      -7.704  16.434  66.569  1.00  0.00    -0.295 C  
HETATM    8  C   UNL     2      -7.533  16.860  68.043  1.00  0.00    -0.173 C  
HETATM    9  C   UNL     2      -8.844  17.087  68.839  1.00  0.00    -0.206 C  
HETATM   10  C   UNL     2      -9.852  15.948  68.688  1.00  0.00    -0.212 C  
HETATM   11  C   UNL     2      -9.151  14.602  68.822  1.00  0.00    -0.178 C  
ENDROOT
BRANCH  10  12
HETATM   12  O   UNL     2     -10.432  15.980  67.367  1.00  0.00    -0.296 OA 
BRANCH  12  13
HETATM   13  C   UNL     2     -11.412  15.089  67.033  1.00  0.00    -0.284 C  
HETATM   14  O   UNL     2     -12.100  14.463  67.833  1.00  0.00    -0.334 OA 
BRANCH  13  15
HETATM   15  C   UNL     2     -11.499  15.009  65.490  1.00  0.00    -0.265 C  
HETATM   16  O   UNL     2     -10.740  16.008  64.808  1.00  0.00    -0.674 OA 
HETATM   17  H   UNL     2     -10.794  15.959  63.861  1.00  0.00     0.000 HD 
BRANCH  15  18
HETATM   18  C   UNL     2     -11.118  13.619  65.023  1.00  0.00    -0.338 A  
HETATM   19  C   UNL     2     -11.770  13.087  63.893  1.00  0.00    -0.531 A  
HETATM   20  C   UNL     2     -11.511  11.802  63.462  1.00  0.00    -0.489 A  
HETATM   21  C   UNL     2     -10.596  11.009  64.140  1.00  0.00    -0.412 A  
HETATM   22  C   UNL     2      -9.935  11.508  65.264  1.00  0.00    -0.302 A  
HETATM   23  C   UNL     2     -10.200  12.805  65.709  1.00  0.00    -0.302 A  
ENDBRANCH  15  18
ENDBRANCH  13  15
ENDBRANCH  12  13
ENDBRANCH  10  12
TORSDOF 4
ENDMDL
MODEL      124
REMARK 921   NORMALIZED FREE ENERGY PREDICTED BY IDOCK:   -4.43 KCAL/MOL
REMARK 922        TOTAL FREE ENERGY PREDICTED BY IDOCK:   -6.11 KCAL/MOL
REMARK 923 INTER-LIGAND FREE ENERGY PREDICTED BY IDOCK:   -5.41 KCAL/MOL
REMARK 924 INTRA-LIGAND FREE ENERGY PREDICTED BY IDOCK:   -0.70 KCAL/MOL
REMARK 927      BINDING AFFINITY PREDICTED BY RF-SCORE:    0.00 PKD
ROOT
HETATM    1 BR   UNL     1      -5.197   7.642  66.695  1.00  0.00    -0.024 Br 
HETATM    2  C   UNL     2      -8.554   9.147  65.288  1.00  0.00    -0.167 C  
HETATM    3  N   UNL     2      -9.163   9.801  66.574  1.00  0.00    -0.152 N  
HETATM    4  C   UNL     2      -8.890  11.278  66.376  1.00  0.00    -0.182 C  
HETATM    5  C   UNL     2      -8.485   9.179  67.828  1.00  0.00    -0.117 C  
HETATM    6  C   UNL     2      -9.053   7.745  67.830  1.00  0.00    -0.132 C  
HETATM    7  C   UNL     2     -10.411   7.853  67.111  1.00  0.00    -0.398 C  
HETATM    8  C   UNL     2     -10.620   9.359  66.844  1.00  0.00    -0.167 C  
HETATM    9  C   UNL     2     -11.171  10.188  68.033  1.00  0.00    -0.247 C  
HETATM   10  C   UNL     2     -10.427   9.940  69.345  1.00  0.00    -0.231 C  
HETATM   11  C   UNL     2      -8.922   9.936  69.104  1.00  0.00    -0.170 C  
ENDROOT
BRANCH  10  12
HETATM   12  O   UNL     2     -10.764   8.634  69.859  1.00  0.00    -0.227 OA 
BRANCH  12  13
HETATM   13  C   UNL     2     -10.865   8.439  71.207  1.00  0.00    -0.239 C  
HETATM   14  O   UNL     2     -10.244   9.066  72.059  1.00  0.00    -0.339 OA 
BRANCH  13  15
HETATM   15  C   UNL     2     -11.883   7.303  71.465  1.00  0.00    -0.304 C  
HETATM   16  O   UNL     2     -12.942   7.237  70.508  1.00  0.00    -0.540 OA 
HETATM   17  H   UNL     2     -13.567   6.540  70.667  1.00  0.00     0.000 HD 
BRANCH  15  18
HETATM   18  C   UNL     2     -11.161   5.977  71.574  1.00  0.00    -0.336 A  
HETATM   19  C   UNL     2     -11.122   5.333  72.826  1.00  0.00    -0.346 A  
HETATM   20  C   UNL     2     -10.423   4.156  73.000  1.00  0.00    -0.247 A  
HETATM   21  C   UNL     2      -9.742   3.584  71.933  1.00  0.00    -0.234 A  
HETATM   22  C   UNL     2      -9.762   4.199  70.680  1.00  0.00    -0.273 A  
HETATM   23  C   UNL     2     -10.461   5.395  70.503  1.00  0.00    -0.335 A  
ENDBRANCH  15  18
ENDBRANCH  13  15
ENDBRANCH  12  13
ENDBRANCH  10  12
TORSDOF 4
ENDMDL
MODEL      125
REMARK 921   NORMALIZED FREE ENERGY PREDICTED BY IDOCK:   -4.43 KCAL/MOL
REMARK 922        TOTAL FREE ENERGY PREDICTED BY IDOCK:   -6.10 KCAL/MOL
REMARK 923 INTER-LIGAND FREE ENERGY PREDICTED BY IDOCK:   -5.47 KCAL/MOL
REMARK 924 INTRA-LIGAND FREE ENERGY PREDICTED BY IDOCK:   -0.64 KCAL/MOL
REMARK 927      BINDING AFFINITY PREDICTED BY RF-SCORE:    0.00 PKD
ROOT
HETATM    1 BR   UNL     1      -9.397   2.907  64.469  1.00  0.00    -0.147 Br 
HETATM    2  C   UNL     2      -8.089   4.272  67.925  1.00  0.00    -0.094 C  
HETATM    3  N   UNL     2      -9.014   5.516  68.137  1.00  0.00    -0.108 N  
HETATM    4  C   UNL     2     -10.017   5.032  69.166  1.00  0.00    -0.196 C  
HETATM    5  C   UNL     2      -9.635   5.925  66.771  1.00  0.00    -0.148 C  
HETATM    6  C   UNL     2      -8.416   6.489  66.013  1.00  0.00    -0.145 C  
HETATM    7  C   UNL     2      -7.461   6.990  67.112  1.00  0.00    -0.095 C  
HETATM    8  C   UNL     2      -8.226   6.811  68.440  1.00  0.00    -0.119 C  
HETATM    9  C   UNL     2      -9.240   7.930  68.795  1.00  0.00    -0.143 C  
HETATM   10  C   UNL     2     -10.176   8.291  67.642  1.00  0.00    -0.231 C  
HETATM   11  C   UNL     2     -10.702   7.025  66.975  1.00  0.00    -0.423 C  
ENDROOT
BRANCH  10  12
HETATM   12  O   UNL     2      -9.447   9.016  66.629  1.00  0.00    -0.164 OA 
BRANCH  12  13
HETATM   13  C   UNL     2      -9.124  10.328  66.832  1.00  0.00    -0.143 C  
HETATM   14  O   UNL     2      -7.995  10.799  66.743  1.00  0.00    -0.126 OA 
BRANCH  13  15
HETATM   15  C   UNL     2     -10.415  11.102  67.192  1.00  0.00    -0.231 C  
HETATM   16  O   UNL     2     -10.260  12.027  68.269  1.00  0.00    -0.195 OA 
HETATM   17  H   UNL     2     -11.052  12.502  68.490  1.00  0.00     0.000 HD 
BRANCH  15  18
HETATM   18  C   UNL     2     -10.969  11.785  65.959  1.00  0.00    -0.355 A  
HETATM   19  C   UNL     2     -11.890  12.837  66.130  1.00  0.00    -0.484 A  
HETATM   20  C   UNL     2     -12.477  13.453  65.044  1.00  0.00    -0.479 A  
HETATM   21  C   UNL     2     -12.166  13.040  63.755  1.00  0.00    -0.536 A  
HETATM   22  C   UNL     2     -11.257  11.999  63.554  1.00  0.00    -0.526 A  
HETATM   23  C   UNL     2     -10.667  11.369  64.651  1.00  0.00    -0.378 A  
ENDBRANCH  15  18
ENDBRANCH  13  15
ENDBRANCH  12  13
ENDBRANCH  10  12
TORSDOF 4
ENDMDL
MODEL      126
REMARK 921   NORMALIZED FREE ENERGY PREDICTED BY IDOCK:   -4.41 KCAL/MOL
REMARK 922        TOTAL FREE ENERGY PREDICTED BY IDOCK:   -6.08 KCAL/MOL
REMARK 923 INTER-LIGAND FREE ENERGY PREDICTED BY IDOCK:   -5.52 KCAL/MOL
REMARK 924 INTRA-LIGAND FREE ENERGY PREDICTED BY IDOCK:   -0.56 KCAL/MOL
REMARK 927      BINDING AFFINITY PREDICTED BY RF-SCORE:    0.00 PKD
ROOT
HETATM    1 BR   UNL     1      -5.126   9.666  65.609  1.00  0.00    -0.036 Br 
HETATM    2  C   UNL     2      -7.023   7.854  68.547  1.00  0.00    -0.071 C  
HETATM    3  N   UNL     2      -8.471   8.425  68.381  1.00  0.00    -0.134 N  
HETATM    4  C   UNL     2      -9.224   7.283  67.729  1.00  0.00    -0.126 C  
HETATM    5  C   UNL     2      -8.407   9.727  67.531  1.00  0.00    -0.114 C  
HETATM    6  C   UNL     2      -7.721  10.715  68.497  1.00  0.00    -0.107 C  
HETATM    7  C   UNL     2      -8.068  10.199  69.907  1.00  0.00    -0.139 C  
HETATM    8  C   UNL     2      -9.040   9.020  69.690  1.00  0.00    -0.154 C  
HETATM    9  C   UNL     2     -10.524   9.400  69.450  1.00  0.00    -0.231 C  
HETATM   10  C   UNL     2     -10.711  10.493  68.399  1.00  0.00    -0.224 C  
HETATM   11  C   UNL     2      -9.834  10.211  67.185  1.00  0.00    -0.231 C  
ENDROOT
BRANCH  10  12
HETATM   12  O   UNL     2     -10.280  11.763  68.931  1.00  0.00    -0.188 OA 
BRANCH  12  13
HETATM   13  C   UNL     2     -10.377  12.890  68.166  1.00  0.00    -0.240 C  
HETATM   14  O   UNL     2      -9.443  13.633  67.880  1.00  0.00    -0.198 OA 
BRANCH  13  15
HETATM   15  C   UNL     2     -11.852  13.063  67.731  1.00  0.00    -0.347 C  
HETATM   16  O   UNL     2     -12.536  14.129  68.392  1.00  0.00    -0.532 OA 
HETATM   17  H   UNL     2     -13.441  14.235  68.126  1.00  0.00     0.000 HD 
BRANCH  15  18
HETATM   18  C   UNL     2     -11.933  13.212  66.226  1.00  0.00    -0.473 A  
HETATM   19  C   UNL     2     -12.129  14.499  65.687  1.00  0.00    -0.295 A  
HETATM   20  C   UNL     2     -12.276  14.687  64.328  1.00  0.00    -0.432 A  
HETATM   21  C   UNL     2     -12.233  13.601  63.464  1.00  0.00    -0.329 A  
HETATM   22  C   UNL     2     -12.041  12.313  63.969  1.00  0.00    -0.563 A  
HETATM   23  C   UNL     2     -11.900  12.118  65.344  1.00  0.00    -0.357 A  
ENDBRANCH  15  18
ENDBRANCH  13  15
ENDBRANCH  12  13
ENDBRANCH  10  12
TORSDOF 4
ENDMDL
MODEL      127
REMARK 921   NORMALIZED FREE ENERGY PREDICTED BY IDOCK:   -4.41 KCAL/MOL
REMARK 922        TOTAL FREE ENERGY PREDICTED BY IDOCK:   -6.08 KCAL/MOL
REMARK 923 INTER-LIGAND FREE ENERGY PREDICTED BY IDOCK:   -5.28 KCAL/MOL
REMARK 924 INTRA-LIGAND FREE ENERGY PREDICTED BY IDOCK:   -0.80 KCAL/MOL
REMARK 927      BINDING AFFINITY PREDICTED BY RF-SCORE:    0.00 PKD
ROOT
HETATM    1 BR   UNL     1      -6.777   2.706  67.081  1.00  0.00    -0.041 Br 
HETATM    2  C   UNL     2      -9.480   5.150  65.587  1.00  0.00    -0.115 C  
HETATM    3  N   UNL     2      -9.183   6.465  66.384  1.00  0.00    -0.157 N  
HETATM    4  C   UNL     2      -8.439   7.320  65.378  1.00  0.00    -0.087 C  
HETATM    5  C   UNL     2      -8.367   6.111  67.660  1.00  0.00    -0.112 C  
HETATM    6  C   UNL     2      -9.413   5.377  68.524  1.00  0.00    -0.156 C  
HETATM    7  C   UNL     2     -10.773   5.941  68.067  1.00  0.00    -0.332 C  
HETATM    8  C   UNL     2     -10.440   7.060  67.058  1.00  0.00    -0.316 C  
HETATM    9  C   UNL     2     -10.062   8.435  67.671  1.00  0.00    -0.268 C  
HETATM   10  C   UNL     2      -9.017   8.339  68.782  1.00  0.00    -0.144 C  
HETATM   11  C   UNL     2      -7.891   7.401  68.366  1.00  0.00    -0.122 C  
ENDROOT
BRANCH  10  12
HETATM   12  O   UNL     2      -9.613   7.767  69.966  1.00  0.00    -0.161 OA 
BRANCH  12  13
HETATM   13  C   UNL     2      -9.218   8.197  71.201  1.00  0.00    -0.154 C  
HETATM   14  O   UNL     2      -8.254   8.922  71.422  1.00  0.00    -0.191 OA 
BRANCH  13  15
HETATM   15  C   UNL     2     -10.187   7.614  72.257  1.00  0.00    -0.216 C  
HETATM   16  O   UNL     2      -9.890   8.001  73.600  1.00  0.00    -0.250 OA 
HETATM   17  H   UNL     2     -10.485   7.643  74.248  1.00  0.00     0.000 HD 
BRANCH  15  18
HETATM   18  C   UNL     2     -11.617   7.956  71.893  1.00  0.00    -0.338 A  
HETATM   19  C   UNL     2     -11.984   9.313  71.811  1.00  0.00    -0.455 A  
HETATM   20  C   UNL     2     -13.286   9.683  71.547  1.00  0.00    -0.468 A  
HETATM   21  C   UNL     2     -14.263   8.715  71.357  1.00  0.00    -0.341 A  
HETATM   22  C   UNL     2     -13.929   7.361  71.433  1.00  0.00    -0.464 A  
HETATM   23  C   UNL     2     -12.614   6.982  71.708  1.00  0.00    -0.388 A  
ENDBRANCH  15  18
ENDBRANCH  13  15
ENDBRANCH  12  13
ENDBRANCH  10  12
TORSDOF 4
ENDMDL
MODEL      128
REMARK 921   NORMALIZED FREE ENERGY PREDICTED BY IDOCK:   -4.38 KCAL/MOL
REMARK 922        TOTAL FREE ENERGY PREDICTED BY IDOCK:   -6.05 KCAL/MOL
REMARK 923 INTER-LIGAND FREE ENERGY PREDICTED BY IDOCK:   -4.92 KCAL/MOL
REMARK 924 INTRA-LIGAND FREE ENERGY PREDICTED BY IDOCK:   -1.13 KCAL/MOL
REMARK 927      BINDING AFFINITY PREDICTED BY RF-SCORE:    0.00 PKD
ROOT
HETATM    1 BR   UNL     1      -6.815  17.697  66.618  1.00  0.00    -0.278 Br 
HETATM    2  C   UNL     2     -10.685  17.364  67.270  1.00  0.00    -0.219 C  
HETATM    3  N   UNL     2     -10.762  15.967  67.975  1.00  0.00    -0.298 N  
HETATM    4  C   UNL     2     -10.955  16.325  69.435  1.00  0.00    -0.337 C  
HETATM    5  C   UNL     2      -9.459  15.174  67.670  1.00  0.00    -0.201 C  
HETATM    6  C   UNL     2      -9.617  14.848  66.171  1.00  0.00    -0.340 C  
HETATM    7  C   UNL     2     -11.138  14.827  65.927  1.00  0.00    -0.340 C  
HETATM    8  C   UNL     2     -11.784  15.013  67.316  1.00  0.00    -0.223 C  
HETATM    9  C   UNL     2     -11.895  13.736  68.189  1.00  0.00    -0.411 C  
HETATM   10  C   UNL     2     -10.594  12.938  68.268  1.00  0.00    -0.246 C  
HETATM   11  C   UNL     2      -9.415  13.874  68.506  1.00  0.00    -0.174 C  
ENDROOT
BRANCH  10  12
HETATM   12  O   UNL     2     -10.347  12.279  67.008  1.00  0.00    -0.217 OA 
BRANCH  12  13
HETATM   13  C   UNL     2     -10.226  10.919  66.964  1.00  0.00    -0.214 C  
HETATM   14  O   UNL     2     -11.095  10.121  67.301  1.00  0.00    -0.244 OA 
BRANCH  13  15
HETATM   15  C   UNL     2      -8.819  10.568  66.425  1.00  0.00    -0.153 C  
HETATM   16  O   UNL     2      -8.480  11.224  65.203  1.00  0.00    -0.382 OA 
HETATM   17  H   UNL     2      -7.616  11.008  64.872  1.00  0.00     0.000 HD 
BRANCH  15  18
HETATM   18  C   UNL     2      -7.777  10.827  67.493  1.00  0.00    -0.105 A  
HETATM   19  C   UNL     2      -7.967  10.261  68.769  1.00  0.00    -0.113 A  
HETATM   20  C   UNL     2      -7.085  10.516  69.799  1.00  0.00    -0.150 A  
HETATM   21  C   UNL     2      -5.988  11.342  69.591  1.00  0.00    -0.098 A  
HETATM   22  C   UNL     2      -5.774  11.918  68.337  1.00  0.00    -0.049 A  
HETATM   23  C   UNL     2      -6.669  11.669  67.295  1.00  0.00    -0.124 A  
ENDBRANCH  15  18
ENDBRANCH  13  15
ENDBRANCH  12  13
ENDBRANCH  10  12
TORSDOF 4
ENDMDL
MODEL      129
REMARK 921   NORMALIZED FREE ENERGY PREDICTED BY IDOCK:   -4.38 KCAL/MOL
REMARK 922        TOTAL FREE ENERGY PREDICTED BY IDOCK:   -6.04 KCAL/MOL
REMARK 923 INTER-LIGAND FREE ENERGY PREDICTED BY IDOCK:   -5.72 KCAL/MOL
REMARK 924 INTRA-LIGAND FREE ENERGY PREDICTED BY IDOCK:   -0.33 KCAL/MOL
REMARK 927      BINDING AFFINITY PREDICTED BY RF-SCORE:    0.00 PKD
ROOT
HETATM    1 BR   UNL     1      -6.329   3.947  72.022  1.00  0.00    -0.015 Br 
HETATM    2  C   UNL     2      -9.130   5.576  74.261  1.00  0.00    -0.122 C  
HETATM    3  N   UNL     2     -10.159   6.046  73.178  1.00  0.00    -0.179 N  
HETATM    4  C   UNL     2     -11.257   5.006  73.267  1.00  0.00    -0.338 C  
HETATM    5  C   UNL     2      -9.444   6.117  71.798  1.00  0.00    -0.150 C  
HETATM    6  C   UNL     2      -8.507   7.328  71.976  1.00  0.00    -0.116 C  
HETATM    7  C   UNL     2      -9.193   8.210  73.036  1.00  0.00    -0.343 C  
HETATM    8  C   UNL     2     -10.550   7.534  73.322  1.00  0.00    -0.384 C  
HETATM    9  C   UNL     2     -11.687   7.842  72.313  1.00  0.00    -0.390 C  
HETATM   10  C   UNL     2     -11.266   7.678  70.853  1.00  0.00    -0.268 C  
HETATM   11  C   UNL     2     -10.472   6.388  70.676  1.00  0.00    -0.269 C  
ENDROOT
BRANCH  10  12
HETATM   12  O   UNL     2     -10.385   8.757  70.474  1.00  0.00    -0.190 OA 
BRANCH  12  13
HETATM   13  C   UNL     2     -10.909   9.940  70.036  1.00  0.00    -0.294 C  
HETATM   14  O   UNL     2     -11.650  10.669  70.688  1.00  0.00    -0.326 OA 
BRANCH  13  15
HETATM   15  C   UNL     2     -10.414  10.193  68.592  1.00  0.00    -0.202 C  
HETATM   16  O   UNL     2     -11.068   9.398  67.601  1.00  0.00    -0.488 OA 
HETATM   17  H   UNL     2     -10.764   9.554  66.715  1.00  0.00     0.000 HD 
BRANCH  15  18
HETATM   18  C   UNL     2     -10.513  11.668  68.263  1.00  0.00    -0.223 A  
HETATM   19  C   UNL     2      -9.356  12.463  68.382  1.00  0.00    -0.158 A  
HETATM   20  C   UNL     2      -9.402  13.824  68.159  1.00  0.00    -0.211 A  
HETATM   21  C   UNL     2     -10.599  14.435  67.811  1.00  0.00    -0.246 A  
HETATM   22  C   UNL     2     -11.763  13.673  67.686  1.00  0.00    -0.398 A  
HETATM   23  C   UNL     2     -11.722  12.297  67.919  1.00  0.00    -0.410 A  
ENDBRANCH  15  18
ENDBRANCH  13  15
ENDBRANCH  12  13
ENDBRANCH  10  12
TORSDOF 4
ENDMDL
MODEL      130
REMARK 921   NORMALIZED FREE ENERGY PREDICTED BY IDOCK:   -4.37 KCAL/MOL
REMARK 922        TOTAL FREE ENERGY PREDICTED BY IDOCK:   -6.03 KCAL/MOL
REMARK 923 INTER-LIGAND FREE ENERGY PREDICTED BY IDOCK:   -5.19 KCAL/MOL
REMARK 924 INTRA-LIGAND FREE ENERGY PREDICTED BY IDOCK:   -0.85 KCAL/MOL
REMARK 927      BINDING AFFINITY PREDICTED BY RF-SCORE:    0.00 PKD
ROOT
HETATM    1 BR   UNL     1      -5.265   9.066  69.497  1.00  0.00    -0.035 Br 
HETATM    2  C   UNL     2      -5.628   5.541  71.218  1.00  0.00    -0.009 C  
HETATM    3  N   UNL     2      -7.062   5.115  70.753  1.00  0.00    -0.058 N  
HETATM    4  C   UNL     2      -6.787   4.104  69.659  1.00  0.00    -0.042 C  
HETATM    5  C   UNL     2      -7.838   6.380  70.286  1.00  0.00    -0.103 C  
HETATM    6  C   UNL     2      -8.080   7.125  71.614  1.00  0.00    -0.102 C  
HETATM    7  C   UNL     2      -8.084   6.025  72.693  1.00  0.00    -0.104 C  
HETATM    8  C   UNL     2      -7.975   4.691  71.925  1.00  0.00    -0.100 C  
HETATM    9  C   UNL     2      -9.299   4.137  71.338  1.00  0.00    -0.211 C  
HETATM   10  C   UNL     2     -10.103   5.178  70.560  1.00  0.00    -0.256 C  
HETATM   11  C   UNL     2      -9.184   5.974  69.641  1.00  0.00    -0.148 C  
ENDROOT
BRANCH  10  12
HETATM   12  O   UNL     2     -10.691   6.127  71.476  1.00  0.00    -0.234 OA 
BRANCH  12  13
HETATM   13  C   UNL     2     -11.847   6.769  71.139  1.00  0.00    -0.360 C  
HETATM   14  O   UNL     2     -12.527   6.527  70.147  1.00  0.00     0.032 OA 
BRANCH  13  15
HETATM   15  C   UNL     2     -12.144   7.843  72.213  1.00  0.00    -0.315 C  
HETATM   16  O   UNL     2     -11.335   7.738  73.385  1.00  0.00    -0.586 OA 
HETATM   17  H   UNL     2     -11.517   8.397  74.044  1.00  0.00     0.000 HD 
BRANCH  15  18
HETATM   18  C   UNL     2     -12.044   9.226  71.602  1.00  0.00    -0.451 A  
HETATM   19  C   UNL     2     -13.002  10.193  71.966  1.00  0.00    -0.508 A  
HETATM   20  C   UNL     2     -13.000  11.448  71.393  1.00  0.00    -0.468 A  
HETATM   21  C   UNL     2     -12.046  11.779  70.441  1.00  0.00    -0.440 A  
HETATM   22  C   UNL     2     -11.084  10.841  70.059  1.00  0.00    -0.327 A  
HETATM   23  C   UNL     2     -11.088   9.568  70.630  1.00  0.00    -0.364 A  
ENDBRANCH  15  18
ENDBRANCH  13  15
ENDBRANCH  12  13
ENDBRANCH  10  12
TORSDOF 4
ENDMDL
MODEL      131
REMARK 921   NORMALIZED FREE ENERGY PREDICTED BY IDOCK:   -4.37 KCAL/MOL
REMARK 922        TOTAL FREE ENERGY PREDICTED BY IDOCK:   -6.03 KCAL/MOL
REMARK 923 INTER-LIGAND FREE ENERGY PREDICTED BY IDOCK:   -5.32 KCAL/MOL
REMARK 924 INTRA-LIGAND FREE ENERGY PREDICTED BY IDOCK:   -0.71 KCAL/MOL
REMARK 927      BINDING AFFINITY PREDICTED BY RF-SCORE:    0.00 PKD
ROOT
HETATM    1 BR   UNL     1      -6.637  10.361  65.098  1.00  0.00    -0.047 Br 
HETATM    2  C   UNL     2     -10.563  10.166  65.357  1.00  0.00     0.167 C  
HETATM    3  N   UNL     2     -10.958  11.675  65.220  1.00  0.00    -0.290 N  
HETATM    4  C   UNL     2     -11.460  11.776  63.794  1.00  0.00    -0.420 C  
HETATM    5  C   UNL     2      -9.713  12.554  65.532  1.00  0.00    -0.119 C  
HETATM    6  C   UNL     2      -9.538  12.347  67.050  1.00  0.00    -0.211 C  
HETATM    7  C   UNL     2     -10.947  12.008  67.571  1.00  0.00    -0.303 C  
HETATM    8  C   UNL     2     -11.886  12.161  66.356  1.00  0.00    -0.246 C  
HETATM    9  C   UNL     2     -12.343  13.607  66.030  1.00  0.00    -0.493 C  
HETATM   10  C   UNL     2     -11.193  14.614  65.993  1.00  0.00    -0.342 C  
HETATM   11  C   UNL     2     -10.013  14.038  65.219  1.00  0.00    -0.283 C  
ENDROOT
BRANCH  10  12
HETATM   12  O   UNL     2     -10.721  14.868  67.333  1.00  0.00    -0.279 OA 
BRANCH  12  13
HETATM   13  C   UNL     2     -10.854  16.113  67.877  1.00  0.00    -0.332 C  
HETATM   14  O   UNL     2     -11.554  16.390  68.846  1.00  0.00    -0.290 OA 
BRANCH  13  15
HETATM   15  C   UNL     2      -9.982  17.100  67.065  1.00  0.00    -0.287 C  
HETATM   16  O   UNL     2     -10.285  18.477  67.298  1.00  0.00    -0.334 OA 
HETATM   17  H   UNL     2      -9.750  19.082  66.799  1.00  0.00     0.000 HD 
BRANCH  15  18
HETATM   18  C   UNL     2      -8.515  16.814  67.308  1.00  0.00    -0.202 A  
HETATM   19  C   UNL     2      -7.570  17.319  66.393  1.00  0.00    -0.349 A  
HETATM   20  C   UNL     2      -6.227  17.036  66.528  1.00  0.00    -0.205 A  
HETATM   21  C   UNL     2      -5.782  16.241  67.576  1.00  0.00    -0.179 A  
HETATM   22  C   UNL     2      -6.695  15.725  68.498  1.00  0.00    -0.119 A  
HETATM   23  C   UNL     2      -8.056  16.003  68.361  1.00  0.00    -0.159 A  
ENDBRANCH  15  18
ENDBRANCH  13  15
ENDBRANCH  12  13
ENDBRANCH  10  12
TORSDOF 4
ENDMDL
MODEL      132
REMARK 921   NORMALIZED FREE ENERGY PREDICTED BY IDOCK:   -4.35 KCAL/MOL
REMARK 922        TOTAL FREE ENERGY PREDICTED BY IDOCK:   -6.00 KCAL/MOL
REMARK 923 INTER-LIGAND FREE ENERGY PREDICTED BY IDOCK:   -5.00 KCAL/MOL
REMARK 924 INTRA-LIGAND FREE ENERGY PREDICTED BY IDOCK:   -1.00 KCAL/MOL
REMARK 927      BINDING AFFINITY PREDICTED BY RF-SCORE:    0.00 PKD
ROOT
HETATM    1 BR   UNL     1      -8.725   2.438  67.038  1.00  0.00    -0.149 Br 
HETATM    2  C   UNL     2      -8.628   5.987  65.332  1.00  0.00    -0.124 C  
HETATM    3  N   UNL     2      -8.332   6.913  66.559  1.00  0.00    -0.116 N  
HETATM    4  C   UNL     2      -6.861   7.242  66.400  1.00  0.00    -0.061 C  
HETATM    5  C   UNL     2      -8.686   6.148  67.867  1.00  0.00    -0.113 C  
HETATM    6  C   UNL     2     -10.226   6.089  67.805  1.00  0.00    -0.219 C  
HETATM    7  C   UNL     2     -10.638   7.310  66.961  1.00  0.00    -0.415 C  
HETATM    8  C   UNL     2      -9.331   8.085  66.687  1.00  0.00    -0.197 C  
HETATM    9  C   UNL     2      -8.846   9.020  67.825  1.00  0.00    -0.125 C  
HETATM   10  C   UNL     2      -8.835   8.351  69.199  1.00  0.00    -0.142 C  
HETATM   11  C   UNL     2      -8.225   6.958  69.102  1.00  0.00    -0.121 C  
ENDROOT
BRANCH  10  12
HETATM   12  O   UNL     2     -10.188   8.175  69.670  1.00  0.00    -0.196 OA 
BRANCH  12  13
HETATM   13  C   UNL     2     -10.448   8.176  71.010  1.00  0.00    -0.201 C  
HETATM   14  O   UNL     2      -9.856   8.855  71.844  1.00  0.00    -0.312 OA 
BRANCH  13  15
HETATM   15  C   UNL     2     -11.601   7.183  71.289  1.00  0.00    -0.294 C  
HETATM   16  O   UNL     2     -12.434   6.922  70.159  1.00  0.00    -0.602 OA 
HETATM   17  H   UNL     2     -13.142   6.312  70.330  1.00  0.00     0.000 HD 
BRANCH  15  18
HETATM   18  C   UNL     2     -11.048   5.898  71.870  1.00  0.00    -0.325 A  
HETATM   19  C   UNL     2     -11.131   5.699  73.262  1.00  0.00    -0.288 A  
HETATM   20  C   UNL     2     -10.586   4.578  73.854  1.00  0.00    -0.335 A  
HETATM   21  C   UNL     2      -9.941   3.622  73.079  1.00  0.00    -0.204 A  
HETATM   22  C   UNL     2      -9.842   3.794  71.697  1.00  0.00    -0.240 A  
HETATM   23  C   UNL     2     -10.385   4.930  71.095  1.00  0.00    -0.222 A  
ENDBRANCH  15  18
ENDBRANCH  13  15
ENDBRANCH  12  13
ENDBRANCH  10  12
TORSDOF 4
ENDMDL
MODEL      133
REMARK 921   NORMALIZED FREE ENERGY PREDICTED BY IDOCK:   -4.34 KCAL/MOL
REMARK 922        TOTAL FREE ENERGY PREDICTED BY IDOCK:   -5.99 KCAL/MOL
REMARK 923 INTER-LIGAND FREE ENERGY PREDICTED BY IDOCK:   -5.53 KCAL/MOL
REMARK 924 INTRA-LIGAND FREE ENERGY PREDICTED BY IDOCK:   -0.46 KCAL/MOL
REMARK 927      BINDING AFFINITY PREDICTED BY RF-SCORE:    0.00 PKD
ROOT
HETATM    1 BR   UNL     1     -10.222   3.866  73.444  1.00  0.00    -0.235 Br 
HETATM    2  C   UNL     2      -9.516   3.865  69.569  1.00  0.00    -0.189 C  
HETATM    3  N   UNL     2      -8.856   5.271  69.374  1.00  0.00    -0.099 N  
HETATM    4  C   UNL     2      -7.382   4.948  69.234  1.00  0.00    -0.056 C  
HETATM    5  C   UNL     2      -9.209   6.170  70.594  1.00  0.00    -0.154 C  
HETATM    6  C   UNL     2     -10.715   6.429  70.385  1.00  0.00    -0.317 C  
HETATM    7  C   UNL     2     -10.934   6.301  68.865  1.00  0.00    -0.435 C  
HETATM    8  C   UNL     2      -9.528   6.104  68.259  1.00  0.00    -0.117 C  
HETATM    9  C   UNL     2      -8.696   7.395  68.042  1.00  0.00    -0.124 C  
HETATM   10  C   UNL     2      -8.666   8.312  69.265  1.00  0.00    -0.139 C  
HETATM   11  C   UNL     2      -8.418   7.496  70.528  1.00  0.00    -0.133 C  
ENDROOT
BRANCH  10  12
HETATM   12  O   UNL     2      -9.951   8.947  69.432  1.00  0.00    -0.182 OA 
BRANCH  12  13
HETATM   13  C   UNL     2     -10.100  10.270  69.128  1.00  0.00    -0.218 C  
HETATM   14  O   UNL     2      -9.181  11.050  68.899  1.00  0.00    -0.179 OA 
BRANCH  13  15
HETATM   15  C   UNL     2     -11.610  10.607  69.126  1.00  0.00    -0.271 C  
HETATM   16  O   UNL     2     -12.378   9.858  70.069  1.00  0.00    -0.485 OA 
HETATM   17  H   UNL     2     -13.305  10.065  70.067  1.00  0.00     0.000 HD 
BRANCH  15  18
HETATM   18  C   UNL     2     -11.808  12.097  69.319  1.00  0.00    -0.370 A  
HETATM   19  C   UNL     2     -12.208  12.563  70.587  1.00  0.00    -0.365 A  
HETATM   20  C   UNL     2     -12.466  13.900  70.804  1.00  0.00    -0.445 A  
HETATM   21  C   UNL     2     -12.334  14.815  69.768  1.00  0.00    -0.291 A  
HETATM   22  C   UNL     2     -11.940  14.382  68.500  1.00  0.00    -0.333 A  
HETATM   23  C   UNL     2     -11.686  13.028  68.274  1.00  0.00    -0.390 A  
ENDBRANCH  15  18
ENDBRANCH  13  15
ENDBRANCH  12  13
ENDBRANCH  10  12
TORSDOF 4
ENDMDL
MODEL      134
REMARK 921   NORMALIZED FREE ENERGY PREDICTED BY IDOCK:   -4.33 KCAL/MOL
REMARK 922        TOTAL FREE ENERGY PREDICTED BY IDOCK:   -5.98 KCAL/MOL
REMARK 923 INTER-LIGAND FREE ENERGY PREDICTED BY IDOCK:   -5.01 KCAL/MOL
REMARK 924 INTRA-LIGAND FREE ENERGY PREDICTED BY IDOCK:   -0.98 KCAL/MOL
REMARK 927      BINDING AFFINITY PREDICTED BY RF-SCORE:    0.00 PKD
ROOT
HETATM    1 BR   UNL     1      -9.203   4.047  72.634  1.00  0.00    -0.147 Br 
HETATM    2  C   UNL     2     -10.966   7.535  73.125  1.00  0.00    -0.367 C  
HETATM    3  N   UNL     2     -11.337   7.905  71.650  1.00  0.00    -0.251 N  
HETATM    4  C   UNL     2     -12.823   7.617  71.582  1.00  0.00    -0.349 C  
HETATM    5  C   UNL     2     -10.467   7.054  70.681  1.00  0.00    -0.210 C  
HETATM    6  C   UNL     2      -9.065   7.662  70.879  1.00  0.00    -0.149 C  
HETATM    7  C   UNL     2      -9.320   9.114  71.326  1.00  0.00    -0.285 C  
HETATM    8  C   UNL     2     -10.848   9.312  71.239  1.00  0.00    -0.347 C  
HETATM    9  C   UNL     2     -11.411   9.635  69.830  1.00  0.00    -0.200 C  
HETATM   10  C   UNL     2     -10.895   8.697  68.740  1.00  0.00     0.030 C  
HETATM   11  C   UNL     2     -10.942   7.252  69.222  1.00  0.00    -0.121 C  
ENDROOT
BRANCH  10  12
HETATM   12  O   UNL     2      -9.510   8.990  68.456  1.00  0.00    -0.143 OA 
BRANCH  12  13
HETATM   13  C   UNL     2      -9.097   9.136  67.163  1.00  0.00    -0.126 C  
HETATM   14  O   UNL     2      -9.163   8.268  66.298  1.00  0.00    -0.181 OA 
BRANCH  13  15
HETATM   15  C   UNL     2      -8.536  10.566  66.983  1.00  0.00    -0.127 C  
HETATM   16  O   UNL     2      -7.730  10.737  65.817  1.00  0.00    -0.215 OA 
HETATM   17  H   UNL     2      -7.386  11.615  65.707  1.00  0.00     0.000 HD 
BRANCH  15  18
HETATM   18  C   UNL     2      -9.667  11.573  67.018  1.00  0.00    -0.202 A  
HETATM   19  C   UNL     2      -9.562  12.673  67.892  1.00  0.00    -0.211 A  
HETATM   20  C   UNL     2     -10.589  13.586  68.014  1.00  0.00    -0.247 A  
HETATM   21  C   UNL     2     -11.752  13.433  67.271  1.00  0.00    -0.424 A  
HETATM   22  C   UNL     2     -11.886  12.351  66.398  1.00  0.00    -0.421 A  
HETATM   23  C   UNL     2     -10.852  11.421  66.278  1.00  0.00    -0.318 A  
ENDBRANCH  15  18
ENDBRANCH  13  15
ENDBRANCH  12  13
ENDBRANCH  10  12
TORSDOF 4
ENDMDL
MODEL      135
REMARK 921   NORMALIZED FREE ENERGY PREDICTED BY IDOCK:   -4.33 KCAL/MOL
REMARK 922        TOTAL FREE ENERGY PREDICTED BY IDOCK:   -5.98 KCAL/MOL
REMARK 923 INTER-LIGAND FREE ENERGY PREDICTED BY IDOCK:   -5.35 KCAL/MOL
REMARK 924 INTRA-LIGAND FREE ENERGY PREDICTED BY IDOCK:   -0.63 KCAL/MOL
REMARK 927      BINDING AFFINITY PREDICTED BY RF-SCORE:    0.00 PKD
ROOT
HETATM    1 BR   UNL     1     -10.433   3.531  73.357  1.00  0.00    -0.286 Br 
HETATM    2  C   UNL     2      -9.214   3.053  69.642  1.00  0.00    -0.149 C  
HETATM    3  N   UNL     2      -8.643   4.474  69.317  1.00  0.00    -0.078 N  
HETATM    4  C   UNL     2      -7.144   4.276  69.409  1.00  0.00    -0.050 C  
HETATM    5  C   UNL     2      -9.225   5.498  70.335  1.00  0.00    -0.151 C  
HETATM    6  C   UNL     2     -10.704   5.580  69.908  1.00  0.00    -0.358 C  
HETATM    7  C   UNL     2     -10.706   5.220  68.410  1.00  0.00     0.030 C  
HETATM    8  C   UNL     2      -9.221   5.074  68.016  1.00  0.00    -0.119 C  
HETATM    9  C   UNL     2      -8.468   6.395  67.709  1.00  0.00    -0.117 C  
HETATM   10  C   UNL     2      -8.673   7.473  68.773  1.00  0.00    -0.128 C  
HETATM   11  C   UNL     2      -8.535   6.871  70.166  1.00  0.00    -0.140 C  
ENDROOT
BRANCH  10  12
HETATM   12  O   UNL     2     -10.013   8.001  68.684  1.00  0.00    -0.178 OA 
BRANCH  12  13
HETATM   13  C   UNL     2     -10.216   9.266  68.214  1.00  0.00    -0.201 C  
HETATM   14  O   UNL     2     -10.509   9.552  67.057  1.00  0.00    -0.249 OA 
BRANCH  13  15
HETATM   15  C   UNL     2     -10.011  10.263  69.379  1.00  0.00    -0.233 C  
HETATM   16  O   UNL     2      -9.733  11.601  68.963  1.00  0.00    -0.401 OA 
HETATM   17  H   UNL     2      -9.606  12.213  69.678  1.00  0.00     0.000 HD 
BRANCH  15  18
HETATM   18  C   UNL     2     -11.201  10.218  70.314  1.00  0.00    -0.395 A  
HETATM   19  C   UNL     2     -11.921  11.407  70.545  1.00  0.00    -0.451 A  
HETATM   20  C   UNL     2     -12.973  11.440  71.437  1.00  0.00    -0.468 A  
HETATM   21  C   UNL     2     -13.341  10.292  72.126  1.00  0.00    -0.404 A  
HETATM   22  C   UNL     2     -12.646   9.099  71.919  1.00  0.00    -0.463 A  
HETATM   23  C   UNL     2     -11.575   9.063  71.024  1.00  0.00    -0.360 A  
ENDBRANCH  15  18
ENDBRANCH  13  15
ENDBRANCH  12  13
ENDBRANCH  10  12
TORSDOF 4
ENDMDL
MODEL      136
REMARK 921   NORMALIZED FREE ENERGY PREDICTED BY IDOCK:   -4.32 KCAL/MOL
REMARK 922        TOTAL FREE ENERGY PREDICTED BY IDOCK:   -5.97 KCAL/MOL
REMARK 923 INTER-LIGAND FREE ENERGY PREDICTED BY IDOCK:   -5.19 KCAL/MOL
REMARK 924 INTRA-LIGAND FREE ENERGY PREDICTED BY IDOCK:   -0.78 KCAL/MOL
REMARK 927      BINDING AFFINITY PREDICTED BY RF-SCORE:    0.00 PKD
ROOT
HETATM    1 BR   UNL     1      -5.215  18.489  65.294  1.00  0.00    -0.221 Br 
HETATM    2  C   UNL     2      -8.464  20.205  66.714  1.00  0.00    -0.302 C  
HETATM    3  N   UNL     2      -9.018  19.087  67.660  1.00  0.00    -0.286 N  
HETATM    4  C   UNL     2      -8.640  19.581  69.041  1.00  0.00    -0.178 C  
HETATM    5  C   UNL     2      -8.378  17.725  67.262  1.00  0.00    -0.220 C  
HETATM    6  C   UNL     2      -9.047  17.433  65.904  1.00  0.00     0.033 C  
HETATM    7  C   UNL     2     -10.398  18.172  65.959  1.00  0.00    -0.360 C  
HETATM    8  C   UNL     2     -10.500  18.745  67.388  1.00  0.00    -0.431 C  
HETATM    9  C   UNL     2     -10.983  17.756  68.482  1.00  0.00     0.155 C  
HETATM   10  C   UNL     2     -10.251  16.415  68.456  1.00  0.00    -0.257 C  
HETATM   11  C   UNL     2      -8.751  16.637  68.295  1.00  0.00    -0.216 C  
ENDROOT
BRANCH  10  12
HETATM   12  O   UNL     2     -10.678  15.646  67.312  1.00  0.00    -0.299 OA 
BRANCH  12  13
HETATM   13  C   UNL     2     -11.564  14.620  67.474  1.00  0.00    -0.375 C  
HETATM   14  O   UNL     2     -12.427  14.297  66.664  1.00  0.00    -0.407 OA 
BRANCH  13  15
HETATM   15  C   UNL     2     -11.294  13.950  68.842  1.00  0.00    -0.282 C  
HETATM   16  O   UNL     2     -12.461  13.775  69.648  1.00  0.00    -0.281 OA 
HETATM   17  H   UNL     2     -12.295  13.363  70.488  1.00  0.00     0.000 HD 
BRANCH  15  18
HETATM   18  C   UNL     2     -10.568  12.636  68.640  1.00  0.00    -0.245 A  
HETATM   19  C   UNL     2      -9.235  12.668  68.183  1.00  0.00    -0.209 A  
HETATM   20  C   UNL     2      -8.546  11.503  67.919  1.00  0.00    -0.143 A  
HETATM   21  C   UNL     2      -9.160  10.271  68.100  1.00  0.00    -0.136 A  
HETATM   22  C   UNL     2     -10.481  10.207  68.550  1.00  0.00    -0.221 A  
HETATM   23  C   UNL     2     -11.184  11.385  68.811  1.00  0.00    -0.308 A  
ENDBRANCH  15  18
ENDBRANCH  13  15
ENDBRANCH  12  13
ENDBRANCH  10  12
TORSDOF 4
ENDMDL
MODEL      137
REMARK 921   NORMALIZED FREE ENERGY PREDICTED BY IDOCK:   -4.31 KCAL/MOL
REMARK 922        TOTAL FREE ENERGY PREDICTED BY IDOCK:   -5.96 KCAL/MOL
REMARK 923 INTER-LIGAND FREE ENERGY PREDICTED BY IDOCK:   -5.39 KCAL/MOL
REMARK 924 INTRA-LIGAND FREE ENERGY PREDICTED BY IDOCK:   -0.57 KCAL/MOL
REMARK 927      BINDING AFFINITY PREDICTED BY RF-SCORE:    0.00 PKD
ROOT
HETATM    1 BR   UNL     1      -8.350   2.813  66.701  1.00  0.00    -0.101 Br 
HETATM    2  C   UNL     2      -7.748   3.740  70.482  1.00  0.00    -0.044 C  
HETATM    3  N   UNL     2      -9.029   4.581  70.803  1.00  0.00    -0.110 N  
HETATM    4  C   UNL     2      -9.888   3.616  71.595  1.00  0.00    -0.160 C  
HETATM    5  C   UNL     2      -9.663   5.067  69.468  1.00  0.00    -0.189 C  
HETATM    6  C   UNL     2      -8.640   6.113  68.981  1.00  0.00    -0.121 C  
HETATM    7  C   UNL     2      -7.958   6.630  70.262  1.00  0.00    -0.115 C  
HETATM    8  C   UNL     2      -8.707   5.956  71.431  1.00  0.00    -0.133 C  
HETATM    9  C   UNL     2     -10.041   6.624  71.857  1.00  0.00    -0.196 C  
HETATM   10  C   UNL     2     -10.971   6.927  70.683  1.00  0.00    -0.264 C  
HETATM   11  C   UNL     2     -11.032   5.733  69.737  1.00  0.00    -0.397 C  
ENDROOT
BRANCH  10  12
HETATM   12  O   UNL     2     -10.448   8.033  69.917  1.00  0.00    -0.223 OA 
BRANCH  12  13
HETATM   13  C   UNL     2     -10.304   9.258  70.502  1.00  0.00    -0.254 C  
HETATM   14  O   UNL     2      -9.241   9.741  70.878  1.00  0.00    -0.108 OA 
BRANCH  13  15
HETATM   15  C   UNL     2     -11.699   9.918  70.610  1.00  0.00    -0.323 C  
HETATM   16  O   UNL     2     -12.162  10.094  71.950  1.00  0.00    -0.332 OA 
HETATM   17  H   UNL     2     -13.018  10.499  72.016  1.00  0.00     0.000 HD 
BRANCH  15  18
HETATM   18  C   UNL     2     -11.711  11.229  69.851  1.00  0.00    -0.430 A  
HETATM   19  C   UNL     2     -12.085  12.401  70.538  1.00  0.00    -0.363 A  
HETATM   20  C   UNL     2     -12.177  13.611  69.882  1.00  0.00    -0.367 A  
HETATM   21  C   UNL     2     -11.899  13.693  68.524  1.00  0.00    -0.406 A  
HETATM   22  C   UNL     2     -11.527  12.548  67.816  1.00  0.00    -0.378 A  
HETATM   23  C   UNL     2     -11.441  11.320  68.474  1.00  0.00    -0.372 A  
ENDBRANCH  15  18
ENDBRANCH  13  15
ENDBRANCH  12  13
ENDBRANCH  10  12
TORSDOF 4
ENDMDL
MODEL      138
REMARK 921   NORMALIZED FREE ENERGY PREDICTED BY IDOCK:   -4.28 KCAL/MOL
REMARK 922        TOTAL FREE ENERGY PREDICTED BY IDOCK:   -5.92 KCAL/MOL
REMARK 923 INTER-LIGAND FREE ENERGY PREDICTED BY IDOCK:   -4.96 KCAL/MOL
REMARK 924 INTRA-LIGAND FREE ENERGY PREDICTED BY IDOCK:   -0.97 KCAL/MOL
REMARK 927      BINDING AFFINITY PREDICTED BY RF-SCORE:    0.00 PKD
ROOT
HETATM    1 BR   UNL     1     -10.256   4.890  66.232  1.00  0.00    -0.330 Br 
HETATM    2  C   UNL     2      -9.687   8.786  66.319  1.00  0.00    -0.272 C  
HETATM    3  N   UNL     2      -8.883   8.953  67.653  1.00  0.00    -0.134 N  
HETATM    4  C   UNL     2      -7.460   9.161  67.178  1.00  0.00    -0.087 C  
HETATM    5  C   UNL     2      -9.093   7.686  68.531  1.00  0.00    -0.131 C  
HETATM    6  C   UNL     2     -10.567   7.826  68.961  1.00  0.00    -0.179 C  
HETATM    7  C   UNL     2     -10.851   9.340  68.923  1.00  0.00    -0.128 C  
HETATM    8  C   UNL     2      -9.498  10.008  68.601  1.00  0.00    -0.156 C  
HETATM    9  C   UNL     2      -8.536  10.206  69.801  1.00  0.00    -0.148 C  
HETATM   10  C   UNL     2      -8.364   8.951  70.656  1.00  0.00    -0.166 C  
HETATM   11  C   UNL     2      -8.163   7.730  69.766  1.00  0.00    -0.129 C  
ENDROOT
BRANCH  10  12
HETATM   12  O   UNL     2      -9.565   8.710  71.420  1.00  0.00    -0.194 OA 
BRANCH  12  13
HETATM   13  C   UNL     2      -9.473   8.324  72.727  1.00  0.00    -0.273 C  
HETATM   14  O   UNL     2      -8.531   8.571  73.472  1.00  0.00    -0.365 OA 
BRANCH  13  15
HETATM   15  C   UNL     2     -10.748   7.527  73.095  1.00  0.00    -0.398 C  
HETATM   16  O   UNL     2     -11.894   7.861  72.309  1.00  0.00    -0.319 OA 
HETATM   17  H   UNL     2     -12.676   7.373  72.535  1.00  0.00     0.000 HD 
BRANCH  15  18
HETATM   18  C   UNL     2     -10.463   6.041  73.041  1.00  0.00    -0.246 A  
HETATM   19  C   UNL     2     -10.188   5.453  71.790  1.00  0.00    -0.263 A  
HETATM   20  C   UNL     2      -9.985   4.094  71.672  1.00  0.00    -0.240 A  
HETATM   21  C   UNL     2     -10.050   3.278  72.794  1.00  0.00    -0.230 A  
HETATM   22  C   UNL     2     -10.322   3.831  74.047  1.00  0.00    -0.242 A  
HETATM   23  C   UNL     2     -10.536   5.205  74.169  1.00  0.00    -0.326 A  
ENDBRANCH  15  18
ENDBRANCH  13  15
ENDBRANCH  12  13
ENDBRANCH  10  12
TORSDOF 4
ENDMDL
MODEL      139
REMARK 921   NORMALIZED FREE ENERGY PREDICTED BY IDOCK:   -4.28 KCAL/MOL
REMARK 922        TOTAL FREE ENERGY PREDICTED BY IDOCK:   -5.92 KCAL/MOL
REMARK 923 INTER-LIGAND FREE ENERGY PREDICTED BY IDOCK:   -4.63 KCAL/MOL
REMARK 924 INTRA-LIGAND FREE ENERGY PREDICTED BY IDOCK:   -1.29 KCAL/MOL
REMARK 927      BINDING AFFINITY PREDICTED BY RF-SCORE:    0.00 PKD
ROOT
HETATM    1 BR   UNL     1     -12.896  12.400  70.836  1.00  0.00    -0.084 Br 
HETATM    2  C   UNL     2     -10.534  13.224  67.795  1.00  0.00    -0.239 C  
HETATM    3  N   UNL     2     -10.392  11.818  67.121  1.00  0.00    -0.212 N  
HETATM    4  C   UNL     2     -11.307  11.915  65.917  1.00  0.00    -0.308 C  
HETATM    5  C   UNL     2     -10.792  10.721  68.151  1.00  0.00    -0.236 C  
HETATM    6  C   UNL     2      -9.624  10.775  69.156  1.00  0.00    -0.169 C  
HETATM    7  C   UNL     2      -8.425  11.303  68.345  1.00  0.00    -0.153 C  
HETATM    8  C   UNL     2      -8.922  11.405  66.888  1.00  0.00    -0.171 C  
HETATM    9  C   UNL     2      -8.907  10.085  66.073  1.00  0.00    -0.164 C  
HETATM   10  C   UNL     2      -9.542   8.907  66.811  1.00  0.00    -0.202 C  
HETATM   11  C   UNL     2     -10.851   9.338  67.463  1.00  0.00    -0.182 C  
ENDROOT
BRANCH  10  12
HETATM   12  O   UNL     2      -8.674   8.473  67.880  1.00  0.00    -0.136 OA 
BRANCH  12  13
HETATM   13  C   UNL     2      -8.684   7.166  68.275  1.00  0.00    -0.128 C  
HETATM   14  O   UNL     2      -8.905   6.208  67.542  1.00  0.00    -0.109 OA 
BRANCH  13  15
HETATM   15  C   UNL     2      -8.376   7.109  69.791  1.00  0.00    -0.132 C  
HETATM   16  O   UNL     2      -7.348   8.007  70.213  1.00  0.00    -0.059 OA 
HETATM   17  H   UNL     2      -7.159   7.971  71.143  1.00  0.00     0.000 HD 
BRANCH  15  18
HETATM   18  C   UNL     2      -9.648   7.321  70.586  1.00  0.00    -0.172 A  
HETATM   19  C   UNL     2     -10.833   6.706  70.135  1.00  0.00    -0.330 A  
HETATM   20  C   UNL     2     -12.033   6.916  70.781  1.00  0.00    -0.424 A  
HETATM   21  C   UNL     2     -12.092   7.744  71.895  1.00  0.00    -0.341 A  
HETATM   22  C   UNL     2     -10.934   8.368  72.364  1.00  0.00    -0.425 A  
HETATM   23  C   UNL     2      -9.719   8.164  71.708  1.00  0.00    -0.253 A  
ENDBRANCH  15  18
ENDBRANCH  13  15
ENDBRANCH  12  13
ENDBRANCH  10  12
TORSDOF 4
ENDMDL
MODEL      140
REMARK 921   NORMALIZED FREE ENERGY PREDICTED BY IDOCK:   -4.28 KCAL/MOL
REMARK 922        TOTAL FREE ENERGY PREDICTED BY IDOCK:   -5.91 KCAL/MOL
REMARK 923 INTER-LIGAND FREE ENERGY PREDICTED BY IDOCK:   -5.08 KCAL/MOL
REMARK 924 INTRA-LIGAND FREE ENERGY PREDICTED BY IDOCK:   -0.84 KCAL/MOL
REMARK 927      BINDING AFFINITY PREDICTED BY RF-SCORE:    0.00 PKD
ROOT
HETATM    1 BR   UNL     1     -12.239  15.480  70.848  1.00  0.00    -0.493 Br 
HETATM    2  C   UNL     2     -10.991  15.515  67.112  1.00  0.00    -0.295 C  
HETATM    3  N   UNL     2     -11.278  14.039  66.676  1.00  0.00    -0.316 N  
HETATM    4  C   UNL     2     -12.532  14.162  65.835  1.00  0.00    -0.453 C  
HETATM    5  C   UNL     2     -11.435  13.156  67.948  1.00  0.00    -0.308 C  
HETATM    6  C   UNL     2      -9.995  13.113  68.496  1.00  0.00    -0.182 C  
HETATM    7  C   UNL     2      -9.093  13.319  67.265  1.00  0.00    -0.221 C  
HETATM    8  C   UNL     2     -10.047  13.343  66.051  1.00  0.00    -0.304 C  
HETATM    9  C   UNL     2     -10.489  11.959  65.510  1.00  0.00    -0.309 C  
HETATM   10  C   UNL     2     -10.978  11.006  66.600  1.00  0.00    -0.190 C  
HETATM   11  C   UNL     2     -11.910  11.737  67.559  1.00  0.00    -0.227 C  
ENDROOT
BRANCH  10  12
HETATM   12  O   UNL     2      -9.858  10.547  67.387  1.00  0.00    -0.167 OA 
BRANCH  12  13
HETATM   13  C   UNL     2      -9.873   9.291  67.923  1.00  0.00    -0.167 C  
HETATM   14  O   UNL     2     -10.434   8.976  68.968  1.00  0.00    -0.219 OA 
BRANCH  13  15
HETATM   15  C   UNL     2      -9.067   8.350  66.996  1.00  0.00    -0.144 C  
HETATM   16  O   UNL     2      -9.867   7.622  66.064  1.00  0.00    -0.446 OA 
HETATM   17  H   UNL     2      -9.373   7.044  65.495  1.00  0.00     0.000 HD 
BRANCH  15  18
HETATM   18  C   UNL     2      -7.977   9.130  66.290  1.00  0.00    -0.103 A  
HETATM   19  C   UNL     2      -7.987   9.174  64.881  1.00  0.00    -0.123 A  
HETATM   20  C   UNL     2      -6.984   9.813  64.183  1.00  0.00    -0.123 A  
HETATM   21  C   UNL     2      -5.941  10.427  64.863  1.00  0.00    -0.122 A  
HETATM   22  C   UNL     2      -5.903  10.399  66.259  1.00  0.00    -0.078 A  
HETATM   23  C   UNL     2      -6.912   9.746  66.969  1.00  0.00    -0.085 A  
ENDBRANCH  15  18
ENDBRANCH  13  15
ENDBRANCH  12  13
ENDBRANCH  10  12
TORSDOF 4
ENDMDL
MODEL      141
REMARK 921   NORMALIZED FREE ENERGY PREDICTED BY IDOCK:   -4.27 KCAL/MOL
REMARK 922        TOTAL FREE ENERGY PREDICTED BY IDOCK:   -5.91 KCAL/MOL
REMARK 923 INTER-LIGAND FREE ENERGY PREDICTED BY IDOCK:   -5.31 KCAL/MOL
REMARK 924 INTRA-LIGAND FREE ENERGY PREDICTED BY IDOCK:   -0.60 KCAL/MOL
REMARK 927      BINDING AFFINITY PREDICTED BY RF-SCORE:    0.00 PKD
ROOT
HETATM    1 BR   UNL     1      -7.624   8.304  64.640  1.00  0.00    -0.113 Br 
HETATM    2  C   UNL     2      -7.253   4.643  66.046  1.00  0.00    -0.076 C  
HETATM    3  N   UNL     2      -8.478   4.558  67.017  1.00  0.00    -0.105 N  
HETATM    4  C   UNL     2      -9.480   3.727  66.242  1.00  0.00    -0.179 C  
HETATM    5  C   UNL     2      -8.956   6.000  67.356  1.00  0.00    -0.108 C  
HETATM    6  C   UNL     2      -7.810   6.526  68.242  1.00  0.00    -0.106 C  
HETATM    7  C   UNL     2      -7.193   5.268  68.883  1.00  0.00    -0.062 C  
HETATM    8  C   UNL     2      -8.090   4.094  68.439  1.00  0.00    -0.080 C  
HETATM    9  C   UNL     2      -9.390   3.887  69.259  1.00  0.00    -0.242 C  
HETATM   10  C   UNL     2     -10.192   5.172  69.462  1.00  0.00    -0.248 C  
HETATM   11  C   UNL     2     -10.279   5.951  68.154  1.00  0.00    -0.225 C  
ENDROOT
BRANCH  10  12
HETATM   12  O   UNL     2      -9.514   6.029  70.405  1.00  0.00    -0.160 OA 
BRANCH  12  13
HETATM   13  C   UNL     2      -9.939   6.082  71.702  1.00  0.00    -0.179 C  
HETATM   14  O   UNL     2      -9.210   6.015  72.687  1.00  0.00    -0.144 OA 
BRANCH  13  15
HETATM   15  C   UNL     2     -11.478   6.235  71.710  1.00  0.00    -0.301 C  
HETATM   16  O   UNL     2     -12.120   5.638  72.838  1.00  0.00    -0.550 OA 
HETATM   17  H   UNL     2     -13.065   5.732  72.843  1.00  0.00     0.000 HD 
BRANCH  15  18
HETATM   18  C   UNL     2     -11.853   7.697  71.577  1.00  0.00    -0.323 A  
HETATM   19  C   UNL     2     -13.156   8.092  71.939  1.00  0.00    -0.349 A  
HETATM   20  C   UNL     2     -13.574   9.397  71.778  1.00  0.00    -0.461 A  
HETATM   21  C   UNL     2     -12.709  10.348  71.252  1.00  0.00    -0.536 A  
HETATM   22  C   UNL     2     -11.412   9.985  70.883  1.00  0.00    -0.452 A  
HETATM   23  C   UNL     2     -10.988   8.664  71.037  1.00  0.00    -0.314 A  
ENDBRANCH  15  18
ENDBRANCH  13  15
ENDBRANCH  12  13
ENDBRANCH  10  12
TORSDOF 4
ENDMDL
MODEL      142
REMARK 921   NORMALIZED FREE ENERGY PREDICTED BY IDOCK:   -4.27 KCAL/MOL
REMARK 922        TOTAL FREE ENERGY PREDICTED BY IDOCK:   -5.90 KCAL/MOL
REMARK 923 INTER-LIGAND FREE ENERGY PREDICTED BY IDOCK:   -4.91 KCAL/MOL
REMARK 924 INTRA-LIGAND FREE ENERGY PREDICTED BY IDOCK:   -0.99 KCAL/MOL
REMARK 927      BINDING AFFINITY PREDICTED BY RF-SCORE:    0.00 PKD
ROOT
HETATM    1 BR   UNL     1     -10.875  20.074  65.674  1.00  0.00    -0.009 Br 
HETATM    2  C   UNL     2      -7.392  20.708  67.400  1.00  0.00    -0.336 C  
HETATM    3  N   UNL     2      -6.643  19.368  67.090  1.00  0.00    -0.195 N  
HETATM    4  C   UNL     2      -5.701  19.749  65.965  1.00  0.00    -0.162 C  
HETATM    5  C   UNL     2      -7.689  18.279  66.717  1.00  0.00    -0.225 C  
HETATM    6  C   UNL     2      -8.384  18.016  68.068  1.00  0.00    -0.263 C  
HETATM    7  C   UNL     2      -7.332  18.376  69.134  1.00  0.00    -0.155 C  
HETATM    8  C   UNL     2      -6.043  18.705  68.350  1.00  0.00    -0.212 C  
HETATM    9  C   UNL     2      -5.192  17.487  67.905  1.00  0.00    -0.130 C  
HETATM   10  C   UNL     2      -6.009  16.390  67.224  1.00  0.00    -0.158 C  
HETATM   11  C   UNL     2      -6.976  17.001  66.217  1.00  0.00    -0.205 C  
ENDROOT
BRANCH  10  12
HETATM   12  O   UNL     2      -6.816  15.701  68.204  1.00  0.00    -0.110 OA 
BRANCH  12  13
HETATM   13  C   UNL     2      -7.211  14.414  67.976  1.00  0.00    -0.141 C  
HETATM   14  O   UNL     2      -6.606  13.601  67.285  1.00  0.00    -0.254 OA 
BRANCH  13  15
HETATM   15  C   UNL     2      -8.540  14.167  68.729  1.00  0.00    -0.067 C  
HETATM   16  O   UNL     2      -8.872  15.182  69.678  1.00  0.00    -0.411 OA 
HETATM   17  H   UNL     2      -9.688  15.029  70.140  1.00  0.00     0.000 HD 
BRANCH  15  18
HETATM   18  C   UNL     2      -9.665  13.957  67.737  1.00  0.00    -0.225 A  
HETATM   19  C   UNL     2      -9.899  14.950  66.765  1.00  0.00    -0.254 A  
HETATM   20  C   UNL     2     -10.951  14.843  65.878  1.00  0.00    -0.338 A  
HETATM   21  C   UNL     2     -11.800  13.746  65.930  1.00  0.00    -0.405 A  
HETATM   22  C   UNL     2     -11.594  12.746  66.884  1.00  0.00    -0.428 A  
HETATM   23  C   UNL     2     -10.536  12.855  67.788  1.00  0.00    -0.231 A  
ENDBRANCH  15  18
ENDBRANCH  13  15
ENDBRANCH  12  13
ENDBRANCH  10  12
TORSDOF 4
ENDMDL
MODEL      143
REMARK 921   NORMALIZED FREE ENERGY PREDICTED BY IDOCK:   -4.26 KCAL/MOL
REMARK 922        TOTAL FREE ENERGY PREDICTED BY IDOCK:   -5.89 KCAL/MOL
REMARK 923 INTER-LIGAND FREE ENERGY PREDICTED BY IDOCK:   -4.90 KCAL/MOL
REMARK 924 INTRA-LIGAND FREE ENERGY PREDICTED BY IDOCK:   -0.99 KCAL/MOL
REMARK 927      BINDING AFFINITY PREDICTED BY RF-SCORE:    0.00 PKD
ROOT
HETATM    1 BR   UNL     1      -6.432   7.062  72.351  1.00  0.00    -0.053 Br 
HETATM    2  C   UNL     2     -10.010   5.810  71.279  1.00  0.00    -0.191 C  
HETATM    3  N   UNL     2      -9.867   5.760  69.720  1.00  0.00    -0.167 N  
HETATM    4  C   UNL     2      -9.705   4.281  69.433  1.00  0.00    -0.187 C  
HETATM    5  C   UNL     2      -8.655   6.638  69.295  1.00  0.00    -0.131 C  
HETATM    6  C   UNL     2      -9.168   8.064  69.580  1.00  0.00    -0.152 C  
HETATM    7  C   UNL     2     -10.701   7.968  69.459  1.00  0.00    -0.185 C  
HETATM    8  C   UNL     2     -10.990   6.527  68.986  1.00  0.00    -0.321 C  
HETATM    9  C   UNL     2     -10.842   6.272  67.463  1.00  0.00    -0.436 C  
HETATM   10  C   UNL     2      -9.538   6.813  66.879  1.00  0.00    -0.160 C  
HETATM   11  C   UNL     2      -8.366   6.458  67.787  1.00  0.00    -0.118 C  
ENDROOT
BRANCH  10  12
HETATM   12  O   UNL     2      -9.589   8.255  66.819  1.00  0.00    -0.187 OA 
BRANCH  12  13
HETATM   13  C   UNL     2      -8.901   8.920  65.846  1.00  0.00    -0.179 C  
HETATM   14  O   UNL     2      -8.693   8.497  64.713  1.00  0.00    -0.135 OA 
BRANCH  13  15
HETATM   15  C   UNL     2      -8.433  10.280  66.415  1.00  0.00    -0.130 C  
HETATM   16  O   UNL     2      -7.594  11.027  65.533  1.00  0.00    -0.359 OA 
HETATM   17  H   UNL     2      -7.306  11.861  65.883  1.00  0.00     0.000 HD 
BRANCH  15  18
HETATM   18  C   UNL     2      -9.631  11.097  66.853  1.00  0.00    -0.208 A  
HETATM   19  C   UNL     2      -9.827  11.319  68.230  1.00  0.00    -0.201 A  
HETATM   20  C   UNL     2     -10.935  11.999  68.691  1.00  0.00    -0.281 A  
HETATM   21  C   UNL     2     -11.882  12.480  67.795  1.00  0.00    -0.375 A  
HETATM   22  C   UNL     2     -11.715  12.274  66.424  1.00  0.00    -0.431 A  
HETATM   23  C   UNL     2     -10.599  11.579  65.955  1.00  0.00    -0.310 A  
ENDBRANCH  15  18
ENDBRANCH  13  15
ENDBRANCH  12  13
ENDBRANCH  10  12
TORSDOF 4
ENDMDL
MODEL      144
REMARK 921   NORMALIZED FREE ENERGY PREDICTED BY IDOCK:   -4.25 KCAL/MOL
REMARK 922        TOTAL FREE ENERGY PREDICTED BY IDOCK:   -5.88 KCAL/MOL
REMARK 923 INTER-LIGAND FREE ENERGY PREDICTED BY IDOCK:   -5.14 KCAL/MOL
REMARK 924 INTRA-LIGAND FREE ENERGY PREDICTED BY IDOCK:   -0.75 KCAL/MOL
REMARK 927      BINDING AFFINITY PREDICTED BY RF-SCORE:    0.00 PKD
ROOT
HETATM    1 BR   UNL     1      -8.710  17.128  68.042  1.00  0.00    -0.227 Br 
HETATM    2  C   UNL     2     -11.975  14.938  67.800  1.00  0.00    -0.162 C  
HETATM    3  N   UNL     2     -11.429  13.523  68.189  1.00  0.00    -0.283 N  
HETATM    4  C   UNL     2     -11.902  13.348  69.618  1.00  0.00    -0.331 C  
HETATM    5  C   UNL     2      -9.883  13.511  68.013  1.00  0.00    -0.238 C  
HETATM    6  C   UNL     2      -9.728  13.565  66.480  1.00  0.00    -0.287 C  
HETATM    7  C   UNL     2     -11.019  12.933  65.926  1.00  0.00    -0.300 C  
HETATM    8  C   UNL     2     -11.797  12.429  67.161  1.00  0.00    -0.291 C  
HETATM    9  C   UNL     2     -11.354  11.055  67.727  1.00  0.00    -0.365 C  
HETATM   10  C   UNL     2      -9.842  10.934  67.917  1.00  0.00    -0.172 C  
HETATM   11  C   UNL     2      -9.291  12.196  68.571  1.00  0.00    -0.108 C  
ENDROOT
BRANCH  10  12
HETATM   12  O   UNL     2      -9.194  10.822  66.632  1.00  0.00    -0.162 OA 
BRANCH  12  13
HETATM   13  C   UNL     2      -8.413   9.736  66.358  1.00  0.00    -0.124 C  
HETATM   14  O   UNL     2      -7.250   9.593  66.722  1.00  0.00    -0.089 OA 
BRANCH  13  15
HETATM   15  C   UNL     2      -9.239   8.735  65.516  1.00  0.00    -0.137 C  
HETATM   16  O   UNL     2      -8.648   8.400  64.259  1.00  0.00    -0.378 OA 
HETATM   17  H   UNL     2      -9.156   7.786  63.743  1.00  0.00     0.000 HD 
BRANCH  15  18
HETATM   18  C   UNL     2      -9.532   7.493  66.331  1.00  0.00    -0.208 A  
HETATM   19  C   UNL     2     -10.657   7.494  67.179  1.00  0.00    -0.415 A  
HETATM   20  C   UNL     2     -10.936   6.416  67.993  1.00  0.00    -0.400 A  
HETATM   21  C   UNL     2     -10.105   5.304  67.989  1.00  0.00    -0.208 A  
HETATM   22  C   UNL     2      -8.981   5.274  67.160  1.00  0.00    -0.112 A  
HETATM   23  C   UNL     2      -8.691   6.366  66.341  1.00  0.00    -0.140 A  
ENDBRANCH  15  18
ENDBRANCH  13  15
ENDBRANCH  12  13
ENDBRANCH  10  12
TORSDOF 4
ENDMDL
MODEL      145
REMARK 921   NORMALIZED FREE ENERGY PREDICTED BY IDOCK:   -4.24 KCAL/MOL
REMARK 922        TOTAL FREE ENERGY PREDICTED BY IDOCK:   -5.87 KCAL/MOL
REMARK 923 INTER-LIGAND FREE ENERGY PREDICTED BY IDOCK:   -4.64 KCAL/MOL
REMARK 924 INTRA-LIGAND FREE ENERGY PREDICTED BY IDOCK:   -1.23 KCAL/MOL
REMARK 927      BINDING AFFINITY PREDICTED BY RF-SCORE:    0.00 PKD
ROOT
HETATM    1 BR   UNL     1     -13.082   8.415  72.257  1.00  0.00    -0.286 Br 
HETATM    2  C   UNL     2     -11.298   6.621  69.239  1.00  0.00    -0.237 C  
HETATM    3  N   UNL     2      -9.866   7.251  69.305  1.00  0.00    -0.164 N  
HETATM    4  C   UNL     2      -9.031   6.151  69.929  1.00  0.00    -0.139 C  
HETATM    5  C   UNL     2      -9.930   8.565  70.135  1.00  0.00    -0.181 C  
HETATM    6  C   UNL     2     -10.711   9.507  69.198  1.00  0.00    -0.228 C  
HETATM    7  C   UNL     2     -10.431   8.978  67.778  1.00  0.00    -0.305 C  
HETATM    8  C   UNL     2      -9.403   7.841  67.954  1.00  0.00    -0.140 C  
HETATM    9  C   UNL     2      -7.922   8.282  68.095  1.00  0.00    -0.123 C  
HETATM   10  C   UNL     2      -7.715   9.402  69.114  1.00  0.00    -0.079 C  
HETATM   11  C   UNL     2      -8.505   9.110  70.385  1.00  0.00    -0.222 C  
ENDROOT
BRANCH  10  12
HETATM   12  O   UNL     2      -8.228  10.644  68.588  1.00  0.00    -0.119 OA 
BRANCH  12  13
HETATM   13  C   UNL     2      -7.493  11.789  68.709  1.00  0.00    -0.109 C  
HETATM   14  O   UNL     2      -6.746  12.053  69.646  1.00  0.00    -0.085 OA 
BRANCH  13  15
HETATM   15  C   UNL     2      -7.766  12.681  67.475  1.00  0.00    -0.161 C  
HETATM   16  O   UNL     2      -6.944  12.385  66.345  1.00  0.00    -0.178 OA 
HETATM   17  H   UNL     2      -7.112  12.933  65.588  1.00  0.00     0.000 HD 
BRANCH  15  18
HETATM   18  C   UNL     2      -9.236  12.626  67.112  1.00  0.00    -0.214 A  
HETATM   19  C   UNL     2      -9.602  12.063  65.874  1.00  0.00    -0.238 A  
HETATM   20  C   UNL     2     -10.918  12.045  65.462  1.00  0.00    -0.345 A  
HETATM   21  C   UNL     2     -11.910  12.586  66.268  1.00  0.00    -0.453 A  
HETATM   22  C   UNL     2     -11.578  13.152  67.501  1.00  0.00    -0.398 A  
HETATM   23  C   UNL     2     -10.246  13.180  67.918  1.00  0.00    -0.233 A  
ENDBRANCH  15  18
ENDBRANCH  13  15
ENDBRANCH  12  13
ENDBRANCH  10  12
TORSDOF 4
ENDMDL
MODEL      146
REMARK 921   NORMALIZED FREE ENERGY PREDICTED BY IDOCK:   -4.19 KCAL/MOL
REMARK 922        TOTAL FREE ENERGY PREDICTED BY IDOCK:   -5.81 KCAL/MOL
REMARK 923 INTER-LIGAND FREE ENERGY PREDICTED BY IDOCK:   -5.16 KCAL/MOL
REMARK 924 INTRA-LIGAND FREE ENERGY PREDICTED BY IDOCK:   -0.65 KCAL/MOL
REMARK 927      BINDING AFFINITY PREDICTED BY RF-SCORE:    0.00 PKD
ROOT
HETATM    1 BR   UNL     1     -10.197   5.792  71.805  1.00  0.00    -0.254 Br 
HETATM    2  C   UNL     2      -8.753   5.253  68.180  1.00  0.00    -0.102 C  
HETATM    3  N   UNL     2      -8.417   6.723  67.758  1.00  0.00    -0.122 N  
HETATM    4  C   UNL     2      -6.911   6.794  67.912  1.00  0.00    -0.083 C  
HETATM    5  C   UNL     2      -9.207   7.705  68.671  1.00  0.00    -0.141 C  
HETATM    6  C   UNL     2     -10.659   7.500  68.193  1.00  0.00    -0.201 C  
HETATM    7  C   UNL     2     -10.535   7.033  66.730  1.00  0.00    -0.297 C  
HETATM    8  C   UNL     2      -9.031   7.116  66.395  1.00  0.00    -0.155 C  
HETATM    9  C   UNL     2      -8.499   8.520  66.005  1.00  0.00    -0.150 C  
HETATM   10  C   UNL     2      -8.929   9.623  66.971  1.00  0.00    -0.134 C  
HETATM   11  C   UNL     2      -8.753   9.160  68.412  1.00  0.00    -0.129 C  
ENDROOT
BRANCH  10  12
HETATM   12  O   UNL     2     -10.335   9.904  66.799  1.00  0.00    -0.229 OA 
BRANCH  12  13
HETATM   13  C   UNL     2     -10.736  10.817  65.866  1.00  0.00    -0.073 C  
HETATM   14  O   UNL     2     -10.505  10.746  64.663  1.00  0.00    -0.344 OA 
BRANCH  13  15
HETATM   15  C   UNL     2     -11.520  11.941  66.583  1.00  0.00    -0.314 C  
HETATM   16  O   UNL     2     -11.951  11.604  67.903  1.00  0.00    -0.599 OA 
HETATM   17  H   UNL     2     -12.432  12.295  68.343  1.00  0.00     0.000 HD 
BRANCH  15  18
HETATM   18  C   UNL     2     -10.708  13.220  66.582  1.00  0.00    -0.284 A  
HETATM   19  C   UNL     2     -11.229  14.347  65.918  1.00  0.00    -0.324 A  
HETATM   20  C   UNL     2     -10.504  15.518  65.828  1.00  0.00    -0.378 A  
HETATM   21  C   UNL     2      -9.240  15.603  66.397  1.00  0.00    -0.346 A  
HETATM   22  C   UNL     2      -8.697  14.501  67.061  1.00  0.00    -0.256 A  
HETATM   23  C   UNL     2      -9.423  13.312  67.146  1.00  0.00    -0.240 A  
ENDBRANCH  15  18
ENDBRANCH  13  15
ENDBRANCH  12  13
ENDBRANCH  10  12
TORSDOF 4
ENDMDL
MODEL      147
REMARK 921   NORMALIZED FREE ENERGY PREDICTED BY IDOCK:   -4.17 KCAL/MOL
REMARK 922        TOTAL FREE ENERGY PREDICTED BY IDOCK:   -5.78 KCAL/MOL
REMARK 923 INTER-LIGAND FREE ENERGY PREDICTED BY IDOCK:   -5.02 KCAL/MOL
REMARK 924 INTRA-LIGAND FREE ENERGY PREDICTED BY IDOCK:   -0.76 KCAL/MOL
REMARK 927      BINDING AFFINITY PREDICTED BY RF-SCORE:    0.00 PKD
ROOT
HETATM    1 BR   UNL     1      -7.295   7.504  63.303  1.00  0.00    -0.097 Br 
HETATM    2  C   UNL     2      -8.296   4.673  65.853  1.00  0.00    -0.115 C  
HETATM    3  N   UNL     2      -9.465   5.361  66.636  1.00  0.00    -0.137 N  
HETATM    4  C   UNL     2     -10.704   4.714  66.051  1.00  0.00    -0.077 C  
HETATM    5  C   UNL     2      -9.378   6.900  66.426  1.00  0.00    -0.141 C  
HETATM    6  C   UNL     2      -8.117   7.270  67.232  1.00  0.00    -0.112 C  
HETATM    7  C   UNL     2      -8.006   6.183  68.319  1.00  0.00    -0.107 C  
HETATM    8  C   UNL     2      -9.274   5.316  68.169  1.00  0.00    -0.113 C  
HETATM    9  C   UNL     2     -10.558   5.870  68.839  1.00  0.00    -0.357 C  
HETATM   10  C   UNL     2     -10.829   7.338  68.512  1.00  0.00    -0.060 C  
HETATM   11  C   UNL     2     -10.625   7.593  67.023  1.00  0.00    -0.406 C  
ENDROOT
BRANCH  10  12
HETATM   12  O   UNL     2      -9.882   8.178  69.206  1.00  0.00    -0.175 OA 
BRANCH  12  13
HETATM   13  C   UNL     2     -10.199   8.693  70.430  1.00  0.00    -0.193 C  
HETATM   14  O   UNL     2      -9.402   8.891  71.341  1.00  0.00    -0.234 OA 
BRANCH  13  15
HETATM   15  C   UNL     2     -11.720   8.977  70.465  1.00  0.00    -0.126 C  
HETATM   16  O   UNL     2     -12.394   8.414  71.592  1.00  0.00    -0.295 OA 
HETATM   17  H   UNL     2     -13.327   8.588  71.613  1.00  0.00     0.000 HD 
BRANCH  15  18
HETATM   18  C   UNL     2     -11.970  10.468  70.366  1.00  0.00    -0.425 A  
HETATM   19  C   UNL     2     -11.652  11.124  69.161  1.00  0.00    -0.393 A  
HETATM   20  C   UNL     2     -11.798  12.490  69.035  1.00  0.00    -0.344 A  
HETATM   21  C   UNL     2     -12.263  13.245  70.104  1.00  0.00    -0.376 A  
HETATM   22  C   UNL     2     -12.585  12.622  71.312  1.00  0.00    -0.339 A  
HETATM   23  C   UNL     2     -12.432  11.241  71.445  1.00  0.00    -0.392 A  
ENDBRANCH  15  18
ENDBRANCH  13  15
ENDBRANCH  12  13
ENDBRANCH  10  12
TORSDOF 4
ENDMDL
MODEL      148
REMARK 921   NORMALIZED FREE ENERGY PREDICTED BY IDOCK:   -4.16 KCAL/MOL
REMARK 922        TOTAL FREE ENERGY PREDICTED BY IDOCK:   -5.77 KCAL/MOL
REMARK 923 INTER-LIGAND FREE ENERGY PREDICTED BY IDOCK:   -5.17 KCAL/MOL
REMARK 924 INTRA-LIGAND FREE ENERGY PREDICTED BY IDOCK:   -0.60 KCAL/MOL
REMARK 927      BINDING AFFINITY PREDICTED BY RF-SCORE:    0.00 PKD
ROOT
HETATM    1 BR   UNL     1      -7.820   4.534  66.050  1.00  0.00    -0.095 Br 
HETATM    2  C   UNL     2      -6.348   4.139  69.682  1.00  0.00    -0.028 C  
HETATM    3  N   UNL     2      -7.651   4.171  70.550  1.00  0.00    -0.045 N  
HETATM    4  C   UNL     2      -7.864   2.716  70.913  1.00  0.00    -0.046 C  
HETATM    5  C   UNL     2      -8.801   4.804  69.714  1.00  0.00    -0.093 C  
HETATM    6  C   UNL     2      -8.369   6.282  69.630  1.00  0.00    -0.125 C  
HETATM    7  C   UNL     2      -7.507   6.517  70.885  1.00  0.00    -0.084 C  
HETATM    8  C   UNL     2      -7.589   5.207  71.695  1.00  0.00    -0.101 C  
HETATM    9  C   UNL     2      -8.851   5.035  72.580  1.00  0.00    -0.124 C  
HETATM   10  C   UNL     2     -10.156   5.332  71.843  1.00  0.00    -0.197 C  
HETATM   11  C   UNL     2     -10.144   4.675  70.467  1.00  0.00    -0.263 C  
ENDROOT
BRANCH  10  12
HETATM   12  O   UNL     2     -10.280   6.752  71.619  1.00  0.00    -0.192 OA 
BRANCH  12  13
HETATM   13  C   UNL     2     -11.007   7.516  72.486  1.00  0.00    -0.313 C  
HETATM   14  O   UNL     2     -10.686   7.772  73.643  1.00  0.00    -0.241 OA 
BRANCH  13  15
HETATM   15  C   UNL     2     -12.290   7.993  71.765  1.00  0.00    -0.319 C  
HETATM   16  O   UNL     2     -13.460   7.985  72.586  1.00  0.00    -0.520 OA 
HETATM   17  H   UNL     2     -14.247   8.278  72.143  1.00  0.00     0.000 HD 
BRANCH  15  18
HETATM   18  C   UNL     2     -12.061   9.359  71.152  1.00  0.00    -0.406 A  
HETATM   19  C   UNL     2     -12.838  10.441  71.612  1.00  0.00    -0.579 A  
HETATM   20  C   UNL     2     -12.719  11.694  71.046  1.00  0.00    -0.395 A  
HETATM   21  C   UNL     2     -11.825  11.907  70.004  1.00  0.00    -0.407 A  
HETATM   22  C   UNL     2     -11.043  10.854  69.527  1.00  0.00    -0.326 A  
HETATM   23  C   UNL     2     -11.166   9.583  70.092  1.00  0.00    -0.275 A  
ENDBRANCH  15  18
ENDBRANCH  13  15
ENDBRANCH  12  13
ENDBRANCH  10  12
TORSDOF 4
ENDMDL
MODEL      149
REMARK 921   NORMALIZED FREE ENERGY PREDICTED BY IDOCK:   -4.14 KCAL/MOL
REMARK 922        TOTAL FREE ENERGY PREDICTED BY IDOCK:   -5.74 KCAL/MOL
REMARK 923 INTER-LIGAND FREE ENERGY PREDICTED BY IDOCK:   -4.66 KCAL/MOL
REMARK 924 INTRA-LIGAND FREE ENERGY PREDICTED BY IDOCK:   -1.08 KCAL/MOL
REMARK 927      BINDING AFFINITY PREDICTED BY RF-SCORE:    0.00 PKD
ROOT
HETATM    1 BR   UNL     1      -8.236  10.698  67.619  1.00  0.00    -0.107 Br 
HETATM    2  C   UNL     2      -5.278  13.053  68.724  1.00  0.00    -0.068 C  
HETATM    3  N   UNL     2      -6.057  14.243  69.378  1.00  0.00    -0.102 N  
HETATM    4  C   UNL     2      -5.882  13.999  70.864  1.00  0.00    -0.207 C  
HETATM    5  C   UNL     2      -7.532  14.214  68.886  1.00  0.00    -0.112 C  
HETATM    6  C   UNL     2      -7.392  14.624  67.407  1.00  0.00    -0.195 C  
HETATM    7  C   UNL     2      -6.109  15.474  67.349  1.00  0.00    -0.041 C  
HETATM    8  C   UNL     2      -5.642  15.620  68.812  1.00  0.00    -0.096 C  
HETATM    9  C   UNL     2      -6.348  16.724  69.642  1.00  0.00    -0.217 C  
HETATM   10  C   UNL     2      -7.872  16.687  69.531  1.00  0.00     0.220 C  
HETATM   11  C   UNL     2      -8.375  15.254  69.659  1.00  0.00    -0.108 C  
ENDROOT
BRANCH  10  12
HETATM   12  O   UNL     2      -8.279  17.149  68.225  1.00  0.00    -0.213 OA 
BRANCH  12  13
HETATM   13  C   UNL     2      -8.914  18.351  68.097  1.00  0.00    -0.309 C  
HETATM   14  O   UNL     2      -8.361  19.447  68.105  1.00  0.00    -0.307 OA 
BRANCH  13  15
HETATM   15  C   UNL     2     -10.432  18.092  67.945  1.00  0.00    -0.392 C  
HETATM   16  O   UNL     2     -11.155  19.177  67.361  1.00  0.00    -0.426 OA 
HETATM   17  H   UNL     2     -12.087  19.018  67.268  1.00  0.00     0.000 HD 
BRANCH  15  18
HETATM   18  C   UNL     2     -10.663  16.806  67.178  1.00  0.00    -0.189 A  
HETATM   19  C   UNL     2     -11.208  15.703  67.864  1.00  0.00    -0.328 A  
HETATM   20  C   UNL     2     -11.379  14.488  67.235  1.00  0.00    -0.363 A  
HETATM   21  C   UNL     2     -11.013  14.332  65.904  1.00  0.00    -0.304 A  
HETATM   22  C   UNL     2     -10.469  15.408  65.199  1.00  0.00    -0.439 A  
HETATM   23  C   UNL     2     -10.286  16.637  65.835  1.00  0.00    -0.355 A  
ENDBRANCH  15  18
ENDBRANCH  13  15
ENDBRANCH  12  13
ENDBRANCH  10  12
TORSDOF 4
ENDMDL
MODEL      150
REMARK 921   NORMALIZED FREE ENERGY PREDICTED BY IDOCK:   -4.14 KCAL/MOL
REMARK 922        TOTAL FREE ENERGY PREDICTED BY IDOCK:   -5.74 KCAL/MOL
REMARK 923 INTER-LIGAND FREE ENERGY PREDICTED BY IDOCK:   -4.76 KCAL/MOL
REMARK 924 INTRA-LIGAND FREE ENERGY PREDICTED BY IDOCK:   -0.98 KCAL/MOL
REMARK 927      BINDING AFFINITY PREDICTED BY RF-SCORE:    0.00 PKD
ROOT
HETATM    1 BR   UNL     1      -7.853   6.904  63.731  1.00  0.00    -0.076 Br 
HETATM    2  C   UNL     2      -8.886  10.433  65.142  1.00  0.00    -0.189 C  
HETATM    3  N   UNL     2      -8.553  10.269  66.663  1.00  0.00    -0.127 N  
HETATM    4  C   UNL     2      -7.255  11.034  66.820  1.00  0.00    -0.139 C  
HETATM    5  C   UNL     2      -8.455   8.753  66.999  1.00  0.00    -0.109 C  
HETATM    6  C   UNL     2      -9.924   8.297  66.884  1.00  0.00    -0.343 C  
HETATM    7  C   UNL     2     -10.757   9.557  67.185  1.00  0.00    -0.252 C  
HETATM    8  C   UNL     2      -9.736  10.644  67.584  1.00  0.00    -0.165 C  
HETATM    9  C   UNL     2      -9.244  10.604  69.055  1.00  0.00    -0.177 C  
HETATM   10  C   UNL     2      -8.805   9.213  69.512  1.00  0.00    -0.149 C  
HETATM   11  C   UNL     2      -7.939   8.557  68.443  1.00  0.00    -0.118 C  
ENDROOT
BRANCH  10  12
HETATM   12  O   UNL     2      -9.961   8.366  69.682  1.00  0.00    -0.185 OA 
BRANCH  12  13
HETATM   13  C   UNL     2     -10.039   7.531  70.760  1.00  0.00    -0.192 C  
HETATM   14  O   UNL     2      -9.405   7.661  71.802  1.00  0.00    -0.142 OA 
BRANCH  13  15
HETATM   15  C   UNL     2     -11.052   6.406  70.438  1.00  0.00    -0.339 C  
HETATM   16  O   UNL     2     -12.158   6.826  69.638  1.00  0.00    -0.635 OA 
HETATM   17  H   UNL     2     -12.780   6.136  69.441  1.00  0.00     0.000 HD 
BRANCH  15  18
HETATM   18  C   UNL     2     -10.336   5.230  69.808  1.00  0.00    -0.369 A  
HETATM   19  C   UNL     2      -9.785   4.246  70.653  1.00  0.00    -0.274 A  
HETATM   20  C   UNL     2      -9.066   3.188  70.138  1.00  0.00    -0.192 A  
HETATM   21  C   UNL     2      -8.872   3.076  68.767  1.00  0.00    -0.168 A  
HETATM   22  C   UNL     2      -9.405   4.036  67.905  1.00  0.00    -0.220 A  
HETATM   23  C   UNL     2     -10.126   5.113  68.423  1.00  0.00    -0.205 A  
ENDBRANCH  15  18
ENDBRANCH  13  15
ENDBRANCH  12  13
ENDBRANCH  10  12
TORSDOF 4
ENDMDL
MODEL      151
REMARK 921   NORMALIZED FREE ENERGY PREDICTED BY IDOCK:   -4.13 KCAL/MOL
REMARK 922        TOTAL FREE ENERGY PREDICTED BY IDOCK:   -5.74 KCAL/MOL
REMARK 923 INTER-LIGAND FREE ENERGY PREDICTED BY IDOCK:   -4.62 KCAL/MOL
REMARK 924 INTRA-LIGAND FREE ENERGY PREDICTED BY IDOCK:   -1.11 KCAL/MOL
REMARK 927      BINDING AFFINITY PREDICTED BY RF-SCORE:    0.00 PKD
ROOT
HETATM    1 BR   UNL     1      -8.740   3.599  71.850  1.00  0.00    -0.131 Br 
HETATM    2  C   UNL     2      -9.337   3.245  67.973  1.00  0.00    -0.191 C  
HETATM    3  N   UNL     2      -8.732   4.588  67.442  1.00  0.00    -0.104 N  
HETATM    4  C   UNL     2      -7.396   4.165  66.867  1.00  0.00    -0.073 C  
HETATM    5  C   UNL     2      -8.639   5.601  68.619  1.00  0.00    -0.104 C  
HETATM    6  C   UNL     2     -10.121   5.935  68.882  1.00  0.00    -0.231 C  
HETATM    7  C   UNL     2     -10.828   5.700  67.534  1.00  0.00    -0.189 C  
HETATM    8  C   UNL     2      -9.705   5.369  66.529  1.00  0.00    -0.164 C  
HETATM    9  C   UNL     2      -8.947   6.585  65.934  1.00  0.00    -0.103 C  
HETATM   10  C   UNL     2      -8.490   7.593  66.988  1.00  0.00    -0.125 C  
HETATM   11  C   UNL     2      -7.870   6.867  68.176  1.00  0.00    -0.114 C  
ENDROOT
BRANCH  10  12
HETATM   12  O   UNL     2      -9.630   8.317  67.499  1.00  0.00    -0.145 OA 
BRANCH  12  13
HETATM   13  C   UNL     2      -9.618   9.683  67.510  1.00  0.00    -0.150 C  
HETATM   14  O   UNL     2     -10.078  10.400  66.627  1.00  0.00    -0.208 OA 
BRANCH  13  15
HETATM   15  C   UNL     2      -8.928  10.158  68.811  1.00  0.00    -0.147 C  
HETATM   16  O   UNL     2      -8.685  11.565  68.864  1.00  0.00    -0.341 OA 
HETATM   17  H   UNL     2      -8.262  11.857  69.662  1.00  0.00     0.000 HD 
BRANCH  15  18
HETATM   18  C   UNL     2      -9.721   9.694  70.015  1.00  0.00    -0.280 A  
HETATM   19  C   UNL     2      -9.118   8.786  70.908  1.00  0.00    -0.256 A  
HETATM   20  C   UNL     2      -9.815   8.279  71.985  1.00  0.00    -0.327 A  
HETATM   21  C   UNL     2     -11.132   8.660  72.207  1.00  0.00    -0.395 A  
HETATM   22  C   UNL     2     -11.756   9.557  71.339  1.00  0.00    -0.465 A  
HETATM   23  C   UNL     2     -11.057  10.066  70.243  1.00  0.00    -0.381 A  
ENDBRANCH  15  18
ENDBRANCH  13  15
ENDBRANCH  12  13
ENDBRANCH  10  12
TORSDOF 4
ENDMDL
MODEL      152
REMARK 921   NORMALIZED FREE ENERGY PREDICTED BY IDOCK:   -4.13 KCAL/MOL
REMARK 922        TOTAL FREE ENERGY PREDICTED BY IDOCK:   -5.73 KCAL/MOL
REMARK 923 INTER-LIGAND FREE ENERGY PREDICTED BY IDOCK:   -4.67 KCAL/MOL
REMARK 924 INTRA-LIGAND FREE ENERGY PREDICTED BY IDOCK:   -1.06 KCAL/MOL
REMARK 927      BINDING AFFINITY PREDICTED BY RF-SCORE:    0.00 PKD
ROOT
HETATM    1 BR   UNL     1      -9.298  16.867  66.203  1.00  0.00    -0.230 Br 
HETATM    2  C   UNL     2     -12.155  14.185  66.610  1.00  0.00    -0.451 C  
HETATM    3  N   UNL     2     -11.468  13.141  67.554  1.00  0.00    -0.308 N  
HETATM    4  C   UNL     2     -12.097  13.426  68.903  1.00  0.00    -0.252 C  
HETATM    5  C   UNL     2      -9.927  13.348  67.501  1.00  0.00    -0.230 C  
HETATM    6  C   UNL     2      -9.579  12.857  66.082  1.00  0.00    -0.215 C  
HETATM    7  C   UNL     2     -10.681  11.840  65.731  1.00  0.00    -0.328 C  
HETATM    8  C   UNL     2     -11.536  11.697  67.008  1.00  0.00    -0.262 C  
HETATM    9  C   UNL     2     -10.979  10.737  68.092  1.00  0.00    -0.308 C  
HETATM   10  C   UNL     2      -9.505  10.975  68.416  1.00  0.00    -0.182 C  
HETATM   11  C   UNL     2      -9.232  12.467  68.565  1.00  0.00    -0.071 C  
ENDROOT
BRANCH  10  12
HETATM   12  O   UNL     2      -8.683  10.514  67.323  1.00  0.00    -0.126 OA 
BRANCH  12  13
HETATM   13  C   UNL     2      -8.218   9.230  67.316  1.00  0.00    -0.121 C  
HETATM   14  O   UNL     2      -7.523   8.726  68.192  1.00  0.00    -0.090 OA 
BRANCH  13  15
HETATM   15  C   UNL     2      -8.715   8.535  66.026  1.00  0.00    -0.161 C  
HETATM   16  O   UNL     2     -10.136   8.449  65.917  1.00  0.00    -0.432 OA 
HETATM   17  H   UNL     2     -10.441   8.022  65.125  1.00  0.00     0.000 HD 
BRANCH  15  18
HETATM   18  C   UNL     2      -8.112   9.209  64.811  1.00  0.00    -0.140 A  
HETATM   19  C   UNL     2      -6.740   9.526  64.829  1.00  0.00    -0.096 A  
HETATM   20  C   UNL     2      -6.151  10.198  63.778  1.00  0.00    -0.138 A  
HETATM   21  C   UNL     2      -6.909  10.576  62.678  1.00  0.00    -0.107 A  
HETATM   22  C   UNL     2      -8.273  10.276  62.632  1.00  0.00    -0.170 A  
HETATM   23  C   UNL     2      -8.873   9.603  63.697  1.00  0.00    -0.256 A  
ENDBRANCH  15  18
ENDBRANCH  13  15
ENDBRANCH  12  13
ENDBRANCH  10  12
TORSDOF 4
ENDMDL
MODEL      153
REMARK 921   NORMALIZED FREE ENERGY PREDICTED BY IDOCK:   -4.12 KCAL/MOL
REMARK 922        TOTAL FREE ENERGY PREDICTED BY IDOCK:   -5.72 KCAL/MOL
REMARK 923 INTER-LIGAND FREE ENERGY PREDICTED BY IDOCK:   -5.01 KCAL/MOL
REMARK 924 INTRA-LIGAND FREE ENERGY PREDICTED BY IDOCK:   -0.71 KCAL/MOL
REMARK 927      BINDING AFFINITY PREDICTED BY RF-SCORE:    0.00 PKD
ROOT
HETATM    1 BR   UNL     1      -9.018  10.846  62.690  1.00  0.00    -0.365 Br 
HETATM    2  C   UNL     2     -12.365  12.048  64.382  1.00  0.00    -0.251 C  
HETATM    3  N   UNL     2     -11.910  13.389  65.051  1.00  0.00    -0.337 N  
HETATM    4  C   UNL     2     -12.472  14.448  64.123  1.00  0.00    -0.199 C  
HETATM    5  C   UNL     2     -10.359  13.393  65.174  1.00  0.00    -0.336 C  
HETATM    6  C   UNL     2     -10.115  12.329  66.263  1.00  0.00    -0.253 C  
HETATM    7  C   UNL     2     -11.402  12.323  67.110  1.00  0.00    -0.398 C  
HETATM    8  C   UNL     2     -12.271  13.469  66.552  1.00  0.00    -0.380 C  
HETATM    9  C   UNL     2     -11.927  14.892  67.063  1.00  0.00    -0.126 C  
HETATM   10  C   UNL     2     -10.436  15.221  66.991  1.00  0.00    -0.292 C  
HETATM   11  C   UNL     2      -9.864  14.778  65.650  1.00  0.00    -0.361 C  
ENDROOT
BRANCH  10  12
HETATM   12  O   UNL     2      -9.723  14.483  68.006  1.00  0.00    -0.209 OA 
BRANCH  12  13
HETATM   13  C   UNL     2      -9.125  15.149  69.037  1.00  0.00    -0.218 C  
HETATM   14  O   UNL     2      -9.709  15.614  70.011  1.00  0.00    -0.242 OA 
BRANCH  13  15
HETATM   15  C   UNL     2      -7.604  15.217  68.763  1.00  0.00    -0.136 C  
HETATM   16  O   UNL     2      -7.007  16.474  69.085  1.00  0.00    -0.203 OA 
HETATM   17  H   UNL     2      -6.073  16.516  68.916  1.00  0.00     0.000 HD 
BRANCH  15  18
HETATM   18  C   UNL     2      -6.899  14.079  69.473  1.00  0.00    -0.052 A  
HETATM   19  C   UNL     2      -6.265  14.344  70.703  1.00  0.00    -0.144 A  
HETATM   20  C   UNL     2      -5.553  13.363  71.362  1.00  0.00    -0.145 A  
HETATM   21  C   UNL     2      -5.450  12.090  70.818  1.00  0.00    -0.146 A  
HETATM   22  C   UNL     2      -6.067  11.798  69.599  1.00  0.00    -0.119 A  
HETATM   23  C   UNL     2      -6.781  12.790  68.926  1.00  0.00    -0.097 A  
ENDBRANCH  15  18
ENDBRANCH  13  15
ENDBRANCH  12  13
ENDBRANCH  10  12
TORSDOF 4
ENDMDL
MODEL      154
REMARK 921   NORMALIZED FREE ENERGY PREDICTED BY IDOCK:   -4.11 KCAL/MOL
REMARK 922        TOTAL FREE ENERGY PREDICTED BY IDOCK:   -5.71 KCAL/MOL
REMARK 923 INTER-LIGAND FREE ENERGY PREDICTED BY IDOCK:   -5.06 KCAL/MOL
REMARK 924 INTRA-LIGAND FREE ENERGY PREDICTED BY IDOCK:   -0.65 KCAL/MOL
REMARK 927      BINDING AFFINITY PREDICTED BY RF-SCORE:    0.00 PKD
ROOT
HETATM    1 BR   UNL     1      -9.358   3.717  67.044  1.00  0.00    -0.227 Br 
HETATM    2  C   UNL     2      -6.950   6.420  68.596  1.00  0.00    -0.080 C  
HETATM    3  N   UNL     2      -7.961   7.325  69.377  1.00  0.00    -0.122 N  
HETATM    4  C   UNL     2      -7.762   6.905  70.819  1.00  0.00    -0.092 C  
HETATM    5  C   UNL     2      -9.394   7.078  68.822  1.00  0.00    -0.134 C  
HETATM    6  C   UNL     2      -9.319   7.720  67.423  1.00  0.00    -0.168 C  
HETATM    7  C   UNL     2      -8.231   8.805  67.540  1.00  0.00    -0.110 C  
HETATM    8  C   UNL     2      -7.824   8.825  69.029  1.00  0.00    -0.096 C  
HETATM    9  C   UNL     2      -8.749   9.633  69.974  1.00  0.00    -0.256 C  
HETATM   10  C   UNL     2     -10.233   9.314  69.793  1.00  0.00    -0.211 C  
HETATM   11  C   UNL     2     -10.439   7.807  69.697  1.00  0.00    -0.229 C  
ENDROOT
BRANCH  10  12
HETATM   12  O   UNL     2     -10.706   9.874  68.550  1.00  0.00    -0.214 OA 
BRANCH  12  13
HETATM   13  C   UNL     2     -11.636  10.873  68.564  1.00  0.00    -0.290 C  
HETATM   14  O   UNL     2     -12.625  10.908  69.290  1.00  0.00    -0.356 OA 
BRANCH  13  15
HETATM   15  C   UNL     2     -11.232  11.937  67.517  1.00  0.00    -0.296 C  
HETATM   16  O   UNL     2     -12.235  12.204  66.536  1.00  0.00    -0.584 OA 
HETATM   17  H   UNL     2     -11.987  12.857  65.893  1.00  0.00     0.000 HD 
BRANCH  15  18
HETATM   18  C   UNL     2     -10.796  13.210  68.214  1.00  0.00    -0.274 A  
HETATM   19  C   UNL     2     -11.783  14.143  68.588  1.00  0.00    -0.385 A  
HETATM   20  C   UNL     2     -11.440  15.348  69.166  1.00  0.00    -0.344 A  
HETATM   21  C   UNL     2     -10.106  15.661  69.390  1.00  0.00    -0.269 A  
HETATM   22  C   UNL     2      -9.106  14.756  69.029  1.00  0.00    -0.136 A  
HETATM   23  C   UNL     2      -9.448  13.539  68.436  1.00  0.00    -0.185 A  
ENDBRANCH  15  18
ENDBRANCH  13  15
ENDBRANCH  12  13
ENDBRANCH  10  12
TORSDOF 4
ENDMDL
MODEL      155
REMARK 921   NORMALIZED FREE ENERGY PREDICTED BY IDOCK:   -4.10 KCAL/MOL
REMARK 922        TOTAL FREE ENERGY PREDICTED BY IDOCK:   -5.70 KCAL/MOL
REMARK 923 INTER-LIGAND FREE ENERGY PREDICTED BY IDOCK:   -4.85 KCAL/MOL
REMARK 924 INTRA-LIGAND FREE ENERGY PREDICTED BY IDOCK:   -0.85 KCAL/MOL
REMARK 927      BINDING AFFINITY PREDICTED BY RF-SCORE:    0.00 PKD
ROOT
HETATM    1 BR   UNL     1     -10.781   3.424  73.279  1.00  0.00    -0.288 Br 
HETATM    2  C   UNL     2     -10.501   7.319  73.795  1.00  0.00    -0.288 C  
HETATM    3  N   UNL     2     -10.837   7.847  72.360  1.00  0.00    -0.289 N  
HETATM    4  C   UNL     2     -12.264   8.338  72.494  1.00  0.00    -0.307 C  
HETATM    5  C   UNL     2     -10.643   6.691  71.337  1.00  0.00    -0.224 C  
HETATM    6  C   UNL     2      -9.111   6.517  71.325  1.00  0.00    -0.148 C  
HETATM    7  C   UNL     2      -8.551   7.897  71.720  1.00  0.00    -0.151 C  
HETATM    8  C   UNL     2      -9.776   8.830  71.815  1.00  0.00    -0.310 C  
HETATM    9  C   UNL     2     -10.291   9.411  70.472  1.00  0.00    -0.341 C  
HETATM   10  C   UNL     2     -10.461   8.357  69.378  1.00  0.00    -0.217 C  
HETATM   11  C   UNL     2     -11.151   7.120  69.941  1.00  0.00    -0.264 C  
ENDROOT
BRANCH  10  12
HETATM   12  O   UNL     2      -9.165   7.927  68.908  1.00  0.00    -0.144 OA 
BRANCH  12  13
HETATM   13  C   UNL     2      -8.693   8.379  67.709  1.00  0.00    -0.137 C  
HETATM   14  O   UNL     2      -7.625   8.961  67.545  1.00  0.00    -0.091 OA 
BRANCH  13  15
HETATM   15  C   UNL     2      -9.727   8.036  66.611  1.00  0.00    -0.243 C  
HETATM   16  O   UNL     2      -9.748   8.957  65.519  1.00  0.00    -0.458 OA 
HETATM   17  H   UNL     2     -10.383   8.747  64.845  1.00  0.00     0.000 HD 
BRANCH  15  18
HETATM   18  C   UNL     2      -9.515   6.617  66.126  1.00  0.00    -0.057 A  
HETATM   19  C   UNL     2     -10.444   5.630  66.510  1.00  0.00    -0.309 A  
HETATM   20  C   UNL     2     -10.267   4.309  66.153  1.00  0.00    -0.160 A  
HETATM   21  C   UNL     2      -9.161   3.930  65.404  1.00  0.00    -0.143 A  
HETATM   22  C   UNL     2      -8.223   4.886  65.010  1.00  0.00    -0.129 A  
HETATM   23  C   UNL     2      -8.394   6.223  65.376  1.00  0.00    -0.148 A  
ENDBRANCH  15  18
ENDBRANCH  13  15
ENDBRANCH  12  13
ENDBRANCH  10  12
TORSDOF 4
ENDMDL
MODEL      156
REMARK 921   NORMALIZED FREE ENERGY PREDICTED BY IDOCK:   -4.09 KCAL/MOL
REMARK 922        TOTAL FREE ENERGY PREDICTED BY IDOCK:   -5.69 KCAL/MOL
REMARK 923 INTER-LIGAND FREE ENERGY PREDICTED BY IDOCK:   -5.27 KCAL/MOL
REMARK 924 INTRA-LIGAND FREE ENERGY PREDICTED BY IDOCK:   -0.42 KCAL/MOL
REMARK 927      BINDING AFFINITY PREDICTED BY RF-SCORE:    0.00 PKD
ROOT
HETATM    1 BR   UNL     1      -5.165  10.055  65.324  1.00  0.00    -0.070 Br 
HETATM    2  C   UNL     2      -8.158   9.211  67.742  1.00  0.00    -0.105 C  
HETATM    3  N   UNL     2      -9.320  10.038  67.097  1.00  0.00    -0.148 N  
HETATM    4  C   UNL     2     -10.136   8.986  66.374  1.00  0.00    -0.281 C  
HETATM    5  C   UNL     2      -8.711  11.132  66.173  1.00  0.00    -0.186 C  
HETATM    6  C   UNL     2      -8.079  12.104  67.190  1.00  0.00    -0.175 C  
HETATM    7  C   UNL     2      -8.901  11.922  68.480  1.00  0.00    -0.108 C  
HETATM    8  C   UNL     2     -10.045  10.954  68.110  1.00  0.00    -0.173 C  
HETATM    9  C   UNL     2     -11.270  11.591  67.404  1.00  0.00    -0.367 C  
HETATM   10  C   UNL     2     -10.895  12.503  66.236  1.00  0.00    -0.268 C  
HETATM   11  C   UNL     2      -9.829  11.839  65.372  1.00  0.00    -0.261 C  
ENDROOT
BRANCH  10  12
HETATM   12  O   UNL     2     -10.314  13.726  66.737  1.00  0.00    -0.266 OA 
BRANCH  12  13
HETATM   13  C   UNL     2     -11.117  14.795  67.016  1.00  0.00    -0.333 C  
HETATM   14  O   UNL     2     -12.153  15.074  66.421  1.00  0.00    -0.073 OA 
BRANCH  13  15
HETATM   15  C   UNL     2     -10.495  15.583  68.193  1.00  0.00    -0.259 C  
HETATM   16  O   UNL     2      -9.365  14.947  68.791  1.00  0.00    -0.193 OA 
HETATM   17  H   UNL     2      -8.984  15.431  69.514  1.00  0.00     0.000 HD 
BRANCH  15  18
HETATM   18  C   UNL     2     -10.159  16.993  67.751  1.00  0.00    -0.302 A  
HETATM   19  C   UNL     2     -10.503  18.063  68.601  1.00  0.00    -0.236 A  
HETATM   20  C   UNL     2     -10.281  19.371  68.222  1.00  0.00    -0.535 A  
HETATM   21  C   UNL     2      -9.711  19.654  66.987  1.00  0.00    -0.475 A  
HETATM   22  C   UNL     2      -9.361  18.614  66.124  1.00  0.00    -0.166 A  
HETATM   23  C   UNL     2      -9.592  17.289  66.500  1.00  0.00    -0.286 A  
ENDBRANCH  15  18
ENDBRANCH  13  15
ENDBRANCH  12  13
ENDBRANCH  10  12
TORSDOF 4
ENDMDL
MODEL      157
REMARK 921   NORMALIZED FREE ENERGY PREDICTED BY IDOCK:   -4.09 KCAL/MOL
REMARK 922        TOTAL FREE ENERGY PREDICTED BY IDOCK:   -5.68 KCAL/MOL
REMARK 923 INTER-LIGAND FREE ENERGY PREDICTED BY IDOCK:   -4.99 KCAL/MOL
REMARK 924 INTRA-LIGAND FREE ENERGY PREDICTED BY IDOCK:   -0.69 KCAL/MOL
REMARK 927      BINDING AFFINITY PREDICTED BY RF-SCORE:    0.00 PKD
ROOT
HETATM    1 BR   UNL     1     -10.695   8.033  72.498  1.00  0.00    -0.433 Br 
HETATM    2  C   UNL     2     -10.218   5.520  69.502  1.00  0.00    -0.261 C  
HETATM    3  N   UNL     2      -9.123   6.251  68.656  1.00  0.00    -0.127 N  
HETATM    4  C   UNL     2      -7.860   5.477  68.978  1.00  0.00    -0.091 C  
HETATM    5  C   UNL     2      -9.084   7.752  69.065  1.00  0.00    -0.144 C  
HETATM    6  C   UNL     2     -10.414   8.281  68.494  1.00  0.00    -0.199 C  
HETATM    7  C   UNL     2     -10.736   7.353  67.307  1.00  0.00    -0.379 C  
HETATM    8  C   UNL     2      -9.517   6.417  67.171  1.00  0.00    -0.129 C  
HETATM    9  C   UNL     2      -8.300   6.997  66.403  1.00  0.00    -0.125 C  
HETATM   10  C   UNL     2      -7.896   8.395  66.869  1.00  0.00    -0.095 C  
HETATM   11  C   UNL     2      -7.885   8.459  68.392  1.00  0.00    -0.113 C  
ENDROOT
BRANCH  10  12
HETATM   12  O   UNL     2      -8.872   9.361  66.423  1.00  0.00    -0.138 OA 
BRANCH  12  13
HETATM   13  C   UNL     2      -8.553  10.688  66.402  1.00  0.00    -0.149 C  
HETATM   14  O   UNL     2      -7.538  11.163  65.904  1.00  0.00    -0.055 OA 
BRANCH  13  15
HETATM   15  C   UNL     2      -9.681  11.476  67.110  1.00  0.00    -0.183 C  
HETATM   16  O   UNL     2      -9.222  12.370  68.126  1.00  0.00    -0.196 OA 
HETATM   17  H   UNL     2      -9.915  12.853  68.560  1.00  0.00     0.000 HD 
BRANCH  15  18
HETATM   18  C   UNL     2     -10.527  12.202  66.084  1.00  0.00    -0.281 A  
HETATM   19  C   UNL     2     -11.154  11.446  65.073  1.00  0.00    -0.215 A  
HETATM   20  C   UNL     2     -11.882  12.060  64.075  1.00  0.00    -0.500 A  
HETATM   21  C   UNL     2     -12.009  13.442  64.052  1.00  0.00    -0.520 A  
HETATM   22  C   UNL     2     -11.399  14.218  65.040  1.00  0.00    -0.365 A  
HETATM   23  C   UNL     2     -10.654  13.601  66.047  1.00  0.00    -0.290 A  
ENDBRANCH  15  18
ENDBRANCH  13  15
ENDBRANCH  12  13
ENDBRANCH  10  12
TORSDOF 4
ENDMDL
MODEL      158
REMARK 921   NORMALIZED FREE ENERGY PREDICTED BY IDOCK:   -4.08 KCAL/MOL
REMARK 922        TOTAL FREE ENERGY PREDICTED BY IDOCK:   -5.67 KCAL/MOL
REMARK 923 INTER-LIGAND FREE ENERGY PREDICTED BY IDOCK:   -4.73 KCAL/MOL
REMARK 924 INTRA-LIGAND FREE ENERGY PREDICTED BY IDOCK:   -0.94 KCAL/MOL
REMARK 927      BINDING AFFINITY PREDICTED BY RF-SCORE:    0.00 PKD
ROOT
HETATM    1 BR   UNL     1     -12.474  15.224  70.633  1.00  0.00    -0.494 Br 
HETATM    2  C   UNL     2     -11.204  15.791  66.948  1.00  0.00    -0.050 C  
HETATM    3  N   UNL     2     -11.349  14.353  66.345  1.00  0.00    -0.342 N  
HETATM    4  C   UNL     2     -12.602  14.455  65.500  1.00  0.00    -0.333 C  
HETATM    5  C   UNL     2     -11.434  13.323  67.508  1.00  0.00    -0.322 C  
HETATM    6  C   UNL     2     -10.001  13.350  68.075  1.00  0.00    -0.239 C  
HETATM    7  C   UNL     2      -9.112  13.775  66.891  1.00  0.00    -0.253 C  
HETATM    8  C   UNL     2     -10.054  13.847  65.670  1.00  0.00    -0.313 C  
HETATM    9  C   UNL     2     -10.361  12.498  64.970  1.00  0.00    -0.323 C  
HETATM   10  C   UNL     2     -10.768  11.388  65.939  1.00  0.00    -0.255 C  
HETATM   11  C   UNL     2     -11.772  11.919  66.956  1.00  0.00    -0.304 C  
ENDROOT
BRANCH  10  12
HETATM   12  O   UNL     2      -9.617  10.948  66.691  1.00  0.00    -0.179 OA 
BRANCH  12  13
HETATM   13  C   UNL     2      -8.976   9.794  66.339  1.00  0.00    -0.151 C  
HETATM   14  O   UNL     2      -9.530   8.749  66.016  1.00  0.00    -0.227 OA 
BRANCH  13  15
HETATM   15  C   UNL     2      -7.450  10.035  66.422  1.00  0.00    -0.104 C  
HETATM   16  O   UNL     2      -7.016  11.258  65.825  1.00  0.00    -0.371 OA 
HETATM   17  H   UNL     2      -6.080  11.405  65.876  1.00  0.00     0.000 HD 
BRANCH  15  18
HETATM   18  C   UNL     2      -6.988   9.936  67.862  1.00  0.00    -0.081 A  
HETATM   19  C   UNL     2      -6.790   8.657  68.418  1.00  0.00    -0.065 A  
HETATM   20  C   UNL     2      -6.434   8.504  69.742  1.00  0.00    -0.035 A  
HETATM   21  C   UNL     2      -6.264   9.619  70.553  1.00  0.00    -0.078 A  
HETATM   22  C   UNL     2      -6.455  10.900  70.030  1.00  0.00    -0.151 A  
HETATM   23  C   UNL     2      -6.823  11.058  68.693  1.00  0.00    -0.064 A  
ENDBRANCH  15  18
ENDBRANCH  13  15
ENDBRANCH  12  13
ENDBRANCH  10  12
TORSDOF 4
ENDMDL
MODEL      159
REMARK 921   NORMALIZED FREE ENERGY PREDICTED BY IDOCK:   -4.08 KCAL/MOL
REMARK 922        TOTAL FREE ENERGY PREDICTED BY IDOCK:   -5.67 KCAL/MOL
REMARK 923 INTER-LIGAND FREE ENERGY PREDICTED BY IDOCK:   -4.76 KCAL/MOL
REMARK 924 INTRA-LIGAND FREE ENERGY PREDICTED BY IDOCK:   -0.91 KCAL/MOL
REMARK 927      BINDING AFFINITY PREDICTED BY RF-SCORE:    0.00 PKD
ROOT
HETATM    1 BR   UNL     1     -12.383  15.193  64.246  1.00  0.00     0.054 Br 
HETATM    2  C   UNL     2     -10.264  17.106  66.961  1.00  0.00    -0.313 C  
HETATM    3  N   UNL     2      -9.100  16.090  67.218  1.00  0.00    -0.202 N  
HETATM    4  C   UNL     2      -7.935  16.698  66.463  1.00  0.00    -0.307 C  
HETATM    5  C   UNL     2      -9.535  14.684  66.714  1.00  0.00    -0.260 C  
HETATM    6  C   UNL     2     -10.613  14.287  67.742  1.00  0.00    -0.253 C  
HETATM    7  C   UNL     2     -10.246  15.059  69.023  1.00  0.00    -0.242 C  
HETATM    8  C   UNL     2      -8.906  15.760  68.715  1.00  0.00    -0.207 C  
HETATM    9  C   UNL     2      -7.634  14.886  68.863  1.00  0.00    -0.144 C  
HETATM   10  C   UNL     2      -7.742  13.531  68.164  1.00  0.00    -0.139 C  
HETATM   11  C   UNL     2      -8.343  13.702  66.774  1.00  0.00     0.089 C  
ENDROOT
BRANCH  10  12
HETATM   12  O   UNL     2      -8.641  12.672  68.898  1.00  0.00     0.113 OA 
BRANCH  12  13
HETATM   13  C   UNL     2      -8.524  11.316  68.792  1.00  0.00    -0.112 C  
HETATM   14  O   UNL     2      -7.511  10.673  69.045  1.00  0.00    -0.096 OA 
BRANCH  13  15
HETATM   15  C   UNL     2      -9.875  10.742  68.300  1.00  0.00    -0.166 C  
HETATM   16  O   UNL     2      -9.755   9.554  67.517  1.00  0.00    -0.146 OA 
HETATM   17  H   UNL     2     -10.584   9.202  67.215  1.00  0.00     0.000 HD 
BRANCH  15  18
HETATM   18  C   UNL     2     -10.805  10.531  69.477  1.00  0.00    -0.298 A  
HETATM   19  C   UNL     2     -11.815  11.484  69.715  1.00  0.00    -0.429 A  
HETATM   20  C   UNL     2     -12.650  11.378  70.809  1.00  0.00    -0.409 A  
HETATM   21  C   UNL     2     -12.505  10.322  71.698  1.00  0.00    -0.491 A  
HETATM   22  C   UNL     2     -11.512   9.362  71.489  1.00  0.00    -0.467 A  
HETATM   23  C   UNL     2     -10.660   9.471  70.388  1.00  0.00    -0.333 A  
ENDBRANCH  15  18
ENDBRANCH  13  15
ENDBRANCH  12  13
ENDBRANCH  10  12
TORSDOF 4
ENDMDL
MODEL      160
REMARK 921   NORMALIZED FREE ENERGY PREDICTED BY IDOCK:   -4.06 KCAL/MOL
REMARK 922        TOTAL FREE ENERGY PREDICTED BY IDOCK:   -5.65 KCAL/MOL
REMARK 923 INTER-LIGAND FREE ENERGY PREDICTED BY IDOCK:   -4.36 KCAL/MOL
REMARK 924 INTRA-LIGAND FREE ENERGY PREDICTED BY IDOCK:   -1.29 KCAL/MOL
REMARK 927      BINDING AFFINITY PREDICTED BY RF-SCORE:    0.00 PKD
ROOT
HETATM    1 BR   UNL     1     -13.156  11.090  71.678  1.00  0.00    -0.470 Br 
HETATM    2  C   UNL     2     -12.615   7.195  71.904  1.00  0.00    -0.293 C  
HETATM    3  N   UNL     2     -11.058   7.090  71.781  1.00  0.00    -0.235 N  
HETATM    4  C   UNL     2     -10.613   6.828  73.205  1.00  0.00    -0.309 C  
HETATM    5  C   UNL     2     -10.509   8.409  71.163  1.00  0.00    -0.212 C  
HETATM    6  C   UNL     2     -11.008   8.320  69.707  1.00  0.00    -0.132 C  
HETATM    7  C   UNL     2     -11.149   6.812  69.425  1.00  0.00    -0.310 C  
HETATM    8  C   UNL     2     -10.604   6.103  70.682  1.00  0.00    -0.249 C  
HETATM    9  C   UNL     2      -9.062   5.956  70.763  1.00  0.00    -0.163 C  
HETATM   10  C   UNL     2      -8.310   7.254  70.471  1.00  0.00    -0.133 C  
HETATM   11  C   UNL     2      -8.964   8.418  71.207  1.00  0.00    -0.224 C  
ENDROOT
BRANCH  10  12
HETATM   12  O   UNL     2      -8.393   7.561  69.062  1.00  0.00    -0.126 OA 
BRANCH  12  13
HETATM   13  C   UNL     2      -7.250   7.756  68.341  1.00  0.00    -0.093 C  
HETATM   14  O   UNL     2      -6.531   6.864  67.901  1.00  0.00    -0.046 OA 
BRANCH  13  15
HETATM   15  C   UNL     2      -7.022   9.278  68.182  1.00  0.00    -0.076 C  
HETATM   16  O   UNL     2      -5.920   9.619  67.339  1.00  0.00    -0.048 OA 
HETATM   17  H   UNL     2      -5.780  10.553  67.242  1.00  0.00     0.000 HD 
BRANCH  15  18
HETATM   18  C   UNL     2      -8.297   9.945  67.713  1.00  0.00    -0.114 A  
HETATM   19  C   UNL     2      -8.833  10.993  68.488  1.00  0.00    -0.159 A  
HETATM   20  C   UNL     2     -10.026  11.594  68.144  1.00  0.00    -0.198 A  
HETATM   21  C   UNL     2     -10.723  11.171  67.020  1.00  0.00    -0.316 A  
HETATM   22  C   UNL     2     -10.218  10.134  66.233  1.00  0.00    -0.288 A  
HETATM   23  C   UNL     2      -9.015   9.518  66.582  1.00  0.00    -0.168 A  
ENDBRANCH  15  18
ENDBRANCH  13  15
ENDBRANCH  12  13
ENDBRANCH  10  12
TORSDOF 4
ENDMDL
MODEL      161
REMARK 921   NORMALIZED FREE ENERGY PREDICTED BY IDOCK:   -4.06 KCAL/MOL
REMARK 922        TOTAL FREE ENERGY PREDICTED BY IDOCK:   -5.65 KCAL/MOL
REMARK 923 INTER-LIGAND FREE ENERGY PREDICTED BY IDOCK:   -4.65 KCAL/MOL
REMARK 924 INTRA-LIGAND FREE ENERGY PREDICTED BY IDOCK:   -1.00 KCAL/MOL
REMARK 927      BINDING AFFINITY PREDICTED BY RF-SCORE:    0.00 PKD
ROOT
HETATM    1 BR   UNL     1      -7.965   8.857  63.956  1.00  0.00    -0.160 Br 
HETATM    2  C   UNL     2      -7.888   5.342  65.730  1.00  0.00    -0.099 C  
HETATM    3  N   UNL     2      -9.199   5.396  66.584  1.00  0.00    -0.128 N  
HETATM    4  C   UNL     2     -10.162   4.528  65.799  1.00  0.00    -0.265 C  
HETATM    5  C   UNL     2      -9.642   6.879  66.737  1.00  0.00    -0.168 C  
HETATM    6  C   UNL     2      -8.559   7.449  67.676  1.00  0.00    -0.119 C  
HETATM    7  C   UNL     2      -8.060   6.240  68.489  1.00  0.00    -0.109 C  
HETATM    8  C   UNL     2      -8.964   5.060  68.074  1.00  0.00    -0.108 C  
HETATM    9  C   UNL     2     -10.342   4.981  68.782  1.00  0.00    -0.109 C  
HETATM   10  C   UNL     2     -11.101   6.307  68.785  1.00  0.00    -0.346 C  
HETATM   11  C   UNL     2     -11.034   6.956  67.407  1.00  0.00    -0.374 C  
ENDROOT
BRANCH  10  12
HETATM   12  O   UNL     2     -10.475   7.228  69.704  1.00  0.00    -0.218 OA 
BRANCH  12  13
HETATM   13  C   UNL     2     -11.049   7.471  70.919  1.00  0.00    -0.263 C  
HETATM   14  O   UNL     2     -12.209   7.829  71.093  1.00  0.00    -0.308 OA 
BRANCH  13  15
HETATM   15  C   UNL     2      -9.992   7.222  72.021  1.00  0.00    -0.162 C  
HETATM   16  O   UNL     2     -10.067   8.132  73.119  1.00  0.00    -0.290 OA 
HETATM   17  H   UNL     2      -9.418   7.979  73.796  1.00  0.00     0.000 HD 
BRANCH  15  18
HETATM   18  C   UNL     2     -10.067   5.785  72.494  1.00  0.00    -0.207 A  
HETATM   19  C   UNL     2      -9.087   4.878  72.047  1.00  0.00    -0.156 A  
HETATM   20  C   UNL     2      -9.142   3.543  72.392  1.00  0.00    -0.135 A  
HETATM   21  C   UNL     2     -10.174   3.071  73.193  1.00  0.00    -0.221 A  
HETATM   22  C   UNL     2     -11.161   3.947  73.651  1.00  0.00    -0.328 A  
HETATM   23  C   UNL     2     -11.113   5.296  73.296  1.00  0.00    -0.376 A  
ENDBRANCH  15  18
ENDBRANCH  13  15
ENDBRANCH  12  13
ENDBRANCH  10  12
TORSDOF 4
ENDMDL
MODEL      162
REMARK 921   NORMALIZED FREE ENERGY PREDICTED BY IDOCK:   -4.03 KCAL/MOL
REMARK 922        TOTAL FREE ENERGY PREDICTED BY IDOCK:   -5.61 KCAL/MOL
REMARK 923 INTER-LIGAND FREE ENERGY PREDICTED BY IDOCK:   -4.91 KCAL/MOL
REMARK 924 INTRA-LIGAND FREE ENERGY PREDICTED BY IDOCK:   -0.70 KCAL/MOL
REMARK 927      BINDING AFFINITY PREDICTED BY RF-SCORE:    0.00 PKD
ROOT
HETATM    1 BR   UNL     1     -12.959  10.313  71.632  1.00  0.00    -0.588 Br 
HETATM    2  C   UNL     2     -12.153   6.466  71.884  1.00  0.00    -0.310 C  
HETATM    3  N   UNL     2     -10.633   6.442  71.508  1.00  0.00    -0.225 N  
HETATM    4  C   UNL     2      -9.947   6.263  72.847  1.00  0.00    -0.170 C  
HETATM    5  C   UNL     2     -10.274   7.763  70.769  1.00  0.00    -0.197 C  
HETATM    6  C   UNL     2     -10.997   7.589  69.418  1.00  0.00    -0.099 C  
HETATM    7  C   UNL     2     -11.090   6.066  69.209  1.00  0.00    -0.424 C  
HETATM    8  C   UNL     2     -10.305   5.438  70.380  1.00  0.00    -0.283 C  
HETATM    9  C   UNL     2      -8.765   5.379  70.210  1.00  0.00    -0.135 C  
HETATM   10  C   UNL     2      -8.151   6.704  69.758  1.00  0.00    -0.126 C  
HETATM   11  C   UNL     2      -8.745   7.859  70.556  1.00  0.00    -0.136 C  
ENDROOT
BRANCH  10  12
HETATM   12  O   UNL     2      -8.481   6.949  68.374  1.00  0.00    -0.122 OA 
BRANCH  12  13
HETATM   13  C   UNL     2      -7.538   7.467  67.533  1.00  0.00    -0.113 C  
HETATM   14  O   UNL     2      -6.522   8.056  67.887  1.00  0.00    -0.050 OA 
BRANCH  13  15
HETATM   15  C   UNL     2      -7.973   7.188  66.074  1.00  0.00    -0.112 C  
HETATM   16  O   UNL     2      -8.829   6.053  65.926  1.00  0.00    -0.152 OA 
HETATM   17  H   UNL     2      -9.095   5.881  65.031  1.00  0.00     0.000 HD 
BRANCH  15  18
HETATM   18  C   UNL     2      -8.603   8.429  65.476  1.00  0.00    -0.201 A  
HETATM   19  C   UNL     2      -9.596   9.102  66.214  1.00  0.00    -0.321 A  
HETATM   20  C   UNL     2     -10.250  10.199  65.692  1.00  0.00    -0.288 A  
HETATM   21  C   UNL     2      -9.936  10.659  64.419  1.00  0.00    -0.415 A  
HETATM   22  C   UNL     2      -8.957  10.011  63.663  1.00  0.00    -0.280 A  
HETATM   23  C   UNL     2      -8.299   8.896  64.185  1.00  0.00    -0.168 A  
ENDBRANCH  15  18
ENDBRANCH  13  15
ENDBRANCH  12  13
ENDBRANCH  10  12
TORSDOF 4
ENDMDL
MODEL      163
REMARK 921   NORMALIZED FREE ENERGY PREDICTED BY IDOCK:   -4.03 KCAL/MOL
REMARK 922        TOTAL FREE ENERGY PREDICTED BY IDOCK:   -5.61 KCAL/MOL
REMARK 923 INTER-LIGAND FREE ENERGY PREDICTED BY IDOCK:   -5.18 KCAL/MOL
REMARK 924 INTRA-LIGAND FREE ENERGY PREDICTED BY IDOCK:   -0.43 KCAL/MOL
REMARK 927      BINDING AFFINITY PREDICTED BY RF-SCORE:    0.00 PKD
ROOT
HETATM    1 BR   UNL     1      -7.129   4.570  66.574  1.00  0.00    -0.076 Br 
HETATM    2  C   UNL     2      -7.649   6.629  69.892  1.00  0.00    -0.100 C  
HETATM    3  N   UNL     2      -8.978   7.393  69.578  1.00  0.00    -0.144 N  
HETATM    4  C   UNL     2     -10.017   6.624  70.369  1.00  0.00    -0.175 C  
HETATM    5  C   UNL     2      -9.209   7.397  68.039  1.00  0.00    -0.132 C  
HETATM    6  C   UNL     2      -8.102   8.349  67.545  1.00  0.00    -0.110 C  
HETATM    7  C   UNL     2      -7.824   9.288  68.734  1.00  0.00    -0.088 C  
HETATM    8  C   UNL     2      -8.868   8.918  69.808  1.00  0.00    -0.144 C  
HETATM    9  C   UNL     2     -10.276   9.543  69.629  1.00  0.00    -0.234 C  
HETATM   10  C   UNL     2     -10.834   9.390  68.215  1.00  0.00    -0.112 C  
HETATM   11  C   UNL     2     -10.606   7.971  67.708  1.00  0.00    -0.239 C  
ENDROOT
BRANCH  10  12
HETATM   12  O   UNL     2     -10.127  10.267  67.312  1.00  0.00    -0.184 OA 
BRANCH  12  13
HETATM   13  C   UNL     2     -10.653  11.487  66.998  1.00  0.00    -0.242 C  
HETATM   14  O   UNL     2     -11.714  11.931  67.426  1.00  0.00    -0.503 OA 
BRANCH  13  15
HETATM   15  C   UNL     2      -9.691  12.201  66.018  1.00  0.00    -0.244 C  
HETATM   16  O   UNL     2      -9.147  11.350  65.008  1.00  0.00    -0.373 OA 
HETATM   17  H   UNL     2      -8.557  11.788  64.407  1.00  0.00     0.000 HD 
BRANCH  15  18
HETATM   18  C   UNL     2     -10.376  13.406  65.407  1.00  0.00    -0.321 A  
HETATM   19  C   UNL     2      -9.983  14.690  65.834  1.00  0.00    -0.352 A  
HETATM   20  C   UNL     2     -10.615  15.822  65.361  1.00  0.00    -0.441 A  
HETATM   21  C   UNL     2     -11.658  15.710  64.450  1.00  0.00    -0.250 A  
HETATM   22  C   UNL     2     -12.070  14.450  64.010  1.00  0.00    -0.312 A  
HETATM   23  C   UNL     2     -11.438  13.303  64.492  1.00  0.00    -0.399 A  
ENDBRANCH  15  18
ENDBRANCH  13  15
ENDBRANCH  12  13
ENDBRANCH  10  12
TORSDOF 4
ENDMDL
MODEL      164
REMARK 921   NORMALIZED FREE ENERGY PREDICTED BY IDOCK:   -3.98 KCAL/MOL
REMARK 922        TOTAL FREE ENERGY PREDICTED BY IDOCK:   -5.55 KCAL/MOL
REMARK 923 INTER-LIGAND FREE ENERGY PREDICTED BY IDOCK:   -4.84 KCAL/MOL
REMARK 924 INTRA-LIGAND FREE ENERGY PREDICTED BY IDOCK:   -0.71 KCAL/MOL
REMARK 927      BINDING AFFINITY PREDICTED BY RF-SCORE:    0.00 PKD
ROOT
HETATM    1 BR   UNL     1      -8.213   5.218  63.812  1.00  0.00    -0.114 Br 
HETATM    2  C   UNL     2      -8.502   9.133  63.486  1.00  0.00    -0.189 C  
HETATM    3  N   UNL     2      -7.872   9.604  64.840  1.00  0.00    -0.117 N  
HETATM    4  C   UNL     2      -6.490  10.076  64.435  1.00  0.00    -0.131 C  
HETATM    5  C   UNL     2      -7.881   8.415  65.843  1.00  0.00    -0.095 C  
HETATM    6  C   UNL     2      -9.382   8.265  66.160  1.00  0.00    -0.254 C  
HETATM    7  C   UNL     2      -9.979   9.667  65.931  1.00  0.00    -0.351 C  
HETATM    8  C   UNL     2      -8.778  10.584  65.620  1.00  0.00    -0.180 C  
HETATM    9  C   UNL     2      -7.989  11.108  66.848  1.00  0.00    -0.151 C  
HETATM   10  C   UNL     2      -7.626  10.013  67.851  1.00  0.00    -0.089 C  
HETATM   11  C   UNL     2      -7.092   8.786  67.121  1.00  0.00    -0.075 C  
ENDROOT
BRANCH  10  12
HETATM   12  O   UNL     2      -8.809   9.587  68.560  1.00  0.00    -0.123 OA 
BRANCH  12  13
HETATM   13  C   UNL     2      -8.863   9.696  69.920  1.00  0.00    -0.221 C  
HETATM   14  O   UNL     2      -7.891   9.836  70.656  1.00  0.00    -0.277 OA 
BRANCH  13  15
HETATM   15  C   UNL     2     -10.343   9.611  70.362  1.00  0.00    -0.291 C  
HETATM   16  O   UNL     2     -11.282   9.874  69.318  1.00  0.00    -0.346 OA 
HETATM   17  H   UNL     2     -12.190   9.822  69.590  1.00  0.00     0.000 HD 
BRANCH  15  18
HETATM   18  C   UNL     2     -10.611   8.270  71.014  1.00  0.00    -0.243 A  
HETATM   19  C   UNL     2     -10.937   8.241  72.384  1.00  0.00    -0.438 A  
HETATM   20  C   UNL     2     -11.128   7.045  73.045  1.00  0.00    -0.295 A  
HETATM   21  C   UNL     2     -11.000   5.842  72.364  1.00  0.00    -0.310 A  
HETATM   22  C   UNL     2     -10.676   5.839  71.005  1.00  0.00    -0.326 A  
HETATM   23  C   UNL     2     -10.474   7.047  70.335  1.00  0.00    -0.225 A  
ENDBRANCH  15  18
ENDBRANCH  13  15
ENDBRANCH  12  13
ENDBRANCH  10  12
TORSDOF 4
ENDMDL
MODEL      165
REMARK 921   NORMALIZED FREE ENERGY PREDICTED BY IDOCK:   -3.97 KCAL/MOL
REMARK 922        TOTAL FREE ENERGY PREDICTED BY IDOCK:   -5.54 KCAL/MOL
REMARK 923 INTER-LIGAND FREE ENERGY PREDICTED BY IDOCK:   -4.57 KCAL/MOL
REMARK 924 INTRA-LIGAND FREE ENERGY PREDICTED BY IDOCK:   -0.97 KCAL/MOL
REMARK 927      BINDING AFFINITY PREDICTED BY RF-SCORE:    0.00 PKD
ROOT
HETATM    1 BR   UNL     1     -10.256  13.260  68.376  1.00  0.00    -0.236 Br 
HETATM    2  C   UNL     2      -7.598  11.209  66.315  1.00  0.00    -0.075 C  
HETATM    3  N   UNL     2      -8.340   9.843  66.126  1.00  0.00    -0.120 N  
HETATM    4  C   UNL     2      -8.815   9.901  64.689  1.00  0.00    -0.204 C  
HETATM    5  C   UNL     2      -9.479   9.735  67.181  1.00  0.00    -0.154 C  
HETATM    6  C   UNL     2      -8.692   9.557  68.495  1.00  0.00    -0.124 C  
HETATM    7  C   UNL     2      -7.358   8.911  68.077  1.00  0.00    -0.084 C  
HETATM    8  C   UNL     2      -7.490   8.629  66.565  1.00  0.00    -0.088 C  
HETATM    9  C   UNL     2      -8.251   7.334  66.181  1.00  0.00    -0.131 C  
HETATM   10  C   UNL     2      -9.586   7.173  66.909  1.00  0.00    -0.168 C  
HETATM   11  C   UNL     2     -10.352   8.491  66.900  1.00  0.00    -0.367 C  
ENDROOT
BRANCH  10  12
HETATM   12  O   UNL     2      -9.351   6.845  68.295  1.00  0.00    -0.127 OA 
BRANCH  12  13
HETATM   13  C   UNL     2      -9.588   5.577  68.742  1.00  0.00    -0.135 C  
HETATM   14  O   UNL     2      -9.886   4.621  68.033  1.00  0.00    -0.156 OA 
BRANCH  13  15
HETATM   15  C   UNL     2      -9.421   5.558  70.280  1.00  0.00    -0.165 C  
HETATM   16  O   UNL     2      -8.079   5.764  70.726  1.00  0.00    -0.113 OA 
HETATM   17  H   UNL     2      -7.976   5.753  71.670  1.00  0.00     0.000 HD 
BRANCH  15  18
HETATM   18  C   UNL     2     -10.367   6.556  70.915  1.00  0.00    -0.243 A  
HETATM   19  C   UNL     2      -9.829   7.557  71.749  1.00  0.00    -0.192 A  
HETATM   20  C   UNL     2     -10.648   8.452  72.406  1.00  0.00    -0.405 A  
HETATM   21  C   UNL     2     -12.026   8.379  72.254  1.00  0.00    -0.455 A  
HETATM   22  C   UNL     2     -12.589   7.397  71.435  1.00  0.00    -0.405 A  
HETATM   23  C   UNL     2     -11.764   6.485  70.775  1.00  0.00    -0.427 A  
ENDBRANCH  15  18
ENDBRANCH  13  15
ENDBRANCH  12  13
ENDBRANCH  10  12
TORSDOF 4
ENDMDL
MODEL      166
REMARK 921   NORMALIZED FREE ENERGY PREDICTED BY IDOCK:   -3.96 KCAL/MOL
REMARK 922        TOTAL FREE ENERGY PREDICTED BY IDOCK:   -5.53 KCAL/MOL
REMARK 923 INTER-LIGAND FREE ENERGY PREDICTED BY IDOCK:   -4.93 KCAL/MOL
REMARK 924 INTRA-LIGAND FREE ENERGY PREDICTED BY IDOCK:   -0.59 KCAL/MOL
REMARK 927      BINDING AFFINITY PREDICTED BY RF-SCORE:    0.00 PKD
ROOT
HETATM    1 BR   UNL     1      -6.792   7.754  66.106  1.00  0.00    -0.062 Br 
HETATM    2  C   UNL     2     -10.154   9.324  67.426  1.00  0.00    -0.223 C  
HETATM    3  N   UNL     2      -9.836   9.505  68.948  1.00  0.00    -0.169 N  
HETATM    4  C   UNL     2      -9.564  10.991  69.072  1.00  0.00    -0.121 C  
HETATM    5  C   UNL     2      -8.633   8.594  69.326  1.00  0.00    -0.131 C  
HETATM    6  C   UNL     2      -9.250   7.184  69.237  1.00  0.00    -0.140 C  
HETATM    7  C   UNL     2     -10.753   7.389  69.509  1.00  0.00    -0.233 C  
HETATM    8  C   UNL     2     -10.909   8.881  69.869  1.00  0.00    -0.211 C  
HETATM    9  C   UNL     2     -10.579   9.264  71.335  1.00  0.00    -0.417 C  
HETATM   10  C   UNL     2      -9.248   8.695  71.828  1.00  0.00    -0.268 C  
HETATM   11  C   UNL     2      -8.168   8.891  70.770  1.00  0.00    -0.198 C  
ENDROOT
BRANCH  10  12
HETATM   12  O   UNL     2      -9.370   7.271  72.032  1.00  0.00    -0.134 OA 
BRANCH  12  13
HETATM   13  C   UNL     2      -9.592   6.781  73.286  1.00  0.00    -0.162 C  
HETATM   14  O   UNL     2      -8.865   6.968  74.257  1.00  0.00    -0.170 OA 
BRANCH  13  15
HETATM   15  C   UNL     2     -10.901   5.957  73.268  1.00  0.00    -0.261 C  
HETATM   16  O   UNL     2     -11.962   6.560  72.526  1.00  0.00    -0.487 OA 
HETATM   17  H   UNL     2     -12.766   6.054  72.515  1.00  0.00     0.000 HD 
BRANCH  15  18
HETATM   18  C   UNL     2     -10.621   4.551  72.777  1.00  0.00    -0.263 A  
HETATM   19  C   UNL     2     -11.143   3.467  73.509  1.00  0.00    -0.317 A  
HETATM   20  C   UNL     2     -10.866   2.165  73.147  1.00  0.00    -0.264 A  
HETATM   21  C   UNL     2     -10.061   1.902  72.046  1.00  0.00    -0.227 A  
HETATM   22  C   UNL     2      -9.528   2.957  71.302  1.00  0.00    -0.219 A  
HETATM   23  C   UNL     2      -9.800   4.276  71.670  1.00  0.00    -0.257 A  
ENDBRANCH  15  18
ENDBRANCH  13  15
ENDBRANCH  12  13
ENDBRANCH  10  12
TORSDOF 4
ENDMDL
MODEL      167
REMARK 921   NORMALIZED FREE ENERGY PREDICTED BY IDOCK:   -3.96 KCAL/MOL
REMARK 922        TOTAL FREE ENERGY PREDICTED BY IDOCK:   -5.52 KCAL/MOL
REMARK 923 INTER-LIGAND FREE ENERGY PREDICTED BY IDOCK:   -4.98 KCAL/MOL
REMARK 924 INTRA-LIGAND FREE ENERGY PREDICTED BY IDOCK:   -0.54 KCAL/MOL
REMARK 927      BINDING AFFINITY PREDICTED BY RF-SCORE:    0.00 PKD
ROOT
HETATM    1 BR   UNL     1     -10.481   5.231  66.480  1.00  0.00    -0.331 Br 
HETATM    2  C   UNL     2      -8.121   7.512  64.302  1.00  0.00    -0.064 C  
HETATM    3  N   UNL     2      -7.626   8.550  65.365  1.00  0.00    -0.085 N  
HETATM    4  C   UNL     2      -6.218   8.084  65.677  1.00  0.00    -0.038 C  
HETATM    5  C   UNL     2      -8.598   8.533  66.580  1.00  0.00    -0.121 C  
HETATM    6  C   UNL     2      -9.869   9.175  65.991  1.00  0.00    -0.342 C  
HETATM    7  C   UNL     2      -9.367  10.079  64.849  1.00  0.00    -0.324 C  
HETATM    8  C   UNL     2      -7.826  10.015  64.917  1.00  0.00    -0.141 C  
HETATM    9  C   UNL     2      -7.155  10.943  65.963  1.00  0.00    -0.067 C  
HETATM   10  C   UNL     2      -7.791  10.858  67.350  1.00  0.00    -0.113 C  
HETATM   11  C   UNL     2      -8.034   9.401  67.728  1.00  0.00    -0.096 C  
ENDROOT
BRANCH  10  12
HETATM   12  O   UNL     2      -9.083  11.500  67.337  1.00  0.00    -0.162 OA 
BRANCH  12  13
HETATM   13  C   UNL     2      -9.165  12.863  67.346  1.00  0.00    -0.197 C  
HETATM   14  O   UNL     2      -8.227  13.626  67.554  1.00  0.00    -0.160 OA 
BRANCH  13  15
HETATM   15  C   UNL     2     -10.629  13.270  67.054  1.00  0.00    -0.259 C  
HETATM   16  O   UNL     2     -11.412  12.242  66.446  1.00  0.00    -0.340 OA 
HETATM   17  H   UNL     2     -12.311  12.492  66.267  1.00  0.00     0.000 HD 
BRANCH  15  18
HETATM   18  C   UNL     2     -11.285  13.782  68.320  1.00  0.00    -0.301 A  
HETATM   19  C   UNL     2     -11.275  15.168  68.569  1.00  0.00    -0.301 A  
HETATM   20  C   UNL     2     -11.800  15.685  69.736  1.00  0.00    -0.376 A  
HETATM   21  C   UNL     2     -12.350  14.839  70.690  1.00  0.00    -0.401 A  
HETATM   22  C   UNL     2     -12.373  13.460  70.471  1.00  0.00    -0.401 A  
HETATM   23  C   UNL     2     -11.836  12.932  69.295  1.00  0.00    -0.363 A  
ENDBRANCH  15  18
ENDBRANCH  13  15
ENDBRANCH  12  13
ENDBRANCH  10  12
TORSDOF 4
ENDMDL
MODEL      168
REMARK 921   NORMALIZED FREE ENERGY PREDICTED BY IDOCK:   -3.96 KCAL/MOL
REMARK 922        TOTAL FREE ENERGY PREDICTED BY IDOCK:   -5.52 KCAL/MOL
REMARK 923 INTER-LIGAND FREE ENERGY PREDICTED BY IDOCK:   -4.93 KCAL/MOL
REMARK 924 INTRA-LIGAND FREE ENERGY PREDICTED BY IDOCK:   -0.58 KCAL/MOL
REMARK 927      BINDING AFFINITY PREDICTED BY RF-SCORE:    0.00 PKD
ROOT
HETATM    1 BR   UNL     1      -7.565   4.492  66.233  1.00  0.00    -0.091 Br 
HETATM    2  C   UNL     2      -5.564   6.985  68.534  1.00  0.00    -0.018 C  
HETATM    3  N   UNL     2      -6.728   7.779  69.217  1.00  0.00    -0.043 N  
HETATM    4  C   UNL     2      -6.789   7.179  70.608  1.00  0.00    -0.053 C  
HETATM    5  C   UNL     2      -8.025   7.599  68.377  1.00  0.00    -0.123 C  
HETATM    6  C   UNL     2      -7.708   8.415  67.108  1.00  0.00    -0.097 C  
HETATM    7  C   UNL     2      -6.692   9.480  67.562  1.00  0.00    -0.067 C  
HETATM    8  C   UNL     2      -6.570   9.311  69.091  1.00  0.00    -0.049 C  
HETATM    9  C   UNL     2      -7.677   9.990  69.939  1.00  0.00    -0.183 C  
HETATM   10  C   UNL     2      -9.092   9.690  69.443  1.00  0.00    -0.188 C  
HETATM   11  C   UNL     2      -9.235   8.207  69.124  1.00  0.00    -0.151 C  
ENDROOT
BRANCH  10  12
HETATM   12  O   UNL     2      -9.340  10.402  68.212  1.00  0.00    -0.142 OA 
BRANCH  12  13
HETATM   13  C   UNL     2      -9.725  11.711  68.250  1.00  0.00    -0.197 C  
HETATM   14  O   UNL     2      -8.969  12.666  68.398  1.00  0.00    -0.187 OA 
BRANCH  13  15
HETATM   15  C   UNL     2     -11.262  11.777  68.079  1.00  0.00    -0.263 C  
HETATM   16  O   UNL     2     -11.879  10.512  67.836  1.00  0.00    -0.731 OA 
HETATM   17  H   UNL     2     -12.821  10.553  67.731  1.00  0.00     0.000 HD 
BRANCH  15  18
HETATM   18  C   UNL     2     -11.885  12.470  69.273  1.00  0.00    -0.360 A  
HETATM   19  C   UNL     2     -12.017  13.872  69.244  1.00  0.00    -0.402 A  
HETATM   20  C   UNL     2     -12.518  14.562  70.329  1.00  0.00    -0.405 A  
HETATM   21  C   UNL     2     -12.901  13.879  71.475  1.00  0.00    -0.441 A  
HETATM   22  C   UNL     2     -12.781  12.489  71.534  1.00  0.00    -0.325 A  
HETATM   23  C   UNL     2     -12.268  11.788  70.441  1.00  0.00    -0.416 A  
ENDBRANCH  15  18
ENDBRANCH  13  15
ENDBRANCH  12  13
ENDBRANCH  10  12
TORSDOF 4
ENDMDL
MODEL      169
REMARK 921   NORMALIZED FREE ENERGY PREDICTED BY IDOCK:   -3.95 KCAL/MOL
REMARK 922        TOTAL FREE ENERGY PREDICTED BY IDOCK:   -5.51 KCAL/MOL
REMARK 923 INTER-LIGAND FREE ENERGY PREDICTED BY IDOCK:   -4.20 KCAL/MOL
REMARK 924 INTRA-LIGAND FREE ENERGY PREDICTED BY IDOCK:   -1.31 KCAL/MOL
REMARK 927      BINDING AFFINITY PREDICTED BY RF-SCORE:    0.00 PKD
ROOT
HETATM    1 BR   UNL     1      -7.095  10.576  69.653  1.00  0.00    -0.146 Br 
HETATM    2  C   UNL     2     -10.816   9.325  69.321  1.00  0.00    -0.152 C  
HETATM    3  N   UNL     2     -11.070   8.725  70.745  1.00  0.00    -0.253 N  
HETATM    4  C   UNL     2     -11.912   9.786  71.424  1.00  0.00    -0.411 C  
HETATM    5  C   UNL     2      -9.700   8.450  71.429  1.00  0.00    -0.199 C  
HETATM    6  C   UNL     2      -9.159   7.260  70.611  1.00  0.00    -0.157 C  
HETATM    7  C   UNL     2     -10.412   6.547  70.068  1.00  0.00    -0.257 C  
HETATM    8  C   UNL     2     -11.613   7.279  70.703  1.00  0.00    -0.290 C  
HETATM    9  C   UNL     2     -11.981   6.852  72.147  1.00  0.00    -0.302 C  
HETATM   10  C   UNL     2     -10.781   6.802  73.092  1.00  0.00    -0.296 C  
HETATM   11  C   UNL     2      -9.912   8.040  72.905  1.00  0.00    -0.360 C  
ENDROOT
BRANCH  10  12
HETATM   12  O   UNL     2      -9.952   5.665  72.770  1.00  0.00    -0.169 OA 
BRANCH  12  13
HETATM   13  C   UNL     2     -10.069   4.512  73.491  1.00  0.00    -0.158 C  
HETATM   14  O   UNL     2     -11.010   4.233  74.228  1.00  0.00    -0.214 OA 
BRANCH  13  15
HETATM   15  C   UNL     2      -8.825   3.634  73.221  1.00  0.00    -0.089 C  
HETATM   16  O   UNL     2      -8.866   2.351  73.850  1.00  0.00    -0.072 OA 
HETATM   17  H   UNL     2      -8.102   1.813  73.684  1.00  0.00     0.000 HD 
BRANCH  15  18
HETATM   18  C   UNL     2      -8.597   3.504  71.730  1.00  0.00    -0.113 A  
HETATM   19  C   UNL     2      -7.420   4.050  71.179  1.00  0.00    -0.044 A  
HETATM   20  C   UNL     2      -7.190   4.019  69.819  1.00  0.00    -0.042 A  
HETATM   21  C   UNL     2      -8.123   3.447  68.966  1.00  0.00    -0.071 A  
HETATM   22  C   UNL     2      -9.300   2.899  69.482  1.00  0.00    -0.199 A  
HETATM   23  C   UNL     2      -9.540   2.935  70.856  1.00  0.00    -0.208 A  
ENDBRANCH  15  18
ENDBRANCH  13  15
ENDBRANCH  12  13
ENDBRANCH  10  12
TORSDOF 4
ENDMDL
MODEL      170
REMARK 921   NORMALIZED FREE ENERGY PREDICTED BY IDOCK:   -3.95 KCAL/MOL
REMARK 922        TOTAL FREE ENERGY PREDICTED BY IDOCK:   -5.51 KCAL/MOL
REMARK 923 INTER-LIGAND FREE ENERGY PREDICTED BY IDOCK:   -4.57 KCAL/MOL
REMARK 924 INTRA-LIGAND FREE ENERGY PREDICTED BY IDOCK:   -0.94 KCAL/MOL
REMARK 927      BINDING AFFINITY PREDICTED BY RF-SCORE:    0.00 PKD
ROOT
HETATM    1 BR   UNL     1     -10.961   3.336  73.594  1.00  0.00    -0.321 Br 
HETATM    2  C   UNL     2     -10.435   7.231  73.342  1.00  0.00    -0.377 C  
HETATM    3  N   UNL     2     -10.874   7.509  71.865  1.00  0.00    -0.223 N  
HETATM    4  C   UNL     2     -12.256   8.111  72.020  1.00  0.00    -0.339 C  
HETATM    5  C   UNL     2     -10.837   6.174  71.066  1.00  0.00    -0.279 C  
HETATM    6  C   UNL     2      -9.323   5.898  70.962  1.00  0.00    -0.178 C  
HETATM    7  C   UNL     2      -8.659   7.285  71.043  1.00  0.00    -0.128 C  
HETATM    8  C   UNL     2      -9.820   8.301  71.059  1.00  0.00    -0.187 C  
HETATM    9  C   UNL     2     -10.427   8.659  69.677  1.00  0.00    -0.220 C  
HETATM   10  C   UNL     2     -10.751   7.436  68.820  1.00  0.00    -0.118 C  
HETATM   11  C   UNL     2     -11.448   6.373  69.660  1.00  0.00    -0.446 C  
ENDROOT
BRANCH  10  12
HETATM   12  O   UNL     2      -9.529   6.840  68.335  1.00  0.00    -0.128 OA 
BRANCH  12  13
HETATM   13  C   UNL     2      -9.395   6.547  67.008  1.00  0.00    -0.139 C  
HETATM   14  O   UNL     2      -8.840   7.260  66.179  1.00  0.00    -0.156 OA 
BRANCH  13  15
HETATM   15  C   UNL     2     -10.061   5.176  66.738  1.00  0.00    -0.232 C  
HETATM   16  O   UNL     2     -10.404   4.952  65.370  1.00  0.00    -0.416 OA 
HETATM   17  H   UNL     2     -10.813   4.111  65.204  1.00  0.00     0.000 HD 
BRANCH  15  18
HETATM   18  C   UNL     2      -9.184   4.062  67.272  1.00  0.00    -0.187 A  
HETATM   19  C   UNL     2      -9.613   3.357  68.414  1.00  0.00    -0.144 A  
HETATM   20  C   UNL     2      -8.826   2.377  68.982  1.00  0.00    -0.149 A  
HETATM   21  C   UNL     2      -7.588   2.068  68.432  1.00  0.00    -0.050 A  
HETATM   22  C   UNL     2      -7.136   2.751  67.301  1.00  0.00    -0.053 A  
HETATM   23  C   UNL     2      -7.926   3.749  66.728  1.00  0.00    -0.095 A  
ENDBRANCH  15  18
ENDBRANCH  13  15
ENDBRANCH  12  13
ENDBRANCH  10  12
TORSDOF 4
ENDMDL
MODEL      171
REMARK 921   NORMALIZED FREE ENERGY PREDICTED BY IDOCK:   -3.95 KCAL/MOL
REMARK 922        TOTAL FREE ENERGY PREDICTED BY IDOCK:   -5.51 KCAL/MOL
REMARK 923 INTER-LIGAND FREE ENERGY PREDICTED BY IDOCK:   -5.59 KCAL/MOL
REMARK 924 INTRA-LIGAND FREE ENERGY PREDICTED BY IDOCK:    0.08 KCAL/MOL
REMARK 927      BINDING AFFINITY PREDICTED BY RF-SCORE:    0.00 PKD
ROOT
HETATM    1 BR   UNL     1     -10.972   3.184  73.270  1.00  0.00    -0.224 Br 
HETATM    2  C   UNL     2      -7.725   5.150  72.218  1.00  0.00    -0.100 C  
HETATM    3  N   UNL     2      -8.224   6.633  72.287  1.00  0.00    -0.105 N  
HETATM    4  C   UNL     2      -7.626   7.142  73.583  1.00  0.00    -0.096 C  
HETATM    5  C   UNL     2      -9.780   6.646  72.244  1.00  0.00    -0.148 C  
HETATM    6  C   UNL     2     -10.070   6.219  70.791  1.00  0.00    -0.229 C  
HETATM    7  C   UNL     2      -8.828   6.656  69.991  1.00  0.00    -0.141 C  
HETATM    8  C   UNL     2      -7.941   7.427  70.992  1.00  0.00    -0.097 C  
HETATM    9  C   UNL     2      -8.322   8.910  71.233  1.00  0.00    -0.223 C  
HETATM   10  C   UNL     2      -9.810   9.118  71.514  1.00  0.00    -0.265 C  
HETATM   11  C   UNL     2     -10.310   8.074  72.505  1.00  0.00    -0.374 C  
ENDROOT
BRANCH  10  12
HETATM   12  O   UNL     2     -10.568   8.929  70.300  1.00  0.00    -0.203 OA 
BRANCH  12  13
HETATM   13  C   UNL     2     -10.502   9.861  69.304  1.00  0.00    -0.221 C  
HETATM   14  O   UNL     2      -9.637   9.906  68.435  1.00  0.00    -0.145 OA 
BRANCH  13  15
HETATM   15  C   UNL     2     -11.691  10.837  69.465  1.00  0.00    -0.312 C  
HETATM   16  O   UNL     2     -11.758  11.473  70.743  1.00  0.00    -0.420 OA 
HETATM   17  H   UNL     2     -12.488  12.072  70.841  1.00  0.00     0.000 HD 
BRANCH  15  18
HETATM   18  C   UNL     2     -11.676  11.859  68.347  1.00  0.00    -0.387 A  
HETATM   19  C   UNL     2     -11.830  13.220  68.677  1.00  0.00    -0.380 A  
HETATM   20  C   UNL     2     -11.890  14.188  67.695  1.00  0.00    -0.427 A  
HETATM   21  C   UNL     2     -11.799  13.831  66.356  1.00  0.00    -0.434 A  
HETATM   22  C   UNL     2     -11.647  12.490  65.998  1.00  0.00    -0.456 A  
HETATM   23  C   UNL     2     -11.594  11.507  66.988  1.00  0.00    -0.203 A  
ENDBRANCH  15  18
ENDBRANCH  13  15
ENDBRANCH  12  13
ENDBRANCH  10  12
TORSDOF 4
ENDMDL
MODEL      172
REMARK 921   NORMALIZED FREE ENERGY PREDICTED BY IDOCK:   -3.94 KCAL/MOL
REMARK 922        TOTAL FREE ENERGY PREDICTED BY IDOCK:   -5.50 KCAL/MOL
REMARK 923 INTER-LIGAND FREE ENERGY PREDICTED BY IDOCK:   -5.01 KCAL/MOL
REMARK 924 INTRA-LIGAND FREE ENERGY PREDICTED BY IDOCK:   -0.49 KCAL/MOL
REMARK 927      BINDING AFFINITY PREDICTED BY RF-SCORE:    0.00 PKD
ROOT
HETATM    1 BR   UNL     1     -11.409   6.441  70.255  1.00  0.00    -0.469 Br 
HETATM    2  C   UNL     2      -9.220   6.403  66.981  1.00  0.00    -0.129 C  
HETATM    3  N   UNL     2      -8.418   7.740  67.128  1.00  0.00    -0.123 N  
HETATM    4  C   UNL     2      -7.044   7.274  67.569  1.00  0.00    -0.085 C  
HETATM    5  C   UNL     2      -9.148   8.658  68.150  1.00  0.00    -0.141 C  
HETATM    6  C   UNL     2     -10.417   9.066  67.374  1.00  0.00    -0.338 C  
HETATM    7  C   UNL     2     -10.022   8.973  65.888  1.00  0.00    -0.169 C  
HETATM    8  C   UNL     2      -8.515   8.644  65.879  1.00  0.00    -0.146 C  
HETATM    9  C   UNL     2      -7.557   9.848  66.070  1.00  0.00    -0.106 C  
HETATM   10  C   UNL     2      -7.936  10.747  67.246  1.00  0.00    -0.117 C  
HETATM   11  C   UNL     2      -8.284   9.901  68.465  1.00  0.00    -0.106 C  
ENDROOT
BRANCH  10  12
HETATM   12  O   UNL     2      -9.121  11.505  66.921  1.00  0.00    -0.169 OA 
BRANCH  12  13
HETATM   13  C   UNL     2      -9.178  12.837  67.214  1.00  0.00    -0.203 C  
HETATM   14  O   UNL     2      -8.308  13.468  67.805  1.00  0.00    -0.154 OA 
BRANCH  13  15
HETATM   15  C   UNL     2     -10.516  13.402  66.680  1.00  0.00    -0.280 C  
HETATM   16  O   UNL     2     -11.676  12.767  67.221  1.00  0.00    -0.348 OA 
HETATM   17  H   UNL     2     -12.498  13.113  66.894  1.00  0.00     0.000 HD 
BRANCH  15  18
HETATM   18  C   UNL     2     -10.566  14.901  66.890  1.00  0.00    -0.300 A  
HETATM   19  C   UNL     2     -10.081  15.739  65.867  1.00  0.00    -0.381 A  
HETATM   20  C   UNL     2     -10.040  17.109  66.028  1.00  0.00    -0.303 A  
HETATM   21  C   UNL     2     -10.480  17.686  67.213  1.00  0.00    -0.338 A  
HETATM   22  C   UNL     2     -10.964  16.880  68.245  1.00  0.00    -0.298 A  
HETATM   23  C   UNL     2     -10.999  15.493  68.089  1.00  0.00    -0.312 A  
ENDBRANCH  15  18
ENDBRANCH  13  15
ENDBRANCH  12  13
ENDBRANCH  10  12
TORSDOF 4
ENDMDL
MODEL      173
REMARK 921   NORMALIZED FREE ENERGY PREDICTED BY IDOCK:   -3.90 KCAL/MOL
REMARK 922        TOTAL FREE ENERGY PREDICTED BY IDOCK:   -5.45 KCAL/MOL
REMARK 923 INTER-LIGAND FREE ENERGY PREDICTED BY IDOCK:   -4.23 KCAL/MOL
REMARK 924 INTRA-LIGAND FREE ENERGY PREDICTED BY IDOCK:   -1.22 KCAL/MOL
REMARK 927      BINDING AFFINITY PREDICTED BY RF-SCORE:    0.00 PKD
ROOT
HETATM    1 BR   UNL     1      -5.990  15.687  67.676  1.00  0.00    -0.131 Br 
HETATM    2  C   UNL     2      -9.606  15.741  66.116  1.00  0.00    -0.332 C  
HETATM    3  N   UNL     2     -10.488  15.408  67.366  1.00  0.00    -0.272 N  
HETATM    4  C   UNL     2     -11.071  16.753  67.749  1.00  0.00    -0.135 C  
HETATM    5  C   UNL     2      -9.592  14.755  68.458  1.00  0.00    -0.218 C  
HETATM    6  C   UNL     2      -9.277  13.377  67.843  1.00  0.00    -0.216 C  
HETATM    7  C   UNL     2     -10.463  13.079  66.906  1.00  0.00    -0.258 C  
HETATM    8  C   UNL     2     -11.463  14.234  67.122  1.00  0.00    -0.359 C  
HETATM    9  C   UNL     2     -12.392  14.104  68.357  1.00  0.00    -0.018 C  
HETATM   10  C   UNL     2     -11.648  13.746  69.643  1.00  0.00    -0.281 C  
HETATM   11  C   UNL     2     -10.387  14.592  69.774  1.00  0.00     0.118 C  
ENDROOT
BRANCH  10  12
HETATM   12  O   UNL     2     -11.216  12.369  69.592  1.00  0.00    -0.166 OA 
BRANCH  12  13
HETATM   13  C   UNL     2     -11.876  11.422  70.320  1.00  0.00    -0.350 C  
HETATM   14  O   UNL     2     -13.044  11.501  70.689  1.00  0.00    -0.036 OA 
BRANCH  13  15
HETATM   15  C   UNL     2     -10.906  10.249  70.597  1.00  0.00    -0.140 C  
HETATM   16  O   UNL     2     -11.544   9.059  71.061  1.00  0.00    -0.277 OA 
HETATM   17  H   UNL     2     -10.949   8.339  71.231  1.00  0.00     0.000 HD 
BRANCH  15  18
HETATM   18  C   UNL     2     -10.063   9.974  69.369  1.00  0.00    -0.235 A  
HETATM   19  C   UNL     2      -8.667  10.139  69.461  1.00  0.00    -0.189 A  
HETATM   20  C   UNL     2      -7.856   9.967  68.358  1.00  0.00    -0.085 A  
HETATM   21  C   UNL     2      -8.409   9.626  67.131  1.00  0.00    -0.121 A  
HETATM   22  C   UNL     2      -9.790   9.457  67.009  1.00  0.00    -0.258 A  
HETATM   23  C   UNL     2     -10.614   9.638  68.120  1.00  0.00    -0.273 A  
ENDBRANCH  15  18
ENDBRANCH  13  15
ENDBRANCH  12  13
ENDBRANCH  10  12
TORSDOF 4
ENDMDL
MODEL      174
REMARK 921   NORMALIZED FREE ENERGY PREDICTED BY IDOCK:   -3.89 KCAL/MOL
REMARK 922        TOTAL FREE ENERGY PREDICTED BY IDOCK:   -5.44 KCAL/MOL
REMARK 923 INTER-LIGAND FREE ENERGY PREDICTED BY IDOCK:   -4.90 KCAL/MOL
REMARK 924 INTRA-LIGAND FREE ENERGY PREDICTED BY IDOCK:   -0.54 KCAL/MOL
REMARK 927      BINDING AFFINITY PREDICTED BY RF-SCORE:    0.00 PKD
ROOT
HETATM    1 BR   UNL     1     -12.245  12.800  63.468  1.00  0.00    -0.572 Br 
HETATM    2  C   UNL     2     -11.089  13.730  67.117  1.00  0.00    -0.302 C  
HETATM    3  N   UNL     2      -9.911  12.722  67.336  1.00  0.00    -0.210 N  
HETATM    4  C   UNL     2      -8.678  13.585  67.159  1.00  0.00    -0.215 C  
HETATM    5  C   UNL     2     -10.042  11.560  66.309  1.00  0.00    -0.226 C  
HETATM    6  C   UNL     2     -11.283  10.805  66.825  1.00  0.00    -0.053 C  
HETATM    7  C   UNL     2     -11.331  11.103  68.335  1.00  0.00    -0.357 C  
HETATM    8  C   UNL     2     -10.049  11.905  68.641  1.00  0.00    -0.177 C  
HETATM    9  C   UNL     2      -8.756  11.071  68.835  1.00  0.00    -0.122 C  
HETATM   10  C   UNL     2      -8.531  10.034  67.735  1.00  0.00    -0.114 C  
HETATM   11  C   UNL     2      -8.792  10.652  66.367  1.00  0.00    -0.164 C  
ENDROOT
BRANCH  10  12
HETATM   12  O   UNL     2      -9.473   8.950  67.883  1.00  0.00    -0.140 OA 
BRANCH  12  13
HETATM   13  C   UNL     2      -9.020   7.672  68.044  1.00  0.00    -0.126 C  
HETATM   14  O   UNL     2      -7.840   7.341  68.085  1.00  0.00    -0.114 OA 
BRANCH  13  15
HETATM   15  C   UNL     2     -10.241   6.729  68.161  1.00  0.00    -0.174 C  
HETATM   16  O   UNL     2     -11.336   7.080  67.312  1.00  0.00    -0.605 OA 
HETATM   17  H   UNL     2     -12.085   6.501  67.384  1.00  0.00     0.000 HD 
BRANCH  15  18
HETATM   18  C   UNL     2      -9.810   5.295  67.932  1.00  0.00    -0.189 A  
HETATM   19  C   UNL     2      -9.647   4.845  66.607  1.00  0.00    -0.171 A  
HETATM   20  C   UNL     2      -9.320   3.532  66.337  1.00  0.00    -0.184 A  
HETATM   21  C   UNL     2      -9.145   2.628  67.376  1.00  0.00    -0.205 A  
HETATM   22  C   UNL     2      -9.301   3.044  68.699  1.00  0.00    -0.237 A  
HETATM   23  C   UNL     2      -9.640   4.370  68.976  1.00  0.00    -0.244 A  
ENDBRANCH  15  18
ENDBRANCH  13  15
ENDBRANCH  12  13
ENDBRANCH  10  12
TORSDOF 4
ENDMDL
MODEL      175
REMARK 921   NORMALIZED FREE ENERGY PREDICTED BY IDOCK:   -3.88 KCAL/MOL
REMARK 922        TOTAL FREE ENERGY PREDICTED BY IDOCK:   -5.42 KCAL/MOL
REMARK 923 INTER-LIGAND FREE ENERGY PREDICTED BY IDOCK:   -4.42 KCAL/MOL
REMARK 924 INTRA-LIGAND FREE ENERGY PREDICTED BY IDOCK:   -1.01 KCAL/MOL
REMARK 927      BINDING AFFINITY PREDICTED BY RF-SCORE:    0.00 PKD
ROOT
HETATM    1 BR   UNL     1      -7.313   8.871  63.578  1.00  0.00    -0.101 Br 
HETATM    2  C   UNL     2      -7.288   5.430  65.495  1.00  0.00    -0.073 C  
HETATM    3  N   UNL     2      -8.696   5.446  66.180  1.00  0.00    -0.125 N  
HETATM    4  C   UNL     2      -9.511   4.501  65.320  1.00  0.00    -0.171 C  
HETATM    5  C   UNL     2      -9.226   6.909  66.215  1.00  0.00    -0.120 C  
HETATM    6  C   UNL     2      -8.296   7.568  67.253  1.00  0.00    -0.118 C  
HETATM    7  C   UNL     2      -7.844   6.417  68.172  1.00  0.00    -0.105 C  
HETATM    8  C   UNL     2      -8.632   5.176  67.700  1.00  0.00    -0.104 C  
HETATM    9  C   UNL     2     -10.082   5.051  68.236  1.00  0.00    -0.170 C  
HETATM   10  C   UNL     2     -10.899   6.334  68.091  1.00  0.00    -0.320 C  
HETATM   11  C   UNL     2     -10.691   6.936  66.706  1.00  0.00    -0.296 C  
ENDROOT
BRANCH  10  12
HETATM   12  O   UNL     2     -10.436   7.319  69.039  1.00  0.00    -0.204 OA 
BRANCH  12  13
HETATM   13  C   UNL     2     -11.147   7.548  70.183  1.00  0.00    -0.231 C  
HETATM   14  O   UNL     2     -12.052   6.836  70.606  1.00  0.00    -0.392 OA 
BRANCH  13  15
HETATM   15  C   UNL     2     -10.620   8.846  70.839  1.00  0.00    -0.233 C  
HETATM   16  O   UNL     2      -9.441   8.667  71.625  1.00  0.00    -0.218 OA 
HETATM   17  H   UNL     2      -9.117   9.464  72.028  1.00  0.00     0.000 HD 
BRANCH  15  18
HETATM   18  C   UNL     2     -10.416   9.913  69.783  1.00  0.00    -0.292 A  
HETATM   19  C   UNL     2     -11.547  10.427  69.119  1.00  0.00    -0.234 A  
HETATM   20  C   UNL     2     -11.417  11.352  68.104  1.00  0.00    -0.375 A  
HETATM   21  C   UNL     2     -10.159  11.793  67.717  1.00  0.00    -0.199 A  
HETATM   22  C   UNL     2      -9.019  11.300  68.356  1.00  0.00    -0.167 A  
HETATM   23  C   UNL     2      -9.146  10.358  69.378  1.00  0.00    -0.170 A  
ENDBRANCH  15  18
ENDBRANCH  13  15
ENDBRANCH  12  13
ENDBRANCH  10  12
TORSDOF 4
ENDMDL
MODEL      176
REMARK 921   NORMALIZED FREE ENERGY PREDICTED BY IDOCK:   -3.88 KCAL/MOL
REMARK 922        TOTAL FREE ENERGY PREDICTED BY IDOCK:   -5.42 KCAL/MOL
REMARK 923 INTER-LIGAND FREE ENERGY PREDICTED BY IDOCK:   -4.91 KCAL/MOL
REMARK 924 INTRA-LIGAND FREE ENERGY PREDICTED BY IDOCK:   -0.51 KCAL/MOL
REMARK 927      BINDING AFFINITY PREDICTED BY RF-SCORE:    0.00 PKD
ROOT
HETATM    1 BR   UNL     1      -9.400   9.562  70.369  1.00  0.00    -0.279 Br 
HETATM    2  C   UNL     2      -7.378  11.332  67.489  1.00  0.00    -0.105 C  
HETATM    3  N   UNL     2      -7.447  12.830  67.936  1.00  0.00    -0.113 N  
HETATM    4  C   UNL     2      -6.069  13.085  68.512  1.00  0.00    -0.076 C  
HETATM    5  C   UNL     2      -8.614  13.002  68.951  1.00  0.00     0.301 C  
HETATM    6  C   UNL     2      -9.856  12.820  68.056  1.00  0.00    -0.226 C  
HETATM    7  C   UNL     2      -9.397  13.244  66.648  1.00  0.00    -0.247 C  
HETATM    8  C   UNL     2      -7.957  13.771  66.822  1.00  0.00     0.418 C  
HETATM    9  C   UNL     2      -7.826  15.235  67.318  1.00  0.00    -0.240 C  
HETATM   10  C   UNL     2      -8.698  15.545  68.534  1.00  0.00    -0.184 C  
HETATM   11  C   UNL     2      -8.589  14.423  69.560  1.00  0.00     0.415 C  
ENDROOT
BRANCH  10  12
HETATM   12  O   UNL     2     -10.085  15.608  68.140  1.00  0.00    -0.220 OA 
BRANCH  12  13
HETATM   13  C   UNL     2     -10.938  16.455  68.788  1.00  0.00    -0.344 C  
HETATM   14  O   UNL     2     -10.696  17.624  69.068  1.00  0.00    -0.186 OA 
BRANCH  13  15
HETATM   15  C   UNL     2     -12.245  15.689  69.104  1.00  0.00    -0.124 C  
HETATM   16  O   UNL     2     -12.350  14.419  68.459  1.00  0.00    -0.588 OA 
HETATM   17  H   UNL     2     -13.152  13.949  68.653  1.00  0.00     0.000 HD 
BRANCH  15  18
HETATM   18  C   UNL     2     -12.417  15.557  70.603  1.00  0.00    -0.483 A  
HETATM   19  C   UNL     2     -13.713  15.355  71.116  1.00  0.00    -0.497 A  
HETATM   20  C   UNL     2     -13.939  15.293  72.476  1.00  0.00    -0.609 A  
HETATM   21  C   UNL     2     -12.882  15.430  73.366  1.00  0.00    -0.662 A  
HETATM   22  C   UNL     2     -11.586  15.632  72.887  1.00  0.00    -0.408 A  
HETATM   23  C   UNL     2     -11.355  15.704  71.512  1.00  0.00    -0.454 A  
ENDBRANCH  15  18
ENDBRANCH  13  15
ENDBRANCH  12  13
ENDBRANCH  10  12
TORSDOF 4
ENDMDL
MODEL      177
REMARK 921   NORMALIZED FREE ENERGY PREDICTED BY IDOCK:   -3.87 KCAL/MOL
REMARK 922        TOTAL FREE ENERGY PREDICTED BY IDOCK:   -5.41 KCAL/MOL
REMARK 923 INTER-LIGAND FREE ENERGY PREDICTED BY IDOCK:   -4.87 KCAL/MOL
REMARK 924 INTRA-LIGAND FREE ENERGY PREDICTED BY IDOCK:   -0.55 KCAL/MOL
REMARK 927      BINDING AFFINITY PREDICTED BY RF-SCORE:    0.00 PKD
ROOT
HETATM    1 BR   UNL     1      -8.694  16.306  66.108  1.00  0.00    -0.289 Br 
HETATM    2  C   UNL     2     -12.062  14.439  66.935  1.00  0.00    -0.356 C  
HETATM    3  N   UNL     2     -11.557  13.287  67.869  1.00  0.00    -0.312 N  
HETATM    4  C   UNL     2     -11.951  13.764  69.252  1.00  0.00    -0.352 C  
HETATM    5  C   UNL     2     -10.027  13.101  67.660  1.00  0.00    -0.219 C  
HETATM    6  C   UNL     2      -9.961  12.492  66.245  1.00  0.00    -0.263 C  
HETATM    7  C   UNL     2     -11.310  11.772  66.058  1.00  0.00    -0.335 C  
HETATM    8  C   UNL     2     -12.034  11.889  67.416  1.00  0.00    -0.017 C  
HETATM    9  C   UNL     2     -11.620  10.856  68.496  1.00  0.00    -0.360 C  
HETATM   10  C   UNL     2     -10.107  10.728  68.666  1.00  0.00    -0.183 C  
HETATM   11  C   UNL     2      -9.462  12.109  68.703  1.00  0.00    -0.052 C  
ENDROOT
BRANCH  10  12
HETATM   12  O   UNL     2      -9.542  10.041  67.529  1.00  0.00    -0.150 OA 
BRANCH  12  13
HETATM   13  C   UNL     2      -9.835   8.725  67.316  1.00  0.00    -0.201 C  
HETATM   14  O   UNL     2     -10.779   8.309  66.651  1.00  0.00    -0.202 OA 
BRANCH  13  15
HETATM   15  C   UNL     2      -8.784   7.861  68.053  1.00  0.00    -0.125 C  
HETATM   16  O   UNL     2      -7.713   8.610  68.630  1.00  0.00    -0.095 OA 
HETATM   17  H   UNL     2      -7.067   8.079  69.082  1.00  0.00     0.000 HD 
BRANCH  15  18
HETATM   18  C   UNL     2      -9.464   6.991  69.089  1.00  0.00    -0.143 A  
HETATM   19  C   UNL     2      -9.982   7.605  70.247  1.00  0.00    -0.189 A  
HETATM   20  C   UNL     2     -10.553   6.855  71.255  1.00  0.00    -0.244 A  
HETATM   21  C   UNL     2     -10.626   5.473  71.141  1.00  0.00    -0.303 A  
HETATM   22  C   UNL     2     -10.120   4.836  70.006  1.00  0.00    -0.308 A  
HETATM   23  C   UNL     2      -9.534   5.591  68.988  1.00  0.00    -0.167 A  
ENDBRANCH  15  18
ENDBRANCH  13  15
ENDBRANCH  12  13
ENDBRANCH  10  12
TORSDOF 4
ENDMDL
MODEL      178
REMARK 921   NORMALIZED FREE ENERGY PREDICTED BY IDOCK:   -3.85 KCAL/MOL
REMARK 922        TOTAL FREE ENERGY PREDICTED BY IDOCK:   -5.39 KCAL/MOL
REMARK 923 INTER-LIGAND FREE ENERGY PREDICTED BY IDOCK:   -4.61 KCAL/MOL
REMARK 924 INTRA-LIGAND FREE ENERGY PREDICTED BY IDOCK:   -0.78 KCAL/MOL
REMARK 927      BINDING AFFINITY PREDICTED BY RF-SCORE:    0.00 PKD
ROOT
HETATM    1 BR   UNL     1      -6.910   8.671  64.283  1.00  0.00    -0.074 Br 
HETATM    2  C   UNL     2      -7.269   5.115  65.938  1.00  0.00    -0.073 C  
HETATM    3  N   UNL     2      -8.714   5.195  66.534  1.00  0.00    -0.110 N  
HETATM    4  C   UNL     2      -9.538   4.379  65.559  1.00  0.00    -0.186 C  
HETATM    5  C   UNL     2      -9.134   6.689  66.645  1.00  0.00    -0.145 C  
HETATM    6  C   UNL     2      -8.230   7.199  67.785  1.00  0.00    -0.115 C  
HETATM    7  C   UNL     2      -7.927   5.955  68.641  1.00  0.00    -0.103 C  
HETATM    8  C   UNL     2      -8.772   4.817  68.032  1.00  0.00    -0.103 C  
HETATM    9  C   UNL     2     -10.260   4.769  68.468  1.00  0.00    -0.054 C  
HETATM   10  C   UNL     2     -10.967   6.120  68.367  1.00  0.00    -0.305 C  
HETATM   11  C   UNL     2     -10.624   6.798  67.046  1.00  0.00    -0.405 C  
ENDROOT
BRANCH  10  12
HETATM   12  O   UNL     2     -10.497   6.998  69.413  1.00  0.00    -0.200 OA 
BRANCH  12  13
HETATM   13  C   UNL     2     -11.319   7.312  70.457  1.00  0.00    -0.280 C  
HETATM   14  O   UNL     2     -12.307   6.669  70.797  1.00  0.00    -0.352 OA 
BRANCH  13  15
HETATM   15  C   UNL     2     -10.793   8.604  71.125  1.00  0.00    -0.259 C  
HETATM   16  O   UNL     2     -11.816   9.441  71.667  1.00  0.00    -0.351 OA 
HETATM   17  H   UNL     2     -11.494  10.234  72.077  1.00  0.00     0.000 HD 
BRANCH  15  18
HETATM   18  C   UNL     2      -9.756   8.260  72.174  1.00  0.00    -0.344 A  
HETATM   19  C   UNL     2      -8.401   8.527  71.893  1.00  0.00    -0.218 A  
HETATM   20  C   UNL     2      -7.408   8.174  72.783  1.00  0.00    -0.151 A  
HETATM   21  C   UNL     2      -7.731   7.545  73.979  1.00  0.00    -0.164 A  
HETATM   22  C   UNL     2      -9.065   7.267  74.284  1.00  0.00    -0.245 A  
HETATM   23  C   UNL     2     -10.072   7.615  73.382  1.00  0.00    -0.379 A  
ENDBRANCH  15  18
ENDBRANCH  13  15
ENDBRANCH  12  13
ENDBRANCH  10  12
TORSDOF 4
ENDMDL
MODEL      179
REMARK 921   NORMALIZED FREE ENERGY PREDICTED BY IDOCK:   -3.81 KCAL/MOL
REMARK 922        TOTAL FREE ENERGY PREDICTED BY IDOCK:   -5.34 KCAL/MOL
REMARK 923 INTER-LIGAND FREE ENERGY PREDICTED BY IDOCK:   -4.73 KCAL/MOL
REMARK 924 INTRA-LIGAND FREE ENERGY PREDICTED BY IDOCK:   -0.61 KCAL/MOL
REMARK 927      BINDING AFFINITY PREDICTED BY RF-SCORE:    0.00 PKD
ROOT
HETATM    1 BR   UNL     1     -12.593  13.997  70.274  1.00  0.00    -0.289 Br 
HETATM    2  C   UNL     2      -9.742  14.233  67.567  1.00  0.00    -0.223 C  
HETATM    3  N   UNL     2      -9.943  12.891  66.787  1.00  0.00    -0.237 N  
HETATM    4  C   UNL     2     -10.635  13.330  65.512  1.00  0.00    -0.287 C  
HETATM    5  C   UNL     2     -10.771  11.912  67.668  1.00  0.00    -0.215 C  
HETATM    6  C   UNL     2      -9.771  11.551  68.784  1.00  0.00    -0.137 C  
HETATM    7  C   UNL     2      -8.380  11.733  68.147  1.00  0.00    -0.156 C  
HETATM    8  C   UNL     2      -8.644  12.063  66.663  1.00  0.00    -0.143 C  
HETATM    9  C   UNL     2      -8.923  10.850  65.737  1.00  0.00    -0.208 C  
HETATM   10  C   UNL     2      -9.963   9.882  66.300  1.00  0.00    -0.256 C  
HETATM   11  C   UNL     2     -11.154  10.654  66.856  1.00  0.00    -0.162 C  
ENDROOT
BRANCH  10  12
HETATM   12  O   UNL     2      -9.399   9.145  67.405  1.00  0.00    -0.132 OA 
BRANCH  12  13
HETATM   13  C   UNL     2      -9.245   7.791  67.311  1.00  0.00    -0.139 C  
HETATM   14  O   UNL     2      -8.267   7.223  66.835  1.00  0.00    -0.114 OA 
BRANCH  13  15
HETATM   15  C   UNL     2     -10.504   7.111  67.900  1.00  0.00    -0.212 C  
HETATM   16  O   UNL     2     -11.404   6.595  66.917  1.00  0.00    -0.738 OA 
HETATM   17  H   UNL     2     -12.176   6.178  67.279  1.00  0.00     0.000 HD 
BRANCH  15  18
HETATM   18  C   UNL     2     -10.097   6.036  68.886  1.00  0.00    -0.220 A  
HETATM   19  C   UNL     2      -9.682   6.428  70.174  1.00  0.00    -0.185 A  
HETATM   20  C   UNL     2      -9.239   5.498  71.092  1.00  0.00    -0.173 A  
HETATM   21  C   UNL     2      -9.194   4.151  70.757  1.00  0.00    -0.197 A  
HETATM   22  C   UNL     2      -9.597   3.733  69.487  1.00  0.00    -0.230 A  
HETATM   23  C   UNL     2     -10.039   4.672  68.553  1.00  0.00    -0.077 A  
ENDBRANCH  15  18
ENDBRANCH  13  15
ENDBRANCH  12  13
ENDBRANCH  10  12
TORSDOF 4
ENDMDL
MODEL      180
REMARK 921   NORMALIZED FREE ENERGY PREDICTED BY IDOCK:   -3.79 KCAL/MOL
REMARK 922        TOTAL FREE ENERGY PREDICTED BY IDOCK:   -5.31 KCAL/MOL
REMARK 923 INTER-LIGAND FREE ENERGY PREDICTED BY IDOCK:   -5.04 KCAL/MOL
REMARK 924 INTRA-LIGAND FREE ENERGY PREDICTED BY IDOCK:   -0.27 KCAL/MOL
REMARK 927      BINDING AFFINITY PREDICTED BY RF-SCORE:    0.00 PKD
ROOT
HETATM    1 BR   UNL     1     -10.121  11.092  63.375  1.00  0.00    -0.447 Br 
HETATM    2  C   UNL     2     -12.615  13.609  65.095  1.00  0.00    -0.430 C  
HETATM    3  N   UNL     2     -11.625  14.637  65.738  1.00  0.00    -0.348 N  
HETATM    4  C   UNL     2     -11.703  15.827  64.803  1.00  0.00    -0.081 C  
HETATM    5  C   UNL     2     -10.215  13.986  65.840  1.00  0.00    -0.320 C  
HETATM    6  C   UNL     2     -10.423  12.926  66.941  1.00  0.00    -0.252 C  
HETATM    7  C   UNL     2     -11.576  13.471  67.805  1.00  0.00    -0.374 C  
HETATM    8  C   UNL     2     -11.891  14.873  67.242  1.00  0.00    -0.219 C  
HETATM    9  C   UNL     2     -10.968  16.021  67.728  1.00  0.00    -0.307 C  
HETATM   10  C   UNL     2      -9.480  15.688  67.632  1.00  0.00    -0.211 C  
HETATM   11  C   UNL     2      -9.172  15.035  66.289  1.00  0.00    -0.324 C  
ENDROOT
BRANCH  10  12
HETATM   12  O   UNL     2      -9.126  14.725  68.647  1.00  0.00    -0.178 OA 
BRANCH  12  13
HETATM   13  C   UNL     2      -7.813  14.512  68.954  1.00  0.00    -0.134 C  
HETATM   14  O   UNL     2      -7.174  15.136  69.796  1.00  0.00    -0.191 OA 
BRANCH  13  15
HETATM   15  C   UNL     2      -7.279  13.364  68.065  1.00  0.00    -0.123 C  
HETATM   16  O   UNL     2      -6.068  13.674  67.374  1.00  0.00    -0.337 OA 
HETATM   17  H   UNL     2      -5.741  12.970  66.827  1.00  0.00     0.000 HD 
BRANCH  15  18
HETATM   18  C   UNL     2      -7.132  12.100  68.886  1.00  0.00    -0.098 A  
HETATM   19  C   UNL     2      -8.191  11.170  68.883  1.00  0.00    -0.104 A  
HETATM   20  C   UNL     2      -8.141  10.033  69.663  1.00  0.00    -0.180 A  
HETATM   21  C   UNL     2      -7.036   9.786  70.468  1.00  0.00    -0.130 A  
HETATM   22  C   UNL     2      -5.972  10.690  70.492  1.00  0.00    -0.121 A  
HETATM   23  C   UNL     2      -6.023  11.846  69.711  1.00  0.00    -0.132 A  
ENDBRANCH  15  18
ENDBRANCH  13  15
ENDBRANCH  12  13
ENDBRANCH  10  12
TORSDOF 4
ENDMDL
MODEL      181
REMARK 921   NORMALIZED FREE ENERGY PREDICTED BY IDOCK:   -3.78 KCAL/MOL
REMARK 922        TOTAL FREE ENERGY PREDICTED BY IDOCK:   -5.30 KCAL/MOL
REMARK 923 INTER-LIGAND FREE ENERGY PREDICTED BY IDOCK:   -4.11 KCAL/MOL
REMARK 924 INTRA-LIGAND FREE ENERGY PREDICTED BY IDOCK:   -1.19 KCAL/MOL
REMARK 927      BINDING AFFINITY PREDICTED BY RF-SCORE:    0.00 PKD
ROOT
HETATM    1 BR   UNL     1      -9.377   2.016  69.115  1.00  0.00    -0.156 Br 
HETATM    2  C   UNL     2      -9.002   4.386  72.239  1.00  0.00    -0.120 C  
HETATM    3  N   UNL     2     -10.024   5.521  71.891  1.00  0.00    -0.175 N  
HETATM    4  C   UNL     2     -11.210   5.205  72.780  1.00  0.00    -0.255 C  
HETATM    5  C   UNL     2     -10.328   5.479  70.366  1.00  0.00    -0.276 C  
HETATM    6  C   UNL     2      -9.001   5.969  69.754  1.00  0.00    -0.135 C  
HETATM    7  C   UNL     2      -8.363   6.853  70.842  1.00  0.00    -0.130 C  
HETATM    8  C   UNL     2      -9.407   6.936  71.975  1.00  0.00    -0.140 C  
HETATM    9  C   UNL     2     -10.540   7.976  71.777  1.00  0.00    -0.296 C  
HETATM   10  C   UNL     2     -11.198   7.906  70.399  1.00  0.00    -0.234 C  
HETATM   11  C   UNL     2     -11.476   6.455  70.022  1.00  0.00    -0.496 C  
ENDROOT
BRANCH  10  12
HETATM   12  O   UNL     2     -10.295   8.424  69.399  1.00  0.00    -0.208 OA 
BRANCH  12  13
HETATM   13  C   UNL     2     -10.374   9.736  69.027  1.00  0.00    -0.208 C  
HETATM   14  O   UNL     2     -11.415  10.356  68.839  1.00  0.00    -0.244 OA 
BRANCH  13  15
HETATM   15  C   UNL     2      -8.937  10.293  68.885  1.00  0.00    -0.164 C  
HETATM   16  O   UNL     2      -8.219  10.382  70.117  1.00  0.00    -0.352 OA 
HETATM   17  H   UNL     2      -7.338  10.724  70.029  1.00  0.00     0.000 HD 
BRANCH  15  18
HETATM   18  C   UNL     2      -8.168   9.485  67.860  1.00  0.00    -0.114 A  
HETATM   19  C   UNL     2      -6.878   9.029  68.195  1.00  0.00    -0.069 A  
HETATM   20  C   UNL     2      -6.106   8.345  67.279  1.00  0.00    -0.055 A  
HETATM   21  C   UNL     2      -6.593   8.095  66.002  1.00  0.00    -0.046 A  
HETATM   22  C   UNL     2      -7.868   8.536  65.642  1.00  0.00    -0.102 A  
HETATM   23  C   UNL     2      -8.649   9.235  66.563  1.00  0.00    -0.139 A  
ENDBRANCH  15  18
ENDBRANCH  13  15
ENDBRANCH  12  13
ENDBRANCH  10  12
TORSDOF 4
ENDMDL
MODEL      182
REMARK 921   NORMALIZED FREE ENERGY PREDICTED BY IDOCK:   -3.78 KCAL/MOL
REMARK 922        TOTAL FREE ENERGY PREDICTED BY IDOCK:   -5.30 KCAL/MOL
REMARK 923 INTER-LIGAND FREE ENERGY PREDICTED BY IDOCK:   -4.86 KCAL/MOL
REMARK 924 INTRA-LIGAND FREE ENERGY PREDICTED BY IDOCK:   -0.44 KCAL/MOL
REMARK 927      BINDING AFFINITY PREDICTED BY RF-SCORE:    0.00 PKD
ROOT
HETATM    1 BR   UNL     1     -10.307  11.415  63.142  1.00  0.00    -0.306 Br 
HETATM    2  C   UNL     2     -11.647  12.108  66.781  1.00  0.00    -0.345 C  
HETATM    3  N   UNL     2     -11.150  13.574  67.021  1.00  0.00    -0.291 N  
HETATM    4  C   UNL     2     -12.406  14.401  66.835  1.00  0.00    -0.130 C  
HETATM    5  C   UNL     2     -10.010  13.893  66.012  1.00  0.00    -0.310 C  
HETATM    6  C   UNL     2      -8.855  13.015  66.534  1.00  0.00    -0.009 C  
HETATM    7  C   UNL     2      -9.133  12.845  68.040  1.00  0.00    -0.211 C  
HETATM    8  C   UNL     2     -10.358  13.736  68.338  1.00  0.00    -0.247 C  
HETATM    9  C   UNL     2     -10.065  15.244  68.551  1.00  0.00    -0.222 C  
HETATM   10  C   UNL     2      -9.171  15.848  67.468  1.00  0.00    -0.207 C  
HETATM   11  C   UNL     2      -9.630  15.390  66.089  1.00  0.00    -0.362 C  
ENDROOT
BRANCH  10  12
HETATM   12  O   UNL     2      -7.817  15.373  67.629  1.00  0.00    -0.133 OA 
BRANCH  12  13
HETATM   13  C   UNL     2      -7.112  15.696  68.753  1.00  0.00    -0.127 C  
HETATM   14  O   UNL     2      -6.640  14.889  69.547  1.00  0.00    -0.129 OA 
BRANCH  13  15
HETATM   15  C   UNL     2      -7.019  17.237  68.848  1.00  0.00    -0.233 C  
HETATM   16  O   UNL     2      -6.183  17.709  69.907  1.00  0.00    -0.221 OA 
HETATM   17  H   UNL     2      -6.126  18.655  69.965  1.00  0.00     0.000 HD 
BRANCH  15  18
HETATM   18  C   UNL     2      -6.588  17.813  67.515  1.00  0.00    -0.177 A  
HETATM   19  C   UNL     2      -7.379  18.823  66.932  1.00  0.00    -0.222 A  
HETATM   20  C   UNL     2      -7.073  19.337  65.689  1.00  0.00    -0.278 A  
HETATM   21  C   UNL     2      -5.971  18.863  64.988  1.00  0.00    -0.313 A  
HETATM   22  C   UNL     2      -5.170  17.862  65.540  1.00  0.00    -0.169 A  
HETATM   23  C   UNL     2      -5.481  17.333  66.794  1.00  0.00    -0.221 A  
ENDBRANCH  15  18
ENDBRANCH  13  15
ENDBRANCH  12  13
ENDBRANCH  10  12
TORSDOF 4
ENDMDL
MODEL      183
REMARK 921   NORMALIZED FREE ENERGY PREDICTED BY IDOCK:   -3.76 KCAL/MOL
REMARK 922        TOTAL FREE ENERGY PREDICTED BY IDOCK:   -5.28 KCAL/MOL
REMARK 923 INTER-LIGAND FREE ENERGY PREDICTED BY IDOCK:   -4.81 KCAL/MOL
REMARK 924 INTRA-LIGAND FREE ENERGY PREDICTED BY IDOCK:   -0.47 KCAL/MOL
REMARK 927      BINDING AFFINITY PREDICTED BY RF-SCORE:    0.00 PKD
ROOT
HETATM    1 BR   UNL     1      -7.803  17.342  66.397  1.00  0.00    -0.353 Br 
HETATM    2  C   UNL     2     -11.229  16.201  67.971  1.00  0.00    -0.291 C  
HETATM    3  N   UNL     2     -10.851  14.797  68.552  1.00  0.00    -0.244 N  
HETATM    4  C   UNL     2     -10.717  15.061  70.039  1.00  0.00    -0.192 C  
HETATM    5  C   UNL     2      -9.548  14.298  67.864  1.00  0.00    -0.221 C  
HETATM    6  C   UNL     2     -10.031  13.994  66.431  1.00  0.00    -0.301 C  
HETATM    7  C   UNL     2     -11.530  13.670  66.577  1.00  0.00    -0.357 C  
HETATM    8  C   UNL     2     -11.810  13.676  68.094  1.00  0.00    -0.372 C  
HETATM    9  C   UNL     2     -11.443  12.376  68.856  1.00  0.00    -0.355 C  
HETATM   10  C   UNL     2     -10.041  11.859  68.538  1.00  0.00    -0.206 C  
HETATM   11  C   UNL     2      -9.040  13.009  68.549  1.00  0.00    -0.053 C  
ENDROOT
BRANCH  10  12
HETATM   12  O   UNL     2     -10.014  11.305  67.205  1.00  0.00    -0.188 OA 
BRANCH  12  13
HETATM   13  C   UNL     2      -9.562  10.032  67.007  1.00  0.00    -0.172 C  
HETATM   14  O   UNL     2      -8.747   9.696  66.153  1.00  0.00    -0.132 OA 
BRANCH  13  15
HETATM   15  C   UNL     2     -10.251   9.100  68.032  1.00  0.00    -0.211 C  
HETATM   16  O   UNL     2     -11.106   8.117  67.446  1.00  0.00    -0.470 OA 
HETATM   17  H   UNL     2     -11.529   7.545  68.076  1.00  0.00     0.000 HD 
BRANCH  15  18
HETATM   18  C   UNL     2      -9.211   8.457  68.926  1.00  0.00    -0.147 A  
HETATM   19  C   UNL     2      -8.436   9.286  69.760  1.00  0.00    -0.152 A  
HETATM   20  C   UNL     2      -7.430   8.763  70.547  1.00  0.00    -0.075 A  
HETATM   21  C   UNL     2      -7.166   7.400  70.529  1.00  0.00    -0.065 A  
HETATM   22  C   UNL     2      -7.917   6.553  69.711  1.00  0.00    -0.120 A  
HETATM   23  C   UNL     2      -8.930   7.080  68.907  1.00  0.00    -0.129 A  
ENDBRANCH  15  18
ENDBRANCH  13  15
ENDBRANCH  12  13
ENDBRANCH  10  12
TORSDOF 4
ENDMDL
MODEL      184
REMARK 921   NORMALIZED FREE ENERGY PREDICTED BY IDOCK:   -3.75 KCAL/MOL
REMARK 922        TOTAL FREE ENERGY PREDICTED BY IDOCK:   -5.27 KCAL/MOL
REMARK 923 INTER-LIGAND FREE ENERGY PREDICTED BY IDOCK:   -4.79 KCAL/MOL
REMARK 924 INTRA-LIGAND FREE ENERGY PREDICTED BY IDOCK:   -0.48 KCAL/MOL
REMARK 927      BINDING AFFINITY PREDICTED BY RF-SCORE:    0.00 PKD
ROOT
HETATM    1 BR   UNL     1      -8.179   1.800  68.774  1.00  0.00    -0.074 Br 
HETATM    2  C   UNL     2      -7.616   5.155  66.790  1.00  0.00    -0.088 C  
HETATM    3  N   UNL     2      -7.480   6.188  67.959  1.00  0.00    -0.088 N  
HETATM    4  C   UNL     2      -5.989   6.447  68.023  1.00  0.00    -0.020 C  
HETATM    5  C   UNL     2      -8.086   5.571  69.252  1.00  0.00    -0.095 C  
HETATM    6  C   UNL     2      -9.595   5.560  68.934  1.00  0.00    -0.178 C  
HETATM    7  C   UNL     2      -9.797   6.705  67.923  1.00  0.00    -0.138 C  
HETATM    8  C   UNL     2      -8.425   7.401  67.805  1.00  0.00    -0.118 C  
HETATM    9  C   UNL     2      -8.088   8.428  68.918  1.00  0.00    -0.114 C  
HETATM   10  C   UNL     2      -8.340   7.899  70.330  1.00  0.00    -0.121 C  
HETATM   11  C   UNL     2      -7.796   6.482  70.467  1.00  0.00    -0.106 C  
ENDROOT
BRANCH  10  12
HETATM   12  O   UNL     2      -9.760   7.819  70.577  1.00  0.00    -0.175 OA 
BRANCH  12  13
HETATM   13  C   UNL     2     -10.256   8.141  71.808  1.00  0.00    -0.212 C  
HETATM   14  O   UNL     2      -9.583   8.292  72.823  1.00  0.00    -0.264 OA 
BRANCH  13  15
HETATM   15  C   UNL     2     -11.793   8.277  71.700  1.00  0.00    -0.299 C  
HETATM   16  O   UNL     2     -12.498   7.916  72.889  1.00  0.00    -0.581 OA 
HETATM   17  H   UNL     2     -13.441   8.000  72.822  1.00  0.00     0.000 HD 
BRANCH  15  18
HETATM   18  C   UNL     2     -12.158   9.676  71.250  1.00  0.00    -0.457 A  
HETATM   19  C   UNL     2     -11.726  10.110  69.981  1.00  0.00    -0.294 A  
HETATM   20  C   UNL     2     -11.973  11.395  69.546  1.00  0.00    -0.409 A  
HETATM   21  C   UNL     2     -12.656  12.289  70.360  1.00  0.00    -0.106 A  
HETATM   22  C   UNL     2     -13.096  11.889  71.624  1.00  0.00    -0.433 A  
HETATM   23  C   UNL     2     -12.841  10.591  72.071  1.00  0.00    -0.419 A  
ENDBRANCH  15  18
ENDBRANCH  13  15
ENDBRANCH  12  13
ENDBRANCH  10  12
TORSDOF 4
ENDMDL
MODEL      185
REMARK 921   NORMALIZED FREE ENERGY PREDICTED BY IDOCK:   -3.75 KCAL/MOL
REMARK 922        TOTAL FREE ENERGY PREDICTED BY IDOCK:   -5.26 KCAL/MOL
REMARK 923 INTER-LIGAND FREE ENERGY PREDICTED BY IDOCK:   -4.96 KCAL/MOL
REMARK 924 INTRA-LIGAND FREE ENERGY PREDICTED BY IDOCK:   -0.31 KCAL/MOL
REMARK 927      BINDING AFFINITY PREDICTED BY RF-SCORE:    0.00 PKD
ROOT
HETATM    1 BR   UNL     1     -11.201  11.128  69.555  1.00  0.00    -0.355 Br 
HETATM    2  C   UNL     2     -12.504  14.631  68.312  1.00  0.00     0.270 C  
HETATM    3  N   UNL     2     -11.278  15.141  67.482  1.00  0.00    -0.327 N  
HETATM    4  C   UNL     2     -11.715  14.921  66.047  1.00  0.00    -0.173 C  
HETATM    5  C   UNL     2     -10.013  14.340  67.903  1.00  0.00    -0.230 C  
HETATM    6  C   UNL     2      -9.749  14.871  69.326  1.00  0.00    -0.147 C  
HETATM    7  C   UNL     2     -10.351  16.289  69.341  1.00  0.00    -0.278 C  
HETATM    8  C   UNL     2     -10.816  16.557  67.894  1.00  0.00    -0.326 C  
HETATM    9  C   UNL     2      -9.717  17.021  66.904  1.00  0.00    -0.266 C  
HETATM   10  C   UNL     2      -8.455  16.159  66.947  1.00  0.00    -0.230 C  
HETATM   11  C   UNL     2      -8.828  14.681  66.970  1.00  0.00    -0.262 C  
ENDROOT
BRANCH  10  12
HETATM   12  O   UNL     2      -7.726  16.418  68.165  1.00  0.00    -0.153 OA 
BRANCH  12  13
HETATM   13  C   UNL     2      -7.126  17.630  68.354  1.00  0.00    -0.236 C  
HETATM   14  O   UNL     2      -7.550  18.524  69.079  1.00  0.00    -0.272 OA 
BRANCH  13  15
HETATM   15  C   UNL     2      -5.835  17.677  67.501  1.00  0.00    -0.139 C  
HETATM   16  O   UNL     2      -5.578  16.482  66.762  1.00  0.00    -0.336 OA 
HETATM   17  H   UNL     2      -4.786  16.511  66.239  1.00  0.00     0.000 HD 
BRANCH  15  18
HETATM   18  C   UNL     2      -5.861  18.888  66.591  1.00  0.00    -0.176 A  
HETATM   19  C   UNL     2      -6.078  18.689  65.213  1.00  0.00    -0.309 A  
HETATM   20  C   UNL     2      -6.046  19.747  64.329  1.00  0.00    -0.266 A  
HETATM   21  C   UNL     2      -5.798  21.034  64.787  1.00  0.00    -0.278 A  
HETATM   22  C   UNL     2      -5.578  21.262  66.147  1.00  0.00    -0.288 A  
HETATM   23  C   UNL     2      -5.601  20.193  67.044  1.00  0.00    -0.182 A  
ENDBRANCH  15  18
ENDBRANCH  13  15
ENDBRANCH  12  13
ENDBRANCH  10  12
TORSDOF 4
ENDMDL
MODEL      186
REMARK 921   NORMALIZED FREE ENERGY PREDICTED BY IDOCK:   -3.74 KCAL/MOL
REMARK 922        TOTAL FREE ENERGY PREDICTED BY IDOCK:   -5.26 KCAL/MOL
REMARK 923 INTER-LIGAND FREE ENERGY PREDICTED BY IDOCK:   -4.69 KCAL/MOL
REMARK 924 INTRA-LIGAND FREE ENERGY PREDICTED BY IDOCK:   -0.57 KCAL/MOL
REMARK 927      BINDING AFFINITY PREDICTED BY RF-SCORE:    0.00 PKD
ROOT
HETATM    1 BR   UNL     1      -9.009  10.992  62.367  1.00  0.00    -0.296 Br 
HETATM    2  C   UNL     2     -11.128  13.581  64.447  1.00  0.00    -0.380 C  
HETATM    3  N   UNL     2     -10.447  13.480  65.854  1.00  0.00    -0.286 N  
HETATM    4  C   UNL     2      -9.597  14.733  65.919  1.00  0.00    -0.285 C  
HETATM    5  C   UNL     2      -9.644  12.149  65.933  1.00  0.00    -0.214 C  
HETATM    6  C   UNL     2     -10.766  11.093  65.983  1.00  0.00    -0.272 C  
HETATM    7  C   UNL     2     -11.973  11.823  66.601  1.00  0.00     0.162 C  
HETATM    8  C   UNL     2     -11.455  13.221  66.996  1.00  0.00    -0.339 C  
HETATM    9  C   UNL     2     -10.697  13.307  68.347  1.00  0.00    -0.273 C  
HETATM   10  C   UNL     2      -9.621  12.233  68.510  1.00  0.00    -0.125 C  
HETATM   11  C   UNL     2      -8.803  12.108  67.230  1.00  0.00    -0.186 C  
ENDROOT
BRANCH  10  12
HETATM   12  O   UNL     2     -10.242  10.948  68.728  1.00  0.00    -0.181 OA 
BRANCH  12  13
HETATM   13  C   UNL     2      -9.571   9.977  69.414  1.00  0.00    -0.222 C  
HETATM   14  O   UNL     2      -9.642   9.789  70.625  1.00  0.00    -0.212 OA 
BRANCH  13  15
HETATM   15  C   UNL     2      -8.715   9.168  68.411  1.00  0.00    -0.129 C  
HETATM   16  O   UNL     2      -7.357   8.985  68.815  1.00  0.00    -0.074 OA 
HETATM   17  H   UNL     2      -6.831   8.489  68.199  1.00  0.00     0.000 HD 
BRANCH  15  18
HETATM   18  C   UNL     2      -9.381   7.840  68.115  1.00  0.00    -0.148 A  
HETATM   19  C   UNL     2     -10.333   7.782  67.078  1.00  0.00    -0.405 A  
HETATM   20  C   UNL     2     -11.019   6.616  66.807  1.00  0.00    -0.286 A  
HETATM   21  C   UNL     2     -10.780   5.474  67.559  1.00  0.00    -0.211 A  
HETATM   22  C   UNL     2      -9.843   5.501  68.594  1.00  0.00    -0.198 A  
HETATM   23  C   UNL     2      -9.152   6.681  68.877  1.00  0.00    -0.132 A  
ENDBRANCH  15  18
ENDBRANCH  13  15
ENDBRANCH  12  13
ENDBRANCH  10  12
TORSDOF 4
ENDMDL
MODEL      187
REMARK 921   NORMALIZED FREE ENERGY PREDICTED BY IDOCK:   -3.74 KCAL/MOL
REMARK 922        TOTAL FREE ENERGY PREDICTED BY IDOCK:   -5.25 KCAL/MOL
REMARK 923 INTER-LIGAND FREE ENERGY PREDICTED BY IDOCK:   -4.50 KCAL/MOL
REMARK 924 INTRA-LIGAND FREE ENERGY PREDICTED BY IDOCK:   -0.76 KCAL/MOL
REMARK 927      BINDING AFFINITY PREDICTED BY RF-SCORE:    0.00 PKD
ROOT
HETATM    1 BR   UNL     1     -12.266  15.192  64.283  1.00  0.00    -0.053 Br 
HETATM    2  C   UNL     2     -11.784  14.331  68.096  1.00  0.00    -0.350 C  
HETATM    3  N   UNL     2     -10.464  13.490  68.060  1.00  0.00    -0.236 N  
HETATM    4  C   UNL     2      -9.417  14.464  68.562  1.00  0.00    -0.212 C  
HETATM    5  C   UNL     2     -10.229  12.979  66.609  1.00  0.00    -0.257 C  
HETATM    6  C   UNL     2     -11.347  11.929  66.447  1.00  0.00    -0.400 C  
HETATM    7  C   UNL     2     -11.642  11.437  67.876  1.00  0.00    -0.337 C  
HETATM    8  C   UNL     2     -10.596  12.127  68.777  1.00  0.00    -0.201 C  
HETATM    9  C   UNL     2      -9.196  11.461  68.823  1.00  0.00    -0.108 C  
HETATM   10  C   UNL     2      -8.632  11.134  67.441  1.00  0.00    -0.137 C  
HETATM   11  C   UNL     2      -8.839  12.311  66.495  1.00  0.00    -0.128 C  
ENDROOT
BRANCH  10  12
HETATM   12  O   UNL     2      -9.348  10.017  66.871  1.00  0.00    -0.154 OA 
BRANCH  12  13
HETATM   13  C   UNL     2      -8.714   9.172  66.007  1.00  0.00    -0.153 C  
HETATM   14  O   UNL     2      -8.681   9.303  64.787  1.00  0.00    -0.175 OA 
BRANCH  13  15
HETATM   15  C   UNL     2      -8.055   8.036  66.824  1.00  0.00    -0.107 C  
HETATM   16  O   UNL     2      -6.848   8.415  67.487  1.00  0.00    -0.068 OA 
HETATM   17  H   UNL     2      -6.443   7.718  67.988  1.00  0.00     0.000 HD 
BRANCH  15  18
HETATM   18  C   UNL     2      -9.056   7.455  67.801  1.00  0.00    -0.129 A  
HETATM   19  C   UNL     2     -10.203   6.817  67.289  1.00  0.00    -0.271 A  
HETATM   20  C   UNL     2     -11.180   6.327  68.131  1.00  0.00    -0.239 A  
HETATM   21  C   UNL     2     -11.046   6.457  69.507  1.00  0.00    -0.460 A  
HETATM   22  C   UNL     2      -9.920   7.086  70.044  1.00  0.00    -0.188 A  
HETATM   23  C   UNL     2      -8.933   7.590  69.195  1.00  0.00    -0.135 A  
ENDBRANCH  15  18
ENDBRANCH  13  15
ENDBRANCH  12  13
ENDBRANCH  10  12
TORSDOF 4
ENDMDL
MODEL      188
REMARK 921   NORMALIZED FREE ENERGY PREDICTED BY IDOCK:   -3.70 KCAL/MOL
REMARK 922        TOTAL FREE ENERGY PREDICTED BY IDOCK:   -5.21 KCAL/MOL
REMARK 923 INTER-LIGAND FREE ENERGY PREDICTED BY IDOCK:   -4.07 KCAL/MOL
REMARK 924 INTRA-LIGAND FREE ENERGY PREDICTED BY IDOCK:   -1.13 KCAL/MOL
REMARK 927      BINDING AFFINITY PREDICTED BY RF-SCORE:    0.00 PKD
ROOT
HETATM    1 BR   UNL     1     -11.008  13.190  67.239  1.00  0.00    -0.302 Br 
HETATM    2  C   UNL     2      -7.852  10.845  67.463  1.00  0.00    -0.114 C  
HETATM    3  N   UNL     2      -8.521   9.436  67.602  1.00  0.00    -0.119 N  
HETATM    4  C   UNL     2      -8.365   8.839  66.217  1.00  0.00    -0.118 C  
HETATM    5  C   UNL     2      -9.995   9.620  68.065  1.00  0.00    -0.160 C  
HETATM    6  C   UNL     2      -9.823  10.098  69.520  1.00  0.00    -0.255 C  
HETATM    7  C   UNL     2      -8.470   9.519  69.974  1.00  0.00    -0.210 C  
HETATM    8  C   UNL     2      -7.988   8.630  68.808  1.00  0.00    -0.114 C  
HETATM    9  C   UNL     2      -8.593   7.203  68.748  1.00  0.00    -0.125 C  
HETATM   10  C   UNL     2     -10.114   7.180  68.892  1.00  0.00    -0.177 C  
HETATM   11  C   UNL     2     -10.741   8.266  68.025  1.00  0.00    -0.111 C  
ENDROOT
BRANCH  10  12
HETATM   12  O   UNL     2     -10.482   7.479  70.255  1.00  0.00    -0.213 OA 
BRANCH  12  13
HETATM   13  C   UNL     2     -11.441   6.734  70.880  1.00  0.00    -0.334 C  
HETATM   14  O   UNL     2     -12.637   6.751  70.607  1.00  0.00    -0.268 OA 
BRANCH  13  15
HETATM   15  C   UNL     2     -10.763   5.880  71.977  1.00  0.00    -0.233 C  
HETATM   16  O   UNL     2     -10.374   4.575  71.546  1.00  0.00    -0.163 OA 
HETATM   17  H   UNL     2      -9.958   4.051  72.220  1.00  0.00     0.000 HD 
BRANCH  15  18
HETATM   18  C   UNL     2      -9.588   6.634  72.567  1.00  0.00    -0.162 A  
HETATM   19  C   UNL     2      -8.286   6.183  72.275  1.00  0.00    -0.109 A  
HETATM   20  C   UNL     2      -7.181   6.790  72.837  1.00  0.00    -0.079 A  
HETATM   21  C   UNL     2      -7.338   7.862  73.705  1.00  0.00    -0.169 A  
HETATM   22  C   UNL     2      -8.618   8.330  74.014  1.00  0.00    -0.173 A  
HETATM   23  C   UNL     2      -9.738   7.714  73.454  1.00  0.00    -0.363 A  
ENDBRANCH  15  18
ENDBRANCH  13  15
ENDBRANCH  12  13
ENDBRANCH  10  12
TORSDOF 4
ENDMDL
MODEL      189
REMARK 921   NORMALIZED FREE ENERGY PREDICTED BY IDOCK:   -3.69 KCAL/MOL
REMARK 922        TOTAL FREE ENERGY PREDICTED BY IDOCK:   -5.20 KCAL/MOL
REMARK 923 INTER-LIGAND FREE ENERGY PREDICTED BY IDOCK:   -4.00 KCAL/MOL
REMARK 924 INTRA-LIGAND FREE ENERGY PREDICTED BY IDOCK:   -1.20 KCAL/MOL
REMARK 927      BINDING AFFINITY PREDICTED BY RF-SCORE:    0.00 PKD
ROOT
HETATM    1 BR   UNL     1      -8.775   4.990  74.338  1.00  0.00    -0.112 Br 
HETATM    2  C   UNL     2      -9.808   8.406  72.671  1.00  0.00    -0.259 C  
HETATM    3  N   UNL     2     -10.433   7.916  71.322  1.00  0.00    -0.202 N  
HETATM    4  C   UNL     2     -11.923   8.045  71.561  1.00  0.00    -0.297 C  
HETATM    5  C   UNL     2      -9.946   6.466  71.035  1.00  0.00    -0.181 C  
HETATM    6  C   UNL     2      -8.456   6.681  70.704  1.00  0.00    -0.138 C  
HETATM    7  C   UNL     2      -8.371   8.121  70.162  1.00  0.00    -0.125 C  
HETATM    8  C   UNL     2      -9.829   8.621  70.086  1.00  0.00    -0.180 C  
HETATM    9  C   UNL     2     -10.631   8.184  68.832  1.00  0.00    -0.161 C  
HETATM   10  C   UNL     2     -10.525   6.689  68.533  1.00  0.00    -0.213 C  
HETATM   11  C   UNL     2     -10.694   5.882  69.815  1.00  0.00    -0.411 C  
ENDROOT
BRANCH  10  12
HETATM   12  O   UNL     2      -9.209   6.384  68.025  1.00  0.00    -0.114 OA 
BRANCH  12  13
HETATM   13  C   UNL     2      -8.991   6.351  66.677  1.00  0.00    -0.140 C  
HETATM   14  O   UNL     2      -9.629   5.677  65.875  1.00  0.00    -0.128 OA 
BRANCH  13  15
HETATM   15  C   UNL     2      -7.814   7.298  66.346  1.00  0.00    -0.106 C  
HETATM   16  O   UNL     2      -7.032   6.889  65.222  1.00  0.00    -0.050 OA 
HETATM   17  H   UNL     2      -6.309   7.471  65.019  1.00  0.00     0.000 HD 
BRANCH  15  18
HETATM   18  C   UNL     2      -8.322   8.714  66.173  1.00  0.00    -0.127 A  
HETATM   19  C   UNL     2      -7.636   9.759  66.822  1.00  0.00    -0.095 A  
HETATM   20  C   UNL     2      -8.091  11.060  66.753  1.00  0.00    -0.151 A  
HETATM   21  C   UNL     2      -9.242  11.360  66.038  1.00  0.00    -0.229 A  
HETATM   22  C   UNL     2      -9.945  10.345  65.385  1.00  0.00    -0.362 A  
HETATM   23  C   UNL     2      -9.492   9.027  65.459  1.00  0.00    -0.220 A  
ENDBRANCH  15  18
ENDBRANCH  13  15
ENDBRANCH  12  13
ENDBRANCH  10  12
TORSDOF 4
ENDMDL
MODEL      190
REMARK 921   NORMALIZED FREE ENERGY PREDICTED BY IDOCK:   -3.69 KCAL/MOL
REMARK 922        TOTAL FREE ENERGY PREDICTED BY IDOCK:   -5.19 KCAL/MOL
REMARK 923 INTER-LIGAND FREE ENERGY PREDICTED BY IDOCK:   -4.12 KCAL/MOL
REMARK 924 INTRA-LIGAND FREE ENERGY PREDICTED BY IDOCK:   -1.07 KCAL/MOL
REMARK 927      BINDING AFFINITY PREDICTED BY RF-SCORE:    0.00 PKD
ROOT
HETATM    1 BR   UNL     1     -12.862  12.077  63.503  1.00  0.00    -0.255 Br 
HETATM    2  C   UNL     2     -11.011  11.326  66.898  1.00  0.00    -0.290 C  
HETATM    3  N   UNL     2     -11.000  12.742  67.566  1.00  0.00    -0.241 N  
HETATM    4  C   UNL     2     -12.096  12.644  68.607  1.00  0.00    -0.102 C  
HETATM    5  C   UNL     2     -11.243  13.820  66.470  1.00  0.00    -0.312 C  
HETATM    6  C   UNL     2      -9.927  13.773  65.668  1.00  0.00    -0.275 C  
HETATM    7  C   UNL     2      -8.868  13.274  66.668  1.00  0.00    -0.072 C  
HETATM    8  C   UNL     2      -9.592  13.181  68.028  1.00  0.00    -0.220 C  
HETATM    9  C   UNL     2      -9.728  14.510  68.816  1.00  0.00    -0.210 C  
HETATM   10  C   UNL     2     -10.252  15.669  67.968  1.00  0.00    -0.227 C  
HETATM   11  C   UNL     2     -11.432  15.210  67.119  1.00  0.00    -0.254 C  
ENDROOT
BRANCH  10  12
HETATM   12  O   UNL     2      -9.228  16.105  67.048  1.00  0.00    -0.202 OA 
BRANCH  12  13
HETATM   13  C   UNL     2      -8.484  17.213  67.334  1.00  0.00    -0.191 C  
HETATM   14  O   UNL     2      -8.939  18.305  67.660  1.00  0.00    -0.262 OA 
BRANCH  13  15
HETATM   15  C   UNL     2      -6.987  16.856  67.172  1.00  0.00    -0.181 C  
HETATM   16  O   UNL     2      -6.112  17.985  67.179  1.00  0.00    -0.143 OA 
HETATM   17  H   UNL     2      -5.194  17.766  67.080  1.00  0.00     0.000 HD 
BRANCH  15  18
HETATM   18  C   UNL     2      -6.582  15.843  68.223  1.00  0.00    -0.123 A  
HETATM   19  C   UNL     2      -6.560  16.246  69.573  1.00  0.00    -0.202 A  
HETATM   20  C   UNL     2      -6.137  15.387  70.566  1.00  0.00     0.016 A  
HETATM   21  C   UNL     2      -5.721  14.101  70.246  1.00  0.00    -0.136 A  
HETATM   22  C   UNL     2      -5.730  13.674  68.916  1.00  0.00    -0.078 A  
HETATM   23  C   UNL     2      -6.150  14.543  67.908  1.00  0.00    -0.161 A  
ENDBRANCH  15  18
ENDBRANCH  13  15
ENDBRANCH  12  13
ENDBRANCH  10  12
TORSDOF 4
ENDMDL
MODEL      191
REMARK 921   NORMALIZED FREE ENERGY PREDICTED BY IDOCK:   -3.69 KCAL/MOL
REMARK 922        TOTAL FREE ENERGY PREDICTED BY IDOCK:   -5.19 KCAL/MOL
REMARK 923 INTER-LIGAND FREE ENERGY PREDICTED BY IDOCK:   -4.31 KCAL/MOL
REMARK 924 INTRA-LIGAND FREE ENERGY PREDICTED BY IDOCK:   -0.88 KCAL/MOL
REMARK 927      BINDING AFFINITY PREDICTED BY RF-SCORE:    0.00 PKD
ROOT
HETATM    1 BR   UNL     1      -9.009  10.934  62.631  1.00  0.00    -0.365 Br 
HETATM    2  C   UNL     2     -10.374  11.939  66.187  1.00  0.00    -0.226 C  
HETATM    3  N   UNL     2      -9.365  11.197  67.127  1.00  0.00    -0.164 N  
HETATM    4  C   UNL     2      -8.455  12.309  67.607  1.00  0.00    -0.166 C  
HETATM    5  C   UNL     2      -8.649  10.077  66.318  1.00  0.00    -0.129 C  
HETATM    6  C   UNL     2      -9.782   9.054  66.101  1.00  0.00    -0.354 C  
HETATM    7  C   UNL     2     -10.748   9.273  67.282  1.00  0.00    -0.244 C  
HETATM    8  C   UNL     2     -10.064  10.318  68.189  1.00  0.00    -0.150 C  
HETATM    9  C   UNL     2      -8.985   9.770  69.159  1.00  0.00    -0.161 C  
HETATM   10  C   UNL     2      -7.969   8.850  68.482  1.00  0.00    -0.104 C  
HETATM   11  C   UNL     2      -7.511   9.454  67.159  1.00  0.00    -0.091 C  
ENDROOT
BRANCH  10  12
HETATM   12  O   UNL     2      -8.589   7.586  68.163  1.00  0.00    -0.123 OA 
BRANCH  12  13
HETATM   13  C   UNL     2      -7.985   6.420  68.537  1.00  0.00    -0.106 C  
HETATM   14  O   UNL     2      -6.773   6.236  68.587  1.00  0.00    -0.056 OA 
BRANCH  13  15
HETATM   15  C   UNL     2      -9.083   5.385  68.879  1.00  0.00    -0.118 C  
HETATM   16  O   UNL     2      -8.616   4.037  68.947  1.00  0.00    -0.080 OA 
HETATM   17  H   UNL     2      -9.291   3.402  69.157  1.00  0.00     0.000 HD 
BRANCH  15  18
HETATM   18  C   UNL     2      -9.790   5.784  70.159  1.00  0.00    -0.240 A  
HETATM   19  C   UNL     2      -9.157   5.516  71.388  1.00  0.00    -0.157 A  
HETATM   20  C   UNL     2      -9.780   5.798  72.586  1.00  0.00    -0.168 A  
HETATM   21  C   UNL     2     -11.052   6.355  72.597  1.00  0.00    -0.294 A  
HETATM   22  C   UNL     2     -11.705   6.631  71.394  1.00  0.00    -0.374 A  
HETATM   23  C   UNL     2     -11.081   6.340  70.180  1.00  0.00    -0.443 A  
ENDBRANCH  15  18
ENDBRANCH  13  15
ENDBRANCH  12  13
ENDBRANCH  10  12
TORSDOF 4
ENDMDL
MODEL      192
REMARK 921   NORMALIZED FREE ENERGY PREDICTED BY IDOCK:   -3.63 KCAL/MOL
REMARK 922        TOTAL FREE ENERGY PREDICTED BY IDOCK:   -5.12 KCAL/MOL
REMARK 923 INTER-LIGAND FREE ENERGY PREDICTED BY IDOCK:   -5.07 KCAL/MOL
REMARK 924 INTRA-LIGAND FREE ENERGY PREDICTED BY IDOCK:   -0.04 KCAL/MOL
REMARK 927      BINDING AFFINITY PREDICTED BY RF-SCORE:    0.00 PKD
ROOT
HETATM    1 BR   UNL     1      -6.231  10.026  63.713  1.00  0.00    -0.135 Br 
HETATM    2  C   UNL     2     -10.003  11.034  64.233  1.00  0.00    -0.317 C  
HETATM    3  N   UNL     2      -9.995  11.508  65.726  1.00  0.00    -0.224 N  
HETATM    4  C   UNL     2     -10.026  13.019  65.612  1.00  0.00    -0.230 C  
HETATM    5  C   UNL     2      -8.730  10.938  66.430  1.00  0.00    -0.170 C  
HETATM    6  C   UNL     2      -9.053   9.433  66.516  1.00  0.00    -0.188 C  
HETATM    7  C   UNL     2     -10.592   9.356  66.531  1.00  0.00    -0.125 C  
HETATM    8  C   UNL     2     -11.079  10.819  66.584  1.00  0.00    -0.035 C  
HETATM    9  C   UNL     2     -11.087  11.480  67.987  1.00  0.00    -0.313 C  
HETATM   10  C   UNL     2      -9.782  11.286  68.758  1.00  0.00    -0.174 C  
HETATM   11  C   UNL     2      -8.588  11.542  67.846  1.00  0.00    -0.143 C  
ENDROOT
BRANCH  10  12
HETATM   12  O   UNL     2      -9.674   9.916  69.201  1.00  0.00    -0.178 OA 
BRANCH  12  13
HETATM   13  C   UNL     2     -10.494   9.455  70.191  1.00  0.00    -0.240 C  
HETATM   14  O   UNL     2     -11.010  10.149  71.062  1.00  0.00    -0.291 OA 
BRANCH  13  15
HETATM   15  C   UNL     2     -10.655   7.925  70.023  1.00  0.00    -0.242 C  
HETATM   16  O   UNL     2      -9.685   7.326  69.163  1.00  0.00    -0.158 OA 
HETATM   17  H   UNL     2      -9.784   6.387  69.060  1.00  0.00     0.000 HD 
BRANCH  15  18
HETATM   18  C   UNL     2     -10.669   7.255  71.382  1.00  0.00    -0.247 A  
HETATM   19  C   UNL     2     -10.048   7.913  72.462  1.00  0.00    -0.325 A  
HETATM   20  C   UNL     2      -9.973   7.322  73.707  1.00  0.00    -0.368 A  
HETATM   21  C   UNL     2     -10.511   6.059  73.914  1.00  0.00    -0.286 A  
HETATM   22  C   UNL     2     -11.131   5.382  72.862  1.00  0.00    -0.360 A  
HETATM   23  C   UNL     2     -11.202   5.973  71.599  1.00  0.00    -0.328 A  
ENDBRANCH  15  18
ENDBRANCH  13  15
ENDBRANCH  12  13
ENDBRANCH  10  12
TORSDOF 4
ENDMDL
MODEL      193
REMARK 921   NORMALIZED FREE ENERGY PREDICTED BY IDOCK:   -3.61 KCAL/MOL
REMARK 922        TOTAL FREE ENERGY PREDICTED BY IDOCK:   -5.09 KCAL/MOL
REMARK 923 INTER-LIGAND FREE ENERGY PREDICTED BY IDOCK:   -4.46 KCAL/MOL
REMARK 924 INTRA-LIGAND FREE ENERGY PREDICTED BY IDOCK:   -0.62 KCAL/MOL
REMARK 927      BINDING AFFINITY PREDICTED BY RF-SCORE:    0.00 PKD
ROOT
HETATM    1 BR   UNL     1      -5.157   9.565  65.388  1.00  0.00    -0.040 Br 
HETATM    2  C   UNL     2      -8.073   8.293  67.710  1.00  0.00    -0.127 C  
HETATM    3  N   UNL     2      -9.269   9.178  67.220  1.00  0.00    -0.132 N  
HETATM    4  C   UNL     2     -10.078   8.225  66.363  1.00  0.00    -0.151 C  
HETATM    5  C   UNL     2      -8.705  10.413  66.460  1.00  0.00    -0.136 C  
HETATM    6  C   UNL     2      -8.071  11.237  67.598  1.00  0.00    -0.119 C  
HETATM    7  C   UNL     2      -8.859  10.843  68.862  1.00  0.00    -0.143 C  
HETATM    8  C   UNL     2      -9.989   9.913  68.373  1.00  0.00    -0.158 C  
HETATM    9  C   UNL     2     -11.245  10.617  67.796  1.00  0.00    -0.383 C  
HETATM   10  C   UNL     2     -10.916  11.703  66.771  1.00  0.00    -0.290 C  
HETATM   11  C   UNL     2      -9.857  11.204  65.796  1.00  0.00    -0.279 C  
ENDROOT
BRANCH  10  12
HETATM   12  O   UNL     2     -10.352  12.851  67.439  1.00  0.00    -0.230 OA 
BRANCH  12  13
HETATM   13  C   UNL     2     -11.173  13.754  68.051  1.00  0.00    -0.267 C  
HETATM   14  O   UNL     2     -12.145  13.469  68.743  1.00  0.00    -0.344 OA 
BRANCH  13  15
HETATM   15  C   UNL     2     -10.672  15.180  67.718  1.00  0.00    -0.279 C  
HETATM   16  O   UNL     2     -11.453  16.225  68.299  1.00  0.00    -0.333 OA 
HETATM   17  H   UNL     2     -11.145  17.100  68.095  1.00  0.00     0.000 HD 
BRANCH  15  18
HETATM   18  C   UNL     2      -9.211  15.315  68.094  1.00  0.00    -0.183 A  
HETATM   19  C   UNL     2      -8.236  15.041  67.114  1.00  0.00    -0.251 A  
HETATM   20  C   UNL     2      -6.891  15.084  67.417  1.00  0.00    -0.144 A  
HETATM   21  C   UNL     2      -6.474  15.400  68.704  1.00  0.00    -0.094 A  
HETATM   22  C   UNL     2      -7.417  15.675  69.696  1.00  0.00    -0.134 A  
HETATM   23  C   UNL     2      -8.780  15.625  69.395  1.00  0.00    -0.249 A  
ENDBRANCH  15  18
ENDBRANCH  13  15
ENDBRANCH  12  13
ENDBRANCH  10  12
TORSDOF 4
ENDMDL
MODEL      194
REMARK 921   NORMALIZED FREE ENERGY PREDICTED BY IDOCK:   -3.58 KCAL/MOL
REMARK 922        TOTAL FREE ENERGY PREDICTED BY IDOCK:   -5.05 KCAL/MOL
REMARK 923 INTER-LIGAND FREE ENERGY PREDICTED BY IDOCK:   -3.80 KCAL/MOL
REMARK 924 INTRA-LIGAND FREE ENERGY PREDICTED BY IDOCK:   -1.25 KCAL/MOL
REMARK 927      BINDING AFFINITY PREDICTED BY RF-SCORE:    0.00 PKD
ROOT
HETATM    1 BR   UNL     1     -10.674   6.323  67.282  1.00  0.00    -0.468 Br 
HETATM    2  C   UNL     2     -11.643   8.175  70.621  1.00  0.00    -0.194 C  
HETATM    3  N   UNL     2     -10.427   7.816  71.539  1.00  0.00    -0.204 N  
HETATM    4  C   UNL     2      -9.607   9.090  71.544  1.00  0.00    -0.270 C  
HETATM    5  C   UNL     2      -9.694   6.577  70.947  1.00  0.00    -0.176 C  
HETATM    6  C   UNL     2     -10.707   5.444  71.206  1.00  0.00    -0.249 C  
HETATM    7  C   UNL     2     -11.518   5.906  72.432  1.00  0.00    -0.358 C  
HETATM    8  C   UNL     2     -10.852   7.218  72.899  1.00  0.00    -0.337 C  
HETATM    9  C   UNL     2      -9.586   7.059  73.781  1.00  0.00    -0.281 C  
HETATM   10  C   UNL     2      -8.567   6.073  73.211  1.00  0.00    -0.117 C  
HETATM   11  C   UNL     2      -8.380   6.315  71.717  1.00  0.00    -0.121 C  
ENDROOT
BRANCH  10  12
HETATM   12  O   UNL     2      -9.059   4.724  73.350  1.00  0.00    -0.111 OA 
BRANCH  12  13
HETATM   13  C   UNL     2      -8.208   3.725  73.729  1.00  0.00    -0.087 C  
HETATM   14  O   UNL     2      -7.290   3.847  74.533  1.00  0.00    -0.063 OA 
BRANCH  13  15
HETATM   15  C   UNL     2      -8.598   2.433  72.973  1.00  0.00    -0.070 C  
HETATM   16  O   UNL     2      -9.926   1.978  73.240  1.00  0.00    -0.093 OA 
HETATM   17  H   UNL     2     -10.165   1.184  72.776  1.00  0.00     0.000 HD 
BRANCH  15  18
HETATM   18  C   UNL     2      -8.370   2.614  71.487  1.00  0.00    -0.080 A  
HETATM   19  C   UNL     2      -7.062   2.878  71.035  1.00  0.00    -0.033 A  
HETATM   20  C   UNL     2      -6.805   3.116  69.700  1.00  0.00    -0.034 A  
HETATM   21  C   UNL     2      -7.841   3.100  68.776  1.00  0.00    -0.057 A  
HETATM   22  C   UNL     2      -9.148   2.842  69.194  1.00  0.00    -0.198 A  
HETATM   23  C   UNL     2      -9.413   2.609  70.545  1.00  0.00    -0.195 A  
ENDBRANCH  15  18
ENDBRANCH  13  15
ENDBRANCH  12  13
ENDBRANCH  10  12
TORSDOF 4
ENDMDL
MODEL      195
REMARK 921   NORMALIZED FREE ENERGY PREDICTED BY IDOCK:   -3.58 KCAL/MOL
REMARK 922        TOTAL FREE ENERGY PREDICTED BY IDOCK:   -5.05 KCAL/MOL
REMARK 923 INTER-LIGAND FREE ENERGY PREDICTED BY IDOCK:   -5.08 KCAL/MOL
REMARK 924 INTRA-LIGAND FREE ENERGY PREDICTED BY IDOCK:    0.03 KCAL/MOL
REMARK 927      BINDING AFFINITY PREDICTED BY RF-SCORE:    0.00 PKD
ROOT
HETATM    1 BR   UNL     1      -8.039   6.203  65.498  1.00  0.00    -0.136 Br 
HETATM    2  C   UNL     2      -6.893   9.968  65.344  1.00  0.00    -0.122 C  
HETATM    3  N   UNL     2      -7.469  10.523  66.690  1.00  0.00    -0.114 N  
HETATM    4  C   UNL     2      -6.246  10.608  67.582  1.00  0.00    -0.055 C  
HETATM    5  C   UNL     2      -8.578   9.559  67.202  1.00  0.00    -0.132 C  
HETATM    6  C   UNL     2      -9.711   9.795  66.184  1.00  0.00    -0.309 C  
HETATM    7  C   UNL     2      -9.491  11.230  65.667  1.00  0.00    -0.254 C  
HETATM    8  C   UNL     2      -8.324  11.797  66.503  1.00  0.00    -0.093 C  
HETATM    9  C   UNL     2      -8.698  12.346  67.904  1.00  0.00    -0.175 C  
HETATM   10  C   UNL     2      -9.571  11.393  68.719  1.00  0.00    -0.129 C  
HETATM   11  C   UNL     2      -9.031   9.971  68.622  1.00  0.00    -0.136 C  
ENDROOT
BRANCH  10  12
HETATM   12  O   UNL     2     -10.906  11.363  68.171  1.00  0.00    -0.190 OA 
BRANCH  12  13
HETATM   13  C   UNL     2     -11.700  12.471  68.253  1.00  0.00    -0.340 C  
HETATM   14  O   UNL     2     -11.754  13.364  67.414  1.00  0.00    -0.331 OA 
BRANCH  13  15
HETATM   15  C   UNL     2     -12.504  12.404  69.573  1.00  0.00     0.239 C  
HETATM   16  O   UNL     2     -12.255  11.232  70.351  1.00  0.00    -0.325 OA 
HETATM   17  H   UNL     2     -12.748  11.190  71.161  1.00  0.00     0.000 HD 
BRANCH  15  18
HETATM   18  C   UNL     2     -12.268  13.660  70.386  1.00  0.00    -0.434 A  
HETATM   19  C   UNL     2     -12.599  13.646  71.756  1.00  0.00    -0.294 A  
HETATM   20  C   UNL     2     -12.467  14.780  72.531  1.00  0.00    -0.414 A  
HETATM   21  C   UNL     2     -12.003  15.961  71.967  1.00  0.00    -0.602 A  
HETATM   22  C   UNL     2     -11.668  16.006  70.612  1.00  0.00    -0.376 A  
HETATM   23  C   UNL     2     -11.808  14.863  69.823  1.00  0.00    -0.356 A  
ENDBRANCH  15  18
ENDBRANCH  13  15
ENDBRANCH  12  13
ENDBRANCH  10  12
TORSDOF 4
ENDMDL
MODEL      196
REMARK 921   NORMALIZED FREE ENERGY PREDICTED BY IDOCK:   -3.56 KCAL/MOL
REMARK 922        TOTAL FREE ENERGY PREDICTED BY IDOCK:   -5.03 KCAL/MOL
REMARK 923 INTER-LIGAND FREE ENERGY PREDICTED BY IDOCK:   -4.45 KCAL/MOL
REMARK 924 INTRA-LIGAND FREE ENERGY PREDICTED BY IDOCK:   -0.58 KCAL/MOL
REMARK 927      BINDING AFFINITY PREDICTED BY RF-SCORE:    0.00 PKD
ROOT
HETATM    1 BR   UNL     1     -10.251   3.753  65.076  1.00  0.00    -0.026 Br 
HETATM    2  C   UNL     2      -6.724   4.879  66.418  1.00  0.00    -0.050 C  
HETATM    3  N   UNL     2      -7.019   5.074  67.943  1.00  0.00    -0.060 N  
HETATM    4  C   UNL     2      -6.416   3.836  68.575  1.00  0.00    -0.037 C  
HETATM    5  C   UNL     2      -8.555   5.221  68.146  1.00  0.00    -0.099 C  
HETATM    6  C   UNL     2      -8.835   6.607  67.529  1.00  0.00    -0.116 C  
HETATM    7  C   UNL     2      -7.510   7.380  67.670  1.00  0.00    -0.097 C  
HETATM    8  C   UNL     2      -6.572   6.455  68.474  1.00  0.00    -0.055 C  
HETATM    9  C   UNL     2      -6.760   6.472  70.013  1.00  0.00    -0.049 C  
HETATM   10  C   UNL     2      -8.217   6.326  70.451  1.00  0.00    -0.121 C  
HETATM   11  C   UNL     2      -8.898   5.220  69.653  1.00  0.00    -0.126 C  
ENDROOT
BRANCH  10  12
HETATM   12  O   UNL     2      -8.938   7.544  70.164  1.00  0.00    -0.146 OA 
BRANCH  12  13
HETATM   13  C   UNL     2      -9.268   8.393  71.181  1.00  0.00    -0.174 C  
HETATM   14  O   UNL     2      -8.923   9.568  71.260  1.00  0.00    -0.234 OA 
BRANCH  13  15
HETATM   15  C   UNL     2     -10.139   7.623  72.202  1.00  0.00    -0.196 C  
HETATM   16  O   UNL     2      -9.738   7.799  73.562  1.00  0.00    -0.291 OA 
HETATM   17  H   UNL     2     -10.273   7.326  74.189  1.00  0.00     0.000 HD 
BRANCH  15  18
HETATM   18  C   UNL     2     -11.598   7.982  72.011  1.00  0.00    -0.369 A  
HETATM   19  C   UNL     2     -12.513   6.948  71.728  1.00  0.00    -0.397 A  
HETATM   20  C   UNL     2     -13.842   7.223  71.480  1.00  0.00    -0.463 A  
HETATM   21  C   UNL     2     -14.301   8.533  71.506  1.00  0.00    -0.451 A  
HETATM   22  C   UNL     2     -13.418   9.578  71.783  1.00  0.00    -0.480 A  
HETATM   23  C   UNL     2     -12.071   9.305  72.026  1.00  0.00    -0.406 A  
ENDBRANCH  15  18
ENDBRANCH  13  15
ENDBRANCH  12  13
ENDBRANCH  10  12
TORSDOF 4
ENDMDL
MODEL      197
REMARK 921   NORMALIZED FREE ENERGY PREDICTED BY IDOCK:   -3.56 KCAL/MOL
REMARK 922        TOTAL FREE ENERGY PREDICTED BY IDOCK:   -5.03 KCAL/MOL
REMARK 923 INTER-LIGAND FREE ENERGY PREDICTED BY IDOCK:   -4.39 KCAL/MOL
REMARK 924 INTRA-LIGAND FREE ENERGY PREDICTED BY IDOCK:   -0.64 KCAL/MOL
REMARK 927      BINDING AFFINITY PREDICTED BY RF-SCORE:    0.00 PKD
ROOT
HETATM    1 BR   UNL     1     -12.313  15.797  71.481  1.00  0.00    -0.537 Br 
HETATM    2  C   UNL     2     -10.158  18.037  69.062  1.00  0.00    -0.293 C  
HETATM    3  N   UNL     2      -9.687  16.985  68.002  1.00  0.00    -0.253 N  
HETATM    4  C   UNL     2     -10.582  17.266  66.812  1.00  0.00    -0.192 C  
HETATM    5  C   UNL     2      -9.840  15.558  68.603  1.00  0.00    -0.207 C  
HETATM    6  C   UNL     2      -8.731  15.533  69.674  1.00  0.00    -0.126 C  
HETATM    7  C   UNL     2      -7.672  16.535  69.175  1.00  0.00    -0.205 C  
HETATM    8  C   UNL     2      -8.157  16.991  67.782  1.00  0.00    -0.190 C  
HETATM    9  C   UNL     2      -7.828  16.038  66.604  1.00  0.00    -0.266 C  
HETATM   10  C   UNL     2      -8.187  14.579  66.883  1.00  0.00    -0.039 C  
HETATM   11  C   UNL     2      -9.569  14.489  67.519  1.00  0.00    -0.210 C  
ENDROOT
BRANCH  10  12
HETATM   12  O   UNL     2      -7.258  14.020  67.837  1.00  0.00    -0.122 OA 
BRANCH  12  13
HETATM   13  C   UNL     2      -7.251  12.675  68.071  1.00  0.00    -0.112 C  
HETATM   14  O   UNL     2      -7.176  12.150  69.178  1.00  0.00    -0.075 OA 
BRANCH  13  15
HETATM   15  C   UNL     2      -7.350  11.939  66.714  1.00  0.00    -0.011 C  
HETATM   16  O   UNL     2      -6.104  11.435  66.229  1.00  0.00    -0.284 OA 
HETATM   17  H   UNL     2      -6.165  10.984  65.396  1.00  0.00     0.000 HD 
BRANCH  15  18
HETATM   18  C   UNL     2      -8.389  10.840  66.795  1.00  0.00    -0.136 A  
HETATM   19  C   UNL     2      -9.747  11.204  66.896  1.00  0.00    -0.216 A  
HETATM   20  C   UNL     2     -10.731  10.248  67.039  1.00  0.00    -0.281 A  
HETATM   21  C   UNL     2     -10.395   8.902  67.087  1.00  0.00    -0.351 A  
HETATM   22  C   UNL     2      -9.058   8.510  66.991  1.00  0.00    -0.170 A  
HETATM   23  C   UNL     2      -8.059   9.475  66.854  1.00  0.00    -0.109 A  
ENDBRANCH  15  18
ENDBRANCH  13  15
ENDBRANCH  12  13
ENDBRANCH  10  12
TORSDOF 4
ENDMDL
MODEL      198
REMARK 921   NORMALIZED FREE ENERGY PREDICTED BY IDOCK:   -3.55 KCAL/MOL
REMARK 922        TOTAL FREE ENERGY PREDICTED BY IDOCK:   -5.03 KCAL/MOL
REMARK 923 INTER-LIGAND FREE ENERGY PREDICTED BY IDOCK:   -3.72 KCAL/MOL
REMARK 924 INTRA-LIGAND FREE ENERGY PREDICTED BY IDOCK:   -1.30 KCAL/MOL
REMARK 927      BINDING AFFINITY PREDICTED BY RF-SCORE:    0.00 PKD
ROOT
HETATM    1 BR   UNL     1     -10.159   8.982  66.979  1.00  0.00    -0.339 Br 
HETATM    2  C   UNL     2     -11.525   6.322  69.543  1.00  0.00    -0.317 C  
HETATM    3  N   UNL     2     -11.072   6.944  70.906  1.00  0.00    -0.259 N  
HETATM    4  C   UNL     2     -12.351   7.539  71.459  1.00  0.00    -0.339 C  
HETATM    5  C   UNL     2      -9.940   7.978  70.639  1.00  0.00    -0.189 C  
HETATM    6  C   UNL     2      -8.760   7.073  70.230  1.00  0.00    -0.144 C  
HETATM    7  C   UNL     2      -9.036   5.723  70.918  1.00  0.00    -0.157 C  
HETATM    8  C   UNL     2     -10.287   5.951  71.793  1.00  0.00    -0.216 C  
HETATM    9  C   UNL     2     -10.038   6.616  73.171  1.00  0.00    -0.213 C  
HETATM   10  C   UNL     2      -9.161   7.865  73.095  1.00  0.00    -0.260 C  
HETATM   11  C   UNL     2      -9.604   8.751  71.936  1.00  0.00    -0.372 C  
ENDROOT
BRANCH  10  12
HETATM   12  O   UNL     2      -7.794   7.488  72.823  1.00  0.00    -0.091 OA 
BRANCH  12  13
HETATM   13  C   UNL     2      -6.774   8.315  73.194  1.00  0.00    -0.103 C  
HETATM   14  O   UNL     2      -6.830   9.146  74.095  1.00  0.00    -0.367 OA 
BRANCH  13  15
HETATM   15  C   UNL     2      -5.552   8.027  72.289  1.00  0.00    -0.037 C  
HETATM   16  O   UNL     2      -5.316   6.638  72.051  1.00  0.00    -0.030 OA 
HETATM   17  H   UNL     2      -4.566   6.461  71.495  1.00  0.00     0.000 HD 
BRANCH  15  18
HETATM   18  C   UNL     2      -5.681   8.791  70.988  1.00  0.00    -0.037 A  
HETATM   19  C   UNL     2      -6.248  10.081  71.019  1.00  0.00    -0.005 A  
HETATM   20  C   UNL     2      -6.450  10.797  69.857  1.00  0.00    -0.135 A  
HETATM   21  C   UNL     2      -6.095  10.252  68.630  1.00  0.00    -0.047 A  
HETATM   22  C   UNL     2      -5.532   8.976  68.568  1.00  0.00    -0.037 A  
HETATM   23  C   UNL     2      -5.334   8.245  69.740  1.00  0.00    -0.026 A  
ENDBRANCH  15  18
ENDBRANCH  13  15
ENDBRANCH  12  13
ENDBRANCH  10  12
TORSDOF 4
ENDMDL
MODEL      199
REMARK 921   NORMALIZED FREE ENERGY PREDICTED BY IDOCK:   -3.53 KCAL/MOL
REMARK 922        TOTAL FREE ENERGY PREDICTED BY IDOCK:   -5.00 KCAL/MOL
REMARK 923 INTER-LIGAND FREE ENERGY PREDICTED BY IDOCK:   -4.51 KCAL/MOL
REMARK 924 INTRA-LIGAND FREE ENERGY PREDICTED BY IDOCK:   -0.49 KCAL/MOL
REMARK 927      BINDING AFFINITY PREDICTED BY RF-SCORE:    0.00 PKD
ROOT
HETATM    1 BR   UNL     1      -9.112   4.446  63.675  1.00  0.00    -0.110 Br 
HETATM    2  C   UNL     2      -5.990   6.435  65.021  1.00  0.00    -0.029 C  
HETATM    3  N   UNL     2      -6.572   7.083  66.323  1.00  0.00    -0.051 N  
HETATM    4  C   UNL     2      -5.994   6.222  67.428  1.00  0.00    -0.017 C  
HETATM    5  C   UNL     2      -8.126   7.074  66.241  1.00  0.00    -0.115 C  
HETATM    6  C   UNL     2      -8.402   8.122  65.144  1.00  0.00    -0.152 C  
HETATM    7  C   UNL     2      -7.192   9.075  65.190  1.00  0.00    -0.088 C  
HETATM    8  C   UNL     2      -6.343   8.610  66.392  1.00  0.00    -0.061 C  
HETATM    9  C   UNL     2      -6.807   9.112  67.784  1.00  0.00    -0.076 C  
HETATM   10  C   UNL     2      -8.302   8.918  68.034  1.00  0.00    -0.121 C  
HETATM   11  C   UNL     2      -8.735   7.527  67.588  1.00  0.00    -0.122 C  
ENDROOT
BRANCH  10  12
HETATM   12  O   UNL     2      -9.057   9.858  67.239  1.00  0.00    -0.134 OA 
BRANCH  12  13
HETATM   13  C   UNL     2      -9.403  11.069  67.765  1.00  0.00    -0.158 C  
HETATM   14  O   UNL     2      -8.618  11.884  68.239  1.00  0.00    -0.154 OA 
BRANCH  13  15
HETATM   15  C   UNL     2     -10.939  11.229  67.662  1.00  0.00    -0.259 C  
HETATM   16  O   UNL     2     -11.655   9.994  67.629  1.00  0.00    -0.535 OA 
HETATM   17  H   UNL     2     -12.597  10.092  67.566  1.00  0.00     0.000 HD 
BRANCH  15  18
HETATM   18  C   UNL     2     -11.441  12.123  68.777  1.00  0.00    -0.359 A  
HETATM   19  C   UNL     2     -11.857  11.524  69.983  1.00  0.00    -0.435 A  
HETATM   20  C   UNL     2     -12.384  12.282  71.009  1.00  0.00    -0.320 A  
HETATM   21  C   UNL     2     -12.514  13.657  70.866  1.00  0.00    -0.448 A  
HETATM   22  C   UNL     2     -12.112  14.278  69.682  1.00  0.00    -0.396 A  
HETATM   23  C   UNL     2     -11.585  13.514  68.639  1.00  0.00    -0.365 A  
ENDBRANCH  15  18
ENDBRANCH  13  15
ENDBRANCH  12  13
ENDBRANCH  10  12
TORSDOF 4
ENDMDL
MODEL      200
REMARK 921   NORMALIZED FREE ENERGY PREDICTED BY IDOCK:   -3.50 KCAL/MOL
REMARK 922        TOTAL FREE ENERGY PREDICTED BY IDOCK:   -4.96 KCAL/MOL
REMARK 923 INTER-LIGAND FREE ENERGY PREDICTED BY IDOCK:   -4.36 KCAL/MOL
REMARK 924 INTRA-LIGAND FREE ENERGY PREDICTED BY IDOCK:   -0.60 KCAL/MOL
REMARK 927      BINDING AFFINITY PREDICTED BY RF-SCORE:    0.00 PKD
ROOT
HETATM    1 BR   UNL     1      -8.015  16.420  66.491  1.00  0.00    -0.329 Br 
HETATM    2  C   UNL     2     -11.643  14.979  67.022  1.00  0.00    -0.240 C  
HETATM    3  N   UNL     2     -11.335  13.622  67.740  1.00  0.00    -0.291 N  
HETATM    4  C   UNL     2     -11.674  13.910  69.189  1.00  0.00    -0.338 C  
HETATM    5  C   UNL     2      -9.848  13.240  67.486  1.00  0.00    -0.220 C  
HETATM    6  C   UNL     2      -9.854  12.879  65.987  1.00  0.00    -0.256 C  
HETATM    7  C   UNL     2     -11.295  12.418  65.694  1.00  0.00    -0.387 C  
HETATM    8  C   UNL     2     -12.014  12.411  67.060  1.00  0.00    -0.186 C  
HETATM    9  C   UNL     2     -11.780  11.158  67.943  1.00  0.00    -0.260 C  
HETATM   10  C   UNL     2     -10.307  10.772  68.073  1.00  0.00    -0.182 C  
HETATM   11  C   UNL     2      -9.459  12.010  68.338  1.00  0.00    -0.181 C  
ENDROOT
BRANCH  10  12
HETATM   12  O   UNL     2      -9.837  10.210  66.829  1.00  0.00    -0.179 OA 
BRANCH  12  13
HETATM   13  C   UNL     2      -9.687   8.859  66.707  1.00  0.00    -0.219 C  
HETATM   14  O   UNL     2     -10.606   8.049  66.643  1.00  0.00    -0.277 OA 
BRANCH  13  15
HETATM   15  C   UNL     2      -8.175   8.533  66.667  1.00  0.00    -0.108 C  
HETATM   16  O   UNL     2      -7.680   7.903  67.850  1.00  0.00    -0.119 OA 
HETATM   17  H   UNL     2      -6.752   7.704  67.825  1.00  0.00     0.000 HD 
BRANCH  15  18
HETATM   18  C   UNL     2      -7.856   7.710  65.436  1.00  0.00    -0.115 A  
HETATM   19  C   UNL     2      -8.072   8.286  64.168  1.00  0.00    -0.136 A  
HETATM   20  C   UNL     2      -7.861   7.562  63.013  1.00  0.00    -0.133 A  
HETATM   21  C   UNL     2      -7.429   6.244  63.083  1.00  0.00    -0.071 A  
HETATM   22  C   UNL     2      -7.207   5.646  64.326  1.00  0.00    -0.055 A  
HETATM   23  C   UNL     2      -7.427   6.373  65.497  1.00  0.00    -0.083 A  
ENDBRANCH  15  18
ENDBRANCH  13  15
ENDBRANCH  12  13
ENDBRANCH  10  12
TORSDOF 4
ENDMDL
MODEL      201
REMARK 921   NORMALIZED FREE ENERGY PREDICTED BY IDOCK:   -3.50 KCAL/MOL
REMARK 922        TOTAL FREE ENERGY PREDICTED BY IDOCK:   -4.96 KCAL/MOL
REMARK 923 INTER-LIGAND FREE ENERGY PREDICTED BY IDOCK:   -4.36 KCAL/MOL
REMARK 924 INTRA-LIGAND FREE ENERGY PREDICTED BY IDOCK:   -0.60 KCAL/MOL
REMARK 927      BINDING AFFINITY PREDICTED BY RF-SCORE:    0.00 PKD
ROOT
HETATM    1 BR   UNL     1     -10.385   3.708  63.937  1.00  0.00    -0.270 Br 
HETATM    2  C   UNL     2      -6.755   5.085  64.606  1.00  0.00    -0.048 C  
HETATM    3  N   UNL     2      -6.889   5.612  66.074  1.00  0.00    -0.056 N  
HETATM    4  C   UNL     2      -6.198   4.541  66.894  1.00  0.00    -0.032 C  
HETATM    5  C   UNL     2      -8.396   5.809  66.406  1.00  0.00    -0.113 C  
HETATM    6  C   UNL     2      -8.767   7.026  65.535  1.00  0.00    -0.043 C  
HETATM    7  C   UNL     2      -7.450   7.805  65.357  1.00  0.00    -0.081 C  
HETATM    8  C   UNL     2      -6.414   7.074  66.237  1.00  0.00    -0.051 C  
HETATM    9  C   UNL     2      -6.435   7.431  67.746  1.00  0.00    -0.050 C  
HETATM   10  C   UNL     2      -7.834   7.393  68.361  1.00  0.00    -0.122 C  
HETATM   11  C   UNL     2      -8.576   6.142  67.905  1.00  0.00    -0.114 C  
ENDROOT
BRANCH  10  12
HETATM   12  O   UNL     2      -8.604   8.521  67.895  1.00  0.00    -0.132 OA 
BRANCH  12  13
HETATM   13  C   UNL     2      -8.571   9.699  68.585  1.00  0.00    -0.120 C  
HETATM   14  O   UNL     2      -8.604  10.815  68.078  1.00  0.00    -0.123 OA 
BRANCH  13  15
HETATM   15  C   UNL     2      -8.484   9.381  70.096  1.00  0.00    -0.205 C  
HETATM   16  O   UNL     2      -7.595  10.232  70.823  1.00  0.00    -0.377 OA 
HETATM   17  H   UNL     2      -7.541  10.036  71.750  1.00  0.00     0.000 HD 
BRANCH  15  18
HETATM   18  C   UNL     2      -9.870   9.389  70.708  1.00  0.00    -0.348 A  
HETATM   19  C   UNL     2     -10.143   8.499  71.765  1.00  0.00    -0.351 A  
HETATM   20  C   UNL     2     -11.405   8.416  72.317  1.00  0.00    -0.448 A  
HETATM   21  C   UNL     2     -12.433   9.214  71.833  1.00  0.00    -0.459 A  
HETATM   22  C   UNL     2     -12.192  10.105  70.784  1.00  0.00    -0.434 A  
HETATM   23  C   UNL     2     -10.919  10.186  70.218  1.00  0.00    -0.380 A  
ENDBRANCH  15  18
ENDBRANCH  13  15
ENDBRANCH  12  13
ENDBRANCH  10  12
TORSDOF 4
ENDMDL
MODEL      202
REMARK 921   NORMALIZED FREE ENERGY PREDICTED BY IDOCK:   -3.48 KCAL/MOL
REMARK 922        TOTAL FREE ENERGY PREDICTED BY IDOCK:   -4.93 KCAL/MOL
REMARK 923 INTER-LIGAND FREE ENERGY PREDICTED BY IDOCK:   -4.10 KCAL/MOL
REMARK 924 INTRA-LIGAND FREE ENERGY PREDICTED BY IDOCK:   -0.83 KCAL/MOL
REMARK 927      BINDING AFFINITY PREDICTED BY RF-SCORE:    0.00 PKD
ROOT
HETATM    1 BR   UNL     1     -12.205  11.242  70.415  1.00  0.00    -0.452 Br 
HETATM    2  C   UNL     2     -12.557   7.537  71.706  1.00  0.00    -0.334 C  
HETATM    3  N   UNL     2     -11.058   7.094  71.790  1.00  0.00    -0.233 N  
HETATM    4  C   UNL     2     -10.759   7.157  73.274  1.00  0.00    -0.361 C  
HETATM    5  C   UNL     2     -10.197   8.052  70.916  1.00  0.00    -0.192 C  
HETATM    6  C   UNL     2     -10.624   7.663  69.487  1.00  0.00    -0.227 C  
HETATM    7  C   UNL     2     -11.081   6.196  69.593  1.00  0.00    -0.489 C  
HETATM    8  C   UNL     2     -10.776   5.770  71.045  1.00  0.00    -0.258 C  
HETATM    9  C   UNL     2      -9.312   5.347  71.334  1.00  0.00    -0.179 C  
HETATM   10  C   UNL     2      -8.276   6.336  70.800  1.00  0.00    -0.125 C  
HETATM   11  C   UNL     2      -8.693   7.764  71.129  1.00  0.00    -0.141 C  
ENDROOT
BRANCH  10  12
HETATM   12  O   UNL     2      -8.212   6.248  69.360  1.00  0.00    -0.111 OA 
BRANCH  12  13
HETATM   13  C   UNL     2      -6.999   6.197  68.736  1.00  0.00    -0.076 C  
HETATM   14  O   UNL     2      -5.941   5.882  69.271  1.00  0.00    -0.024 OA 
BRANCH  13  15
HETATM   15  C   UNL     2      -7.191   6.603  67.255  1.00  0.00    -0.085 C  
HETATM   16  O   UNL     2      -5.976   6.923  66.574  1.00  0.00    -0.031 OA 
HETATM   17  H   UNL     2      -6.094   7.173  65.665  1.00  0.00     0.000 HD 
BRANCH  15  18
HETATM   18  C   UNL     2      -7.963   5.528  66.519  1.00  0.00    -0.101 A  
HETATM   19  C   UNL     2      -7.254   4.424  66.004  1.00  0.00    -0.076 A  
HETATM   20  C   UNL     2      -7.895   3.447  65.270  1.00  0.00    -0.082 A  
HETATM   21  C   UNL     2      -9.258   3.539  65.025  1.00  0.00    -0.149 A  
HETATM   22  C   UNL     2      -9.987   4.621  65.522  1.00  0.00    -0.201 A  
HETATM   23  C   UNL     2      -9.341   5.616  66.259  1.00  0.00    -0.169 A  
ENDBRANCH  15  18
ENDBRANCH  13  15
ENDBRANCH  12  13
ENDBRANCH  10  12
TORSDOF 4
ENDMDL
MODEL      203
REMARK 921   NORMALIZED FREE ENERGY PREDICTED BY IDOCK:   -3.48 KCAL/MOL
REMARK 922        TOTAL FREE ENERGY PREDICTED BY IDOCK:   -4.93 KCAL/MOL
REMARK 923 INTER-LIGAND FREE ENERGY PREDICTED BY IDOCK:   -4.41 KCAL/MOL
REMARK 924 INTRA-LIGAND FREE ENERGY PREDICTED BY IDOCK:   -0.52 KCAL/MOL
REMARK 927      BINDING AFFINITY PREDICTED BY RF-SCORE:    0.00 PKD
ROOT
HETATM    1 BR   UNL     1      -9.317   3.172  64.870  1.00  0.00    -0.141 Br 
HETATM    2  C   UNL     2      -8.097   4.632  68.319  1.00  0.00    -0.084 C  
HETATM    3  N   UNL     2      -9.085   5.831  68.515  1.00  0.00    -0.115 N  
HETATM    4  C   UNL     2     -10.068   5.308  69.543  1.00  0.00    -0.252 C  
HETATM    5  C   UNL     2      -9.718   6.195  67.141  1.00  0.00    -0.135 C  
HETATM    6  C   UNL     2      -8.524   6.812  66.384  1.00  0.00    -0.126 C  
HETATM    7  C   UNL     2      -7.601   7.371  67.483  1.00  0.00    -0.106 C  
HETATM    8  C   UNL     2      -8.364   7.166  68.809  1.00  0.00    -0.126 C  
HETATM    9  C   UNL     2      -9.434   8.236  69.148  1.00  0.00    -0.155 C  
HETATM   10  C   UNL     2     -10.381   8.539  67.986  1.00  0.00    -0.217 C  
HETATM   11  C   UNL     2     -10.839   7.243  67.329  1.00  0.00    -0.354 C  
ENDROOT
BRANCH  10  12
HETATM   12  O   UNL     2      -9.684   9.291  66.970  1.00  0.00    -0.163 OA 
BRANCH  12  13
HETATM   13  C   UNL     2     -10.103  10.550  66.649  1.00  0.00    -0.222 C  
HETATM   14  O   UNL     2     -10.768  10.843  65.660  1.00  0.00    -0.206 OA 
BRANCH  13  15
HETATM   15  C   UNL     2      -9.596  11.529  67.734  1.00  0.00    -0.175 C  
HETATM   16  O   UNL     2      -8.173  11.598  67.841  1.00  0.00    -0.127 OA 
HETATM   17  H   UNL     2      -7.862  12.199  68.508  1.00  0.00     0.000 HD 
BRANCH  15  18
HETATM   18  C   UNL     2     -10.194  12.903  67.511  1.00  0.00    -0.213 A  
HETATM   19  C   UNL     2      -9.467  13.837  66.747  1.00  0.00    -0.281 A  
HETATM   20  C   UNL     2      -9.932  15.124  66.567  1.00  0.00    -0.279 A  
HETATM   21  C   UNL     2     -11.133  15.520  67.140  1.00  0.00    -0.256 A  
HETATM   22  C   UNL     2     -11.875  14.616  67.903  1.00  0.00    -0.352 A  
HETATM   23  C   UNL     2     -11.404  13.316  68.095  1.00  0.00    -0.323 A  
ENDBRANCH  15  18
ENDBRANCH  13  15
ENDBRANCH  12  13
ENDBRANCH  10  12
TORSDOF 4
ENDMDL
MODEL      204
REMARK 921   NORMALIZED FREE ENERGY PREDICTED BY IDOCK:   -3.46 KCAL/MOL
REMARK 922        TOTAL FREE ENERGY PREDICTED BY IDOCK:   -4.91 KCAL/MOL
REMARK 923 INTER-LIGAND FREE ENERGY PREDICTED BY IDOCK:   -3.65 KCAL/MOL
REMARK 924 INTRA-LIGAND FREE ENERGY PREDICTED BY IDOCK:   -1.27 KCAL/MOL
REMARK 927      BINDING AFFINITY PREDICTED BY RF-SCORE:    0.00 PKD
ROOT
HETATM    1 BR   UNL     1     -10.103   6.954  73.668  1.00  0.00    -0.390 Br 
HETATM    2  C   UNL     2      -8.719   8.898  70.534  1.00  0.00    -0.186 C  
HETATM    3  N   UNL     2      -9.661   8.369  69.400  1.00  0.00    -0.169 N  
HETATM    4  C   UNL     2     -10.624   9.519  69.184  1.00  0.00    -0.222 C  
HETATM    5  C   UNL     2     -10.328   7.046  69.873  1.00  0.00    -0.210 C  
HETATM    6  C   UNL     2      -9.143   6.061  69.867  1.00  0.00    -0.147 C  
HETATM    7  C   UNL     2      -8.165   6.621  68.816  1.00  0.00    -0.120 C  
HETATM    8  C   UNL     2      -8.888   7.826  68.178  1.00  0.00    -0.125 C  
HETATM    9  C   UNL     2      -9.911   7.488  67.062  1.00  0.00    -0.304 C  
HETATM   10  C   UNL     2     -10.886   6.376  67.447  1.00  0.00    -0.375 C  
HETATM   11  C   UNL     2     -11.409   6.600  68.861  1.00  0.00    -0.209 C  
ENDROOT
BRANCH  10  12
HETATM   12  O   UNL     2     -10.201   5.106  67.458  1.00  0.00    -0.181 OA 
BRANCH  12  13
HETATM   13  C   UNL     2     -10.108   4.373  66.310  1.00  0.00    -0.225 C  
HETATM   14  O   UNL     2     -10.828   4.509  65.325  1.00  0.00    -0.254 OA 
BRANCH  13  15
HETATM   15  C   UNL     2      -8.955   3.354  66.468  1.00  0.00    -0.150 C  
HETATM   16  O   UNL     2      -8.986   2.283  65.523  1.00  0.00    -0.125 OA 
HETATM   17  H   UNL     2      -8.279   1.658  65.620  1.00  0.00     0.000 HD 
BRANCH  15  18
HETATM   18  C   UNL     2      -7.622   4.072  66.437  1.00  0.00    -0.089 A  
HETATM   19  C   UNL     2      -7.402   5.038  65.434  1.00  0.00    -0.072 A  
HETATM   20  C   UNL     2      -6.185   5.676  65.317  1.00  0.00    -0.030 A  
HETATM   21  C   UNL     2      -5.150   5.374  66.192  1.00  0.00    -0.005 A  
HETATM   22  C   UNL     2      -5.338   4.421  67.195  1.00  0.00    -0.012 A  
HETATM   23  C   UNL     2      -6.565   3.766  67.312  1.00  0.00    -0.046 A  
ENDBRANCH  15  18
ENDBRANCH  13  15
ENDBRANCH  12  13
ENDBRANCH  10  12
TORSDOF 4
ENDMDL
MODEL      205
REMARK 921   NORMALIZED FREE ENERGY PREDICTED BY IDOCK:   -3.46 KCAL/MOL
REMARK 922        TOTAL FREE ENERGY PREDICTED BY IDOCK:   -4.91 KCAL/MOL
REMARK 923 INTER-LIGAND FREE ENERGY PREDICTED BY IDOCK:   -4.05 KCAL/MOL
REMARK 924 INTRA-LIGAND FREE ENERGY PREDICTED BY IDOCK:   -0.86 KCAL/MOL
REMARK 927      BINDING AFFINITY PREDICTED BY RF-SCORE:    0.00 PKD
ROOT
HETATM    1 BR   UNL     1      -6.786  15.763  67.444  1.00  0.00    -0.204 Br 
HETATM    2  C   UNL     2     -10.157  14.539  65.815  1.00  0.00    -0.342 C  
HETATM    3  N   UNL     2     -10.694  13.561  66.913  1.00  0.00    -0.273 N  
HETATM    4  C   UNL     2     -11.784  14.365  67.592  1.00  0.00    -0.391 C  
HETATM    5  C   UNL     2      -9.518  13.149  67.844  1.00  0.00    -0.218 C  
HETATM    6  C   UNL     2      -8.670  12.249  66.923  1.00  0.00    -0.197 C  
HETATM    7  C   UNL     2      -9.668  11.675  65.899  1.00  0.00    -0.260 C  
HETATM    8  C   UNL     2     -11.058  12.166  66.354  1.00  0.00    -0.314 C  
HETATM    9  C   UNL     2     -11.730  11.345  67.486  1.00  0.00    -0.220 C  
HETATM   10  C   UNL     2     -10.805  11.073  68.672  1.00  0.00    -0.215 C  
HETATM   11  C   UNL     2     -10.048  12.341  69.051  1.00  0.00     0.117 C  
ENDROOT
BRANCH  10  12
HETATM   12  O   UNL     2      -9.809  10.096  68.302  1.00  0.00    -0.142 OA 
BRANCH  12  13
HETATM   13  C   UNL     2      -9.880   8.829  68.805  1.00  0.00    -0.171 C  
HETATM   14  O   UNL     2     -10.144   8.545  69.969  1.00  0.00    -0.186 OA 
BRANCH  13  15
HETATM   15  C   UNL     2      -9.569   7.829  67.665  1.00  0.00    -0.146 C  
HETATM   16  O   UNL     2     -10.518   7.846  66.598  1.00  0.00    -0.439 OA 
HETATM   17  H   UNL     2     -10.328   7.232  65.899  1.00  0.00     0.000 HD 
BRANCH  15  18
HETATM   18  C   UNL     2      -8.162   8.052  67.151  1.00  0.00    -0.117 A  
HETATM   19  C   UNL     2      -7.205   8.602  68.026  1.00  0.00    -0.087 A  
HETATM   20  C   UNL     2      -5.926   8.887  67.594  1.00  0.00    -0.047 A  
HETATM   21  C   UNL     2      -5.561   8.636  66.278  1.00  0.00    -0.039 A  
HETATM   22  C   UNL     2      -6.489   8.093  65.387  1.00  0.00    -0.048 A  
HETATM   23  C   UNL     2      -7.786   7.810  65.818  1.00  0.00    -0.104 A  
ENDBRANCH  15  18
ENDBRANCH  13  15
ENDBRANCH  12  13
ENDBRANCH  10  12
TORSDOF 4
ENDMDL
MODEL      206
REMARK 921   NORMALIZED FREE ENERGY PREDICTED BY IDOCK:   -3.46 KCAL/MOL
REMARK 922        TOTAL FREE ENERGY PREDICTED BY IDOCK:   -4.91 KCAL/MOL
REMARK 923 INTER-LIGAND FREE ENERGY PREDICTED BY IDOCK:   -4.43 KCAL/MOL
REMARK 924 INTRA-LIGAND FREE ENERGY PREDICTED BY IDOCK:   -0.47 KCAL/MOL
REMARK 927      BINDING AFFINITY PREDICTED BY RF-SCORE:    0.00 PKD
ROOT
HETATM    1 BR   UNL     1     -11.212  16.260  64.584  1.00  0.00    -0.065 Br 
HETATM    2  C   UNL     2     -11.090  15.054  68.332  1.00  0.00    -0.278 C  
HETATM    3  N   UNL     2     -10.106  13.840  68.236  1.00  0.00    -0.234 N  
HETATM    4  C   UNL     2      -8.812  14.396  68.794  1.00  0.00    -0.131 C  
HETATM    5  C   UNL     2     -10.023  13.372  66.754  1.00  0.00    -0.264 C  
HETATM    6  C   UNL     2     -11.414  12.747  66.530  1.00  0.00    -0.409 C  
HETATM    7  C   UNL     2     -11.873  12.285  67.926  1.00  0.00    -0.358 C  
HETATM    8  C   UNL     2     -10.676  12.549  68.864  1.00  0.00    -0.165 C  
HETATM    9  C   UNL     2      -9.563  11.469  68.861  1.00  0.00    -0.045 C  
HETATM   10  C   UNL     2      -9.110  11.066  67.458  1.00  0.00    -0.137 C  
HETATM   11  C   UNL     2      -8.917  12.305  66.591  1.00  0.00    -0.189 C  
ENDROOT
BRANCH  10  12
HETATM   12  O   UNL     2     -10.135  10.275  66.821  1.00  0.00    -0.199 OA 
BRANCH  12  13
HETATM   13  C   UNL     2      -9.817   9.068  66.267  1.00  0.00    -0.291 C  
HETATM   14  O   UNL     2      -9.601   8.872  65.076  1.00  0.00     0.086 OA 
BRANCH  13  15
HETATM   15  C   UNL     2      -9.780   8.005  67.392  1.00  0.00    -0.166 C  
HETATM   16  O   UNL     2     -10.915   8.030  68.258  1.00  0.00    -0.435 OA 
HETATM   17  H   UNL     2     -10.892   7.378  68.948  1.00  0.00     0.000 HD 
BRANCH  15  18
HETATM   18  C   UNL     2      -9.577   6.628  66.795  1.00  0.00    -0.207 A  
HETATM   19  C   UNL     2      -8.273   6.238  66.432  1.00  0.00    -0.114 A  
HETATM   20  C   UNL     2      -8.037   5.021  65.825  1.00  0.00    -0.113 A  
HETATM   21  C   UNL     2      -9.091   4.157  65.560  1.00  0.00    -0.138 A  
HETATM   22  C   UNL     2     -10.395   4.517  65.907  1.00  0.00    -0.289 A  
HETATM   23  C   UNL     2     -10.638   5.750  66.514  1.00  0.00    -0.294 A  
ENDBRANCH  15  18
ENDBRANCH  13  15
ENDBRANCH  12  13
ENDBRANCH  10  12
TORSDOF 4
ENDMDL
MODEL      207
REMARK 921   NORMALIZED FREE ENERGY PREDICTED BY IDOCK:   -3.46 KCAL/MOL
REMARK 922        TOTAL FREE ENERGY PREDICTED BY IDOCK:   -4.91 KCAL/MOL
REMARK 923 INTER-LIGAND FREE ENERGY PREDICTED BY IDOCK:   -3.54 KCAL/MOL
REMARK 924 INTRA-LIGAND FREE ENERGY PREDICTED BY IDOCK:   -1.37 KCAL/MOL
REMARK 927      BINDING AFFINITY PREDICTED BY RF-SCORE:    0.00 PKD
ROOT
HETATM    1 BR   UNL     1      -6.416   7.061  72.376  1.00  0.00    -0.053 Br 
HETATM    2  C   UNL     2      -9.933   5.586  71.390  1.00  0.00    -0.186 C  
HETATM    3  N   UNL     2      -9.871   5.653  69.827  1.00  0.00    -0.172 N  
HETATM    4  C   UNL     2      -9.606   4.216  69.428  1.00  0.00    -0.194 C  
HETATM    5  C   UNL     2      -8.759   6.657  69.408  1.00  0.00    -0.135 C  
HETATM    6  C   UNL     2      -9.369   8.012  69.817  1.00  0.00    -0.159 C  
HETATM    7  C   UNL     2     -10.894   7.795  69.764  1.00  0.00    -0.211 C  
HETATM    8  C   UNL     2     -11.090   6.370  69.204  1.00  0.00    -0.365 C  
HETATM    9  C   UNL     2     -11.004   6.231  67.662  1.00  0.00    -0.438 C  
HETATM   10  C   UNL     2      -9.782   6.918  67.055  1.00  0.00    -0.163 C  
HETATM   11  C   UNL     2      -8.538   6.603  67.878  1.00  0.00    -0.118 C  
ENDROOT
BRANCH  10  12
HETATM   12  O   UNL     2      -9.952   8.351  67.101  1.00  0.00    -0.190 OA 
BRANCH  12  13
HETATM   13  C   UNL     2      -9.365   9.136  66.151  1.00  0.00    -0.228 C  
HETATM   14  O   UNL     2      -9.119   8.788  65.000  1.00  0.00    -0.130 OA 
BRANCH  13  15
HETATM   15  C   UNL     2      -9.065  10.520  66.773  1.00  0.00    -0.151 C  
HETATM   16  O   UNL     2     -10.192  11.136  67.400  1.00  0.00    -0.181 OA 
HETATM   17  H   UNL     2     -10.008  11.986  67.782  1.00  0.00     0.000 HD 
BRANCH  15  18
HETATM   18  C   UNL     2      -7.897  10.415  67.731  1.00  0.00    -0.101 A  
HETATM   19  C   UNL     2      -7.944  11.148  68.933  1.00  0.00    -0.126 A  
HETATM   20  C   UNL     2      -6.881  11.141  69.813  1.00  0.00    -0.090 A  
HETATM   21  C   UNL     2      -5.739  10.406  69.523  1.00  0.00    -0.038 A  
HETATM   22  C   UNL     2      -5.662   9.671  68.338  1.00  0.00    -0.040 A  
HETATM   23  C   UNL     2      -6.733   9.681  67.442  1.00  0.00    -0.071 A  
ENDBRANCH  15  18
ENDBRANCH  13  15
ENDBRANCH  12  13
ENDBRANCH  10  12
TORSDOF 4
ENDMDL
MODEL      208
REMARK 921   NORMALIZED FREE ENERGY PREDICTED BY IDOCK:   -3.45 KCAL/MOL
REMARK 922        TOTAL FREE ENERGY PREDICTED BY IDOCK:   -4.89 KCAL/MOL
REMARK 923 INTER-LIGAND FREE ENERGY PREDICTED BY IDOCK:   -4.26 KCAL/MOL
REMARK 924 INTRA-LIGAND FREE ENERGY PREDICTED BY IDOCK:   -0.63 KCAL/MOL
REMARK 927      BINDING AFFINITY PREDICTED BY RF-SCORE:    0.00 PKD
ROOT
HETATM    1 BR   UNL     1     -11.835  11.910  63.868  1.00  0.00    -0.492 Br 
HETATM    2  C   UNL     2      -8.134  10.567  63.976  1.00  0.00    -0.023 C  
HETATM    3  N   UNL     2      -8.253   9.415  65.030  1.00  0.00    -0.131 N  
HETATM    4  C   UNL     2      -8.255   8.162  64.177  1.00  0.00    -0.080 C  
HETATM    5  C   UNL     2      -9.545   9.629  65.870  1.00  0.00    -0.257 C  
HETATM    6  C   UNL     2      -9.187  10.871  66.710  1.00  0.00    -0.174 C  
HETATM    7  C   UNL     2      -7.652  10.843  66.828  1.00  0.00    -0.134 C  
HETATM    8  C   UNL     2      -7.208   9.523  66.163  1.00  0.00    -0.093 C  
HETATM    9  C   UNL     2      -7.310   8.252  67.046  1.00  0.00    -0.084 C  
HETATM   10  C   UNL     2      -8.657   8.109  67.754  1.00  0.00    -0.131 C  
HETATM   11  C   UNL     2      -9.796   8.409  66.786  1.00  0.00    -0.329 C  
ENDROOT
BRANCH  10  12
HETATM   12  O   UNL     2      -8.757   9.081  68.818  1.00  0.00    -0.133 OA 
BRANCH  12  13
HETATM   13  C   UNL     2      -8.386   8.740  70.087  1.00  0.00    -0.131 C  
HETATM   14  O   UNL     2      -7.875   9.501  70.902  1.00  0.00    -0.299 OA 
BRANCH  13  15
HETATM   15  C   UNL     2      -8.716   7.245  70.311  1.00  0.00    -0.147 C  
HETATM   16  O   UNL     2      -7.747   6.542  71.091  1.00  0.00    -0.095 OA 
HETATM   17  H   UNL     2      -7.950   5.625  71.228  1.00  0.00     0.000 HD 
BRANCH  15  18
HETATM   18  C   UNL     2     -10.102   7.105  70.904  1.00  0.00    -0.200 A  
HETATM   19  C   UNL     2     -10.376   5.988  71.719  1.00  0.00    -0.259 A  
HETATM   20  C   UNL     2     -11.638   5.774  72.233  1.00  0.00    -0.300 A  
HETATM   21  C   UNL     2     -12.667   6.664  71.952  1.00  0.00    -0.260 A  
HETATM   22  C   UNL     2     -12.426   7.780  71.147  1.00  0.00    -0.245 A  
HETATM   23  C   UNL     2     -11.152   7.995  70.618  1.00  0.00    -0.266 A  
ENDBRANCH  15  18
ENDBRANCH  13  15
ENDBRANCH  12  13
ENDBRANCH  10  12
TORSDOF 4
ENDMDL
MODEL      209
REMARK 921   NORMALIZED FREE ENERGY PREDICTED BY IDOCK:   -3.41 KCAL/MOL
REMARK 922        TOTAL FREE ENERGY PREDICTED BY IDOCK:   -4.84 KCAL/MOL
REMARK 923 INTER-LIGAND FREE ENERGY PREDICTED BY IDOCK:   -4.09 KCAL/MOL
REMARK 924 INTRA-LIGAND FREE ENERGY PREDICTED BY IDOCK:   -0.75 KCAL/MOL
REMARK 927      BINDING AFFINITY PREDICTED BY RF-SCORE:    0.00 PKD
ROOT
HETATM    1 BR   UNL     1     -11.911  14.321  66.727  1.00  0.00    -0.438 Br 
HETATM    2  C   UNL     2      -8.911  11.838  66.139  1.00  0.00    -0.107 C  
HETATM    3  N   UNL     2      -9.447  10.535  66.823  1.00  0.00    -0.160 N  
HETATM    4  C   UNL     2      -9.864   9.672  65.649  1.00  0.00    -0.299 C  
HETATM    5  C   UNL     2     -10.605  10.913  67.792  1.00  0.00    -0.217 C  
HETATM    6  C   UNL     2      -9.858  11.650  68.922  1.00  0.00    -0.057 C  
HETATM    7  C   UNL     2      -8.431  11.070  68.901  1.00  0.00    -0.124 C  
HETATM    8  C   UNL     2      -8.458   9.940  67.850  1.00  0.00    -0.121 C  
HETATM    9  C   UNL     2      -9.016   8.577  68.335  1.00  0.00    -0.139 C  
HETATM   10  C   UNL     2     -10.345   8.694  69.080  1.00  0.00    -0.217 C  
HETATM   11  C   UNL     2     -11.285   9.635  68.336  1.00  0.00    -0.004 C  
ENDROOT
BRANCH  10  12
HETATM   12  O   UNL     2     -10.126   9.278  70.383  1.00  0.00    -0.202 OA 
BRANCH  12  13
HETATM   13  C   UNL     2     -10.574   8.633  71.500  1.00  0.00    -0.282 C  
HETATM   14  O   UNL     2     -11.741   8.606  71.880  1.00  0.00    -0.305 OA 
BRANCH  13  15
HETATM   15  C   UNL     2      -9.369   7.955  72.194  1.00  0.00    -0.169 C  
HETATM   16  O   UNL     2      -9.490   7.858  73.614  1.00  0.00    -0.286 OA 
HETATM   17  H   UNL     2      -8.750   7.442  74.039  1.00  0.00     0.000 HD 
BRANCH  15  18
HETATM   18  C   UNL     2      -9.111   6.599  71.572  1.00  0.00    -0.142 A  
HETATM   19  C   UNL     2      -7.778   6.159  71.448  1.00  0.00    -0.100 A  
HETATM   20  C   UNL     2      -7.479   4.961  70.831  1.00  0.00    -0.065 A  
HETATM   21  C   UNL     2      -8.495   4.166  70.319  1.00  0.00    -0.095 A  
HETATM   22  C   UNL     2      -9.826   4.576  70.426  1.00  0.00    -0.302 A  
HETATM   23  C   UNL     2     -10.132   5.791  71.043  1.00  0.00    -0.260 A  
ENDBRANCH  15  18
ENDBRANCH  13  15
ENDBRANCH  12  13
ENDBRANCH  10  12
TORSDOF 4
ENDMDL
MODEL      210
REMARK 921   NORMALIZED FREE ENERGY PREDICTED BY IDOCK:   -3.40 KCAL/MOL
REMARK 922        TOTAL FREE ENERGY PREDICTED BY IDOCK:   -4.83 KCAL/MOL
REMARK 923 INTER-LIGAND FREE ENERGY PREDICTED BY IDOCK:   -4.12 KCAL/MOL
REMARK 924 INTRA-LIGAND FREE ENERGY PREDICTED BY IDOCK:   -0.71 KCAL/MOL
REMARK 927      BINDING AFFINITY PREDICTED BY RF-SCORE:    0.00 PKD
ROOT
HETATM    1 BR   UNL     1     -11.837  12.526  63.579  1.00  0.00    -0.624 Br 
HETATM    2  C   UNL     2     -10.296  13.528  67.063  1.00  0.00    -0.252 C  
HETATM    3  N   UNL     2      -9.605  12.191  67.493  1.00  0.00    -0.176 N  
HETATM    4  C   UNL     2      -8.138  12.454  67.222  1.00  0.00    -0.182 C  
HETATM    5  C   UNL     2     -10.215  11.019  66.671  1.00  0.00    -0.235 C  
HETATM    6  C   UNL     2     -11.637  10.913  67.258  1.00  0.00     0.060 C  
HETATM    7  C   UNL     2     -11.517  11.457  68.694  1.00  0.00    -0.359 C  
HETATM    8  C   UNL     2     -10.014  11.729  68.910  1.00  0.00    -0.034 C  
HETATM    9  C   UNL     2      -9.151  10.498  69.292  1.00  0.00    -0.161 C  
HETATM   10  C   UNL     2      -9.387   9.286  68.391  1.00  0.00    -0.138 C  
HETATM   11  C   UNL     2      -9.425   9.715  66.930  1.00  0.00    -0.198 C  
ENDROOT
BRANCH  10  12
HETATM   12  O   UNL     2     -10.676   8.704  68.682  1.00  0.00    -0.164 OA 
BRANCH  12  13
HETATM   13  C   UNL     2     -10.842   7.351  68.614  1.00  0.00    -0.034 C  
HETATM   14  O   UNL     2     -11.220   6.734  67.623  1.00  0.00    -0.256 OA 
BRANCH  13  15
HETATM   15  C   UNL     2     -10.477   6.741  69.989  1.00  0.00    -0.210 C  
HETATM   16  O   UNL     2     -11.596   6.246  70.725  1.00  0.00    -0.344 OA 
HETATM   17  H   UNL     2     -11.372   5.872  71.569  1.00  0.00     0.000 HD 
BRANCH  15  18
HETATM   18  C   UNL     2      -9.419   5.670  69.815  1.00  0.00    -0.189 A  
HETATM   19  C   UNL     2      -9.822   4.320  69.827  1.00  0.00    -0.258 A  
HETATM   20  C   UNL     2      -8.895   3.301  69.738  1.00  0.00    -0.154 A  
HETATM   21  C   UNL     2      -7.542   3.594  69.636  1.00  0.00    -0.051 A  
HETATM   22  C   UNL     2      -7.113   4.923  69.623  1.00  0.00    -0.055 A  
HETATM   23  C   UNL     2      -8.047   5.957  69.721  1.00  0.00    -0.105 A  
ENDBRANCH  15  18
ENDBRANCH  13  15
ENDBRANCH  12  13
ENDBRANCH  10  12
TORSDOF 4
ENDMDL
MODEL      211
REMARK 921   NORMALIZED FREE ENERGY PREDICTED BY IDOCK:   -3.39 KCAL/MOL
REMARK 922        TOTAL FREE ENERGY PREDICTED BY IDOCK:   -4.83 KCAL/MOL
REMARK 923 INTER-LIGAND FREE ENERGY PREDICTED BY IDOCK:   -4.22 KCAL/MOL
REMARK 924 INTRA-LIGAND FREE ENERGY PREDICTED BY IDOCK:   -0.61 KCAL/MOL
REMARK 927      BINDING AFFINITY PREDICTED BY RF-SCORE:    0.00 PKD
ROOT
HETATM    1 BR   UNL     1      -9.776   2.328  63.798  1.00  0.00    -0.133 Br 
HETATM    2  C   UNL     2      -7.428   2.467  66.958  1.00  0.00    -0.065 C  
HETATM    3  N   UNL     2      -8.195   3.483  67.870  1.00  0.00    -0.083 N  
HETATM    4  C   UNL     2      -8.857   2.593  68.901  1.00  0.00    -0.100 C  
HETATM    5  C   UNL     2      -9.184   4.304  66.992  1.00  0.00    -0.149 C  
HETATM    6  C   UNL     2      -8.230   5.188  66.165  1.00  0.00    -0.109 C  
HETATM    7  C   UNL     2      -6.967   5.335  67.034  1.00  0.00    -0.065 C  
HETATM    8  C   UNL     2      -7.301   4.640  68.371  1.00  0.00    -0.065 C  
HETATM    9  C   UNL     2      -8.114   5.481  69.389  1.00  0.00    -0.095 C  
HETATM   10  C   UNL     2      -9.340   6.158  68.777  1.00  0.00    -0.123 C  
HETATM   11  C   UNL     2     -10.094   5.178  67.887  1.00  0.00    -0.193 C  
ENDROOT
BRANCH  10  12
HETATM   12  O   UNL     2      -8.924   7.249  67.927  1.00  0.00    -0.131 OA 
BRANCH  12  13
HETATM   13  C   UNL     2      -9.107   8.538  68.337  1.00  0.00    -0.139 C  
HETATM   14  O   UNL     2      -8.225   9.275  68.766  1.00  0.00    -0.109 OA 
BRANCH  13  15
HETATM   15  C   UNL     2     -10.602   8.899  68.170  1.00  0.00    -0.157 C  
HETATM   16  O   UNL     2     -11.308   9.055  69.402  1.00  0.00    -0.439 OA 
HETATM   17  H   UNL     2     -12.226   9.276  69.300  1.00  0.00     0.000 HD 
BRANCH  15  18
HETATM   18  C   UNL     2     -10.743  10.131  67.300  1.00  0.00    -0.316 A  
HETATM   19  C   UNL     2     -11.503  11.214  67.786  1.00  0.00    -0.349 A  
HETATM   20  C   UNL     2     -11.719  12.335  67.011  1.00  0.00    -0.399 A  
HETATM   21  C   UNL     2     -11.187  12.413  65.731  1.00  0.00    -0.370 A  
HETATM   22  C   UNL     2     -10.430  11.355  65.222  1.00  0.00    -0.340 A  
HETATM   23  C   UNL     2     -10.216  10.216  66.000  1.00  0.00    -0.288 A  
ENDBRANCH  15  18
ENDBRANCH  13  15
ENDBRANCH  12  13
ENDBRANCH  10  12
TORSDOF 4
ENDMDL
MODEL      212
REMARK 921   NORMALIZED FREE ENERGY PREDICTED BY IDOCK:   -3.38 KCAL/MOL
REMARK 922        TOTAL FREE ENERGY PREDICTED BY IDOCK:   -4.81 KCAL/MOL
REMARK 923 INTER-LIGAND FREE ENERGY PREDICTED BY IDOCK:   -3.92 KCAL/MOL
REMARK 924 INTRA-LIGAND FREE ENERGY PREDICTED BY IDOCK:   -0.89 KCAL/MOL
REMARK 927      BINDING AFFINITY PREDICTED BY RF-SCORE:    0.00 PKD
ROOT
HETATM    1 BR   UNL     1     -12.285  14.492  64.434  1.00  0.00    -0.400 Br 
HETATM    2  C   UNL     2     -11.493  16.432  67.769  1.00  0.00     0.068 C  
HETATM    3  N   UNL     2      -9.967  16.130  67.949  1.00  0.00    -0.236 N  
HETATM    4  C   UNL     2      -9.303  17.420  67.514  1.00  0.00    -0.233 C  
HETATM    5  C   UNL     2      -9.593  14.888  67.089  1.00  0.00    -0.225 C  
HETATM    6  C   UNL     2     -10.294  13.743  67.846  1.00  0.00    -0.244 C  
HETATM    7  C   UNL     2     -10.388  14.228  69.306  1.00  0.00    -0.072 C  
HETATM    8  C   UNL     2      -9.623  15.568  69.347  1.00  0.00    -0.279 C  
HETATM    9  C   UNL     2      -8.081  15.465  69.467  1.00  0.00    -0.207 C  
HETATM   10  C   UNL     2      -7.457  14.483  68.476  1.00  0.00    -0.123 C  
HETATM   11  C   UNL     2      -8.061  14.679  67.090  1.00  0.00    -0.213 C  
ENDROOT
BRANCH  10  12
HETATM   12  O   UNL     2      -7.763  13.128  68.870  1.00  0.00    -0.050 OA 
BRANCH  12  13
HETATM   13  C   UNL     2      -7.050  12.090  68.344  1.00  0.00    -0.084 C  
HETATM   14  O   UNL     2      -5.942  12.184  67.826  1.00  0.00    -0.067 OA 
BRANCH  13  15
HETATM   15  C   UNL     2      -7.875  10.792  68.511  1.00  0.00    -0.122 C  
HETATM   16  O   UNL     2      -8.992  10.918  69.393  1.00  0.00    -0.390 OA 
HETATM   17  H   UNL     2      -9.498  10.121  69.495  1.00  0.00     0.000 HD 
BRANCH  15  18
HETATM   18  C   UNL     2      -8.306  10.275  67.154  1.00  0.00    -0.122 A  
HETATM   19  C   UNL     2      -8.683  11.207  66.167  1.00  0.00    -0.188 A  
HETATM   20  C   UNL     2      -9.146  10.792  64.936  1.00  0.00    -0.221 A  
HETATM   21  C   UNL     2      -9.248   9.438  64.648  1.00  0.00    -0.185 A  
HETATM   22  C   UNL     2      -8.883   8.490  65.606  1.00  0.00    -0.214 A  
HETATM   23  C   UNL     2      -8.422   8.906  66.857  1.00  0.00    -0.113 A  
ENDBRANCH  15  18
ENDBRANCH  13  15
ENDBRANCH  12  13
ENDBRANCH  10  12
TORSDOF 4
ENDMDL
MODEL      213
REMARK 921   NORMALIZED FREE ENERGY PREDICTED BY IDOCK:   -3.35 KCAL/MOL
REMARK 922        TOTAL FREE ENERGY PREDICTED BY IDOCK:   -4.77 KCAL/MOL
REMARK 923 INTER-LIGAND FREE ENERGY PREDICTED BY IDOCK:   -4.09 KCAL/MOL
REMARK 924 INTRA-LIGAND FREE ENERGY PREDICTED BY IDOCK:   -0.68 KCAL/MOL
REMARK 927      BINDING AFFINITY PREDICTED BY RF-SCORE:    0.00 PKD
ROOT
HETATM    1 BR   UNL     1     -11.588  15.527  64.465  1.00  0.00    -0.183 Br 
HETATM    2  C   UNL     2     -10.428  18.146  67.168  1.00  0.00    -0.378 C  
HETATM    3  N   UNL     2      -8.961  17.675  67.448  1.00  0.00    -0.230 N  
HETATM    4  C   UNL     2      -8.121  18.685  66.693  1.00  0.00    -0.271 C  
HETATM    5  C   UNL     2      -8.801  16.206  66.960  1.00  0.00    -0.207 C  
HETATM    6  C   UNL     2      -9.648  15.426  67.985  1.00  0.00    -0.206 C  
HETATM    7  C   UNL     2      -9.630  16.293  69.259  1.00  0.00    -0.220 C  
HETATM    8  C   UNL     2      -8.672  17.462  68.951  1.00  0.00    -0.153 C  
HETATM    9  C   UNL     2      -7.159  17.162  69.120  1.00  0.00    -0.213 C  
HETATM   10  C   UNL     2      -6.716  15.867  68.440  1.00  0.00    -0.116 C  
HETATM   11  C   UNL     2      -7.318  15.774  67.043  1.00  0.00    -0.226 C  
ENDROOT
BRANCH  10  12
HETATM   12  O   UNL     2      -7.214  14.731  69.178  1.00  0.00    -0.128 OA 
BRANCH  12  13
HETATM   13  C   UNL     2      -6.514  13.559  69.175  1.00  0.00    -0.108 C  
HETATM   14  O   UNL     2      -5.812  13.152  70.096  1.00  0.00    -0.127 OA 
BRANCH  13  15
HETATM   15  C   UNL     2      -6.755  12.845  67.824  1.00  0.00    -0.141 C  
HETATM   16  O   UNL     2      -5.651  12.060  67.371  1.00  0.00    -0.091 OA 
HETATM   17  H   UNL     2      -5.799  11.622  66.541  1.00  0.00     0.000 HD 
BRANCH  15  18
HETATM   18  C   UNL     2      -8.022  12.018  67.895  1.00  0.00    -0.147 A  
HETATM   19  C   UNL     2      -8.959  12.132  66.849  1.00  0.00    -0.201 A  
HETATM   20  C   UNL     2     -10.159  11.452  66.892  1.00  0.00    -0.245 A  
HETATM   21  C   UNL     2     -10.464  10.641  67.977  1.00  0.00    -0.228 A  
HETATM   22  C   UNL     2      -9.555  10.509  69.029  1.00  0.00    -0.213 A  
HETATM   23  C   UNL     2      -8.343  11.201  68.993  1.00  0.00    -0.054 A  
ENDBRANCH  15  18
ENDBRANCH  13  15
ENDBRANCH  12  13
ENDBRANCH  10  12
TORSDOF 4
ENDMDL
MODEL      214
REMARK 921   NORMALIZED FREE ENERGY PREDICTED BY IDOCK:   -3.32 KCAL/MOL
REMARK 922        TOTAL FREE ENERGY PREDICTED BY IDOCK:   -4.74 KCAL/MOL
REMARK 923 INTER-LIGAND FREE ENERGY PREDICTED BY IDOCK:   -3.46 KCAL/MOL
REMARK 924 INTRA-LIGAND FREE ENERGY PREDICTED BY IDOCK:   -1.28 KCAL/MOL
REMARK 927      BINDING AFFINITY PREDICTED BY RF-SCORE:    0.00 PKD
ROOT
HETATM    1 BR   UNL     1      -8.195   3.817  69.767  1.00  0.00    -0.076 Br 
HETATM    2  C   UNL     2      -9.518   7.143  71.410  1.00  0.00    -0.161 C  
HETATM    3  N   UNL     2     -10.259   7.812  70.204  1.00  0.00    -0.201 N  
HETATM    4  C   UNL     2     -11.721   7.556  70.507  1.00  0.00    -0.158 C  
HETATM    5  C   UNL     2      -9.750   7.172  68.880  1.00  0.00    -0.146 C  
HETATM    6  C   UNL     2      -8.311   7.715  68.785  1.00  0.00    -0.129 C  
HETATM    7  C   UNL     2      -8.335   9.046  69.560  1.00  0.00    -0.117 C  
HETATM    8  C   UNL     2      -9.811   9.270  69.953  1.00  0.00    -0.199 C  
HETATM    9  C   UNL     2     -10.720   9.880  68.854  1.00  0.00    -0.244 C  
HETATM   10  C   UNL     2     -10.590   9.182  67.501  1.00  0.00    -0.249 C  
HETATM   11  C   UNL     2     -10.596   7.669  67.685  1.00  0.00    -0.294 C  
ENDROOT
BRANCH  10  12
HETATM   12  O   UNL     2      -9.322   9.517  66.897  1.00  0.00    -0.139 OA 
BRANCH  12  13
HETATM   13  C   UNL     2      -9.284  10.005  65.623  1.00  0.00    -0.186 C  
HETATM   14  O   UNL     2     -10.238  10.490  65.023  1.00  0.00    -0.315 OA 
BRANCH  13  15
HETATM   15  C   UNL     2      -7.846   9.838  65.075  1.00  0.00    -0.128 C  
HETATM   16  O   UNL     2      -6.927  10.832  65.532  1.00  0.00    -0.313 OA 
HETATM   17  H   UNL     2      -6.045  10.729  65.196  1.00  0.00     0.000 HD 
BRANCH  15  18
HETATM   18  C   UNL     2      -7.337   8.443  65.374  1.00  0.00    -0.084 A  
HETATM   19  C   UNL     2      -6.115   8.306  66.062  1.00  0.00    -0.045 A  
HETATM   20  C   UNL     2      -5.571   7.062  66.304  1.00  0.00    -0.026 A  
HETATM   21  C   UNL     2      -6.225   5.916  65.869  1.00  0.00    -0.037 A  
HETATM   22  C   UNL     2      -7.437   6.021  65.184  1.00  0.00    -0.084 A  
HETATM   23  C   UNL     2      -7.987   7.279  64.930  1.00  0.00    -0.127 A  
ENDBRANCH  15  18
ENDBRANCH  13  15
ENDBRANCH  12  13
ENDBRANCH  10  12
TORSDOF 4
ENDMDL
MODEL      215
REMARK 921   NORMALIZED FREE ENERGY PREDICTED BY IDOCK:   -3.30 KCAL/MOL
REMARK 922        TOTAL FREE ENERGY PREDICTED BY IDOCK:   -4.71 KCAL/MOL
REMARK 923 INTER-LIGAND FREE ENERGY PREDICTED BY IDOCK:   -4.12 KCAL/MOL
REMARK 924 INTRA-LIGAND FREE ENERGY PREDICTED BY IDOCK:   -0.59 KCAL/MOL
REMARK 927      BINDING AFFINITY PREDICTED BY RF-SCORE:    0.00 PKD
ROOT
HETATM    1 BR   UNL     1     -10.090   7.892  66.832  1.00  0.00    -0.369 Br 
HETATM    2  C   UNL     2      -7.676   4.786  67.030  1.00  0.00    -0.091 C  
HETATM    3  N   UNL     2      -8.244   4.030  68.279  1.00  0.00    -0.090 N  
HETATM    4  C   UNL     2      -9.018   2.880  67.667  1.00  0.00    -0.160 C  
HETATM    5  C   UNL     2      -9.105   5.017  69.118  1.00  0.00    -0.100 C  
HETATM    6  C   UNL     2      -8.040   5.964  69.705  1.00  0.00    -0.105 C  
HETATM    7  C   UNL     2      -6.749   5.125  69.763  1.00  0.00    -0.047 C  
HETATM    8  C   UNL     2      -7.160   3.702  69.331  1.00  0.00    -0.045 C  
HETATM    9  C   UNL     2      -7.799   2.817  70.432  1.00  0.00    -0.047 C  
HETATM   10  C   UNL     2      -8.912   3.520  71.209  1.00  0.00    -0.098 C  
HETATM   11  C   UNL     2      -9.838   4.259  70.249  1.00  0.00    -0.263 C  
ENDROOT
BRANCH  10  12
HETATM   12  O   UNL     2      -8.344   4.519  72.082  1.00  0.00    -0.105 OA 
BRANCH  12  13
HETATM   13  C   UNL     2      -8.817   4.657  73.356  1.00  0.00    -0.102 C  
HETATM   14  O   UNL     2      -8.167   4.453  74.376  1.00  0.00    -0.090 OA 
BRANCH  13  15
HETATM   15  C   UNL     2     -10.296   5.105  73.285  1.00  0.00    -0.204 C  
HETATM   16  O   UNL     2     -11.002   4.990  74.522  1.00  0.00    -0.350 OA 
HETATM   17  H   UNL     2     -11.910   5.265  74.478  1.00  0.00     0.000 HD 
BRANCH  15  18
HETATM   18  C   UNL     2     -10.384   6.513  72.734  1.00  0.00    -0.224 A  
HETATM   19  C   UNL     2     -11.597   6.934  72.155  1.00  0.00    -0.322 A  
HETATM   20  C   UNL     2     -11.715   8.182  71.579  1.00  0.00    -0.325 A  
HETATM   21  C   UNL     2     -10.631   9.049  71.561  1.00  0.00    -0.415 A  
HETATM   22  C   UNL     2      -9.415   8.659  72.126  1.00  0.00    -0.373 A  
HETATM   23  C   UNL     2      -9.289   7.394  72.703  1.00  0.00    -0.192 A  
ENDBRANCH  15  18
ENDBRANCH  13  15
ENDBRANCH  12  13
ENDBRANCH  10  12
TORSDOF 4
ENDMDL
MODEL      216
REMARK 921   NORMALIZED FREE ENERGY PREDICTED BY IDOCK:   -3.28 KCAL/MOL
REMARK 922        TOTAL FREE ENERGY PREDICTED BY IDOCK:   -4.68 KCAL/MOL
REMARK 923 INTER-LIGAND FREE ENERGY PREDICTED BY IDOCK:   -3.62 KCAL/MOL
REMARK 924 INTRA-LIGAND FREE ENERGY PREDICTED BY IDOCK:   -1.06 KCAL/MOL
REMARK 927      BINDING AFFINITY PREDICTED BY RF-SCORE:    0.00 PKD
ROOT
HETATM    1 BR   UNL     1      -5.978  10.141  70.110  1.00  0.00    -0.077 Br 
HETATM    2  C   UNL     2      -9.904  10.046  69.817  1.00  0.00    -0.235 C  
HETATM    3  N   UNL     2     -10.226   8.634  70.414  1.00  0.00    -0.188 N  
HETATM    4  C   UNL     2     -10.740   8.953  71.804  1.00  0.00    -0.362 C  
HETATM    5  C   UNL     2      -8.935   7.767  70.385  1.00  0.00    -0.147 C  
HETATM    6  C   UNL     2      -8.751   7.503  68.877  1.00  0.00    -0.132 C  
HETATM    7  C   UNL     2     -10.169   7.593  68.282  1.00  0.00    -0.229 C  
HETATM    8  C   UNL     2     -11.115   7.774  69.487  1.00  0.00     0.006 C  
HETATM    9  C   UNL     2     -11.502   6.478  70.246  1.00  0.00    -0.474 C  
HETATM   10  C   UNL     2     -10.305   5.592  70.588  1.00  0.00    -0.262 C  
HETATM   11  C   UNL     2      -9.165   6.438  71.143  1.00  0.00    -0.159 C  
ENDROOT
BRANCH  10  12
HETATM   12  O   UNL     2      -9.804   4.962  69.390  1.00  0.00    -0.176 OA 
BRANCH  12  13
HETATM   13  C   UNL     2      -9.205   3.737  69.466  1.00  0.00    -0.156 C  
HETATM   14  O   UNL     2      -9.626   2.784  70.114  1.00  0.00    -0.137 OA 
BRANCH  13  15
HETATM   15  C   UNL     2      -7.919   3.764  68.606  1.00  0.00    -0.066 C  
HETATM   16  O   UNL     2      -7.126   2.580  68.702  1.00  0.00    -0.043 OA 
HETATM   17  H   UNL     2      -6.337   2.596  68.174  1.00  0.00     0.000 HD 
BRANCH  15  18
HETATM   18  C   UNL     2      -8.268   4.073  67.165  1.00  0.00    -0.099 A  
HETATM   19  C   UNL     2      -7.538   5.076  66.497  1.00  0.00    -0.088 A  
HETATM   20  C   UNL     2      -7.854   5.445  65.206  1.00  0.00    -0.097 A  
HETATM   21  C   UNL     2      -8.905   4.829  64.540  1.00  0.00    -0.147 A  
HETATM   22  C   UNL     2      -9.647   3.832  65.177  1.00  0.00    -0.177 A  
HETATM   23  C   UNL     2      -9.336   3.461  66.486  1.00  0.00    -0.173 A  
ENDBRANCH  15  18
ENDBRANCH  13  15
ENDBRANCH  12  13
ENDBRANCH  10  12
TORSDOF 4
ENDMDL
MODEL      217
REMARK 921   NORMALIZED FREE ENERGY PREDICTED BY IDOCK:   -3.27 KCAL/MOL
REMARK 922        TOTAL FREE ENERGY PREDICTED BY IDOCK:   -4.68 KCAL/MOL
REMARK 923 INTER-LIGAND FREE ENERGY PREDICTED BY IDOCK:   -3.89 KCAL/MOL
REMARK 924 INTRA-LIGAND FREE ENERGY PREDICTED BY IDOCK:   -0.79 KCAL/MOL
REMARK 927      BINDING AFFINITY PREDICTED BY RF-SCORE:    0.00 PKD
ROOT
HETATM    1 BR   UNL     1     -11.960  11.182  69.539  1.00  0.00    -0.430 Br 
HETATM    2  C   UNL     2     -10.256   8.699  72.079  1.00  0.00    -0.337 C  
HETATM    3  N   UNL     2      -9.388   7.820  71.118  1.00  0.00    -0.150 N  
HETATM    4  C   UNL     2      -7.986   8.358  71.326  1.00  0.00    -0.121 C  
HETATM    5  C   UNL     2      -9.930   7.969  69.667  1.00  0.00    -0.188 C  
HETATM    6  C   UNL     2     -11.277   7.224  69.743  1.00  0.00    -0.151 C  
HETATM    7  C   UNL     2     -11.100   6.193  70.874  1.00  0.00    -0.371 C  
HETATM    8  C   UNL     2      -9.623   6.304  71.308  1.00  0.00    -0.174 C  
HETATM    9  C   UNL     2      -8.599   5.536  70.431  1.00  0.00    -0.131 C  
HETATM   10  C   UNL     2      -8.773   5.785  68.933  1.00  0.00    -0.111 C  
HETATM   11  C   UNL     2      -8.980   7.271  68.666  1.00  0.00    -0.128 C  
ENDROOT
BRANCH  10  12
HETATM   12  O   UNL     2      -9.961   5.113  68.461  1.00  0.00    -0.155 OA 
BRANCH  12  13
HETATM   13  C   UNL     2     -10.070   4.773  67.143  1.00  0.00    -0.168 C  
HETATM   14  O   UNL     2     -10.822   5.309  66.335  1.00  0.00    -0.292 OA 
BRANCH  13  15
HETATM   15  C   UNL     2      -9.095   3.607  66.853  1.00  0.00    -0.166 C  
HETATM   16  O   UNL     2      -9.702   2.314  66.889  1.00  0.00    -0.374 OA 
HETATM   17  H   UNL     2      -9.104   1.599  66.711  1.00  0.00     0.000 HD 
BRANCH  15  18
HETATM   18  C   UNL     2      -8.385   3.842  65.536  1.00  0.00    -0.105 A  
HETATM   19  C   UNL     2      -7.446   4.889  65.455  1.00  0.00    -0.081 A  
HETATM   20  C   UNL     2      -6.817   5.191  64.265  1.00  0.00    -0.048 A  
HETATM   21  C   UNL     2      -7.104   4.461  63.119  1.00  0.00    -0.044 A  
HETATM   22  C   UNL     2      -8.031   3.418  63.168  1.00  0.00    -0.072 A  
HETATM   23  C   UNL     2      -8.675   3.115  64.368  1.00  0.00    -0.095 A  
ENDBRANCH  15  18
ENDBRANCH  13  15
ENDBRANCH  12  13
ENDBRANCH  10  12
TORSDOF 4
ENDMDL
MODEL      218
REMARK 921   NORMALIZED FREE ENERGY PREDICTED BY IDOCK:   -3.26 KCAL/MOL
REMARK 922        TOTAL FREE ENERGY PREDICTED BY IDOCK:   -4.66 KCAL/MOL
REMARK 923 INTER-LIGAND FREE ENERGY PREDICTED BY IDOCK:   -3.33 KCAL/MOL
REMARK 924 INTRA-LIGAND FREE ENERGY PREDICTED BY IDOCK:   -1.33 KCAL/MOL
REMARK 927      BINDING AFFINITY PREDICTED BY RF-SCORE:    0.00 PKD
ROOT
HETATM    1 BR   UNL     1      -6.942   4.114  72.336  1.00  0.00    -0.053 Br 
HETATM    2  C   UNL     2      -7.073   1.975  69.031  1.00  0.00    -0.039 C  
HETATM    3  N   UNL     2      -6.924   3.085  67.937  1.00  0.00    -0.049 N  
HETATM    4  C   UNL     2      -5.482   2.944  67.492  1.00  0.00    -0.017 C  
HETATM    5  C   UNL     2      -7.276   4.464  68.565  1.00  0.00    -0.060 C  
HETATM    6  C   UNL     2      -8.799   4.348  68.777  1.00  0.00    -0.133 C  
HETATM    7  C   UNL     2      -9.274   3.339  67.714  1.00  0.00    -0.240 C  
HETATM    8  C   UNL     2      -8.029   3.022  66.858  1.00  0.00    -0.079 C  
HETATM    9  C   UNL     2      -7.689   4.050  65.748  1.00  0.00    -0.090 C  
HETATM   10  C   UNL     2      -7.690   5.498  66.239  1.00  0.00    -0.099 C  
HETATM   11  C   UNL     2      -6.954   5.603  67.569  1.00  0.00    -0.066 C  
ENDROOT
BRANCH  10  12
HETATM   12  O   UNL     2      -9.045   5.932  66.483  1.00  0.00    -0.134 OA 
BRANCH  12  13
HETATM   13  C   UNL     2      -9.403   7.223  66.220  1.00  0.00    -0.108 C  
HETATM   14  O   UNL     2      -8.889   7.938  65.366  1.00  0.00    -0.103 OA 
BRANCH  13  15
HETATM   15  C   UNL     2     -10.552   7.619  67.177  1.00  0.00    -0.340 C  
HETATM   16  O   UNL     2     -11.689   6.757  67.114  1.00  0.00    -0.589 OA 
HETATM   17  H   UNL     2     -12.395   7.001  67.702  1.00  0.00     0.000 HD 
BRANCH  15  18
HETATM   18  C   UNL     2     -10.029   7.733  68.594  1.00  0.00    -0.191 A  
HETATM   19  C   UNL     2     -10.734   7.081  69.625  1.00  0.00    -0.265 A  
HETATM   20  C   UNL     2     -10.341   7.204  70.942  1.00  0.00    -0.214 A  
HETATM   21  C   UNL     2      -9.237   7.978  71.273  1.00  0.00    -0.180 A  
HETATM   22  C   UNL     2      -8.519   8.636  70.272  1.00  0.00    -0.133 A  
HETATM   23  C   UNL     2      -8.918   8.522  68.940  1.00  0.00    -0.146 A  
ENDBRANCH  15  18
ENDBRANCH  13  15
ENDBRANCH  12  13
ENDBRANCH  10  12
TORSDOF 4
ENDMDL
MODEL      219
REMARK 921   NORMALIZED FREE ENERGY PREDICTED BY IDOCK:   -3.25 KCAL/MOL
REMARK 922        TOTAL FREE ENERGY PREDICTED BY IDOCK:   -4.65 KCAL/MOL
REMARK 923 INTER-LIGAND FREE ENERGY PREDICTED BY IDOCK:   -3.37 KCAL/MOL
REMARK 924 INTRA-LIGAND FREE ENERGY PREDICTED BY IDOCK:   -1.28 KCAL/MOL
REMARK 927      BINDING AFFINITY PREDICTED BY RF-SCORE:    0.00 PKD
ROOT
HETATM    1 BR   UNL     1     -10.590  10.785  67.762  1.00  0.00    -0.294 Br 
HETATM    2  C   UNL     2      -8.366   7.593  67.149  1.00  0.00    -0.121 C  
HETATM    3  N   UNL     2      -9.207   6.485  67.869  1.00  0.00    -0.112 N  
HETATM    4  C   UNL     2      -9.868   5.749  66.721  1.00  0.00    -0.162 C  
HETATM    5  C   UNL     2     -10.197   7.165  68.858  1.00  0.00    -0.186 C  
HETATM    6  C   UNL     2      -9.252   7.692  69.956  1.00  0.00    -0.151 C  
HETATM    7  C   UNL     2      -8.028   6.758  69.911  1.00  0.00    -0.120 C  
HETATM    8  C   UNL     2      -8.380   5.662  68.883  1.00  0.00    -0.103 C  
HETATM    9  C   UNL     2      -9.263   4.500  69.406  1.00  0.00    -0.192 C  
HETATM   10  C   UNL     2     -10.494   4.971  70.180  1.00  0.00    -0.165 C  
HETATM   11  C   UNL     2     -11.174   6.118  69.441  1.00  0.00    -0.466 C  
ENDROOT
BRANCH  10  12
HETATM   12  O   UNL     2     -10.094   5.491  71.466  1.00  0.00    -0.190 OA 
BRANCH  12  13
HETATM   13  C   UNL     2     -10.608   4.949  72.608  1.00  0.00    -0.215 C  
HETATM   14  O   UNL     2     -11.728   5.174  73.055  1.00  0.00    -0.303 OA 
BRANCH  13  15
HETATM   15  C   UNL     2      -9.544   4.015  73.232  1.00  0.00    -0.115 C  
HETATM   16  O   UNL     2      -9.502   2.708  72.657  1.00  0.00    -0.095 OA 
HETATM   17  H   UNL     2      -8.849   2.135  73.041  1.00  0.00     0.000 HD 
BRANCH  15  18
HETATM   18  C   UNL     2      -8.182   4.678  73.184  1.00  0.00    -0.100 A  
HETATM   19  C   UNL     2      -7.184   4.103  72.373  1.00  0.00    -0.062 A  
HETATM   20  C   UNL     2      -5.907   4.625  72.339  1.00  0.00    -0.016 A  
HETATM   21  C   UNL     2      -5.585   5.733  73.112  1.00  0.00    -0.035 A  
HETATM   22  C   UNL     2      -6.554   6.324  73.926  1.00  0.00    -0.071 A  
HETATM   23  C   UNL     2      -7.844   5.794  73.969  1.00  0.00    -0.099 A  
ENDBRANCH  15  18
ENDBRANCH  13  15
ENDBRANCH  12  13
ENDBRANCH  10  12
TORSDOF 4
ENDMDL
MODEL      220
REMARK 921   NORMALIZED FREE ENERGY PREDICTED BY IDOCK:   -3.25 KCAL/MOL
REMARK 922        TOTAL FREE ENERGY PREDICTED BY IDOCK:   -4.65 KCAL/MOL
REMARK 923 INTER-LIGAND FREE ENERGY PREDICTED BY IDOCK:   -3.77 KCAL/MOL
REMARK 924 INTRA-LIGAND FREE ENERGY PREDICTED BY IDOCK:   -0.88 KCAL/MOL
REMARK 927      BINDING AFFINITY PREDICTED BY RF-SCORE:    0.00 PKD
ROOT
HETATM    1 BR   UNL     1     -12.157  11.547  70.331  1.00  0.00    -0.449 Br 
HETATM    2  C   UNL     2      -9.727  10.134  67.572  1.00  0.00    -0.162 C  
HETATM    3  N   UNL     2      -9.566   8.647  68.033  1.00  0.00    -0.147 N  
HETATM    4  C   UNL     2     -10.453   7.886  67.068  1.00  0.00    -0.349 C  
HETATM    5  C   UNL     2      -9.986   8.531  69.526  1.00  0.00    -0.193 C  
HETATM    6  C   UNL     2      -8.842   9.273  70.246  1.00  0.00    -0.254 C  
HETATM    7  C   UNL     2      -7.625   9.133  69.311  1.00  0.00    -0.079 C  
HETATM    8  C   UNL     2      -8.089   8.211  68.164  1.00  0.00    -0.128 C  
HETATM    9  C   UNL     2      -8.051   6.689  68.460  1.00  0.00    -0.119 C  
HETATM   10  C   UNL     2      -8.700   6.312  69.791  1.00  0.00    -0.137 C  
HETATM   11  C   UNL     2     -10.025   7.047  69.958  1.00  0.00    -0.188 C  
ENDROOT
BRANCH  10  12
HETATM   12  O   UNL     2      -7.856   6.733  70.884  1.00  0.00    -0.095 OA 
BRANCH  12  13
HETATM   13  C   UNL     2      -7.331   5.802  71.734  1.00  0.00    -0.093 C  
HETATM   14  O   UNL     2      -6.453   4.996  71.445  1.00  0.00    -0.028 OA 
BRANCH  13  15
HETATM   15  C   UNL     2      -8.032   5.941  73.107  1.00  0.00    -0.110 C  
HETATM   16  O   UNL     2      -8.471   7.267  73.409  1.00  0.00    -0.123 OA 
HETATM   17  H   UNL     2      -8.900   7.351  74.252  1.00  0.00     0.000 HD 
BRANCH  15  18
HETATM   18  C   UNL     2      -9.173   4.951  73.208  1.00  0.00    -0.122 A  
HETATM   19  C   UNL     2      -8.873   3.574  73.186  1.00  0.00    -0.097 A  
HETATM   20  C   UNL     2      -9.876   2.627  73.209  1.00  0.00    -0.161 A  
HETATM   21  C   UNL     2     -11.207   3.020  73.253  1.00  0.00    -0.189 A  
HETATM   22  C   UNL     2     -11.535   4.377  73.274  1.00  0.00    -0.282 A  
HETATM   23  C   UNL     2     -10.524   5.338  73.243  1.00  0.00    -0.262 A  
ENDBRANCH  15  18
ENDBRANCH  13  15
ENDBRANCH  12  13
ENDBRANCH  10  12
TORSDOF 4
ENDMDL
MODEL      221
REMARK 921   NORMALIZED FREE ENERGY PREDICTED BY IDOCK:   -3.22 KCAL/MOL
REMARK 922        TOTAL FREE ENERGY PREDICTED BY IDOCK:   -4.62 KCAL/MOL
REMARK 923 INTER-LIGAND FREE ENERGY PREDICTED BY IDOCK:   -3.90 KCAL/MOL
REMARK 924 INTRA-LIGAND FREE ENERGY PREDICTED BY IDOCK:   -0.72 KCAL/MOL
REMARK 927      BINDING AFFINITY PREDICTED BY RF-SCORE:    0.00 PKD
ROOT
HETATM    1 BR   UNL     1      -8.950  15.607  67.394  1.00  0.00    -0.215 Br 
HETATM    2  C   UNL     2     -11.778  12.866  67.352  1.00  0.00    -0.372 C  
HETATM    3  N   UNL     2     -11.114  11.722  68.190  1.00  0.00    -0.225 N  
HETATM    4  C   UNL     2     -11.801  11.833  69.536  1.00  0.00    -0.337 C  
HETATM    5  C   UNL     2      -9.575  11.950  68.227  1.00  0.00    -0.201 C  
HETATM    6  C   UNL     2      -9.163  11.639  66.775  1.00  0.00    -0.190 C  
HETATM    7  C   UNL     2     -10.234  10.661  66.257  1.00  0.00    -0.304 C  
HETATM    8  C   UNL     2     -11.137  10.354  67.470  1.00  0.00    -0.267 C  
HETATM    9  C   UNL     2     -10.610   9.276  68.452  1.00  0.00    -0.234 C  
HETATM   10  C   UNL     2      -9.153   9.487  68.864  1.00  0.00    -0.141 C  
HETATM   11  C   UNL     2      -8.910  10.953  69.204  1.00  0.00    -0.050 C  
ENDROOT
BRANCH  10  12
HETATM   12  O   UNL     2      -8.281   9.172  67.758  1.00  0.00    -0.108 OA 
BRANCH  12  13
HETATM   13  C   UNL     2      -7.472   8.074  67.823  1.00  0.00    -0.094 C  
HETATM   14  O   UNL     2      -6.367   8.040  68.354  1.00  0.00    -0.047 OA 
BRANCH  13  15
HETATM   15  C   UNL     2      -8.184   6.897  67.114  1.00  0.00    -0.118 C  
HETATM   16  O   UNL     2      -7.446   6.336  66.027  1.00  0.00    -0.078 OA 
HETATM   17  H   UNL     2      -7.883   5.614  65.592  1.00  0.00     0.000 HD 
BRANCH  15  18
HETATM   18  C   UNL     2      -8.559   5.835  68.126  1.00  0.00    -0.108 A  
HETATM   19  C   UNL     2      -7.661   4.773  68.351  1.00  0.00    -0.077 A  
HETATM   20  C   UNL     2      -7.978   3.743  69.213  1.00  0.00    -0.059 A  
HETATM   21  C   UNL     2      -9.199   3.737  69.875  1.00  0.00    -0.219 A  
HETATM   22  C   UNL     2     -10.110   4.775  69.671  1.00  0.00    -0.275 A  
HETATM   23  C   UNL     2      -9.796   5.815  68.794  1.00  0.00    -0.181 A  
ENDBRANCH  15  18
ENDBRANCH  13  15
ENDBRANCH  12  13
ENDBRANCH  10  12
TORSDOF 4
ENDMDL
MODEL      222
REMARK 921   NORMALIZED FREE ENERGY PREDICTED BY IDOCK:   -3.22 KCAL/MOL
REMARK 922        TOTAL FREE ENERGY PREDICTED BY IDOCK:   -4.61 KCAL/MOL
REMARK 923 INTER-LIGAND FREE ENERGY PREDICTED BY IDOCK:   -4.40 KCAL/MOL
REMARK 924 INTRA-LIGAND FREE ENERGY PREDICTED BY IDOCK:   -0.20 KCAL/MOL
REMARK 927      BINDING AFFINITY PREDICTED BY RF-SCORE:    0.00 PKD
ROOT
HETATM    1 BR   UNL     1      -7.453   4.361  70.817  1.00  0.00    -0.053 Br 
HETATM    2  C   UNL     2      -9.464   3.129  67.662  1.00  0.00    -0.152 C  
HETATM    3  N   UNL     2      -8.754   3.920  66.513  1.00  0.00    -0.111 N  
HETATM    4  C   UNL     2      -7.875   2.872  65.861  1.00  0.00    -0.081 C  
HETATM    5  C   UNL     2      -7.981   5.121  67.128  1.00  0.00    -0.100 C  
HETATM    6  C   UNL     2      -9.125   6.053  67.574  1.00  0.00    -0.109 C  
HETATM    7  C   UNL     2     -10.302   5.716  66.638  1.00  0.00    -0.311 C  
HETATM    8  C   UNL     2      -9.742   4.702  65.618  1.00  0.00    -0.192 C  
HETATM    9  C   UNL     2      -8.952   5.305  64.427  1.00  0.00     0.075 C  
HETATM   10  C   UNL     2      -7.899   6.328  64.851  1.00  0.00    -0.113 C  
HETATM   11  C   UNL     2      -7.113   5.808  66.049  1.00  0.00    -0.071 C  
ENDROOT
BRANCH  10  12
HETATM   12  O   UNL     2      -8.543   7.546  65.280  1.00  0.00    -0.106 OA 
BRANCH  12  13
HETATM   13  C   UNL     2      -8.515   8.649  64.476  1.00  0.00    -0.110 C  
HETATM   14  O   UNL     2      -8.532   8.630  63.249  1.00  0.00    -0.170 OA 
BRANCH  13  15
HETATM   15  C   UNL     2      -8.456   9.909  65.371  1.00  0.00    -0.147 C  
HETATM   16  O   UNL     2      -7.249  10.662  65.244  1.00  0.00    -0.302 OA 
HETATM   17  H   UNL     2      -7.213  11.435  65.794  1.00  0.00     0.000 HD 
BRANCH  15  18
HETATM   18  C   UNL     2      -9.671  10.779  65.121  1.00  0.00    -0.319 A  
HETATM   19  C   UNL     2     -10.400  11.252  66.230  1.00  0.00    -0.294 A  
HETATM   20  C   UNL     2     -11.551  11.993  66.061  1.00  0.00    -0.371 A  
HETATM   21  C   UNL     2     -12.013  12.285  64.785  1.00  0.00    -0.429 A  
HETATM   22  C   UNL     2     -11.314  11.828  63.666  1.00  0.00    -0.525 A  
HETATM   23  C   UNL     2     -10.152  11.071  63.833  1.00  0.00    -0.414 A  
ENDBRANCH  15  18
ENDBRANCH  13  15
ENDBRANCH  12  13
ENDBRANCH  10  12
TORSDOF 4
ENDMDL
MODEL      223
REMARK 921   NORMALIZED FREE ENERGY PREDICTED BY IDOCK:   -3.21 KCAL/MOL
REMARK 922        TOTAL FREE ENERGY PREDICTED BY IDOCK:   -4.60 KCAL/MOL
REMARK 923 INTER-LIGAND FREE ENERGY PREDICTED BY IDOCK:   -4.02 KCAL/MOL
REMARK 924 INTRA-LIGAND FREE ENERGY PREDICTED BY IDOCK:   -0.58 KCAL/MOL
REMARK 927      BINDING AFFINITY PREDICTED BY RF-SCORE:    0.00 PKD
ROOT
HETATM    1 BR   UNL     1     -11.228   8.095  71.433  1.00  0.00    -0.314 Br 
HETATM    2  C   UNL     2      -9.634   7.473  67.885  1.00  0.00    -0.143 C  
HETATM    3  N   UNL     2      -8.467   8.517  67.882  1.00  0.00    -0.130 N  
HETATM    4  C   UNL     2      -7.239   7.666  68.137  1.00  0.00    -0.093 C  
HETATM    5  C   UNL     2      -8.746   9.592  68.971  1.00  0.00    -0.142 C  
HETATM    6  C   UNL     2      -9.940  10.362  68.372  1.00  0.00    -0.177 C  
HETATM    7  C   UNL     2      -9.805  10.183  66.848  1.00  0.00    -0.244 C  
HETATM    8  C   UNL     2      -8.475   9.430  66.635  1.00  0.00    -0.126 C  
HETATM    9  C   UNL     2      -7.192  10.301  66.657  1.00  0.00    -0.109 C  
HETATM   10  C   UNL     2      -7.124  11.253  67.851  1.00  0.00    -0.078 C  
HETATM   11  C   UNL     2      -7.524  10.525  69.129  1.00  0.00    -0.114 C  
ENDROOT
BRANCH  10  12
HETATM   12  O   UNL     2      -8.072  12.327  67.675  1.00  0.00    -0.143 OA 
BRANCH  12  13
HETATM   13  C   UNL     2      -7.917  13.491  68.372  1.00  0.00    -0.142 C  
HETATM   14  O   UNL     2      -6.867  13.881  68.871  1.00  0.00    -0.099 OA 
BRANCH  13  15
HETATM   15  C   UNL     2      -9.281  14.220  68.422  1.00  0.00    -0.196 C  
HETATM   16  O   UNL     2      -9.943  14.137  69.685  1.00  0.00    -0.331 OA 
HETATM   17  H   UNL     2     -10.780  14.584  69.716  1.00  0.00     0.000 HD 
BRANCH  15  18
HETATM   18  C   UNL     2      -9.114  15.660  67.986  1.00  0.00    -0.183 A  
HETATM   19  C   UNL     2      -8.997  16.654  68.977  1.00  0.00    -0.204 A  
HETATM   20  C   UNL     2      -8.908  17.989  68.640  1.00  0.00    -0.272 A  
HETATM   21  C   UNL     2      -8.934  18.376  67.306  1.00  0.00    -0.265 A  
HETATM   22  C   UNL     2      -9.051  17.413  66.301  1.00  0.00    -0.232 A  
HETATM   23  C   UNL     2      -9.150  16.062  66.639  1.00  0.00    -0.282 A  
ENDBRANCH  15  18
ENDBRANCH  13  15
ENDBRANCH  12  13
ENDBRANCH  10  12
TORSDOF 4
ENDMDL
MODEL      224
REMARK 921   NORMALIZED FREE ENERGY PREDICTED BY IDOCK:   -3.20 KCAL/MOL
REMARK 922        TOTAL FREE ENERGY PREDICTED BY IDOCK:   -4.59 KCAL/MOL
REMARK 923 INTER-LIGAND FREE ENERGY PREDICTED BY IDOCK:   -4.88 KCAL/MOL
REMARK 924 INTRA-LIGAND FREE ENERGY PREDICTED BY IDOCK:    0.29 KCAL/MOL
REMARK 927      BINDING AFFINITY PREDICTED BY RF-SCORE:    0.00 PKD
ROOT
HETATM    1 BR   UNL     1      -9.179   1.722  69.352  1.00  0.00    -0.167 Br 
HETATM    2  C   UNL     2      -8.995   4.415  72.221  1.00  0.00    -0.120 C  
HETATM    3  N   UNL     2      -9.992   5.500  71.693  1.00  0.00    -0.176 N  
HETATM    4  C   UNL     2     -11.231   5.274  72.535  1.00  0.00    -0.210 C  
HETATM    5  C   UNL     2     -10.201   5.294  70.165  1.00  0.00    -0.280 C  
HETATM    6  C   UNL     2      -8.838   5.722  69.587  1.00  0.00    -0.124 C  
HETATM    7  C   UNL     2      -8.267   6.722  70.611  1.00  0.00    -0.120 C  
HETATM    8  C   UNL     2      -9.380   6.919  71.662  1.00  0.00    -0.154 C  
HETATM    9  C   UNL     2     -10.497   7.926  71.285  1.00  0.00    -0.233 C  
HETATM   10  C   UNL     2     -11.068   7.706  69.885  1.00  0.00    -0.150 C  
HETATM   11  C   UNL     2     -11.325   6.222  69.648  1.00  0.00    -0.492 C  
ENDROOT
BRANCH  10  12
HETATM   12  O   UNL     2     -10.105   8.119  68.892  1.00  0.00    -0.191 OA 
BRANCH  12  13
HETATM   13  C   UNL     2     -10.516   8.391  67.618  1.00  0.00    -0.239 C  
HETATM   14  O   UNL     2     -10.644   7.560  66.725  1.00  0.00    -0.318 OA 
BRANCH  13  15
HETATM   15  C   UNL     2     -10.783   9.911  67.502  1.00  0.00    -0.272 C  
HETATM   16  O   UNL     2     -11.924  10.362  68.234  1.00  0.00    -0.772 OA 
HETATM   17  H   UNL     2     -12.088  11.294  68.163  1.00  0.00     0.000 HD 
BRANCH  15  18
HETATM   18  C   UNL     2      -9.542  10.686  67.891  1.00  0.00    -0.174 A  
HETATM   19  C   UNL     2      -8.740  10.189  68.938  1.00  0.00    -0.149 A  
HETATM   20  C   UNL     2      -7.634  10.886  69.379  1.00  0.00    -0.097 A  
HETATM   21  C   UNL     2      -7.292  12.098  68.793  1.00  0.00    -0.090 A  
HETATM   22  C   UNL     2      -8.069  12.616  67.754  1.00  0.00    -0.166 A  
HETATM   23  C   UNL     2      -9.194  11.918  67.311  1.00  0.00    -0.179 A  
ENDBRANCH  15  18
ENDBRANCH  13  15
ENDBRANCH  12  13
ENDBRANCH  10  12
TORSDOF 4
ENDMDL
MODEL      225
REMARK 921   NORMALIZED FREE ENERGY PREDICTED BY IDOCK:   -3.20 KCAL/MOL
REMARK 922        TOTAL FREE ENERGY PREDICTED BY IDOCK:   -4.59 KCAL/MOL
REMARK 923 INTER-LIGAND FREE ENERGY PREDICTED BY IDOCK:   -4.28 KCAL/MOL
REMARK 924 INTRA-LIGAND FREE ENERGY PREDICTED BY IDOCK:   -0.31 KCAL/MOL
REMARK 927      BINDING AFFINITY PREDICTED BY RF-SCORE:    0.00 PKD
ROOT
HETATM    1 BR   UNL     1      -8.422   4.265  69.526  1.00  0.00    -0.102 Br 
HETATM    2  C   UNL     2     -10.168   6.886  71.892  1.00  0.00    -0.188 C  
HETATM    3  N   UNL     2     -10.835   7.847  70.852  1.00  0.00    -0.230 N  
HETATM    4  C   UNL     2     -12.295   7.443  70.891  1.00  0.00    -0.201 C  
HETATM    5  C   UNL     2     -10.146   7.653  69.470  1.00  0.00    -0.192 C  
HETATM    6  C   UNL     2      -8.753   8.268  69.710  1.00  0.00    -0.134 C  
HETATM    7  C   UNL     2      -8.962   9.306  70.829  1.00  0.00    -0.292 C  
HETATM    8  C   UNL     2     -10.483   9.333  71.090  1.00  0.00    -0.331 C  
HETATM    9  C   UNL     2     -11.323  10.197  70.115  1.00  0.00    -0.372 C  
HETATM   10  C   UNL     2     -11.002   9.940  68.643  1.00  0.00    -0.179 C  
HETATM   11  C   UNL     2     -10.906   8.442  68.379  1.00  0.00     0.031 C  
ENDROOT
BRANCH  10  12
HETATM   12  O   UNL     2      -9.711  10.499  68.318  1.00  0.00    -0.147 OA 
BRANCH  12  13
HETATM   13  C   UNL     2      -9.438  10.878  67.035  1.00  0.00    -0.164 C  
HETATM   14  O   UNL     2      -8.749  10.243  66.243  1.00  0.00    -0.141 OA 
BRANCH  13  15
HETATM   15  C   UNL     2     -10.136  12.231  66.762  1.00  0.00    -0.209 C  
HETATM   16  O   UNL     2     -11.528  12.246  67.085  1.00  0.00    -0.311 OA 
HETATM   17  H   UNL     2     -11.957  13.077  66.917  1.00  0.00     0.000 HD 
BRANCH  15  18
HETATM   18  C   UNL     2      -9.398  13.347  67.472  1.00  0.00    -0.218 A  
HETATM   19  C   UNL     2      -8.019  13.502  67.229  1.00  0.00    -0.125 A  
HETATM   20  C   UNL     2      -7.282  14.459  67.896  1.00  0.00    -0.169 A  
HETATM   21  C   UNL     2      -7.894  15.289  68.825  1.00  0.00    -0.154 A  
HETATM   22  C   UNL     2      -9.259  15.158  69.088  1.00  0.00    -0.215 A  
HETATM   23  C   UNL     2     -10.007  14.186  68.421  1.00  0.00    -0.235 A  
ENDBRANCH  15  18
ENDBRANCH  13  15
ENDBRANCH  12  13
ENDBRANCH  10  12
TORSDOF 4
ENDMDL
MODEL      226
REMARK 921   NORMALIZED FREE ENERGY PREDICTED BY IDOCK:   -3.18 KCAL/MOL
REMARK 922        TOTAL FREE ENERGY PREDICTED BY IDOCK:   -4.56 KCAL/MOL
REMARK 923 INTER-LIGAND FREE ENERGY PREDICTED BY IDOCK:   -4.87 KCAL/MOL
REMARK 924 INTRA-LIGAND FREE ENERGY PREDICTED BY IDOCK:    0.31 KCAL/MOL
REMARK 927      BINDING AFFINITY PREDICTED BY RF-SCORE:    0.00 PKD
ROOT
HETATM    1 BR   UNL     1     -10.841  15.421  64.591  1.00  0.00    -0.151 Br 
HETATM    2  C   UNL     2      -8.184  13.108  66.353  1.00  0.00     0.698 C  
HETATM    3  N   UNL     2      -9.076  11.906  66.814  1.00  0.00    -0.192 N  
HETATM    4  C   UNL     2      -8.752  10.824  65.803  1.00  0.00    -0.186 C  
HETATM    5  C   UNL     2     -10.565  12.356  66.826  1.00  0.00    -0.226 C  
HETATM    6  C   UNL     2     -10.603  13.332  68.019  1.00  0.00    -0.249 C  
HETATM    7  C   UNL     2      -9.466  12.867  68.950  1.00  0.00     0.252 C  
HETATM    8  C   UNL     2      -8.913  11.574  68.315  1.00  0.00    -0.177 C  
HETATM    9  C   UNL     2      -9.707  10.277  68.618  1.00  0.00    -0.171 C  
HETATM   10  C   UNL     2     -11.213  10.420  68.400  1.00  0.00    -0.258 C  
HETATM   11  C   UNL     2     -11.489  11.144  67.087  1.00  0.00    -0.163 C  
ENDROOT
BRANCH  10  12
HETATM   12  O   UNL     2     -11.784  11.234  69.446  1.00  0.00    -0.278 OA 
BRANCH  12  13
HETATM   13  C   UNL     2     -11.920  10.725  70.706  1.00  0.00    -0.362 C  
HETATM   14  O   UNL     2     -11.115   9.981  71.257  1.00  0.00    -0.309 OA 
BRANCH  13  15
HETATM   15  C   UNL     2     -13.248  11.244  71.306  1.00  0.00    -0.081 C  
HETATM   16  O   UNL     2     -13.658  10.565  72.495  1.00  0.00    -0.550 OA 
HETATM   17  H   UNL     2     -14.473  10.884  72.862  1.00  0.00     0.000 HD 
BRANCH  15  18
HETATM   18  C   UNL     2     -13.166  12.739  71.530  1.00  0.00    -0.330 A  
HETATM   19  C   UNL     2     -12.076  13.443  70.980  1.00  0.00    -0.192 A  
HETATM   20  C   UNL     2     -11.914  14.794  71.206  1.00  0.00    -0.404 A  
HETATM   21  C   UNL     2     -12.830  15.486  71.987  1.00  0.00    -0.500 A  
HETATM   22  C   UNL     2     -13.920  14.816  72.547  1.00  0.00    -0.527 A  
HETATM   23  C   UNL     2     -14.083  13.447  72.327  1.00  0.00    -0.515 A  
ENDBRANCH  15  18
ENDBRANCH  13  15
ENDBRANCH  12  13
ENDBRANCH  10  12
TORSDOF 4
ENDMDL
MODEL      227
REMARK 921   NORMALIZED FREE ENERGY PREDICTED BY IDOCK:   -3.15 KCAL/MOL
REMARK 922        TOTAL FREE ENERGY PREDICTED BY IDOCK:   -4.53 KCAL/MOL
REMARK 923 INTER-LIGAND FREE ENERGY PREDICTED BY IDOCK:   -3.87 KCAL/MOL
REMARK 924 INTRA-LIGAND FREE ENERGY PREDICTED BY IDOCK:   -0.66 KCAL/MOL
REMARK 927      BINDING AFFINITY PREDICTED BY RF-SCORE:    0.00 PKD
ROOT
HETATM    1 BR   UNL     1     -10.857   3.150  73.711  1.00  0.00    -0.310 Br 
HETATM    2  C   UNL     2      -8.999   6.531  72.916  1.00  0.00    -0.129 C  
HETATM    3  N   UNL     2      -9.744   6.996  71.619  1.00  0.00    -0.161 N  
HETATM    4  C   UNL     2     -10.666   8.089  72.122  1.00  0.00    -0.276 C  
HETATM    5  C   UNL     2     -10.471   5.775  70.987  1.00  0.00    -0.244 C  
HETATM    6  C   UNL     2      -9.294   4.930  70.461  1.00  0.00    -0.216 C  
HETATM    7  C   UNL     2      -8.164   5.942  70.196  1.00  0.00    -0.118 C  
HETATM    8  C   UNL     2      -8.782   7.332  70.457  1.00  0.00    -0.148 C  
HETATM    9  C   UNL     2      -9.611   7.935  69.294  1.00  0.00    -0.157 C  
HETATM   10  C   UNL     2     -10.629   6.960  68.703  1.00  0.00    -0.223 C  
HETATM   11  C   UNL     2     -11.373   6.235  69.819  1.00  0.00    -0.506 C  
ENDROOT
BRANCH  10  12
HETATM   12  O   UNL     2      -9.947   5.945  67.936  1.00  0.00    -0.118 OA 
BRANCH  12  13
HETATM   13  C   UNL     2      -9.839   6.075  66.581  1.00  0.00    -0.164 C  
HETATM   14  O   UNL     2      -9.683   7.134  65.983  1.00  0.00     0.034 OA 
BRANCH  13  15
HETATM   15  C   UNL     2      -9.949   4.670  65.942  1.00  0.00    -0.239 C  
HETATM   16  O   UNL     2     -10.789   4.616  64.788  1.00  0.00    -0.511 OA 
HETATM   17  H   UNL     2     -10.857   3.754  64.396  1.00  0.00     0.000 HD 
BRANCH  15  18
HETATM   18  C   UNL     2      -8.566   4.131  65.637  1.00  0.00    -0.114 A  
HETATM   19  C   UNL     2      -8.069   4.260  64.325  1.00  0.00    -0.092 A  
HETATM   20  C   UNL     2      -6.844   3.731  63.973  1.00  0.00    -0.045 A  
HETATM   21  C   UNL     2      -6.078   3.057  64.915  1.00  0.00    -0.019 A  
HETATM   22  C   UNL     2      -6.545   2.912  66.223  1.00  0.00    -0.032 A  
HETATM   23  C   UNL     2      -7.787   3.439  66.581  1.00  0.00    -0.081 A  
ENDBRANCH  15  18
ENDBRANCH  13  15
ENDBRANCH  12  13
ENDBRANCH  10  12
TORSDOF 4
ENDMDL
MODEL      228
REMARK 921   NORMALIZED FREE ENERGY PREDICTED BY IDOCK:   -3.14 KCAL/MOL
REMARK 922        TOTAL FREE ENERGY PREDICTED BY IDOCK:   -4.51 KCAL/MOL
REMARK 923 INTER-LIGAND FREE ENERGY PREDICTED BY IDOCK:   -5.48 KCAL/MOL
REMARK 924 INTRA-LIGAND FREE ENERGY PREDICTED BY IDOCK:    0.97 KCAL/MOL
REMARK 927      BINDING AFFINITY PREDICTED BY RF-SCORE:    0.00 PKD
ROOT
HETATM    1 BR   UNL     1      -7.001   7.017  64.954  1.00  0.00    -0.053 Br 
HETATM    2  C   UNL     2      -7.684   5.981  68.692  1.00  0.00    -0.095 C  
HETATM    3  N   UNL     2      -9.056   6.685  68.963  1.00  0.00    -0.133 N  
HETATM    4  C   UNL     2     -10.053   5.546  68.888  1.00  0.00    -0.198 C  
HETATM    5  C   UNL     2      -9.270   7.802  67.902  1.00  0.00    -0.137 C  
HETATM    6  C   UNL     2      -8.221   8.853  68.317  1.00  0.00    -0.121 C  
HETATM    7  C   UNL     2      -8.015   8.635  69.828  1.00  0.00    -0.095 C  
HETATM    8  C   UNL     2      -9.045   7.561  70.236  1.00  0.00    -0.154 C  
HETATM    9  C   UNL     2     -10.488   8.069  70.494  1.00  0.00    -0.217 C  
HETATM   10  C   UNL     2     -11.020   8.978  69.387  1.00  0.00    -0.065 C  
HETATM   11  C   UNL     2     -10.697   8.387  68.020  1.00  0.00    -0.118 C  
ENDROOT
BRANCH  10  12
HETATM   12  O   UNL     2     -10.360  10.260  69.447  1.00  0.00    -0.208 OA 
BRANCH  12  13
HETATM   13  C   UNL     2     -11.091  11.407  69.324  1.00  0.00    -0.254 C  
HETATM   14  O   UNL     2     -10.916  12.268  68.469  1.00  0.00    -0.216 OA 
BRANCH  13  15
HETATM   15  C   UNL     2     -12.161  11.429  70.442  1.00  0.00    -0.362 C  
HETATM   16  O   UNL     2     -11.848  10.609  71.568  1.00  0.00    -0.199 OA 
HETATM   17  H   UNL     2     -12.505  10.623  72.254  1.00  0.00     0.000 HD 
BRANCH  15  18
HETATM   18  C   UNL     2     -12.437  12.857  70.865  1.00  0.00    -0.383 A  
HETATM   19  C   UNL     2     -13.302  13.081  71.954  1.00  0.00    -0.539 A  
HETATM   20  C   UNL     2     -13.640  14.361  72.343  1.00  0.00    -0.578 A  
HETATM   21  C   UNL     2     -13.130  15.456  71.660  1.00  0.00    -0.540 A  
HETATM   22  C   UNL     2     -12.271  15.266  70.575  1.00  0.00    -0.415 A  
HETATM   23  C   UNL     2     -11.932  13.973  70.174  1.00  0.00    -0.399 A  
ENDBRANCH  15  18
ENDBRANCH  13  15
ENDBRANCH  12  13
ENDBRANCH  10  12
TORSDOF 4
ENDMDL
MODEL      229
REMARK 921   NORMALIZED FREE ENERGY PREDICTED BY IDOCK:   -3.13 KCAL/MOL
REMARK 922        TOTAL FREE ENERGY PREDICTED BY IDOCK:   -4.51 KCAL/MOL
REMARK 923 INTER-LIGAND FREE ENERGY PREDICTED BY IDOCK:   -3.23 KCAL/MOL
REMARK 924 INTRA-LIGAND FREE ENERGY PREDICTED BY IDOCK:   -1.28 KCAL/MOL
REMARK 927      BINDING AFFINITY PREDICTED BY RF-SCORE:    0.00 PKD
ROOT
HETATM    1 BR   UNL     1     -10.641   9.298  69.478  1.00  0.00    -0.239 Br 
HETATM    2  C   UNL     2      -7.622   7.364  67.848  1.00  0.00    -0.114 C  
HETATM    3  N   UNL     2      -7.960   5.883  68.227  1.00  0.00    -0.108 N  
HETATM    4  C   UNL     2      -8.502   5.308  66.935  1.00  0.00    -0.106 C  
HETATM    5  C   UNL     2      -8.970   5.883  69.411  1.00  0.00    -0.121 C  
HETATM    6  C   UNL     2      -8.102   6.382  70.583  1.00  0.00    -0.113 C  
HETATM    7  C   UNL     2      -6.663   5.976  70.213  1.00  0.00    -0.049 C  
HETATM    8  C   UNL     2      -6.784   5.152  68.914  1.00  0.00    -0.050 C  
HETATM    9  C   UNL     2      -7.172   3.661  69.091  1.00  0.00    -0.049 C  
HETATM   10  C   UNL     2      -8.371   3.449  70.015  1.00  0.00    -0.051 C  
HETATM   11  C   UNL     2      -9.474   4.447  69.683  1.00  0.00    -0.252 C  
ENDROOT
BRANCH  10  12
HETATM   12  O   UNL     2      -7.986   3.703  71.383  1.00  0.00    -0.059 OA 
BRANCH  12  13
HETATM   13  C   UNL     2      -8.610   3.038  72.400  1.00  0.00    -0.075 C  
HETATM   14  O   UNL     2      -9.133   1.933  72.304  1.00  0.00    -0.071 OA 
BRANCH  13  15
HETATM   15  C   UNL     2      -8.544   3.914  73.673  1.00  0.00    -0.091 C  
HETATM   16  O   UNL     2      -7.219   4.272  74.070  1.00  0.00    -0.065 OA 
HETATM   17  H   UNL     2      -7.179   4.810  74.852  1.00  0.00     0.000 HD 
BRANCH  15  18
HETATM   18  C   UNL     2      -9.414   5.142  73.502  1.00  0.00    -0.136 A  
HETATM   19  C   UNL     2     -10.675   4.992  72.891  1.00  0.00    -0.299 A  
HETATM   20  C   UNL     2     -11.483   6.085  72.650  1.00  0.00    -0.297 A  
HETATM   21  C   UNL     2     -11.061   7.358  73.009  1.00  0.00    -0.390 A  
HETATM   22  C   UNL     2      -9.816   7.537  73.615  1.00  0.00    -0.348 A  
HETATM   23  C   UNL     2      -8.992   6.436  73.853  1.00  0.00    -0.144 A  
ENDBRANCH  15  18
ENDBRANCH  13  15
ENDBRANCH  12  13
ENDBRANCH  10  12
TORSDOF 4
ENDMDL
MODEL      230
REMARK 921   NORMALIZED FREE ENERGY PREDICTED BY IDOCK:   -3.11 KCAL/MOL
REMARK 922        TOTAL FREE ENERGY PREDICTED BY IDOCK:   -4.47 KCAL/MOL
REMARK 923 INTER-LIGAND FREE ENERGY PREDICTED BY IDOCK:   -3.36 KCAL/MOL
REMARK 924 INTRA-LIGAND FREE ENERGY PREDICTED BY IDOCK:   -1.11 KCAL/MOL
REMARK 927      BINDING AFFINITY PREDICTED BY RF-SCORE:    0.00 PKD
ROOT
HETATM    1 BR   UNL     1     -11.868   9.326  71.740  1.00  0.00    -0.443 Br 
HETATM    2  C   UNL     2      -9.617   6.126  71.280  1.00  0.00    -0.171 C  
HETATM    3  N   UNL     2      -8.395   6.716  70.500  1.00  0.00    -0.128 N  
HETATM    4  C   UNL     2      -7.322   6.824  71.564  1.00  0.00    -0.085 C  
HETATM    5  C   UNL     2      -8.810   8.072  69.860  1.00  0.00    -0.144 C  
HETATM    6  C   UNL     2      -9.784   7.626  68.750  1.00  0.00    -0.153 C  
HETATM    7  C   UNL     2      -9.346   6.195  68.388  1.00  0.00    -0.116 C  
HETATM    8  C   UNL     2      -8.066   5.932  69.209  1.00  0.00    -0.106 C  
HETATM    9  C   UNL     2      -6.750   6.497  68.614  1.00  0.00    -0.068 C  
HETATM   10  C   UNL     2      -6.858   7.958  68.179  1.00  0.00    -0.068 C  
HETATM   11  C   UNL     2      -7.576   8.775  69.247  1.00  0.00    -0.093 C  
ENDROOT
BRANCH  10  12
HETATM   12  O   UNL     2      -7.658   8.055  66.981  1.00  0.00    -0.093 OA 
BRANCH  12  13
HETATM   13  C   UNL     2      -7.297   8.922  65.990  1.00  0.00    -0.090 C  
HETATM   14  O   UNL     2      -6.144   9.150  65.637  1.00  0.00    -0.054 OA 
BRANCH  13  15
HETATM   15  C   UNL     2      -8.578   9.558  65.402  1.00  0.00    -0.155 C  
HETATM   16  O   UNL     2      -9.686   8.661  65.306  1.00  0.00    -0.352 OA 
HETATM   17  H   UNL     2     -10.473   9.052  64.945  1.00  0.00     0.000 HD 
BRANCH  15  18
HETATM   18  C   UNL     2      -8.946  10.800  66.187  1.00  0.00    -0.192 A  
HETATM   19  C   UNL     2     -10.271  10.939  66.645  1.00  0.00    -0.282 A  
HETATM   20  C   UNL     2     -10.679  12.078  67.308  1.00  0.00    -0.269 A  
HETATM   21  C   UNL     2      -9.782  13.113  67.535  1.00  0.00    -0.213 A  
HETATM   22  C   UNL     2      -8.463  13.005  67.091  1.00  0.00    -0.176 A  
HETATM   23  C   UNL     2      -8.048  11.858  66.413  1.00  0.00     0.091 A  
ENDBRANCH  15  18
ENDBRANCH  13  15
ENDBRANCH  12  13
ENDBRANCH  10  12
TORSDOF 4
ENDMDL
MODEL      231
REMARK 921   NORMALIZED FREE ENERGY PREDICTED BY IDOCK:   -3.10 KCAL/MOL
REMARK 922        TOTAL FREE ENERGY PREDICTED BY IDOCK:   -4.47 KCAL/MOL
REMARK 923 INTER-LIGAND FREE ENERGY PREDICTED BY IDOCK:   -3.93 KCAL/MOL
REMARK 924 INTRA-LIGAND FREE ENERGY PREDICTED BY IDOCK:   -0.53 KCAL/MOL
REMARK 927      BINDING AFFINITY PREDICTED BY RF-SCORE:    0.00 PKD
ROOT
HETATM    1 BR   UNL     1      -5.368   7.484  65.308  1.00  0.00    -0.029 Br 
HETATM    2  C   UNL     2      -7.706   5.295  67.601  1.00  0.00    -0.092 C  
HETATM    3  N   UNL     2      -9.071   6.050  67.463  1.00  0.00    -0.111 N  
HETATM    4  C   UNL     2      -9.859   5.173  66.511  1.00  0.00    -0.192 C  
HETATM    5  C   UNL     2      -8.802   7.491  66.942  1.00  0.00    -0.135 C  
HETATM    6  C   UNL     2      -8.126   8.158  68.157  1.00  0.00    -0.128 C  
HETATM    7  C   UNL     2      -8.656   7.387  69.380  1.00  0.00    -0.134 C  
HETATM    8  C   UNL     2      -9.708   6.402  68.826  1.00  0.00    -0.128 C  
HETATM    9  C   UNL     2     -11.119   6.991  68.570  1.00  0.00    -0.071 C  
HETATM   10  C   UNL     2     -11.099   8.303  67.787  1.00  0.00     0.386 C  
HETATM   11  C   UNL     2     -10.136   8.198  66.610  1.00  0.00    -0.344 C  
ENDROOT
BRANCH  10  12
HETATM   12  O   UNL     2     -10.605   9.368  68.628  1.00  0.00    -0.214 OA 
BRANCH  12  13
HETATM   13  C   UNL     2     -11.067  10.641  68.454  1.00  0.00    -0.272 C  
HETATM   14  O   UNL     2     -11.919  10.978  67.638  1.00  0.00    -0.583 OA 
BRANCH  13  15
HETATM   15  C   UNL     2     -10.334  11.570  69.451  1.00  0.00     0.121 C  
HETATM   16  O   UNL     2      -8.914  11.591  69.296  1.00  0.00    -0.369 OA 
HETATM   17  H   UNL     2      -8.464  12.161  69.908  1.00  0.00     0.000 HD 
BRANCH  15  18
HETATM   18  C   UNL     2     -10.913  12.968  69.376  1.00  0.00    -0.048 A  
HETATM   19  C   UNL     2     -10.238  13.935  68.604  1.00  0.00    -0.218 A  
HETATM   20  C   UNL     2     -10.683  15.240  68.552  1.00  0.00    -0.247 A  
HETATM   21  C   UNL     2     -11.811  15.623  69.265  1.00  0.00    -0.378 A  
HETATM   22  C   UNL     2     -12.500  14.687  70.040  1.00  0.00    -0.333 A  
HETATM   23  C   UNL     2     -12.048  13.367  70.102  1.00  0.00    -0.415 A  
ENDBRANCH  15  18
ENDBRANCH  13  15
ENDBRANCH  12  13
ENDBRANCH  10  12
TORSDOF 4
ENDMDL
MODEL      232
REMARK 921   NORMALIZED FREE ENERGY PREDICTED BY IDOCK:   -3.10 KCAL/MOL
REMARK 922        TOTAL FREE ENERGY PREDICTED BY IDOCK:   -4.46 KCAL/MOL
REMARK 923 INTER-LIGAND FREE ENERGY PREDICTED BY IDOCK:   -3.63 KCAL/MOL
REMARK 924 INTRA-LIGAND FREE ENERGY PREDICTED BY IDOCK:   -0.83 KCAL/MOL
REMARK 927      BINDING AFFINITY PREDICTED BY RF-SCORE:    0.00 PKD
ROOT
HETATM    1 BR   UNL     1      -9.103   7.718  73.034  1.00  0.00    -0.301 Br 
HETATM    2  C   UNL     2      -8.393  10.087  69.968  1.00  0.00    -0.111 C  
HETATM    3  N   UNL     2      -9.228   9.393  68.840  1.00  0.00    -0.138 N  
HETATM    4  C   UNL     2     -10.454  10.276  68.723  1.00  0.00    -0.203 C  
HETATM    5  C   UNL     2      -9.526   7.925  69.261  1.00  0.00    -0.152 C  
HETATM    6  C   UNL     2      -8.136   7.267  69.157  1.00  0.00    -0.121 C  
HETATM    7  C   UNL     2      -7.377   8.100  68.107  1.00  0.00    -0.096 C  
HETATM    8  C   UNL     2      -8.404   9.115  67.563  1.00  0.00    -0.116 C  
HETATM    9  C   UNL     2      -9.365   8.586  66.466  1.00  0.00    -0.260 C  
HETATM   10  C   UNL     2     -10.017   7.250  66.822  1.00  0.00    -0.217 C  
HETATM   11  C   UNL     2     -10.510   7.272  68.264  1.00  0.00    -0.239 C  
ENDROOT
BRANCH  10  12
HETATM   12  O   UNL     2      -9.040   6.191  66.737  1.00  0.00    -0.125 OA 
BRANCH  12  13
HETATM   13  C   UNL     2      -9.054   5.336  65.673  1.00  0.00    -0.153 C  
HETATM   14  O   UNL     2      -8.526   5.552  64.586  1.00  0.00    -0.140 OA 
BRANCH  13  15
HETATM   15  C   UNL     2      -9.844   4.067  66.071  1.00  0.00    -0.166 C  
HETATM   16  O   UNL     2     -10.123   3.185  64.982  1.00  0.00    -0.377 OA 
HETATM   17  H   UNL     2     -10.608   2.406  65.226  1.00  0.00     0.000 HD 
BRANCH  15  18
HETATM   18  C   UNL     2      -9.128   3.342  67.192  1.00  0.00    -0.196 A  
HETATM   19  C   UNL     2      -8.160   2.374  66.856  1.00  0.00    -0.081 A  
HETATM   20  C   UNL     2      -7.523   1.637  67.833  1.00  0.00    -0.053 A  
HETATM   21  C   UNL     2      -7.829   1.840  69.172  1.00  0.00    -0.052 A  
HETATM   22  C   UNL     2      -8.784   2.791  69.535  1.00  0.00    -0.131 A  
HETATM   23  C   UNL     2      -9.437   3.533  68.549  1.00  0.00    -0.207 A  
ENDBRANCH  15  18
ENDBRANCH  13  15
ENDBRANCH  12  13
ENDBRANCH  10  12
TORSDOF 4
ENDMDL
MODEL      233
REMARK 921   NORMALIZED FREE ENERGY PREDICTED BY IDOCK:   -3.09 KCAL/MOL
REMARK 922        TOTAL FREE ENERGY PREDICTED BY IDOCK:   -4.45 KCAL/MOL
REMARK 923 INTER-LIGAND FREE ENERGY PREDICTED BY IDOCK:   -3.95 KCAL/MOL
REMARK 924 INTRA-LIGAND FREE ENERGY PREDICTED BY IDOCK:   -0.50 KCAL/MOL
REMARK 927      BINDING AFFINITY PREDICTED BY RF-SCORE:    0.00 PKD
ROOT
HETATM    1 BR   UNL     1      -7.122   7.408  62.976  1.00  0.00    -0.079 Br 
HETATM    2  C   UNL     2      -7.673   4.666  65.749  1.00  0.00    -0.094 C  
HETATM    3  N   UNL     2      -8.811   5.316  66.606  1.00  0.00    -0.113 N  
HETATM    4  C   UNL     2     -10.049   4.554  66.177  1.00  0.00    -0.258 C  
HETATM    5  C   UNL     2      -8.857   6.843  66.312  1.00  0.00    -0.148 C  
HETATM    6  C   UNL     2      -7.557   7.343  66.973  1.00  0.00    -0.106 C  
HETATM    7  C   UNL     2      -7.266   6.330  68.097  1.00  0.00    -0.084 C  
HETATM    8  C   UNL     2      -8.476   5.371  68.114  1.00  0.00    -0.097 C  
HETATM    9  C   UNL     2      -9.729   5.875  68.876  1.00  0.00    -0.168 C  
HETATM   10  C   UNL     2     -10.136   7.300  68.504  1.00  0.00    -0.172 C  
HETATM   11  C   UNL     2     -10.090   7.482  66.991  1.00  0.00    -0.332 C  
ENDROOT
BRANCH  10  12
HETATM   12  O   UNL     2      -9.192   8.240  69.059  1.00  0.00    -0.147 OA 
BRANCH  12  13
HETATM   13  C   UNL     2      -9.642   9.388  69.646  1.00  0.00    -0.188 C  
HETATM   14  O   UNL     2      -9.465   9.698  70.820  1.00  0.00    -0.219 OA 
BRANCH  13  15
HETATM   15  C   UNL     2     -10.406  10.216  68.586  1.00  0.00    -0.188 C  
HETATM   16  O   UNL     2     -11.738  10.568  68.966  1.00  0.00    -0.433 OA 
HETATM   17  H   UNL     2     -12.207  11.076  68.315  1.00  0.00     0.000 HD 
BRANCH  15  18
HETATM   18  C   UNL     2      -9.602  11.443  68.210  1.00  0.00    -0.192 A  
HETATM   19  C   UNL     2     -10.276  12.673  68.076  1.00  0.00    -0.230 A  
HETATM   20  C   UNL     2      -9.607  13.811  67.672  1.00  0.00    -0.219 A  
HETATM   21  C   UNL     2      -8.249  13.759  67.390  1.00  0.00    -0.194 A  
HETATM   22  C   UNL     2      -7.554  12.554  67.514  1.00  0.00    -0.156 A  
HETATM   23  C   UNL     2      -8.229  11.399  67.914  1.00  0.00    -0.132 A  
ENDBRANCH  15  18
ENDBRANCH  13  15
ENDBRANCH  12  13
ENDBRANCH  10  12
TORSDOF 4
ENDMDL
MODEL      234
REMARK 921   NORMALIZED FREE ENERGY PREDICTED BY IDOCK:   -3.08 KCAL/MOL
REMARK 922        TOTAL FREE ENERGY PREDICTED BY IDOCK:   -4.44 KCAL/MOL
REMARK 923 INTER-LIGAND FREE ENERGY PREDICTED BY IDOCK:   -3.22 KCAL/MOL
REMARK 924 INTRA-LIGAND FREE ENERGY PREDICTED BY IDOCK:   -1.22 KCAL/MOL
REMARK 927      BINDING AFFINITY PREDICTED BY RF-SCORE:    0.00 PKD
ROOT
HETATM    1 BR   UNL     1      -7.629   9.112  63.435  1.00  0.00    -0.112 Br 
HETATM    2  C   UNL     2      -7.297   5.742  65.446  1.00  0.00    -0.076 C  
HETATM    3  N   UNL     2      -8.580   5.788  66.343  1.00  0.00    -0.122 N  
HETATM    4  C   UNL     2      -9.519   4.817  65.657  1.00  0.00    -0.167 C  
HETATM    5  C   UNL     2      -9.099   7.254  66.409  1.00  0.00    -0.158 C  
HETATM    6  C   UNL     2      -8.018   7.946  67.263  1.00  0.00    -0.118 C  
HETATM    7  C   UNL     2      -7.425   6.826  68.139  1.00  0.00    -0.099 C  
HETATM    8  C   UNL     2      -8.276   5.573  67.843  1.00  0.00    -0.100 C  
HETATM    9  C   UNL     2      -9.623   5.473  68.606  1.00  0.00    -0.172 C  
HETATM   10  C   UNL     2     -10.454   6.754  68.545  1.00  0.00    -0.204 C  
HETATM   11  C   UNL     2     -10.469   7.305  67.123  1.00  0.00    -0.394 C  
ENDROOT
BRANCH  10  12
HETATM   12  O   UNL     2      -9.849   7.770  69.373  1.00  0.00    -0.171 OA 
BRANCH  12  13
HETATM   13  C   UNL     2     -10.308   7.975  70.642  1.00  0.00    -0.202 C  
HETATM   14  O   UNL     2     -11.479   7.878  70.994  1.00  0.00    -0.275 OA 
BRANCH  13  15
HETATM   15  C   UNL     2      -9.108   8.348  71.545  1.00  0.00    -0.195 C  
HETATM   16  O   UNL     2      -9.477   8.827  72.839  1.00  0.00    -0.199 OA 
HETATM   17  H   UNL     2      -8.740   9.056  73.393  1.00  0.00     0.000 HD 
BRANCH  15  18
HETATM   18  C   UNL     2      -8.153   7.177  71.646  1.00  0.00    -0.102 A  
HETATM   19  C   UNL     2      -8.664   5.925  72.041  1.00  0.00    -0.137 A  
HETATM   20  C   UNL     2      -7.830   4.839  72.213  1.00  0.00    -0.098 A  
HETATM   21  C   UNL     2      -6.464   4.966  71.998  1.00  0.00    -0.035 A  
HETATM   22  C   UNL     2      -5.929   6.195  71.608  1.00  0.00    -0.035 A  
HETATM   23  C   UNL     2      -6.768   7.298  71.440  1.00  0.00    -0.051 A  
ENDBRANCH  15  18
ENDBRANCH  13  15
ENDBRANCH  12  13
ENDBRANCH  10  12
TORSDOF 4
ENDMDL
MODEL      235
REMARK 921   NORMALIZED FREE ENERGY PREDICTED BY IDOCK:   -3.07 KCAL/MOL
REMARK 922        TOTAL FREE ENERGY PREDICTED BY IDOCK:   -4.42 KCAL/MOL
REMARK 923 INTER-LIGAND FREE ENERGY PREDICTED BY IDOCK:   -3.41 KCAL/MOL
REMARK 924 INTRA-LIGAND FREE ENERGY PREDICTED BY IDOCK:   -1.01 KCAL/MOL
REMARK 927      BINDING AFFINITY PREDICTED BY RF-SCORE:    0.00 PKD
ROOT
HETATM    1 BR   UNL     1      -6.594   2.672  67.218  1.00  0.00    -0.037 Br 
HETATM    2  C   UNL     2      -7.396   5.444  64.538  1.00  0.00    -0.063 C  
HETATM    3  N   UNL     2      -7.102   6.752  65.347  1.00  0.00    -0.062 N  
HETATM    4  C   UNL     2      -5.755   7.196  64.813  1.00  0.00    -0.033 C  
HETATM    5  C   UNL     2      -7.118   6.421  66.867  1.00  0.00    -0.073 C  
HETATM    6  C   UNL     2      -8.613   6.148  67.126  1.00  0.00    -0.103 C  
HETATM    7  C   UNL     2      -9.359   6.961  66.051  1.00  0.00    -0.026 C  
HETATM    8  C   UNL     2      -8.270   7.763  65.308  1.00  0.00    -0.140 C  
HETATM    9  C   UNL     2      -7.807   9.074  65.994  1.00  0.00    -0.102 C  
HETATM   10  C   UNL     2      -7.476   8.901  67.476  1.00  0.00    -0.085 C  
HETATM   11  C   UNL     2      -6.641   7.643  67.686  1.00  0.00    -0.062 C  
ENDROOT
BRANCH  10  12
HETATM   12  O   UNL     2      -8.692   8.718  68.232  1.00  0.00    -0.133 OA 
BRANCH  12  13
HETATM   13  C   UNL     2      -8.903   9.445  69.368  1.00  0.00    -0.159 C  
HETATM   14  O   UNL     2      -8.156   9.467  70.341  1.00  0.00    -0.163 OA 
BRANCH  13  15
HETATM   15  C   UNL     2     -10.232  10.223  69.215  1.00  0.00    -0.227 C  
HETATM   16  O   UNL     2     -10.680  10.856  70.414  1.00  0.00    -0.399 OA 
HETATM   17  H   UNL     2     -11.496  11.333  70.320  1.00  0.00     0.000 HD 
BRANCH  15  18
HETATM   18  C   UNL     2     -10.120  11.219  68.079  1.00  0.00    -0.192 A  
HETATM   19  C   UNL     2     -11.075  11.168  67.044  1.00  0.00    -0.339 A  
HETATM   20  C   UNL     2     -10.986  12.006  65.952  1.00  0.00    -0.342 A  
HETATM   21  C   UNL     2      -9.945  12.920  65.856  1.00  0.00    -0.273 A  
HETATM   22  C   UNL     2      -8.983  12.993  66.866  1.00  0.00    -0.210 A  
HETATM   23  C   UNL     2      -9.065  12.140  67.968  1.00  0.00    -0.190 A  
ENDBRANCH  15  18
ENDBRANCH  13  15
ENDBRANCH  12  13
ENDBRANCH  10  12
TORSDOF 4
ENDMDL
MODEL      236
REMARK 921   NORMALIZED FREE ENERGY PREDICTED BY IDOCK:   -3.01 KCAL/MOL
REMARK 922        TOTAL FREE ENERGY PREDICTED BY IDOCK:   -4.35 KCAL/MOL
REMARK 923 INTER-LIGAND FREE ENERGY PREDICTED BY IDOCK:   -3.12 KCAL/MOL
REMARK 924 INTRA-LIGAND FREE ENERGY PREDICTED BY IDOCK:   -1.24 KCAL/MOL
REMARK 927      BINDING AFFINITY PREDICTED BY RF-SCORE:    0.00 PKD
ROOT
HETATM    1 BR   UNL     1     -10.427   3.508  63.589  1.00  0.00    -0.275 Br 
HETATM    2  C   UNL     2      -7.216   4.863  65.424  1.00  0.00    -0.068 C  
HETATM    3  N   UNL     2      -7.761   5.092  66.874  1.00  0.00    -0.092 N  
HETATM    4  C   UNL     2      -7.209   3.909  67.643  1.00  0.00    -0.066 C  
HETATM    5  C   UNL     2      -9.314   5.165  66.825  1.00  0.00    -0.134 C  
HETATM    6  C   UNL     2      -9.557   6.512  66.116  1.00  0.00    -0.028 C  
HETATM    7  C   UNL     2      -8.310   7.359  66.433  1.00  0.00    -0.127 C  
HETATM    8  C   UNL     2      -7.470   6.512  67.411  1.00  0.00    -0.092 C  
HETATM    9  C   UNL     2      -7.901   6.569  68.900  1.00  0.00    -0.110 C  
HETATM   10  C   UNL     2      -9.401   6.361  69.108  1.00  0.00    -0.132 C  
HETATM   11  C   UNL     2      -9.894   5.195  68.259  1.00  0.00    -0.212 C  
ENDROOT
BRANCH  10  12
HETATM   12  O   UNL     2     -10.124   7.528  68.661  1.00  0.00    -0.174 OA 
BRANCH  12  13
HETATM   13  C   UNL     2     -10.416   8.526  69.546  1.00  0.00    -0.220 C  
HETATM   14  O   UNL     2     -10.483   8.393  70.764  1.00  0.00    -0.192 OA 
BRANCH  13  15
HETATM   15  C   UNL     2     -10.648   9.834  68.753  1.00  0.00    -0.219 C  
HETATM   16  O   UNL     2     -11.367  10.837  69.475  1.00  0.00    -0.243 OA 
HETATM   17  H   UNL     2     -11.509  11.639  68.988  1.00  0.00     0.000 HD 
BRANCH  15  18
HETATM   18  C   UNL     2      -9.327  10.370  68.242  1.00  0.00    -0.150 A  
HETATM   19  C   UNL     2      -8.217  10.362  69.109  1.00  0.00    -0.157 A  
HETATM   20  C   UNL     2      -7.006  10.897  68.720  1.00  0.00    -0.078 A  
HETATM   21  C   UNL     2      -6.863  11.456  67.457  1.00  0.00    -0.086 A  
HETATM   22  C   UNL     2      -7.946  11.479  66.575  1.00  0.00    -0.095 A  
HETATM   23  C   UNL     2      -9.175  10.946  66.968  1.00  0.00    -0.165 A  
ENDBRANCH  15  18
ENDBRANCH  13  15
ENDBRANCH  12  13
ENDBRANCH  10  12
TORSDOF 4
ENDMDL
MODEL      237
REMARK 921   NORMALIZED FREE ENERGY PREDICTED BY IDOCK:   -3.01 KCAL/MOL
REMARK 922        TOTAL FREE ENERGY PREDICTED BY IDOCK:   -4.35 KCAL/MOL
REMARK 923 INTER-LIGAND FREE ENERGY PREDICTED BY IDOCK:   -3.68 KCAL/MOL
REMARK 924 INTRA-LIGAND FREE ENERGY PREDICTED BY IDOCK:   -0.68 KCAL/MOL
REMARK 927      BINDING AFFINITY PREDICTED BY RF-SCORE:    0.00 PKD
ROOT
HETATM    1 BR   UNL     1      -7.992  16.188  66.620  1.00  0.00    -0.291 Br 
HETATM    2  C   UNL     2     -11.420  14.277  66.945  1.00  0.00    -0.363 C  
HETATM    3  N   UNL     2     -10.983  12.982  67.708  1.00  0.00    -0.244 N  
HETATM    4  C   UNL     2     -11.452  13.238  69.126  1.00  0.00    -0.305 C  
HETATM    5  C   UNL     2      -9.444  12.802  67.559  1.00  0.00    -0.187 C  
HETATM    6  C   UNL     2      -9.302  12.427  66.070  1.00  0.00    -0.116 C  
HETATM    7  C   UNL     2     -10.645  11.772  65.694  1.00  0.00    -0.314 C  
HETATM    8  C   UNL     2     -11.446  11.683  67.010  1.00  0.00    -0.262 C  
HETATM    9  C   UNL     2     -11.105  10.483  67.932  1.00  0.00    -0.367 C  
HETATM   10  C   UNL     2      -9.606  10.301  68.164  1.00  0.00    -0.140 C  
HETATM   11  C   UNL     2      -8.951  11.645  68.458  1.00  0.00    -0.138 C  
ENDROOT
BRANCH  10  12
HETATM   12  O   UNL     2      -8.983   9.794  66.964  1.00  0.00    -0.136 OA 
BRANCH  12  13
HETATM   13  C   UNL     2      -8.716   8.460  66.848  1.00  0.00    -0.130 C  
HETATM   14  O   UNL     2      -9.559   7.583  66.685  1.00  0.00    -0.187 OA 
BRANCH  13  15
HETATM   15  C   UNL     2      -7.187   8.252  66.960  1.00  0.00    -0.083 C  
HETATM   16  O   UNL     2      -6.410   9.329  66.434  1.00  0.00    -0.064 OA 
HETATM   17  H   UNL     2      -5.472   9.201  66.503  1.00  0.00     0.000 HD 
BRANCH  15  18
HETATM   18  C   UNL     2      -6.810   7.957  68.397  1.00  0.00    -0.071 A  
HETATM   19  C   UNL     2      -7.611   7.062  69.133  1.00  0.00    -0.100 A  
HETATM   20  C   UNL     2      -7.354   6.805  70.464  1.00  0.00    -0.081 A  
HETATM   21  C   UNL     2      -6.292   7.431  71.103  1.00  0.00    -0.036 A  
HETATM   22  C   UNL     2      -5.480   8.324  70.400  1.00  0.00    -0.022 A  
HETATM   23  C   UNL     2      -5.743   8.592  69.056  1.00  0.00    -0.039 A  
ENDBRANCH  15  18
ENDBRANCH  13  15
ENDBRANCH  12  13
ENDBRANCH  10  12
TORSDOF 4
ENDMDL
MODEL      238
REMARK 921   NORMALIZED FREE ENERGY PREDICTED BY IDOCK:   -3.00 KCAL/MOL
REMARK 922        TOTAL FREE ENERGY PREDICTED BY IDOCK:   -4.34 KCAL/MOL
REMARK 923 INTER-LIGAND FREE ENERGY PREDICTED BY IDOCK:   -3.95 KCAL/MOL
REMARK 924 INTRA-LIGAND FREE ENERGY PREDICTED BY IDOCK:   -0.39 KCAL/MOL
REMARK 927      BINDING AFFINITY PREDICTED BY RF-SCORE:    0.00 PKD
ROOT
HETATM    1 BR   UNL     1      -8.026  10.247  62.572  1.00  0.00    -0.183 Br 
HETATM    2  C   UNL     2     -11.027  11.828  64.574  1.00  0.00    -0.324 C  
HETATM    3  N   UNL     2     -10.366  12.088  65.969  1.00  0.00    -0.231 N  
HETATM    4  C   UNL     2     -10.112  13.582  65.961  1.00  0.00    -0.310 C  
HETATM    5  C   UNL     2      -9.085  11.214  66.093  1.00  0.00    -0.201 C  
HETATM    6  C   UNL     2      -9.669   9.793  66.214  1.00  0.00    -0.295 C  
HETATM    7  C   UNL     2     -11.071   9.988  66.823  1.00  0.00     0.117 C  
HETATM    8  C   UNL     2     -11.178  11.493  67.143  1.00  0.00    -0.301 C  
HETATM    9  C   UNL     2     -10.524  11.952  68.472  1.00  0.00    -0.240 C  
HETATM   10  C   UNL     2      -9.100  11.429  68.663  1.00  0.00    -0.135 C  
HETATM   11  C   UNL     2      -8.303  11.589  67.374  1.00  0.00    -0.148 C  
ENDROOT
BRANCH  10  12
HETATM   12  O   UNL     2      -9.133  10.015  68.952  1.00  0.00    -0.142 OA 
BRANCH  12  13
HETATM   13  C   UNL     2      -8.996   9.581  70.239  1.00  0.00    -0.248 C  
HETATM   14  O   UNL     2      -9.921   9.379  71.019  1.00  0.00    -0.285 OA 
BRANCH  13  15
HETATM   15  C   UNL     2      -7.490   9.393  70.537  1.00  0.00    -0.145 C  
HETATM   16  O   UNL     2      -6.851  10.553  71.075  1.00  0.00    -0.361 OA 
HETATM   17  H   UNL     2      -5.926  10.437  71.258  1.00  0.00     0.000 HD 
BRANCH  15  18
HETATM   18  C   UNL     2      -7.286   8.190  71.435  1.00  0.00    -0.074 A  
HETATM   19  C   UNL     2      -6.877   6.976  70.849  1.00  0.00    -0.054 A  
HETATM   20  C   UNL     2      -6.738   5.832  71.607  1.00  0.00    -0.055 A  
HETATM   21  C   UNL     2      -7.003   5.860  72.970  1.00  0.00    -0.077 A  
HETATM   22  C   UNL     2      -7.411   7.049  73.578  1.00  0.00    -0.086 A  
HETATM   23  C   UNL     2      -7.560   8.207  72.813  1.00  0.00    -0.171 A  
ENDBRANCH  15  18
ENDBRANCH  13  15
ENDBRANCH  12  13
ENDBRANCH  10  12
TORSDOF 4
ENDMDL
MODEL      239
REMARK 921   NORMALIZED FREE ENERGY PREDICTED BY IDOCK:   -2.97 KCAL/MOL
REMARK 922        TOTAL FREE ENERGY PREDICTED BY IDOCK:   -4.31 KCAL/MOL
REMARK 923 INTER-LIGAND FREE ENERGY PREDICTED BY IDOCK:   -3.38 KCAL/MOL
REMARK 924 INTRA-LIGAND FREE ENERGY PREDICTED BY IDOCK:   -0.93 KCAL/MOL
REMARK 927      BINDING AFFINITY PREDICTED BY RF-SCORE:    0.00 PKD
ROOT
HETATM    1 BR   UNL     1      -8.968  11.034  62.654  1.00  0.00    -0.344 Br 
HETATM    2  C   UNL     2     -10.782  12.101  65.983  1.00  0.00    -0.273 C  
HETATM    3  N   UNL     2      -9.804  11.532  67.066  1.00  0.00    -0.190 N  
HETATM    4  C   UNL     2      -9.066  12.764  67.549  1.00  0.00    -0.193 C  
HETATM    5  C   UNL     2      -8.899  10.450  66.410  1.00  0.00    -0.147 C  
HETATM    6  C   UNL     2      -9.893   9.298  66.161  1.00  0.00    -0.363 C  
HETATM    7  C   UNL     2     -10.991   9.482  67.226  1.00  0.00    -0.062 C  
HETATM    8  C   UNL     2     -10.514  10.648  68.117  1.00  0.00    -0.185 C  
HETATM    9  C   UNL     2      -9.488  10.282  69.221  1.00  0.00    -0.230 C  
HETATM   10  C   UNL     2      -8.320   9.439  68.711  1.00  0.00    -0.117 C  
HETATM   11  C   UNL     2      -7.794  10.007  67.398  1.00  0.00    -0.099 C  
ENDROOT
BRANCH  10  12
HETATM   12  O   UNL     2      -8.771   8.097  68.427  1.00  0.00    -0.133 OA 
BRANCH  12  13
HETATM   13  C   UNL     2      -8.215   7.039  69.086  1.00  0.00    -0.122 C  
HETATM   14  O   UNL     2      -8.587   6.610  70.174  1.00  0.00    -0.137 OA 
BRANCH  13  15
HETATM   15  C   UNL     2      -7.049   6.486  68.233  1.00  0.00    -0.083 C  
HETATM   16  O   UNL     2      -6.115   5.690  68.965  1.00  0.00    -0.022 OA 
HETATM   17  H   UNL     2      -5.399   5.351  68.441  1.00  0.00     0.000 HD 
BRANCH  15  18
HETATM   18  C   UNL     2      -7.594   5.730  67.039  1.00  0.00    -0.099 A  
HETATM   19  C   UNL     2      -7.599   6.370  65.784  1.00  0.00    -0.085 A  
HETATM   20  C   UNL     2      -8.143   5.755  64.674  1.00  0.00    -0.132 A  
HETATM   21  C   UNL     2      -8.699   4.487  64.780  1.00  0.00    -0.146 A  
HETATM   22  C   UNL     2      -8.709   3.829  66.012  1.00  0.00    -0.117 A  
HETATM   23  C   UNL     2      -8.167   4.451  67.138  1.00  0.00    -0.101 A  
ENDBRANCH  15  18
ENDBRANCH  13  15
ENDBRANCH  12  13
ENDBRANCH  10  12
TORSDOF 4
ENDMDL
MODEL      240
REMARK 921   NORMALIZED FREE ENERGY PREDICTED BY IDOCK:   -2.92 KCAL/MOL
REMARK 922        TOTAL FREE ENERGY PREDICTED BY IDOCK:   -4.25 KCAL/MOL
REMARK 923 INTER-LIGAND FREE ENERGY PREDICTED BY IDOCK:   -4.33 KCAL/MOL
REMARK 924 INTRA-LIGAND FREE ENERGY PREDICTED BY IDOCK:    0.08 KCAL/MOL
REMARK 927      BINDING AFFINITY PREDICTED BY RF-SCORE:    0.00 PKD
ROOT
HETATM    1 BR   UNL     1     -12.318  10.344  71.047  1.00  0.00    -0.528 Br 
HETATM    2  C   UNL     2      -9.839   7.304  70.690  1.00  0.00    -0.179 C  
HETATM    3  N   UNL     2      -8.647   7.965  69.920  1.00  0.00    -0.138 N  
HETATM    4  C   UNL     2      -7.604   8.167  71.001  1.00  0.00    -0.083 C  
HETATM    5  C   UNL     2      -9.144   9.276  69.246  1.00  0.00    -0.151 C  
HETATM    6  C   UNL     2     -10.062   8.742  68.129  1.00  0.00    -0.228 C  
HETATM    7  C   UNL     2      -9.517   7.339  67.802  1.00  0.00    -0.143 C  
HETATM    8  C   UNL     2      -8.239   7.182  68.652  1.00  0.00    -0.125 C  
HETATM    9  C   UNL     2      -6.955   7.828  68.069  1.00  0.00    -0.080 C  
HETATM   10  C   UNL     2      -7.156   9.270  67.603  1.00  0.00    -0.082 C  
HETATM   11  C   UNL     2      -7.951  10.053  68.642  1.00  0.00    -0.097 C  
ENDROOT
BRANCH  10  12
HETATM   12  O   UNL     2      -7.938   9.287  66.390  1.00  0.00    -0.106 OA 
BRANCH  12  13
HETATM   13  C   UNL     2      -7.930  10.396  65.592  1.00  0.00    -0.153 C  
HETATM   14  O   UNL     2      -7.757  10.391  64.378  1.00  0.00    -0.130 OA 
BRANCH  13  15
HETATM   15  C   UNL     2      -8.173  11.641  66.478  1.00  0.00    -0.101 C  
HETATM   16  O   UNL     2      -7.179  12.658  66.343  1.00  0.00     0.018 OA 
HETATM   17  H   UNL     2      -7.329  13.422  66.887  1.00  0.00     0.000 HD 
BRANCH  15  18
HETATM   18  C   UNL     2      -9.560  12.194  66.223  1.00  0.00    -0.246 A  
HETATM   19  C   UNL     2     -10.412  12.407  67.325  1.00  0.00    -0.237 A  
HETATM   20  C   UNL     2     -11.708  12.847  67.148  1.00  0.00    -0.437 A  
HETATM   21  C   UNL     2     -12.195  13.088  65.870  1.00  0.00    -0.493 A  
HETATM   22  C   UNL     2     -11.375  12.884  64.759  1.00  0.00    -0.349 A  
HETATM   23  C   UNL     2     -10.066  12.432  64.934  1.00  0.00    -0.259 A  
ENDBRANCH  15  18
ENDBRANCH  13  15
ENDBRANCH  12  13
ENDBRANCH  10  12
TORSDOF 4
ENDMDL
MODEL      241
REMARK 921   NORMALIZED FREE ENERGY PREDICTED BY IDOCK:   -2.91 KCAL/MOL
REMARK 922        TOTAL FREE ENERGY PREDICTED BY IDOCK:   -4.22 KCAL/MOL
REMARK 923 INTER-LIGAND FREE ENERGY PREDICTED BY IDOCK:   -3.29 KCAL/MOL
REMARK 924 INTRA-LIGAND FREE ENERGY PREDICTED BY IDOCK:   -0.94 KCAL/MOL
REMARK 927      BINDING AFFINITY PREDICTED BY RF-SCORE:    0.00 PKD
ROOT
HETATM    1 BR   UNL     1      -5.927  10.581  70.080  1.00  0.00    -0.094 Br 
HETATM    2  C   UNL     2      -9.257   8.937  71.392  1.00  0.00    -0.258 C  
HETATM    3  N   UNL     2      -9.188   7.522  70.725  1.00  0.00    -0.158 N  
HETATM    4  C   UNL     2      -8.768   6.619  71.866  1.00  0.00    -0.128 C  
HETATM    5  C   UNL     2      -8.187   7.571  69.535  1.00  0.00    -0.130 C  
HETATM    6  C   UNL     2      -8.942   8.436  68.507  1.00  0.00    -0.136 C  
HETATM    7  C   UNL     2     -10.434   8.229  68.831  1.00  0.00    -0.209 C  
HETATM    8  C   UNL     2     -10.472   7.160  69.944  1.00  0.00    -0.223 C  
HETATM    9  C   UNL     2     -10.358   5.687  69.472  1.00  0.00    -0.345 C  
HETATM   10  C   UNL     2      -9.211   5.448  68.491  1.00  0.00    -0.111 C  
HETATM   11  C   UNL     2      -7.948   6.149  68.977  1.00  0.00    -0.108 C  
ENDROOT
BRANCH  10  12
HETATM   12  O   UNL     2      -9.535   6.028  67.209  1.00  0.00    -0.112 OA 
BRANCH  12  13
HETATM   13  C   UNL     2      -9.776   5.217  66.137  1.00  0.00    -0.176 C  
HETATM   14  O   UNL     2     -10.779   4.528  65.985  1.00  0.00    -0.238 OA 
BRANCH  13  15
HETATM   15  C   UNL     2      -8.576   5.316  65.165  1.00  0.00    -0.151 C  
HETATM   16  O   UNL     2      -8.912   5.090  63.795  1.00  0.00    -0.303 OA 
HETATM   17  H   UNL     2      -8.176   5.151  63.199  1.00  0.00     0.000 HD 
BRANCH  15  18
HETATM   18  C   UNL     2      -7.875   6.647  65.344  1.00  0.00    -0.111 A  
HETATM   19  C   UNL     2      -6.640   6.670  66.022  1.00  0.00    -0.044 A  
HETATM   20  C   UNL     2      -5.988   7.860  66.271  1.00  0.00    -0.041 A  
HETATM   21  C   UNL     2      -6.544   9.062  65.854  1.00  0.00    -0.064 A  
HETATM   22  C   UNL     2      -7.767   9.070  65.180  1.00  0.00    -0.101 A  
HETATM   23  C   UNL     2      -8.434   7.869  64.934  1.00  0.00    -0.045 A  
ENDBRANCH  15  18
ENDBRANCH  13  15
ENDBRANCH  12  13
ENDBRANCH  10  12
TORSDOF 4
ENDMDL
MODEL      242
REMARK 921   NORMALIZED FREE ENERGY PREDICTED BY IDOCK:   -2.91 KCAL/MOL
REMARK 922        TOTAL FREE ENERGY PREDICTED BY IDOCK:   -4.22 KCAL/MOL
REMARK 923 INTER-LIGAND FREE ENERGY PREDICTED BY IDOCK:   -3.45 KCAL/MOL
REMARK 924 INTRA-LIGAND FREE ENERGY PREDICTED BY IDOCK:   -0.78 KCAL/MOL
REMARK 927      BINDING AFFINITY PREDICTED BY RF-SCORE:    0.00 PKD
ROOT
HETATM    1 BR   UNL     1     -12.208  12.494  64.971  1.00  0.00    -0.485 Br 
HETATM    2  C   UNL     2      -8.575  11.249  65.848  1.00  0.00    -0.096 C  
HETATM    3  N   UNL     2      -8.863   9.809  66.391  1.00  0.00    -0.144 N  
HETATM    4  C   UNL     2      -8.456   8.915  65.237  1.00  0.00    -0.169 C  
HETATM    5  C   UNL     2     -10.364   9.709  66.789  1.00  0.00    -0.222 C  
HETATM    6  C   UNL     2     -10.430  10.603  68.043  1.00  0.00    -0.228 C  
HETATM    7  C   UNL     2      -9.010  10.561  68.638  1.00  0.00    -0.162 C  
HETATM    8  C   UNL     2      -8.229   9.547  67.776  1.00  0.00    -0.114 C  
HETATM    9  C   UNL     2      -8.435   8.052  68.134  1.00  0.00    -0.123 C  
HETATM   10  C   UNL     2      -9.905   7.660  68.285  1.00  0.00    -0.166 C  
HETATM   11  C   UNL     2     -10.727   8.249  67.145  1.00  0.00    -0.240 C  
ENDROOT
BRANCH  10  12
HETATM   12  O   UNL     2     -10.437   8.217  69.506  1.00  0.00    -0.223 OA 
BRANCH  12  13
HETATM   13  C   UNL     2     -10.250   7.563  70.689  1.00  0.00    -0.202 C  
HETATM   14  O   UNL     2     -10.750   6.482  70.986  1.00  0.00    -0.228 OA 
BRANCH  13  15
HETATM   15  C   UNL     2      -9.313   8.414  71.579  1.00  0.00    -0.200 C  
HETATM   16  O   UNL     2      -9.848   8.718  72.869  1.00  0.00    -0.066 OA 
HETATM   17  H   UNL     2      -9.272   9.240  73.415  1.00  0.00     0.000 HD 
BRANCH  15  18
HETATM   18  C   UNL     2      -7.959   7.745  71.692  1.00  0.00    -0.104 A  
HETATM   19  C   UNL     2      -6.832   8.417  71.180  1.00  0.00    -0.058 A  
HETATM   20  C   UNL     2      -5.584   7.829  71.196  1.00  0.00    -0.034 A  
HETATM   21  C   UNL     2      -5.420   6.554  71.721  1.00  0.00    -0.028 A  
HETATM   22  C   UNL     2      -6.519   5.862  72.235  1.00  0.00    -0.058 A  
HETATM   23  C   UNL     2      -7.784   6.451  72.213  1.00  0.00    -0.098 A  
ENDBRANCH  15  18
ENDBRANCH  13  15
ENDBRANCH  12  13
ENDBRANCH  10  12
TORSDOF 4
ENDMDL
MODEL      243
REMARK 921   NORMALIZED FREE ENERGY PREDICTED BY IDOCK:   -2.90 KCAL/MOL
REMARK 922        TOTAL FREE ENERGY PREDICTED BY IDOCK:   -4.22 KCAL/MOL
REMARK 923 INTER-LIGAND FREE ENERGY PREDICTED BY IDOCK:   -3.58 KCAL/MOL
REMARK 924 INTRA-LIGAND FREE ENERGY PREDICTED BY IDOCK:   -0.63 KCAL/MOL
REMARK 927      BINDING AFFINITY PREDICTED BY RF-SCORE:    0.00 PKD
ROOT
HETATM    1 BR   UNL     1      -9.530   4.597  71.571  1.00  0.00    -0.226 Br 
HETATM    2  C   UNL     2      -9.455   3.421  67.812  1.00  0.00    -0.176 C  
HETATM    3  N   UNL     2      -8.650   4.583  67.139  1.00  0.00    -0.104 N  
HETATM    4  C   UNL     2      -7.275   3.980  66.934  1.00  0.00    -0.068 C  
HETATM    5  C   UNL     2      -8.679   5.826  68.074  1.00  0.00    -0.103 C  
HETATM    6  C   UNL     2     -10.149   6.279  67.971  1.00  0.00    -0.174 C  
HETATM    7  C   UNL     2     -10.623   5.785  66.591  1.00  0.00    -0.347 C  
HETATM    8  C   UNL     2      -9.372   5.187  65.913  1.00  0.00    -0.159 C  
HETATM    9  C   UNL     2      -8.417   6.204  65.235  1.00  0.00    -0.121 C  
HETATM   10  C   UNL     2      -8.068   7.398  66.123  1.00  0.00    -0.117 C  
HETATM   11  C   UNL     2      -7.735   6.925  67.533  1.00  0.00    -0.111 C  
ENDROOT
BRANCH  10  12
HETATM   12  O   UNL     2      -9.212   8.270  66.242  1.00  0.00    -0.181 OA 
BRANCH  12  13
HETATM   13  C   UNL     2      -9.242   9.449  65.554  1.00  0.00    -0.232 C  
HETATM   14  O   UNL     2     -10.251   9.975  65.097  1.00  0.00    -0.288 OA 
BRANCH  13  15
HETATM   15  C   UNL     2      -7.798   9.996  65.453  1.00  0.00    -0.136 C  
HETATM   16  O   UNL     2      -7.498  10.628  64.207  1.00  0.00    -0.347 OA 
HETATM   17  H   UNL     2      -6.611  10.963  64.145  1.00  0.00     0.000 HD 
BRANCH  15  18
HETATM   18  C   UNL     2      -7.512  10.921  66.618  1.00  0.00    -0.139 A  
HETATM   19  C   UNL     2      -8.458  11.915  66.935  1.00  0.00    -0.174 A  
HETATM   20  C   UNL     2      -8.222  12.826  67.944  1.00  0.00    -0.168 A  
HETATM   21  C   UNL     2      -7.037  12.777  68.666  1.00  0.00    -0.100 A  
HETATM   22  C   UNL     2      -6.079  11.803  68.373  1.00  0.00    -0.049 A  
HETATM   23  C   UNL     2      -6.312  10.884  67.348  1.00  0.00    -0.064 A  
ENDBRANCH  15  18
ENDBRANCH  13  15
ENDBRANCH  12  13
ENDBRANCH  10  12
TORSDOF 4
ENDMDL
MODEL      244
REMARK 921   NORMALIZED FREE ENERGY PREDICTED BY IDOCK:   -2.89 KCAL/MOL
REMARK 922        TOTAL FREE ENERGY PREDICTED BY IDOCK:   -4.21 KCAL/MOL
REMARK 923 INTER-LIGAND FREE ENERGY PREDICTED BY IDOCK:   -4.09 KCAL/MOL
REMARK 924 INTRA-LIGAND FREE ENERGY PREDICTED BY IDOCK:   -0.11 KCAL/MOL
REMARK 927      BINDING AFFINITY PREDICTED BY RF-SCORE:    0.00 PKD
ROOT
HETATM    1 BR   UNL     1     -10.956  15.412  71.833  1.00  0.00     0.239 Br 
HETATM    2  C   UNL     2      -7.533  14.899  69.953  1.00  0.00     0.015 C  
HETATM    3  N   UNL     2      -7.624  15.995  68.838  1.00  0.00    -0.178 N  
HETATM    4  C   UNL     2      -6.715  17.092  69.354  1.00  0.00    -0.208 C  
HETATM    5  C   UNL     2      -9.112  16.416  68.663  1.00  0.00    -0.233 C  
HETATM    6  C   UNL     2      -9.732  15.165  68.011  1.00  0.00    -0.209 C  
HETATM    7  C   UNL     2      -8.566  14.483  67.269  1.00  0.00    -0.231 C  
HETATM    8  C   UNL     2      -7.363  15.437  67.421  1.00  0.00    -0.213 C  
HETATM    9  C   UNL     2      -7.314  16.628  66.428  1.00  0.00    -0.216 C  
HETATM   10  C   UNL     2      -8.635  17.389  66.323  1.00  0.00    -0.211 C  
HETATM   11  C   UNL     2      -9.215  17.631  67.712  1.00  0.00    -0.251 C  
ENDROOT
BRANCH  10  12
HETATM   12  O   UNL     2      -9.603  16.592  65.607  1.00  0.00    -0.511 OA 
BRANCH  12  13
HETATM   13  C   UNL     2     -10.909  16.988  65.561  1.00  0.00    -0.069 C  
HETATM   14  O   UNL     2     -11.386  17.923  66.195  1.00  0.00     0.674 OA 
BRANCH  13  15
HETATM   15  C   UNL     2     -11.670  16.061  64.584  1.00  0.00    -0.073 C  
HETATM   16  O   UNL     2     -11.303  16.227  63.213  1.00  0.00    -0.205 OA 
HETATM   17  H   UNL     2     -11.770  15.657  62.614  1.00  0.00     0.000 HD 
BRANCH  15  18
HETATM   18  C   UNL     2     -11.521  14.617  65.019  1.00  0.00    -0.386 A  
HETATM   19  C   UNL     2     -10.772  13.744  64.206  1.00  0.00    -0.217 A  
HETATM   20  C   UNL     2     -10.657  12.405  64.518  1.00  0.00    -0.352 A  
HETATM   21  C   UNL     2     -11.283  11.894  65.647  1.00  0.00    -0.360 A  
HETATM   22  C   UNL     2     -12.034  12.736  66.471  1.00  0.00    -0.428 A  
HETATM   23  C   UNL     2     -12.159  14.089  66.155  1.00  0.00    -0.471 A  
ENDBRANCH  15  18
ENDBRANCH  13  15
ENDBRANCH  12  13
ENDBRANCH  10  12
TORSDOF 4
ENDMDL
MODEL      245
REMARK 921   NORMALIZED FREE ENERGY PREDICTED BY IDOCK:   -2.89 KCAL/MOL
REMARK 922        TOTAL FREE ENERGY PREDICTED BY IDOCK:   -4.20 KCAL/MOL
REMARK 923 INTER-LIGAND FREE ENERGY PREDICTED BY IDOCK:   -3.27 KCAL/MOL
REMARK 924 INTRA-LIGAND FREE ENERGY PREDICTED BY IDOCK:   -0.93 KCAL/MOL
REMARK 927      BINDING AFFINITY PREDICTED BY RF-SCORE:    0.00 PKD
ROOT
HETATM    1 BR   UNL     1      -6.641   4.853  71.514  1.00  0.00    -0.036 Br 
HETATM    2  C   UNL     2      -9.303   3.583  68.904  1.00  0.00    -0.168 C  
HETATM    3  N   UNL     2      -8.668   4.060  67.555  1.00  0.00    -0.101 N  
HETATM    4  C   UNL     2      -8.086   2.787  66.975  1.00  0.00    -0.076 C  
HETATM    5  C   UNL     2      -7.622   5.173  67.854  1.00  0.00    -0.084 C  
HETATM    6  C   UNL     2      -8.514   6.353  68.287  1.00  0.00    -0.115 C  
HETATM    7  C   UNL     2      -9.864   6.111  67.585  1.00  0.00    -0.131 C  
HETATM    8  C   UNL     2      -9.646   4.878  66.682  1.00  0.00    -0.163 C  
HETATM    9  C   UNL     2      -8.970   5.152  65.313  1.00  0.00    -0.144 C  
HETATM   10  C   UNL     2      -7.711   6.011  65.418  1.00  0.00    -0.091 C  
HETATM   11  C   UNL     2      -6.838   5.529  66.570  1.00  0.00    -0.059 C  
ENDROOT
BRANCH  10  12
HETATM   12  O   UNL     2      -8.074   7.376  65.720  1.00  0.00    -0.114 OA 
BRANCH  12  13
HETATM   13  C   UNL     2      -8.030   8.324  64.738  1.00  0.00    -0.146 C  
HETATM   14  O   UNL     2      -8.252   8.120  63.549  1.00  0.00    -0.140 OA 
BRANCH  13  15
HETATM   15  C   UNL     2      -7.655   9.680  65.381  1.00  0.00    -0.111 C  
HETATM   16  O   UNL     2      -7.643  10.778  64.466  1.00  0.00    -0.352 OA 
HETATM   17  H   UNL     2      -7.413  11.610  64.860  1.00  0.00     0.000 HD 
BRANCH  15  18
HETATM   18  C   UNL     2      -8.562   9.962  66.561  1.00  0.00    -0.131 A  
HETATM   19  C   UNL     2      -9.930   9.644  66.448  1.00  0.00    -0.323 A  
HETATM   20  C   UNL     2     -10.815   9.938  67.465  1.00  0.00    -0.307 A  
HETATM   21  C   UNL     2     -10.366  10.557  68.624  1.00  0.00    -0.201 A  
HETATM   22  C   UNL     2      -9.016  10.885  68.764  1.00  0.00    -0.166 A  
HETATM   23  C   UNL     2      -8.119  10.597  67.734  1.00  0.00    -0.111 A  
ENDBRANCH  15  18
ENDBRANCH  13  15
ENDBRANCH  12  13
ENDBRANCH  10  12
TORSDOF 4
ENDMDL
MODEL      246
REMARK 921   NORMALIZED FREE ENERGY PREDICTED BY IDOCK:   -2.88 KCAL/MOL
REMARK 922        TOTAL FREE ENERGY PREDICTED BY IDOCK:   -4.19 KCAL/MOL
REMARK 923 INTER-LIGAND FREE ENERGY PREDICTED BY IDOCK:   -4.32 KCAL/MOL
REMARK 924 INTRA-LIGAND FREE ENERGY PREDICTED BY IDOCK:    0.13 KCAL/MOL
REMARK 927      BINDING AFFINITY PREDICTED BY RF-SCORE:    0.00 PKD
ROOT
HETATM    1 BR   UNL     1     -10.217   9.024  70.789  1.00  0.00    -0.334 Br 
HETATM    2  C   UNL     2      -7.940   9.047  67.575  1.00  0.00    -0.101 C  
HETATM    3  N   UNL     2      -6.905  10.166  67.936  1.00  0.00    -0.074 N  
HETATM    4  C   UNL     2      -5.665   9.383  68.317  1.00  0.00    -0.037 C  
HETATM    5  C   UNL     2      -7.490  11.047  69.077  1.00  0.00    -0.129 C  
HETATM    6  C   UNL     2      -8.625  11.803  68.357  1.00  0.00    -0.156 C  
HETATM    7  C   UNL     2      -8.194  11.857  66.879  1.00  0.00    -0.157 C  
HETATM    8  C   UNL     2      -6.777  11.247  66.838  1.00  0.00    -0.135 C  
HETATM    9  C   UNL     2      -5.616  12.201  67.224  1.00  0.00    -0.135 C  
HETATM   10  C   UNL     2      -5.868  12.972  68.520  1.00  0.00    -0.075 C  
HETATM   11  C   UNL     2      -6.420  12.038  69.590  1.00  0.00    -0.088 C  
ENDROOT
BRANCH  10  12
HETATM   12  O   UNL     2      -6.873  13.985  68.299  1.00  0.00    -0.086 OA 
BRANCH  12  13
HETATM   13  C   UNL     2      -7.334  14.725  69.350  1.00  0.00    -0.162 C  
HETATM   14  O   UNL     2      -6.764  14.850  70.430  1.00  0.00    -0.124 OA 
BRANCH  13  15
HETATM   15  C   UNL     2      -8.683  15.366  68.946  1.00  0.00    -0.208 C  
HETATM   16  O   UNL     2      -9.743  15.132  69.875  1.00  0.00    -0.446 OA 
HETATM   17  H   UNL     2     -10.571  15.525  69.627  1.00  0.00     0.000 HD 
BRANCH  15  18
HETATM   18  C   UNL     2      -8.496  16.847  68.691  1.00  0.00    -0.260 A  
HETATM   19  C   UNL     2      -7.186  17.365  68.665  1.00  0.00    -0.237 A  
HETATM   20  C   UNL     2      -6.958  18.716  68.502  1.00  0.00    -0.285 A  
HETATM   21  C   UNL     2      -8.025  19.592  68.361  1.00  0.00    -0.357 A  
HETATM   22  C   UNL     2      -9.335  19.109  68.385  1.00  0.00    -0.416 A  
HETATM   23  C   UNL     2      -9.570  17.743  68.557  1.00  0.00    -0.322 A  
ENDBRANCH  15  18
ENDBRANCH  13  15
ENDBRANCH  12  13
ENDBRANCH  10  12
TORSDOF 4
ENDMDL
MODEL      247
REMARK 921   NORMALIZED FREE ENERGY PREDICTED BY IDOCK:   -2.84 KCAL/MOL
REMARK 922        TOTAL FREE ENERGY PREDICTED BY IDOCK:   -4.15 KCAL/MOL
REMARK 923 INTER-LIGAND FREE ENERGY PREDICTED BY IDOCK:   -3.56 KCAL/MOL
REMARK 924 INTRA-LIGAND FREE ENERGY PREDICTED BY IDOCK:   -0.59 KCAL/MOL
REMARK 927      BINDING AFFINITY PREDICTED BY RF-SCORE:    0.00 PKD
ROOT
HETATM    1 BR   UNL     1      -6.602   2.100  64.885  1.00  0.00    -0.028 Br 
HETATM    2  C   UNL     2      -7.904   5.683  63.895  1.00  0.00    -0.112 C  
HETATM    3  N   UNL     2      -7.556   6.506  65.181  1.00  0.00    -0.084 N  
HETATM    4  C   UNL     2      -6.321   7.283  64.773  1.00  0.00    -0.037 C  
HETATM    5  C   UNL     2      -7.340   5.523  66.367  1.00  0.00    -0.079 C  
HETATM    6  C   UNL     2      -8.768   5.005  66.628  1.00  0.00    -0.108 C  
HETATM    7  C   UNL     2      -9.697   6.132  66.137  1.00  0.00    -0.040 C  
HETATM    8  C   UNL     2      -8.763   7.294  65.738  1.00  0.00    -0.109 C  
HETATM    9  C   UNL     2      -8.266   8.193  66.900  1.00  0.00    -0.111 C  
HETATM   10  C   UNL     2      -7.718   7.405  68.089  1.00  0.00    -0.120 C  
HETATM   11  C   UNL     2      -6.806   6.284  67.603  1.00  0.00    -0.069 C  
ENDROOT
BRANCH  10  12
HETATM   12  O   UNL     2      -8.804   6.771  68.798  1.00  0.00    -0.131 OA 
BRANCH  12  13
HETATM   13  C   UNL     2      -9.471   7.456  69.774  1.00  0.00    -0.159 C  
HETATM   14  O   UNL     2      -9.090   8.504  70.286  1.00  0.00    -0.146 OA 
BRANCH  13  15
HETATM   15  C   UNL     2     -10.769   6.688  70.115  1.00  0.00    -0.239 C  
HETATM   16  O   UNL     2     -11.621   6.451  68.994  1.00  0.00    -0.597 OA 
HETATM   17  H   UNL     2     -12.418   5.979  69.204  1.00  0.00     0.000 HD 
BRANCH  15  18
HETATM   18  C   UNL     2     -10.432   5.395  70.829  1.00  0.00    -0.317 A  
HETATM   19  C   UNL     2      -9.950   4.312  70.067  1.00  0.00    -0.196 A  
HETATM   20  C   UNL     2      -9.688   3.091  70.653  1.00  0.00    -0.121 A  
HETATM   21  C   UNL     2      -9.899   2.909  72.013  1.00  0.00    -0.242 A  
HETATM   22  C   UNL     2     -10.378   3.963  72.794  1.00  0.00    -0.237 A  
HETATM   23  C   UNL     2     -10.651   5.198  72.204  1.00  0.00    -0.273 A  
ENDBRANCH  15  18
ENDBRANCH  13  15
ENDBRANCH  12  13
ENDBRANCH  10  12
TORSDOF 4
ENDMDL
MODEL      248
REMARK 921   NORMALIZED FREE ENERGY PREDICTED BY IDOCK:   -2.84 KCAL/MOL
REMARK 922        TOTAL FREE ENERGY PREDICTED BY IDOCK:   -4.14 KCAL/MOL
REMARK 923 INTER-LIGAND FREE ENERGY PREDICTED BY IDOCK:   -3.70 KCAL/MOL
REMARK 924 INTRA-LIGAND FREE ENERGY PREDICTED BY IDOCK:   -0.44 KCAL/MOL
REMARK 927      BINDING AFFINITY PREDICTED BY RF-SCORE:    0.00 PKD
ROOT
HETATM    1 BR   UNL     1     -10.666   8.147  72.292  1.00  0.00    -0.408 Br 
HETATM    2  C   UNL     2     -10.598   5.353  69.517  1.00  0.00    -0.246 C  
HETATM    3  N   UNL     2      -9.427   5.851  68.604  1.00  0.00    -0.120 N  
HETATM    4  C   UNL     2      -8.279   4.938  68.982  1.00  0.00    -0.082 C  
HETATM    5  C   UNL     2      -9.173   7.360  68.885  1.00  0.00    -0.142 C  
HETATM    6  C   UNL     2     -10.428   8.022  68.280  1.00  0.00    -0.210 C  
HETATM    7  C   UNL     2     -10.897   7.053  67.178  1.00  0.00    -0.427 C  
HETATM    8  C   UNL     2      -9.822   5.947  67.113  1.00  0.00    -0.143 C  
HETATM    9  C   UNL     2      -8.551   6.285  66.290  1.00  0.00    -0.138 C  
HETATM   10  C   UNL     2      -7.948   7.647  66.634  1.00  0.00    -0.107 C  
HETATM   11  C   UNL     2      -7.901   7.836  68.146  1.00  0.00    -0.121 C  
ENDROOT
BRANCH  10  12
HETATM   12  O   UNL     2      -8.789   8.700  66.115  1.00  0.00    -0.150 OA 
BRANCH  12  13
HETATM   13  C   UNL     2      -8.229   9.870  65.691  1.00  0.00    -0.138 C  
HETATM   14  O   UNL     2      -8.304  10.317  64.551  1.00  0.00    -0.163 OA 
BRANCH  13  15
HETATM   15  C   UNL     2      -7.490  10.523  66.883  1.00  0.00    -0.110 C  
HETATM   16  O   UNL     2      -6.155  10.937  66.589  1.00  0.00    -0.077 OA 
HETATM   17  H   UNL     2      -5.702  11.338  67.321  1.00  0.00     0.000 HD 
BRANCH  15  18
HETATM   18  C   UNL     2      -8.310  11.671  67.434  1.00  0.00    -0.152 A  
HETATM   19  C   UNL     2      -9.383  11.376  68.299  1.00  0.00    -0.187 A  
HETATM   20  C   UNL     2     -10.205  12.376  68.779  1.00  0.00    -0.103 A  
HETATM   21  C   UNL     2      -9.984  13.697  68.413  1.00  0.00    -0.235 A  
HETATM   22  C   UNL     2      -8.929  14.019  67.557  1.00  0.00    -0.195 A  
HETATM   23  C   UNL     2      -8.101  13.010  67.062  1.00  0.00    -0.043 A  
ENDBRANCH  15  18
ENDBRANCH  13  15
ENDBRANCH  12  13
ENDBRANCH  10  12
TORSDOF 4
ENDMDL
MODEL      249
REMARK 921   NORMALIZED FREE ENERGY PREDICTED BY IDOCK:   -2.80 KCAL/MOL
REMARK 922        TOTAL FREE ENERGY PREDICTED BY IDOCK:   -4.09 KCAL/MOL
REMARK 923 INTER-LIGAND FREE ENERGY PREDICTED BY IDOCK:   -3.80 KCAL/MOL
REMARK 924 INTRA-LIGAND FREE ENERGY PREDICTED BY IDOCK:   -0.29 KCAL/MOL
REMARK 927      BINDING AFFINITY PREDICTED BY RF-SCORE:    0.00 PKD
ROOT
HETATM    1 BR   UNL     1     -12.248  10.211  71.047  1.00  0.00    -0.512 Br 
HETATM    2  C   UNL     2     -11.068   6.871  72.768  1.00  0.00    -0.269 C  
HETATM    3  N   UNL     2      -9.720   6.596  72.021  1.00  0.00    -0.152 N  
HETATM    4  C   UNL     2      -8.671   7.014  73.031  1.00  0.00    -0.121 C  
HETATM    5  C   UNL     2      -9.702   7.410  70.695  1.00  0.00    -0.175 C  
HETATM    6  C   UNL     2     -10.758   6.675  69.846  1.00  0.00    -0.297 C  
HETATM    7  C   UNL     2     -10.772   5.232  70.387  1.00  0.00    -0.216 C  
HETATM    8  C   UNL     2      -9.636   5.170  71.430  1.00  0.00    -0.161 C  
HETATM    9  C   UNL     2      -8.208   4.958  70.865  1.00  0.00    -0.095 C  
HETATM   10  C   UNL     2      -7.866   5.893  69.706  1.00  0.00    -0.100 C  
HETATM   11  C   UNL     2      -8.310   7.315  70.028  1.00  0.00    -0.137 C  
ENDROOT
BRANCH  10  12
HETATM   12  O   UNL     2      -8.593   5.493  68.524  1.00  0.00    -0.103 OA 
BRANCH  12  13
HETATM   13  C   UNL     2      -8.161   5.895  67.292  1.00  0.00    -0.105 C  
HETATM   14  O   UNL     2      -7.010   6.218  67.018  1.00  0.00    -0.067 OA 
BRANCH  13  15
HETATM   15  C   UNL     2      -9.363   5.872  66.318  1.00  0.00    -0.152 C  
HETATM   16  O   UNL     2      -9.654   7.136  65.719  1.00  0.00    -0.383 OA 
HETATM   17  H   UNL     2     -10.392   7.122  65.122  1.00  0.00     0.000 HD 
BRANCH  15  18
HETATM   18  C   UNL     2      -9.156   4.803  65.266  1.00  0.00    -0.155 A  
HETATM   19  C   UNL     2     -10.250   3.991  64.908  1.00  0.00    -0.211 A  
HETATM   20  C   UNL     2     -10.105   2.959  64.004  1.00  0.00    -0.142 A  
HETATM   21  C   UNL     2      -8.867   2.703  63.429  1.00  0.00    -0.085 A  
HETATM   22  C   UNL     2      -7.764   3.491  63.765  1.00  0.00    -0.079 A  
HETATM   23  C   UNL     2      -7.905   4.531  64.685  1.00  0.00    -0.086 A  
ENDBRANCH  15  18
ENDBRANCH  13  15
ENDBRANCH  12  13
ENDBRANCH  10  12
TORSDOF 4
ENDMDL
MODEL      250
REMARK 921   NORMALIZED FREE ENERGY PREDICTED BY IDOCK:   -2.80 KCAL/MOL
REMARK 922        TOTAL FREE ENERGY PREDICTED BY IDOCK:   -4.09 KCAL/MOL
REMARK 923 INTER-LIGAND FREE ENERGY PREDICTED BY IDOCK:   -3.64 KCAL/MOL
REMARK 924 INTRA-LIGAND FREE ENERGY PREDICTED BY IDOCK:   -0.45 KCAL/MOL
REMARK 927      BINDING AFFINITY PREDICTED BY RF-SCORE:    0.00 PKD
ROOT
HETATM    1 BR   UNL     1      -9.429   2.897  64.497  1.00  0.00    -0.135 Br 
HETATM    2  C   UNL     2      -7.540   2.558  67.936  1.00  0.00    -0.056 C  
HETATM    3  N   UNL     2      -8.262   3.650  68.796  1.00  0.00    -0.072 N  
HETATM    4  C   UNL     2      -9.185   2.840  69.683  1.00  0.00    -0.136 C  
HETATM    5  C   UNL     2      -8.986   4.645  67.844  1.00  0.00    -0.114 C  
HETATM    6  C   UNL     2      -7.806   5.397  67.197  1.00  0.00    -0.101 C  
HETATM    7  C   UNL     2      -6.666   5.314  68.229  1.00  0.00    -0.054 C  
HETATM    8  C   UNL     2      -7.280   4.634  69.471  1.00  0.00    -0.051 C  
HETATM    9  C   UNL     2      -8.087   5.558  70.420  1.00  0.00    -0.103 C  
HETATM   10  C   UNL     2      -9.102   6.439  69.693  1.00  0.00    -0.143 C  
HETATM   11  C   UNL     2      -9.867   5.620  68.660  1.00  0.00    -0.190 C  
ENDROOT
BRANCH  10  12
HETATM   12  O   UNL     2      -8.415   7.479  68.965  1.00  0.00    -0.131 OA 
BRANCH  12  13
HETATM   13  C   UNL     2      -7.950   8.579  69.627  1.00  0.00    -0.101 C  
HETATM   14  O   UNL     2      -6.807   8.718  70.050  1.00  0.00    -0.040 OA 
BRANCH  13  15
HETATM   15  C   UNL     2      -9.103   9.603  69.750  1.00  0.00    -0.215 C  
HETATM   16  O   UNL     2      -9.741   9.918  68.511  1.00  0.00    -0.149 OA 
HETATM   17  H   UNL     2     -10.449  10.546  68.587  1.00  0.00     0.000 HD 
BRANCH  15  18
HETATM   18  C   UNL     2     -10.109   9.128  70.778  1.00  0.00    -0.333 A  
HETATM   19  C   UNL     2      -9.636   8.699  72.034  1.00  0.00    -0.385 A  
HETATM   20  C   UNL     2     -10.499   8.195  72.985  1.00  0.00    -0.237 A  
HETATM   21  C   UNL     2     -11.858   8.101  72.716  1.00  0.00    -0.296 A  
HETATM   22  C   UNL     2     -12.356   8.517  71.480  1.00  0.00    -0.354 A  
HETATM   23  C   UNL     2     -11.485   9.020  70.512  1.00  0.00    -0.248 A  
ENDBRANCH  15  18
ENDBRANCH  13  15
ENDBRANCH  12  13
ENDBRANCH  10  12
TORSDOF 4
ENDMDL
MODEL      251
REMARK 921   NORMALIZED FREE ENERGY PREDICTED BY IDOCK:   -2.79 KCAL/MOL
REMARK 922        TOTAL FREE ENERGY PREDICTED BY IDOCK:   -4.08 KCAL/MOL
REMARK 923 INTER-LIGAND FREE ENERGY PREDICTED BY IDOCK:   -3.31 KCAL/MOL
REMARK 924 INTRA-LIGAND FREE ENERGY PREDICTED BY IDOCK:   -0.77 KCAL/MOL
REMARK 927      BINDING AFFINITY PREDICTED BY RF-SCORE:    0.00 PKD
ROOT
HETATM    1 BR   UNL     1      -5.223   8.545  64.966  1.00  0.00    -0.035 Br 
HETATM    2  C   UNL     2      -6.115   8.753  68.797  1.00  0.00    -0.045 C  
HETATM    3  N   UNL     2      -7.680   8.748  68.751  1.00  0.00    -0.095 N  
HETATM    4  C   UNL     2      -8.036   7.333  69.158  1.00  0.00    -0.121 C  
HETATM    5  C   UNL     2      -8.146   9.147  67.322  1.00  0.00    -0.106 C  
HETATM    6  C   UNL     2      -7.773  10.642  67.261  1.00  0.00    -0.108 C  
HETATM    7  C   UNL     2      -7.800  11.119  68.726  1.00  0.00    -0.142 C  
HETATM    8  C   UNL     2      -8.311   9.915  69.545  1.00  0.00    -0.168 C  
HETATM    9  C   UNL     2      -9.849   9.716  69.569  1.00  0.00    -0.219 C  
HETATM   10  C   UNL     2     -10.493   9.778  68.185  1.00  0.00    -0.216 C  
HETATM   11  C   UNL     2      -9.676   8.965  67.187  1.00  0.00    -0.241 C  
ENDROOT
BRANCH  10  12
HETATM   12  O   UNL     2     -10.491  11.139  67.704  1.00  0.00    -0.182 OA 
BRANCH  12  13
HETATM   13  C   UNL     2     -11.674  11.767  67.437  1.00  0.00    -0.230 C  
HETATM   14  O   UNL     2     -12.515  11.377  66.634  1.00  0.00     1.000 OA 
BRANCH  13  15
HETATM   15  C   UNL     2     -11.763  13.041  68.311  1.00  0.00    -0.353 C  
HETATM   16  O   UNL     2     -11.455  12.827  69.690  1.00  0.00    -0.410 OA 
HETATM   17  H   UNL     2     -11.510  13.609  70.226  1.00  0.00     0.000 HD 
BRANCH  15  18
HETATM   18  C   UNL     2     -10.899  14.135  67.721  1.00  0.00    -0.260 A  
HETATM   19  C   UNL     2     -10.323  15.081  68.592  1.00  0.00    -0.236 A  
HETATM   20  C   UNL     2      -9.581  16.137  68.105  1.00  0.00    -0.217 A  
HETATM   21  C   UNL     2      -9.388  16.284  66.737  1.00  0.00    -0.258 A  
HETATM   22  C   UNL     2      -9.947  15.362  65.850  1.00  0.00    -0.374 A  
HETATM   23  C   UNL     2     -10.706  14.297  66.338  1.00  0.00    -0.297 A  
ENDBRANCH  15  18
ENDBRANCH  13  15
ENDBRANCH  12  13
ENDBRANCH  10  12
TORSDOF 4
ENDMDL
MODEL      252
REMARK 921   NORMALIZED FREE ENERGY PREDICTED BY IDOCK:   -2.79 KCAL/MOL
REMARK 922        TOTAL FREE ENERGY PREDICTED BY IDOCK:   -4.08 KCAL/MOL
REMARK 923 INTER-LIGAND FREE ENERGY PREDICTED BY IDOCK:   -3.53 KCAL/MOL
REMARK 924 INTRA-LIGAND FREE ENERGY PREDICTED BY IDOCK:   -0.55 KCAL/MOL
REMARK 927      BINDING AFFINITY PREDICTED BY RF-SCORE:    0.00 PKD
ROOT
HETATM    1 BR   UNL     1      -6.105  10.209  67.611  1.00  0.00    -0.057 Br 
HETATM    2  C   UNL     2      -5.161  14.031  67.718  1.00  0.00     0.003 C  
HETATM    3  N   UNL     2      -6.313  14.610  68.607  1.00  0.00    -0.079 N  
HETATM    4  C   UNL     2      -5.642  14.821  69.950  1.00  0.00    -0.105 C  
HETATM    5  C   UNL     2      -7.495  13.599  68.626  1.00  0.00    -0.113 C  
HETATM    6  C   UNL     2      -8.041  13.708  67.188  1.00  0.00    -0.094 C  
HETATM    7  C   UNL     2      -7.662  15.127  66.724  1.00  0.00     0.098 C  
HETATM    8  C   UNL     2      -7.033  15.812  67.956  1.00  0.00    -0.125 C  
HETATM    9  C   UNL     2      -8.031  16.402  68.987  1.00  0.00    -0.227 C  
HETATM   10  C   UNL     2      -9.144  15.432  69.380  1.00  0.00    -0.258 C  
HETATM   11  C   UNL     2      -8.566  14.047  69.647  1.00  0.00     0.955 C  
ENDROOT
BRANCH  10  12
HETATM   12  O   UNL     2     -10.075  15.285  68.287  1.00  0.00    -0.221 OA 
BRANCH  12  13
HETATM   13  C   UNL     2     -11.382  15.643  68.453  1.00  0.00    -0.364 C  
HETATM   14  O   UNL     2     -11.807  16.794  68.429  1.00  0.00     0.173 OA 
BRANCH  13  15
HETATM   15  C   UNL     2     -12.219  14.362  68.678  1.00  0.00    -0.150 C  
HETATM   16  O   UNL     2     -11.591  13.164  68.217  1.00  0.00    -0.291 OA 
HETATM   17  H   UNL     2     -12.105  12.378  68.355  1.00  0.00     0.000 HD 
BRANCH  15  18
HETATM   18  C   UNL     2     -12.609  14.248  70.137  1.00  0.00    -0.338 A  
HETATM   19  C   UNL     2     -12.902  15.428  70.849  1.00  0.00    -0.536 A  
HETATM   20  C   UNL     2     -13.199  15.391  72.196  1.00  0.00    -0.517 A  
HETATM   21  C   UNL     2     -13.214  14.180  72.875  1.00  0.00    -0.553 A  
HETATM   22  C   UNL     2     -12.927  12.994  72.196  1.00  0.00    -0.366 A  
HETATM   23  C   UNL     2     -12.618  13.028  70.835  1.00  0.00    -0.364 A  
ENDBRANCH  15  18
ENDBRANCH  13  15
ENDBRANCH  12  13
ENDBRANCH  10  12
TORSDOF 4
ENDMDL
MODEL      253
REMARK 921   NORMALIZED FREE ENERGY PREDICTED BY IDOCK:   -2.64 KCAL/MOL
REMARK 922        TOTAL FREE ENERGY PREDICTED BY IDOCK:   -3.90 KCAL/MOL
REMARK 923 INTER-LIGAND FREE ENERGY PREDICTED BY IDOCK:   -3.03 KCAL/MOL
REMARK 924 INTRA-LIGAND FREE ENERGY PREDICTED BY IDOCK:   -0.87 KCAL/MOL
REMARK 927      BINDING AFFINITY PREDICTED BY RF-SCORE:    0.00 PKD
ROOT
HETATM    1 BR   UNL     1     -12.351  10.971  70.189  1.00  0.00    -0.373 Br 
HETATM    2  C   UNL     2      -9.421   9.756  67.853  1.00  0.00    -0.130 C  
HETATM    3  N   UNL     2      -8.342  10.861  68.108  1.00  0.00    -0.118 N  
HETATM    4  C   UNL     2      -7.352  10.176  69.029  1.00  0.00    -0.087 C  
HETATM    5  C   UNL     2      -9.035  12.113  68.719  1.00  0.00     0.118 C  
HETATM    6  C   UNL     2      -9.849  12.651  67.526  1.00  0.00    -0.203 C  
HETATM    7  C   UNL     2      -9.088  12.173  66.275  1.00  0.00    -0.141 C  
HETATM    8  C   UNL     2      -7.807  11.495  66.804  1.00  0.00    -0.146 C  
HETATM    9  C   UNL     2      -6.637  12.446  67.166  1.00  0.00    -0.092 C  
HETATM   10  C   UNL     2      -7.060  13.626  68.041  1.00  0.00    -0.132 C  
HETATM   11  C   UNL     2      -7.975  13.148  69.162  1.00  0.00     0.422 C  
ENDROOT
BRANCH  10  12
HETATM   12  O   UNL     2      -7.826  14.566  67.258  1.00  0.00    -0.192 OA 
BRANCH  12  13
HETATM   13  C   UNL     2      -8.118  15.798  67.769  1.00  0.00    -0.144 C  
HETATM   14  O   UNL     2      -7.337  16.504  68.400  1.00  0.00    -0.164 OA 
BRANCH  13  15
HETATM   15  C   UNL     2      -9.586  16.140  67.421  1.00  0.00    -0.229 C  
HETATM   16  O   UNL     2     -10.044  15.572  66.193  1.00  0.00    -0.271 OA 
HETATM   17  H   UNL     2     -10.945  15.782  65.979  1.00  0.00     0.000 HD 
BRANCH  15  18
HETATM   18  C   UNL     2     -10.493  15.757  68.572  1.00  0.00    -0.236 A  
HETATM   19  C   UNL     2     -11.844  15.468  68.296  1.00  0.00    -0.189 A  
HETATM   20  C   UNL     2     -12.731  15.178  69.312  1.00  0.00     0.259 A  
HETATM   21  C   UNL     2     -12.302  15.167  70.633  1.00  0.00    -0.420 A  
HETATM   22  C   UNL     2     -10.969  15.450  70.937  1.00  0.00    -0.330 A  
HETATM   23  C   UNL     2     -10.070  15.753  69.912  1.00  0.00    -0.232 A  
ENDBRANCH  15  18
ENDBRANCH  13  15
ENDBRANCH  12  13
ENDBRANCH  10  12
TORSDOF 4
ENDMDL
MODEL      254
REMARK 921   NORMALIZED FREE ENERGY PREDICTED BY IDOCK:   -2.53 KCAL/MOL
REMARK 922        TOTAL FREE ENERGY PREDICTED BY IDOCK:   -3.76 KCAL/MOL
REMARK 923 INTER-LIGAND FREE ENERGY PREDICTED BY IDOCK:   -2.91 KCAL/MOL
REMARK 924 INTRA-LIGAND FREE ENERGY PREDICTED BY IDOCK:   -0.84 KCAL/MOL
REMARK 927      BINDING AFFINITY PREDICTED BY RF-SCORE:    0.00 PKD
ROOT
HETATM    1 BR   UNL     1      -9.748  11.416  66.439  1.00  0.00    -0.241 Br 
HETATM    2  C   UNL     2      -6.120  11.625  67.958  1.00  0.00    -0.047 C  
HETATM    3  N   UNL     2      -6.249  12.869  68.900  1.00  0.00    -0.079 N  
HETATM    4  C   UNL     2      -6.355  12.251  70.279  1.00  0.00     0.144 C  
HETATM    5  C   UNL     2      -7.488  13.704  68.468  1.00  0.00    -0.119 C  
HETATM    6  C   UNL     2      -7.029  14.299  67.121  1.00  0.00     0.337 C  
HETATM    7  C   UNL     2      -5.493  14.364  67.218  1.00  0.00     0.614 C  
HETATM    8  C   UNL     2      -5.149  13.927  68.657  1.00  0.00    -0.089 C  
HETATM    9  C   UNL     2      -5.275  15.023  69.747  1.00  0.00    -0.091 C  
HETATM   10  C   UNL     2      -6.594  15.794  69.685  1.00  0.00    -0.182 C  
HETATM   11  C   UNL     2      -7.759  14.830  69.493  1.00  0.00    -0.068 C  
ENDROOT
BRANCH  10  12
HETATM   12  O   UNL     2      -6.594  16.672  68.540  1.00  0.00    -0.134 OA 
BRANCH  12  13
HETATM   13  C   UNL     2      -6.278  17.991  68.695  1.00  0.00    -0.206 C  
HETATM   14  O   UNL     2      -5.197  18.497  68.410  1.00  0.00    -0.170 OA 
BRANCH  13  15
HETATM   15  C   UNL     2      -7.505  18.725  69.286  1.00  0.00    -0.076 C  
HETATM   16  O   UNL     2      -7.197  19.974  69.908  1.00  0.00    -0.141 OA 
HETATM   17  H   UNL     2      -7.950  20.424  70.271  1.00  0.00     0.000 HD 
BRANCH  15  18
HETATM   18  C   UNL     2      -8.570  18.892  68.222  1.00  0.00    -0.364 A  
HETATM   19  C   UNL     2      -9.774  18.172  68.357  1.00  0.00    -0.363 A  
HETATM   20  C   UNL     2     -10.752  18.235  67.386  1.00  0.00    -0.377 A  
HETATM   21  C   UNL     2     -10.563  19.014  66.252  1.00  0.00    -0.493 A  
HETATM   22  C   UNL     2      -9.380  19.738  66.091  1.00  0.00    -0.439 A  
HETATM   23  C   UNL     2      -8.384  19.671  67.067  1.00  0.00    -0.328 A  
ENDBRANCH  15  18
ENDBRANCH  13  15
ENDBRANCH  12  13
ENDBRANCH  10  12
TORSDOF 4
ENDMDL
MODEL      255
REMARK 921   NORMALIZED FREE ENERGY PREDICTED BY IDOCK:   -2.52 KCAL/MOL
REMARK 922        TOTAL FREE ENERGY PREDICTED BY IDOCK:   -3.75 KCAL/MOL
REMARK 923 INTER-LIGAND FREE ENERGY PREDICTED BY IDOCK:   -3.12 KCAL/MOL
REMARK 924 INTRA-LIGAND FREE ENERGY PREDICTED BY IDOCK:   -0.63 KCAL/MOL
REMARK 927      BINDING AFFINITY PREDICTED BY RF-SCORE:    0.00 PKD
ROOT
HETATM    1 BR   UNL     1      -7.799  14.338  67.140  1.00  0.00     0.024 Br 
HETATM    2  C   UNL     2      -7.534  10.551  66.091  1.00  0.00    -0.136 C  
HETATM    3  N   UNL     2      -8.555   9.885  67.073  1.00  0.00    -0.128 N  
HETATM    4  C   UNL     2      -9.764   9.626  66.196  1.00  0.00    -0.252 C  
HETATM    5  C   UNL     2      -8.816  10.851  68.264  1.00  0.00    -0.140 C  
HETATM    6  C   UNL     2      -7.476  10.801  69.025  1.00  0.00    -0.118 C  
HETATM    7  C   UNL     2      -6.876   9.423  68.687  1.00  0.00    -0.061 C  
HETATM    8  C   UNL     2      -7.953   8.695  67.855  1.00  0.00    -0.107 C  
HETATM    9  C   UNL     2      -9.089   8.016  68.663  1.00  0.00    -0.140 C  
HETATM   10  C   UNL     2      -9.707   8.924  69.727  1.00  0.00    -0.175 C  
HETATM   11  C   UNL     2      -9.962  10.312  69.151  1.00  0.00    -0.235 C  
ENDROOT
BRANCH  10  12
HETATM   12  O   UNL     2      -8.781   9.097  70.821  1.00  0.00    -0.205 OA 
BRANCH  12  13
HETATM   13  C   UNL     2      -9.010   8.468  72.011  1.00  0.00    -0.231 C  
HETATM   14  O   UNL     2      -9.721   8.900  72.912  1.00  0.00    -0.005 OA 
BRANCH  13  15
HETATM   15  C   UNL     2      -8.222   7.137  72.024  1.00  0.00    -0.099 C  
HETATM   16  O   UNL     2      -6.949   7.216  72.668  1.00  0.00    -0.068 OA 
HETATM   17  H   UNL     2      -6.466   6.398  72.676  1.00  0.00     0.000 HD 
BRANCH  15  18
HETATM   18  C   UNL     2      -9.073   6.038  72.627  1.00  0.00    -0.137 A  
HETATM   19  C   UNL     2      -8.832   5.657  73.961  1.00  0.00    -0.119 A  
HETATM   20  C   UNL     2      -9.531   4.619  74.542  1.00  0.00    -0.141 A  
HETATM   21  C   UNL     2     -10.491   3.929  73.812  1.00  0.00    -0.268 A  
HETATM   22  C   UNL     2     -10.750   4.283  72.487  1.00  0.00    -0.129 A  
HETATM   23  C   UNL     2     -10.039   5.328  71.894  1.00  0.00    -0.252 A  
ENDBRANCH  15  18
ENDBRANCH  13  15
ENDBRANCH  12  13
ENDBRANCH  10  12
TORSDOF 4
ENDMDL
MODEL      256
REMARK 921   NORMALIZED FREE ENERGY PREDICTED BY IDOCK:   -2.49 KCAL/MOL
REMARK 922        TOTAL FREE ENERGY PREDICTED BY IDOCK:   -3.71 KCAL/MOL
REMARK 923 INTER-LIGAND FREE ENERGY PREDICTED BY IDOCK:   -2.73 KCAL/MOL
REMARK 924 INTRA-LIGAND FREE ENERGY PREDICTED BY IDOCK:   -0.98 KCAL/MOL
REMARK 927      BINDING AFFINITY PREDICTED BY RF-SCORE:    0.00 PKD
ROOT
HETATM    1 BR   UNL     1     -12.387  15.242  64.332  1.00  0.00     0.049 Br 
HETATM    2  C   UNL     2     -11.527  11.624  65.628  1.00  0.00    -0.105 C  
HETATM    3  N   UNL     2     -10.832  11.941  66.995  1.00  0.00    -0.246 N  
HETATM    4  C   UNL     2     -11.905  11.614  68.014  1.00  0.00    -0.225 C  
HETATM    5  C   UNL     2     -10.371  13.427  66.996  1.00  0.00    -0.247 C  
HETATM    6  C   UNL     2      -9.210  13.409  65.981  1.00  0.00     0.088 C  
HETATM    7  C   UNL     2      -8.668  11.968  66.020  1.00  0.00     0.115 C  
HETATM    8  C   UNL     2      -9.453  11.260  67.145  1.00  0.00    -0.170 C  
HETATM    9  C   UNL     2      -8.940  11.505  68.588  1.00  0.00    -0.115 C  
HETATM   10  C   UNL     2      -8.695  12.980  68.905  1.00  0.00     0.315 C  
HETATM   11  C   UNL     2      -9.857  13.827  68.398  1.00  0.00    -0.227 C  
ENDROOT
BRANCH  10  12
HETATM   12  O   UNL     2      -7.517  13.441  68.209  1.00  0.00    -0.109 OA 
BRANCH  12  13
HETATM   13  C   UNL     2      -6.425  13.849  68.919  1.00  0.00    -0.098 C  
HETATM   14  O   UNL     2      -5.390  13.205  69.055  1.00  0.00    -0.068 OA 
BRANCH  13  15
HETATM   15  C   UNL     2      -6.720  15.246  69.517  1.00  0.00    -0.172 C  
HETATM   16  O   UNL     2      -5.742  15.699  70.455  1.00  0.00    -0.156 OA 
HETATM   17  H   UNL     2      -5.924  16.556  70.822  1.00  0.00     0.000 HD 
BRANCH  15  18
HETATM   18  C   UNL     2      -6.918  16.253  68.403  1.00  0.00    -0.135 A  
HETATM   19  C   UNL     2      -8.124  16.979  68.360  1.00  0.00    -0.245 A  
HETATM   20  C   UNL     2      -8.387  17.862  67.333  1.00  0.00    -0.227 A  
HETATM   21  C   UNL     2      -7.458  18.049  66.317  1.00  0.00    -0.312 A  
HETATM   22  C   UNL     2      -6.254  17.342  66.333  1.00  0.00    -0.246 A  
HETATM   23  C   UNL     2      -5.988  16.442  67.366  1.00  0.00    -0.193 A  
ENDBRANCH  15  18
ENDBRANCH  13  15
ENDBRANCH  12  13
ENDBRANCH  10  12
TORSDOF 4
ENDMDL
MODEL      257
REMARK 921   NORMALIZED FREE ENERGY PREDICTED BY IDOCK:   -2.44 KCAL/MOL
REMARK 922        TOTAL FREE ENERGY PREDICTED BY IDOCK:   -3.65 KCAL/MOL
REMARK 923 INTER-LIGAND FREE ENERGY PREDICTED BY IDOCK:   -3.08 KCAL/MOL
REMARK 924 INTRA-LIGAND FREE ENERGY PREDICTED BY IDOCK:   -0.57 KCAL/MOL
REMARK 927      BINDING AFFINITY PREDICTED BY RF-SCORE:    0.00 PKD
ROOT
HETATM    1 BR   UNL     1     -10.390   3.519  63.639  1.00  0.00    -0.257 Br 
HETATM    2  C   UNL     2      -6.862   5.004  64.567  1.00  0.00    -0.049 C  
HETATM    3  N   UNL     2      -6.987   5.152  66.121  1.00  0.00    -0.065 N  
HETATM    4  C   UNL     2      -6.183   3.979  66.647  1.00  0.00    -0.032 C  
HETATM    5  C   UNL     2      -8.492   5.132  66.512  1.00  0.00    -0.111 C  
HETATM    6  C   UNL     2      -8.990   6.485  65.966  1.00  0.00    -0.139 C  
HETATM    7  C   UNL     2      -7.747   7.395  65.962  1.00  0.00    -0.095 C  
HETATM    8  C   UNL     2      -6.625   6.567  66.625  1.00  0.00    -0.048 C  
HETATM    9  C   UNL     2      -6.622   6.550  68.176  1.00  0.00    -0.059 C  
HETATM   10  C   UNL     2      -7.991   6.245  68.784  1.00  0.00    -0.102 C  
HETATM   11  C   UNL     2      -8.645   5.080  68.050  1.00  0.00    -0.103 C  
ENDROOT
BRANCH  10  12
HETATM   12  O   UNL     2      -8.866   7.381  68.614  1.00  0.00    -0.128 OA 
BRANCH  12  13
HETATM   13  C   UNL     2      -8.966   8.314  69.605  1.00  0.00    -0.149 C  
HETATM   14  O   UNL     2      -9.283   9.488  69.440  1.00  0.00    -0.156 OA 
BRANCH  13  15
HETATM   15  C   UNL     2      -8.613   7.642  70.953  1.00  0.00    -0.129 C  
HETATM   16  O   UNL     2      -8.097   8.539  71.937  1.00  0.00    -0.137 OA 
HETATM   17  H   UNL     2      -7.880   8.126  72.765  1.00  0.00     0.000 HD 
BRANCH  15  18
HETATM   18  C   UNL     2      -9.812   6.882  71.481  1.00  0.00    -0.175 A  
HETATM   19  C   UNL     2     -11.081   7.490  71.406  1.00  0.00    -0.262 A  
HETATM   20  C   UNL     2     -12.198   6.873  71.930  1.00  0.00    -0.370 A  
HETATM   21  C   UNL     2     -12.087   5.633  72.545  1.00  0.00    -0.048 A  
HETATM   22  C   UNL     2     -10.842   5.006  72.636  1.00  0.00    -0.286 A  
HETATM   23  C   UNL     2      -9.708   5.631  72.114  1.00  0.00    -0.178 A  
ENDBRANCH  15  18
ENDBRANCH  13  15
ENDBRANCH  12  13
ENDBRANCH  10  12
TORSDOF 4
ENDMDL
MODEL      258
REMARK 921   NORMALIZED FREE ENERGY PREDICTED BY IDOCK:   -2.37 KCAL/MOL
REMARK 922        TOTAL FREE ENERGY PREDICTED BY IDOCK:   -3.57 KCAL/MOL
REMARK 923 INTER-LIGAND FREE ENERGY PREDICTED BY IDOCK:   -3.05 KCAL/MOL
REMARK 924 INTRA-LIGAND FREE ENERGY PREDICTED BY IDOCK:   -0.52 KCAL/MOL
REMARK 927      BINDING AFFINITY PREDICTED BY RF-SCORE:    0.00 PKD
ROOT
HETATM    1 BR   UNL     1     -10.140   3.591  63.038  1.00  0.00    -0.180 Br 
HETATM    2  C   UNL     2      -6.479   5.023  62.792  1.00  0.00    -0.026 C  
HETATM    3  N   UNL     2      -6.423   5.951  64.052  1.00  0.00    -0.032 N  
HETATM    4  C   UNL     2      -5.608   5.143  65.042  1.00  0.00    -0.014 C  
HETATM    5  C   UNL     2      -7.875   6.266  64.513  1.00  0.00    -0.115 C  
HETATM    6  C   UNL     2      -8.382   7.191  63.388  1.00  0.00     0.200 C  
HETATM    7  C   UNL     2      -7.115   7.858  62.819  1.00  0.00    -0.087 C  
HETATM    8  C   UNL     2      -5.957   7.387  63.724  1.00  0.00    -0.048 C  
HETATM    9  C   UNL     2      -5.780   8.161  65.057  1.00  0.00    -0.044 C  
HETATM   10  C   UNL     2      -7.082   8.330  65.839  1.00  0.00    -0.071 C  
HETATM   11  C   UNL     2      -7.856   7.017  65.864  1.00  0.00    -0.106 C  
ENDROOT
BRANCH  10  12
HETATM   12  O   UNL     2      -7.929   9.294  65.178  1.00  0.00    -0.109 OA 
BRANCH  12  13
HETATM   13  C   UNL     2      -8.112  10.530  65.729  1.00  0.00    -0.158 C  
HETATM   14  O   UNL     2      -7.386  11.040  66.577  1.00  0.00    -0.138 OA 
BRANCH  13  15
HETATM   15  C   UNL     2      -9.380  11.163  65.108  1.00  0.00    -0.213 C  
HETATM   16  O   UNL     2     -10.379  10.217  64.726  1.00  0.00    -0.259 OA 
HETATM   17  H   UNL     2     -11.157  10.605  64.345  1.00  0.00     0.000 HD 
BRANCH  15  18
HETATM   18  C   UNL     2      -9.947  12.209  66.045  1.00  0.00    -0.257 A  
HETATM   19  C   UNL     2     -10.595  11.779  67.220  1.00  0.00    -0.259 A  
HETATM   20  C   UNL     2     -11.187  12.684  68.077  1.00  0.00    -0.308 A  
HETATM   21  C   UNL     2     -11.154  14.042  67.792  1.00  0.00    -0.284 A  
HETATM   22  C   UNL     2     -10.520  14.498  66.634  1.00  0.00    -0.274 A  
HETATM   23  C   UNL     2      -9.926  13.585  65.760  1.00  0.00    -0.266 A  
ENDBRANCH  15  18
ENDBRANCH  13  15
ENDBRANCH  12  13
ENDBRANCH  10  12
TORSDOF 4
ENDMDL
MODEL      259
REMARK 921   NORMALIZED FREE ENERGY PREDICTED BY IDOCK:   -2.37 KCAL/MOL
REMARK 922        TOTAL FREE ENERGY PREDICTED BY IDOCK:   -3.56 KCAL/MOL
REMARK 923 INTER-LIGAND FREE ENERGY PREDICTED BY IDOCK:   -2.89 KCAL/MOL
REMARK 924 INTRA-LIGAND FREE ENERGY PREDICTED BY IDOCK:   -0.67 KCAL/MOL
REMARK 927      BINDING AFFINITY PREDICTED BY RF-SCORE:    0.00 PKD
ROOT
HETATM    1 BR   UNL     1      -6.088   7.128  72.460  1.00  0.00    -0.040 Br 
HETATM    2  C   UNL     2      -9.510   6.048  70.835  1.00  0.00    -0.168 C  
HETATM    3  N   UNL     2      -9.026   5.408  69.491  1.00  0.00    -0.104 N  
HETATM    4  C   UNL     2      -9.143   3.920  69.752  1.00  0.00    -0.120 C  
HETATM    5  C   UNL     2      -7.582   5.900  69.186  1.00  0.00    -0.090 C  
HETATM    6  C   UNL     2      -7.810   7.384  68.835  1.00  0.00    -0.117 C  
HETATM    7  C   UNL     2      -9.254   7.451  68.304  1.00  0.00    -0.137 C  
HETATM    8  C   UNL     2      -9.745   5.989  68.252  1.00  0.00    -0.124 C  
HETATM    9  C   UNL     2      -9.312   5.172  67.007  1.00  0.00    -0.127 C  
HETATM   10  C   UNL     2      -7.820   5.284  66.694  1.00  0.00    -0.100 C  
HETATM   11  C   UNL     2      -7.002   5.139  67.972  1.00  0.00    -0.061 C  
ENDROOT
BRANCH  10  12
HETATM   12  O   UNL     2      -7.528   6.595  66.165  1.00  0.00    -0.078 OA 
BRANCH  12  13
HETATM   13  C   UNL     2      -7.575   6.810  64.818  1.00  0.00    -0.104 C  
HETATM   14  O   UNL     2      -8.132   6.080  64.004  1.00  0.00    -0.120 OA 
BRANCH  13  15
HETATM   15  C   UNL     2      -6.811   8.118  64.501  1.00  0.00    -0.068 C  
HETATM   16  O   UNL     2      -5.918   8.020  63.391  1.00  0.00    -0.065 OA 
HETATM   17  H   UNL     2      -5.449   8.823  63.197  1.00  0.00     0.000 HD 
BRANCH  15  18
HETATM   18  C   UNL     2      -7.791   9.258  64.316  1.00  0.00    -0.125 A  
HETATM   19  C   UNL     2      -8.643   9.594  65.387  1.00  0.00    -0.167 A  
HETATM   20  C   UNL     2      -9.600  10.579  65.253  1.00  0.00    -0.303 A  
HETATM   21  C   UNL     2      -9.739  11.259  64.050  1.00  0.00    -0.301 A  
HETATM   22  C   UNL     2      -8.910  10.947  62.971  1.00  0.00    -0.224 A  
HETATM   23  C   UNL     2      -7.946   9.945  63.099  1.00  0.00    -0.145 A  
ENDBRANCH  15  18
ENDBRANCH  13  15
ENDBRANCH  12  13
ENDBRANCH  10  12
TORSDOF 4
ENDMDL
MODEL      260
REMARK 921   NORMALIZED FREE ENERGY PREDICTED BY IDOCK:   -2.35 KCAL/MOL
REMARK 922        TOTAL FREE ENERGY PREDICTED BY IDOCK:   -3.54 KCAL/MOL
REMARK 923 INTER-LIGAND FREE ENERGY PREDICTED BY IDOCK:   -3.58 KCAL/MOL
REMARK 924 INTRA-LIGAND FREE ENERGY PREDICTED BY IDOCK:    0.04 KCAL/MOL
REMARK 927      BINDING AFFINITY PREDICTED BY RF-SCORE:    0.00 PKD
ROOT
HETATM    1 BR   UNL     1      -8.941   1.938  68.864  1.00  0.00    -0.173 Br 
HETATM    2  C   UNL     2      -8.844   4.365  71.966  1.00  0.00    -0.117 C  
HETATM    3  N   UNL     2      -9.721   5.557  71.455  1.00  0.00    -0.154 N  
HETATM    4  C   UNL     2     -11.041   5.348  72.170  1.00  0.00    -0.168 C  
HETATM    5  C   UNL     2      -9.808   5.492  69.903  1.00  0.00    -0.194 C  
HETATM    6  C   UNL     2      -8.375   5.872  69.479  1.00  0.00    -0.114 C  
HETATM    7  C   UNL     2      -7.836   6.741  70.631  1.00  0.00    -0.105 C  
HETATM    8  C   UNL     2      -9.022   6.927  71.600  1.00  0.00    -0.135 C  
HETATM    9  C   UNL     2     -10.038   8.037  71.223  1.00  0.00    -0.222 C  
HETATM   10  C   UNL     2     -10.496   7.973  69.767  1.00  0.00    -0.227 C  
HETATM   11  C   UNL     2     -10.822   6.536  69.380  1.00  0.00    -0.363 C  
ENDROOT
BRANCH  10  12
HETATM   12  O   UNL     2      -9.426   8.400  68.897  1.00  0.00    -0.147 OA 
BRANCH  12  13
HETATM   13  C   UNL     2      -9.623   8.440  67.546  1.00  0.00    -0.154 C  
HETATM   14  O   UNL     2     -10.034   7.507  66.864  1.00  0.00    -0.206 OA 
BRANCH  13  15
HETATM   15  C   UNL     2      -9.238   9.849  67.035  1.00  0.00    -0.142 C  
HETATM   16  O   UNL     2      -8.641  10.688  68.025  1.00  0.00    -0.118 OA 
HETATM   17  H   UNL     2      -8.405  11.553  67.711  1.00  0.00     0.000 HD 
BRANCH  15  18
HETATM   18  C   UNL     2      -8.352   9.731  65.812  1.00  0.00    -0.132 A  
HETATM   19  C   UNL     2      -8.955   9.764  64.539  1.00  0.00    -0.278 A  
HETATM   20  C   UNL     2      -8.207   9.595  63.392  1.00  0.00    -0.160 A  
HETATM   21  C   UNL     2      -6.836   9.389  63.477  1.00  0.00    -0.098 A  
HETATM   22  C   UNL     2      -6.211   9.350  64.725  1.00  0.00    -0.077 A  
HETATM   23  C   UNL     2      -6.966   9.512  65.888  1.00  0.00    -0.091 A  
ENDBRANCH  15  18
ENDBRANCH  13  15
ENDBRANCH  12  13
ENDBRANCH  10  12
TORSDOF 4
ENDMDL
MODEL      261
REMARK 921   NORMALIZED FREE ENERGY PREDICTED BY IDOCK:   -2.33 KCAL/MOL
REMARK 922        TOTAL FREE ENERGY PREDICTED BY IDOCK:   -3.51 KCAL/MOL
REMARK 923 INTER-LIGAND FREE ENERGY PREDICTED BY IDOCK:   -2.83 KCAL/MOL
REMARK 924 INTRA-LIGAND FREE ENERGY PREDICTED BY IDOCK:   -0.69 KCAL/MOL
REMARK 927      BINDING AFFINITY PREDICTED BY RF-SCORE:    0.00 PKD
ROOT
HETATM    1 BR   UNL     1      -5.993  10.136  67.622  1.00  0.00    -0.053 Br 
HETATM    2  C   UNL     2      -5.144  13.948  68.136  1.00  0.00    -0.112 C  
HETATM    3  N   UNL     2      -6.425  14.454  68.881  1.00  0.00    -0.089 N  
HETATM    4  C   UNL     2      -5.965  14.572  70.320  1.00  0.00    -0.158 C  
HETATM    5  C   UNL     2      -7.579  13.435  68.652  1.00  0.00    -0.101 C  
HETATM    6  C   UNL     2      -7.907  13.643  67.160  1.00  0.00    -0.028 C  
HETATM    7  C   UNL     2      -7.489  15.095  66.858  1.00  0.00     0.085 C  
HETATM    8  C   UNL     2      -7.062  15.694  68.215  1.00  0.00    -0.113 C  
HETATM    9  C   UNL     2      -8.212  16.201  69.123  1.00  0.00    -0.230 C  
HETATM   10  C   UNL     2      -9.354  15.198  69.278  1.00  0.00    -0.207 C  
HETATM   11  C   UNL     2      -8.798  13.801  69.530  1.00  0.00     1.032 C  
ENDROOT
BRANCH  10  12
HETATM   12  O   UNL     2     -10.109  15.123  68.049  1.00  0.00    -0.220 OA 
BRANCH  12  13
HETATM   13  C   UNL     2     -11.380  15.619  68.002  1.00  0.00    -0.324 C  
HETATM   14  O   UNL     2     -11.689  16.790  68.198  1.00  0.00     0.096 OA 
BRANCH  13  15
HETATM   15  C   UNL     2     -12.349  14.461  67.664  1.00  0.00     0.006 C  
HETATM   16  O   UNL     2     -12.521  14.232  66.264  1.00  0.00    -0.445 OA 
HETATM   17  H   UNL     2     -13.116  13.521  66.057  1.00  0.00     0.000 HD 
BRANCH  15  18
HETATM   18  C   UNL     2     -11.911  13.197  68.375  1.00  0.00    -0.386 A  
HETATM   19  C   UNL     2     -11.189  12.231  67.646  1.00  0.00    -0.346 A  
HETATM   20  C   UNL     2     -10.821  11.033  68.223  1.00  0.00    -0.261 A  
HETATM   21  C   UNL     2     -11.161  10.759  69.541  1.00  0.00    -0.334 A  
HETATM   22  C   UNL     2     -11.877  11.697  70.288  1.00  0.00    -0.414 A  
HETATM   23  C   UNL     2     -12.258  12.907  69.705  1.00  0.00    -0.227 A  
ENDBRANCH  15  18
ENDBRANCH  13  15
ENDBRANCH  12  13
ENDBRANCH  10  12
TORSDOF 4
ENDMDL
MODEL      262
REMARK 921   NORMALIZED FREE ENERGY PREDICTED BY IDOCK:   -2.32 KCAL/MOL
REMARK 922        TOTAL FREE ENERGY PREDICTED BY IDOCK:   -3.51 KCAL/MOL
REMARK 923 INTER-LIGAND FREE ENERGY PREDICTED BY IDOCK:   -3.51 KCAL/MOL
REMARK 924 INTRA-LIGAND FREE ENERGY PREDICTED BY IDOCK:    0.00 KCAL/MOL
REMARK 927      BINDING AFFINITY PREDICTED BY RF-SCORE:    0.00 PKD
ROOT
HETATM    1 BR   UNL     1      -6.736   8.982  63.673  1.00  0.00    -0.089 Br 
HETATM    2  C   UNL     2     -10.128  10.620  64.823  1.00  0.00    -0.344 C  
HETATM    3  N   UNL     2      -9.826  10.937  66.326  1.00  0.00    -0.209 N  
HETATM    4  C   UNL     2      -9.572  12.431  66.323  1.00  0.00    -0.241 C  
HETATM    5  C   UNL     2      -8.617  10.076  66.792  1.00  0.00    -0.125 C  
HETATM    6  C   UNL     2      -9.217   8.656  66.820  1.00  0.00    -0.211 C  
HETATM    7  C   UNL     2     -10.724   8.866  67.061  1.00  0.00    -0.180 C  
HETATM    8  C   UNL     2     -10.901  10.382  67.288  1.00  0.00    -0.264 C  
HETATM    9  C   UNL     2     -10.589  10.894  68.719  1.00  0.00    -0.231 C  
HETATM   10  C   UNL     2      -9.257  10.386  69.270  1.00  0.00    -0.184 C  
HETATM   11  C   UNL     2      -8.169  10.503  68.209  1.00  0.00    -0.117 C  
ENDROOT
BRANCH  10  12
HETATM   12  O   UNL     2      -9.364   8.984  69.596  1.00  0.00    -0.157 OA 
BRANCH  12  13
HETATM   13  C   UNL     2      -9.241   8.576  70.893  1.00  0.00    -0.175 C  
HETATM   14  O   UNL     2      -9.187   9.322  71.866  1.00  0.00    -0.298 OA 
BRANCH  13  15
HETATM   15  C   UNL     2      -9.179   7.031  70.919  1.00  0.00    -0.156 C  
HETATM   16  O   UNL     2      -9.280   6.419  69.632  1.00  0.00    -0.142 OA 
HETATM   17  H   UNL     2      -9.242   5.470  69.648  1.00  0.00     0.000 HD 
BRANCH  15  18
HETATM   18  C   UNL     2      -7.930   6.575  71.644  1.00  0.00    -0.104 A  
HETATM   19  C   UNL     2      -7.176   7.533  72.352  1.00  0.00    -0.075 A  
HETATM   20  C   UNL     2      -5.995   7.189  72.976  1.00  0.00    -0.055 A  
HETATM   21  C   UNL     2      -5.527   5.883  72.915  1.00  0.00    -0.031 A  
HETATM   22  C   UNL     2      -6.252   4.912  72.220  1.00  0.00    -0.029 A  
HETATM   23  C   UNL     2      -7.443   5.258  71.580  1.00  0.00    -0.093 A  
ENDBRANCH  15  18
ENDBRANCH  13  15
ENDBRANCH  12  13
ENDBRANCH  10  12
TORSDOF 4
ENDMDL
MODEL      263
REMARK 921   NORMALIZED FREE ENERGY PREDICTED BY IDOCK:   -2.10 KCAL/MOL
REMARK 922        TOTAL FREE ENERGY PREDICTED BY IDOCK:   -3.23 KCAL/MOL
REMARK 923 INTER-LIGAND FREE ENERGY PREDICTED BY IDOCK:   -1.93 KCAL/MOL
REMARK 924 INTRA-LIGAND FREE ENERGY PREDICTED BY IDOCK:   -1.31 KCAL/MOL
REMARK 927      BINDING AFFINITY PREDICTED BY RF-SCORE:    0.00 PKD
ROOT
HETATM    1 BR   UNL     1     -10.654   9.330  69.471  1.00  0.00    -0.239 Br 
HETATM    2  C   UNL     2      -7.965   8.837  66.634  1.00  0.00    -0.100 C  
HETATM    3  N   UNL     2      -7.772   7.284  66.657  1.00  0.00    -0.099 N  
HETATM    4  C   UNL     2      -8.550   6.818  65.443  1.00  0.00    -0.047 C  
HETATM    5  C   UNL     2      -8.295   6.728  68.013  1.00  0.00    -0.120 C  
HETATM    6  C   UNL     2      -7.242   7.252  69.010  1.00  0.00    -0.089 C  
HETATM    7  C   UNL     2      -5.955   7.418  68.179  1.00  0.00    -0.034 C  
HETATM    8  C   UNL     2      -6.290   6.861  66.779  1.00  0.00    -0.045 C  
HETATM    9  C   UNL     2      -6.205   5.320  66.625  1.00  0.00    -0.035 C  
HETATM   10  C   UNL     2      -6.933   4.557  67.731  1.00  0.00    -0.060 C  
HETATM   11  C   UNL     2      -8.298   5.182  67.992  1.00  0.00    -0.097 C  
ENDROOT
BRANCH  10  12
HETATM   12  O   UNL     2      -6.191   4.659  68.965  1.00  0.00    -0.029 OA 
BRANCH  12  13
HETATM   13  C   UNL     2      -5.877   3.529  69.664  1.00  0.00    -0.022 C  
HETATM   14  O   UNL     2      -5.548   2.458  69.165  1.00  0.00    -0.019 OA 
BRANCH  13  15
HETATM   15  C   UNL     2      -6.009   3.833  71.176  1.00  0.00    -0.014 C  
HETATM   16  O   UNL     2      -5.202   4.922  71.627  1.00  0.00    -0.004 OA 
HETATM   17  H   UNL     2      -5.283   5.108  72.554  1.00  0.00     0.000 HD 
BRANCH  15  18
HETATM   18  C   UNL     2      -7.465   4.046  71.534  1.00  0.00    -0.059 A  
HETATM   19  C   UNL     2      -8.374   2.992  71.313  1.00  0.00    -0.085 A  
HETATM   20  C   UNL     2      -9.722   3.152  71.559  1.00  0.00    -0.226 A  
HETATM   21  C   UNL     2     -10.207   4.363  72.033  1.00  0.00    -0.233 A  
HETATM   22  C   UNL     2      -9.331   5.427  72.261  1.00  0.00    -0.158 A  
HETATM   23  C   UNL     2      -7.967   5.272  72.005  1.00  0.00    -0.113 A  
ENDBRANCH  15  18
ENDBRANCH  13  15
ENDBRANCH  12  13
ENDBRANCH  10  12
TORSDOF 4
ENDMDL
MODEL      264
REMARK 921   NORMALIZED FREE ENERGY PREDICTED BY IDOCK:   -2.04 KCAL/MOL
REMARK 922        TOTAL FREE ENERGY PREDICTED BY IDOCK:   -3.16 KCAL/MOL
REMARK 923 INTER-LIGAND FREE ENERGY PREDICTED BY IDOCK:   -4.45 KCAL/MOL
REMARK 924 INTRA-LIGAND FREE ENERGY PREDICTED BY IDOCK:    1.30 KCAL/MOL
REMARK 927      BINDING AFFINITY PREDICTED BY RF-SCORE:    0.00 PKD
ROOT
HETATM    1 BR   UNL     1      -5.183   8.537  64.952  1.00  0.00    -0.035 Br 
HETATM    2  C   UNL     2      -5.701  10.236  68.467  1.00  0.00    -0.037 C  
HETATM    3  N   UNL     2      -7.226  10.587  68.420  1.00  0.00    -0.078 N  
HETATM    4  C   UNL     2      -7.856   9.521  69.293  1.00  0.00    -0.088 C  
HETATM    5  C   UNL     2      -7.702  10.576  66.939  1.00  0.00    -0.114 C  
HETATM    6  C   UNL     2      -7.011  11.828  66.364  1.00  0.00     0.224 C  
HETATM    7  C   UNL     2      -6.815  12.766  67.571  1.00  0.00    -0.153 C  
HETATM    8  C   UNL     2      -7.515  12.068  68.755  1.00  0.00    -0.086 C  
HETATM    9  C   UNL     2      -9.052  12.259  68.842  1.00  0.00     0.265 C  
HETATM   10  C   UNL     2      -9.773  11.999  67.520  1.00  0.00    -0.187 C  
HETATM   11  C   UNL     2      -9.240  10.727  66.870  1.00  0.00    -0.172 C  
ENDROOT
BRANCH  10  12
HETATM   12  O   UNL     2      -9.505  13.075  66.596  1.00  0.00    -0.246 OA 
BRANCH  12  13
HETATM   13  C   UNL     2     -10.526  13.878  66.173  1.00  0.00    -0.297 C  
HETATM   14  O   UNL     2     -10.464  14.662  65.231  1.00  0.00    -0.342 OA 
BRANCH  13  15
HETATM   15  C   UNL     2     -11.755  13.630  67.080  1.00  0.00    -0.383 C  
HETATM   16  O   UNL     2     -12.038  12.250  67.317  1.00  0.00    -0.548 OA 
HETATM   17  H   UNL     2     -12.793  12.098  67.873  1.00  0.00     0.000 HD 
BRANCH  15  18
HETATM   18  C   UNL     2     -11.597  14.387  68.382  1.00  0.00    -0.351 A  
HETATM   19  C   UNL     2     -12.209  13.868  69.540  1.00  0.00    -0.356 A  
HETATM   20  C   UNL     2     -12.155  14.548  70.740  1.00  0.00    -0.398 A  
HETATM   21  C   UNL     2     -11.490  15.764  70.824  1.00  0.00    -0.423 A  
HETATM   22  C   UNL     2     -10.875  16.304  69.692  1.00  0.00    -0.345 A  
HETATM   23  C   UNL     2     -10.935  15.623  68.475  1.00  0.00    -0.303 A  
ENDBRANCH  15  18
ENDBRANCH  13  15
ENDBRANCH  12  13
ENDBRANCH  10  12
TORSDOF 4
ENDMDL
MODEL      265
REMARK 921   NORMALIZED FREE ENERGY PREDICTED BY IDOCK:   -2.00 KCAL/MOL
REMARK 922        TOTAL FREE ENERGY PREDICTED BY IDOCK:   -3.11 KCAL/MOL
REMARK 923 INTER-LIGAND FREE ENERGY PREDICTED BY IDOCK:   -2.53 KCAL/MOL
REMARK 924 INTRA-LIGAND FREE ENERGY PREDICTED BY IDOCK:   -0.59 KCAL/MOL
REMARK 927      BINDING AFFINITY PREDICTED BY RF-SCORE:    0.00 PKD
ROOT
HETATM    1 BR   UNL     1      -5.791  10.215  65.250  1.00  0.00    -0.117 Br 
HETATM    2  C   UNL     2      -5.487  13.583  67.269  1.00  0.00     0.410 C  
HETATM    3  N   UNL     2      -6.754  13.510  68.186  1.00  0.00    -0.103 N  
HETATM    4  C   UNL     2      -6.185  13.120  69.535  1.00  0.00    -0.116 C  
HETATM    5  C   UNL     2      -7.756  12.483  67.584  1.00  0.00    -0.151 C  
HETATM    6  C   UNL     2      -8.250  13.211  66.319  1.00  0.00     0.913 C  
HETATM    7  C   UNL     2      -8.089  14.711  66.632  1.00  0.00     0.258 C  
HETATM    8  C   UNL     2      -7.633  14.779  68.105  1.00  0.00    -0.119 C  
HETATM    9  C   UNL     2      -8.756  14.666  69.169  1.00  0.00    -0.029 C  
HETATM   10  C   UNL     2      -9.712  13.500  68.922  1.00  0.00     0.100 C  
HETATM   11  C   UNL     2      -8.929  12.243  68.563  1.00  0.00    -0.070 C  
ENDROOT
BRANCH  10  12
HETATM   12  O   UNL     2     -10.559  13.792  67.790  1.00  0.00    -0.242 OA 
BRANCH  12  13
HETATM   13  C   UNL     2     -11.916  13.708  67.916  1.00  0.00    -0.347 C  
HETATM   14  O   UNL     2     -12.529  13.722  68.979  1.00  0.00    -0.194 OA 
BRANCH  13  15
HETATM   15  C   UNL     2     -12.536  13.591  66.503  1.00  0.00    -0.253 C  
HETATM   16  O   UNL     2     -12.702  14.842  65.832  1.00  0.00    -0.084 OA 
HETATM   17  H   UNL     2     -13.082  14.770  64.965  1.00  0.00     0.000 HD 
BRANCH  15  18
HETATM   18  C   UNL     2     -11.729  12.623  65.663  1.00  0.00    -0.458 A  
HETATM   19  C   UNL     2     -11.186  11.482  66.287  1.00  0.00    -0.286 A  
HETATM   20  C   UNL     2     -10.389  10.600  65.588  1.00  0.00    -0.285 A  
HETATM   21  C   UNL     2     -10.107  10.826  64.247  1.00  0.00    -0.427 A  
HETATM   22  C   UNL     2     -10.630  11.948  63.602  1.00  0.00    -0.500 A  
HETATM   23  C   UNL     2     -11.430  12.848  64.308  1.00  0.00    -0.427 A  
ENDBRANCH  15  18
ENDBRANCH  13  15
ENDBRANCH  12  13
ENDBRANCH  10  12
TORSDOF 4
ENDMDL
MODEL      266
REMARK 921   NORMALIZED FREE ENERGY PREDICTED BY IDOCK:   -1.82 KCAL/MOL
REMARK 922        TOTAL FREE ENERGY PREDICTED BY IDOCK:   -2.89 KCAL/MOL
REMARK 923 INTER-LIGAND FREE ENERGY PREDICTED BY IDOCK:   -2.05 KCAL/MOL
REMARK 924 INTRA-LIGAND FREE ENERGY PREDICTED BY IDOCK:   -0.84 KCAL/MOL
REMARK 927      BINDING AFFINITY PREDICTED BY RF-SCORE:    0.00 PKD
ROOT
HETATM    1 BR   UNL     1     -10.690   8.275  69.537  1.00  0.00    -0.129 Br 
HETATM    2  C   UNL     2      -6.981   7.895  68.266  1.00  0.00    -0.073 C  
HETATM    3  N   UNL     2      -6.838   6.338  68.188  1.00  0.00    -0.068 N  
HETATM    4  C   UNL     2      -6.950   6.052  66.704  1.00  0.00    -0.067 C  
HETATM    5  C   UNL     2      -7.950   5.683  69.058  1.00  0.00    -0.096 C  
HETATM    6  C   UNL     2      -7.492   6.030  70.489  1.00  0.00    -0.090 C  
HETATM    7  C   UNL     2      -5.963   6.193  70.390  1.00  0.00    -0.029 C  
HETATM    8  C   UNL     2      -5.598   5.806  68.941  1.00  0.00    -0.011 C  
HETATM    9  C   UNL     2      -5.467   4.287  68.658  1.00  0.00    -0.012 C  
HETATM   10  C   UNL     2      -6.641   3.465  69.188  1.00  0.00    -0.034 C  
HETATM   11  C   UNL     2      -7.960   4.151  68.850  1.00  0.00    -0.071 C  
ENDROOT
BRANCH  10  12
HETATM   12  O   UNL     2      -6.575   3.390  70.628  1.00  0.00    -0.030 OA 
BRANCH  12  13
HETATM   13  C   UNL     2      -7.351   2.487  71.298  1.00  0.00    -0.033 C  
HETATM   14  O   UNL     2      -7.843   1.477  70.807  1.00  0.00    -0.035 OA 
BRANCH  13  15
HETATM   15  C   UNL     2      -7.499   2.959  72.764  1.00  0.00    -0.049 C  
HETATM   16  O   UNL     2      -6.558   3.960  73.155  1.00  0.00    -0.034 OA 
HETATM   17  H   UNL     2      -6.649   4.249  74.055  1.00  0.00     0.000 HD 
BRANCH  15  18
HETATM   18  C   UNL     2      -8.921   3.416  73.019  1.00  0.00    -0.099 A  
HETATM   19  C   UNL     2      -9.164   4.793  73.190  1.00  0.00    -0.123 A  
HETATM   20  C   UNL     2     -10.428   5.261  73.489  1.00  0.00    -0.280 A  
HETATM   21  C   UNL     2     -11.486   4.373  73.627  1.00  0.00    -0.210 A  
HETATM   22  C   UNL     2     -11.275   3.002  73.465  1.00  0.00    -0.293 A  
HETATM   23  C   UNL     2      -9.997   2.524  73.170  1.00  0.00    -0.183 A  
ENDBRANCH  15  18
ENDBRANCH  13  15
ENDBRANCH  12  13
ENDBRANCH  10  12
TORSDOF 4
ENDMDL
MODEL      267
REMARK 921   NORMALIZED FREE ENERGY PREDICTED BY IDOCK:   -1.59 KCAL/MOL
REMARK 922        TOTAL FREE ENERGY PREDICTED BY IDOCK:   -2.59 KCAL/MOL
REMARK 923 INTER-LIGAND FREE ENERGY PREDICTED BY IDOCK:   -1.71 KCAL/MOL
REMARK 924 INTRA-LIGAND FREE ENERGY PREDICTED BY IDOCK:   -0.89 KCAL/MOL
REMARK 927      BINDING AFFINITY PREDICTED BY RF-SCORE:    0.00 PKD
ROOT
HETATM    1 BR   UNL     1      -8.826   8.431  65.786  1.00  0.00    -0.189 Br 
HETATM    2  C   UNL     2     -11.306   7.441  68.681  1.00  0.00     0.476 C  
HETATM    3  N   UNL     2     -10.554   7.997  69.937  1.00  0.00    -0.240 N  
HETATM    4  C   UNL     2     -11.316   9.265  70.265  1.00  0.00    -0.203 C  
HETATM    5  C   UNL     2      -9.057   8.216  69.575  1.00  0.00    -0.151 C  
HETATM    6  C   UNL     2      -8.539   6.770  69.437  1.00  0.00    -0.132 C  
HETATM    7  C   UNL     2      -9.461   5.929  70.340  1.00  0.00    -0.192 C  
HETATM    8  C   UNL     2     -10.380   6.942  71.053  1.00  0.00    -0.205 C  
HETATM    9  C   UNL     2      -9.779   7.643  72.300  1.00  0.00    -0.226 C  
HETATM   10  C   UNL     2      -8.380   8.211  72.063  1.00  0.00    -0.152 C  
HETATM   11  C   UNL     2      -8.329   8.944  70.728  1.00  0.00    -0.205 C  
ENDROOT
BRANCH  10  12
HETATM   12  O   UNL     2      -7.423   7.134  71.977  1.00  0.00    -0.083 OA 
BRANCH  12  13
HETATM   13  C   UNL     2      -6.086   7.409  72.011  1.00  0.00    -0.040 C  
HETATM   14  O   UNL     2      -5.594   8.489  72.325  1.00  0.00    -0.041 OA 
BRANCH  13  15
HETATM   15  C   UNL     2      -5.311   6.139  71.587  1.00  0.00    -0.022 C  
HETATM   16  O   UNL     2      -5.714   4.952  72.272  1.00  0.00    -0.011 OA 
HETATM   17  H   UNL     2      -5.239   4.172  72.012  1.00  0.00     0.000 HD 
BRANCH  15  18
HETATM   18  C   UNL     2      -5.395   5.959  70.085  1.00  0.00    -0.012 A  
HETATM   19  C   UNL     2      -5.148   7.073  69.260  1.00  0.00    -0.014 A  
HETATM   20  C   UNL     2      -5.274   6.985  67.889  1.00  0.00    -0.015 A  
HETATM   21  C   UNL     2      -5.651   5.786  67.297  1.00  0.00    -0.012 A  
HETATM   22  C   UNL     2      -5.904   4.665  68.090  1.00  0.00    -0.022 A  
HETATM   23  C   UNL     2      -5.785   4.752  69.478  1.00  0.00    -0.016 A  
ENDBRANCH  15  18
ENDBRANCH  13  15
ENDBRANCH  12  13
ENDBRANCH  10  12
TORSDOF 4
ENDMDL
MODEL      268
REMARK 921   NORMALIZED FREE ENERGY PREDICTED BY IDOCK:   -1.55 KCAL/MOL
REMARK 922        TOTAL FREE ENERGY PREDICTED BY IDOCK:   -2.55 KCAL/MOL
REMARK 923 INTER-LIGAND FREE ENERGY PREDICTED BY IDOCK:   -2.34 KCAL/MOL
REMARK 924 INTRA-LIGAND FREE ENERGY PREDICTED BY IDOCK:   -0.22 KCAL/MOL
REMARK 927      BINDING AFFINITY PREDICTED BY RF-SCORE:    0.00 PKD
ROOT
HETATM    1 BR   UNL     1      -8.999   5.808  66.725  1.00  0.00    -0.121 Br 
HETATM    2  C   UNL     2      -6.486   7.700  69.095  1.00  0.00    -0.040 C  
HETATM    3  N   UNL     2      -7.291   9.001  69.426  1.00  0.00    -0.074 N  
HETATM    4  C   UNL     2      -7.798   8.749  70.832  1.00  0.00    -0.120 C  
HETATM    5  C   UNL     2      -8.408   9.190  68.359  1.00  0.00    -0.120 C  
HETATM    6  C   UNL     2      -7.599   9.559  67.100  1.00  0.00    -0.091 C  
HETATM    7  C   UNL     2      -6.305  10.204  67.632  1.00  0.00    -0.058 C  
HETATM    8  C   UNL     2      -6.486  10.293  69.162  1.00  0.00    -0.050 C  
HETATM    9  C   UNL     2      -7.313  11.500  69.678  1.00  0.00     0.230 C  
HETATM   10  C   UNL     2      -8.635  11.693  68.935  1.00  0.00     0.074 C  
HETATM   11  C   UNL     2      -9.343  10.354  68.763  1.00  0.00    -0.175 C  
ENDROOT
BRANCH  10  12
HETATM   12  O   UNL     2      -8.382  12.197  67.607  1.00  0.00    -0.144 OA 
BRANCH  12  13
HETATM   13  C   UNL     2      -9.399  12.752  66.885  1.00  0.00    -0.234 C  
HETATM   14  O   UNL     2      -9.993  12.202  65.963  1.00  0.00    -0.227 OA 
BRANCH  13  15
HETATM   15  C   UNL     2      -9.665  14.178  67.424  1.00  0.00    -0.232 C  
HETATM   16  O   UNL     2     -10.777  14.268  68.316  1.00  0.00    -0.237 OA 
HETATM   17  H   UNL     2     -10.941  15.143  68.647  1.00  0.00     0.000 HD 
BRANCH  15  18
HETATM   18  C   UNL     2      -8.407  14.733  68.061  1.00  0.00    -0.143 A  
HETATM   19  C   UNL     2      -7.205  14.684  67.328  1.00  0.00    -0.082 A  
HETATM   20  C   UNL     2      -6.017  15.114  67.881  1.00  0.00    -0.165 A  
HETATM   21  C   UNL     2      -5.988  15.606  69.180  1.00  0.00    -0.110 A  
HETATM   22  C   UNL     2      -7.164  15.665  69.931  1.00  0.00     0.013 A  
HETATM   23  C   UNL     2      -8.367  15.223  69.378  1.00  0.00    -0.232 A  
ENDBRANCH  15  18
ENDBRANCH  13  15
ENDBRANCH  12  13
ENDBRANCH  10  12
TORSDOF 4
ENDMDL
MODEL      269
REMARK 921   NORMALIZED FREE ENERGY PREDICTED BY IDOCK:   -0.69 KCAL/MOL
REMARK 922        TOTAL FREE ENERGY PREDICTED BY IDOCK:   -1.49 KCAL/MOL
REMARK 923 INTER-LIGAND FREE ENERGY PREDICTED BY IDOCK:   -1.76 KCAL/MOL
REMARK 924 INTRA-LIGAND FREE ENERGY PREDICTED BY IDOCK:    0.27 KCAL/MOL
REMARK 927      BINDING AFFINITY PREDICTED BY RF-SCORE:    0.00 PKD
ROOT
HETATM    1 BR   UNL     1     -12.690  15.564  69.894  1.00  0.00     0.090 Br 
HETATM    2  C   UNL     2      -9.411  16.985  68.238  1.00  0.00    -0.255 C  
HETATM    3  N   UNL     2      -8.788  15.688  67.620  1.00  0.00    -0.174 N  
HETATM    4  C   UNL     2      -9.107  15.818  66.144  1.00  0.00    -0.342 C  
HETATM    5  C   UNL     2      -9.418  14.445  68.312  1.00  0.00    -0.207 C  
HETATM    6  C   UNL     2      -8.811  14.516  69.727  1.00  0.00     0.599 C  
HETATM    7  C   UNL     2      -7.475  15.262  69.551  1.00  0.00    -0.214 C  
HETATM    8  C   UNL     2      -7.314  15.471  68.031  1.00  0.00    -0.129 C  
HETATM    9  C   UNL     2      -6.757  14.262  67.235  1.00  0.00     0.215 C  
HETATM   10  C   UNL     2      -7.462  12.944  67.558  1.00  0.00    -0.155 C  
HETATM   11  C   UNL     2      -8.972  13.150  67.595  1.00  0.00    -0.192 C  
ENDROOT
BRANCH  10  12
HETATM   12  O   UNL     2      -7.076  12.492  68.874  1.00  0.00    -0.101 OA 
BRANCH  12  13
HETATM   13  C   UNL     2      -7.062  11.157  69.156  1.00  0.00    -0.116 C  
HETATM   14  O   UNL     2      -7.140  10.671  70.280  1.00  0.00    -0.230 OA 
BRANCH  13  15
HETATM   15  C   UNL     2      -6.928  10.374  67.828  1.00  0.00    -0.083 C  
HETATM   16  O   UNL     2      -5.833  10.791  67.011  1.00  0.00    -0.050 OA 
HETATM   17  H   UNL     2      -5.751  10.311  66.196  1.00  0.00     0.000 HD 
BRANCH  15  18
HETATM   18  C   UNL     2      -6.866   8.887  68.108  1.00  0.00    -0.069 A  
HETATM   19  C   UNL     2      -5.710   8.366  68.721  1.00  0.00    -0.040 A  
HETATM   20  C   UNL     2      -5.570   7.011  68.941  1.00  0.00    -0.018 A  
HETATM   21  C   UNL     2      -6.576   6.134  68.558  1.00  0.00    -0.059 A  
HETATM   22  C   UNL     2      -7.734   6.621  67.947  1.00  0.00    -0.108 A  
HETATM   23  C   UNL     2      -7.875   7.990  67.715  1.00  0.00    -0.126 A  
ENDBRANCH  15  18
ENDBRANCH  13  15
ENDBRANCH  12  13
ENDBRANCH  10  12
TORSDOF 4
ENDMDL
MODEL      270
REMARK 921   NORMALIZED FREE ENERGY PREDICTED BY IDOCK:    5.11 KCAL/MOL
REMARK 922        TOTAL FREE ENERGY PREDICTED BY IDOCK:    5.66 KCAL/MOL
REMARK 923 INTER-LIGAND FREE ENERGY PREDICTED BY IDOCK:   -0.97 KCAL/MOL
REMARK 924 INTRA-LIGAND FREE ENERGY PREDICTED BY IDOCK:    6.63 KCAL/MOL
REMARK 927      BINDING AFFINITY PREDICTED BY RF-SCORE:    0.00 PKD
ROOT
HETATM    1 BR   UNL     1      -8.924   5.694  66.726  1.00  0.00    -0.118 Br 
HETATM    2  C   UNL     2      -5.419   7.489  66.614  1.00  0.00    -0.024 C  
HETATM    3  N   UNL     2      -5.806   8.951  67.020  1.00  0.00    -0.045 N  
HETATM    4  C   UNL     2      -5.356   9.042  68.464  1.00  0.00    -0.037 C  
HETATM    5  C   UNL     2      -7.335   9.148  66.805  1.00  0.00    -0.086 C  
HETATM    6  C   UNL     2      -7.453   9.141  65.268  1.00  0.00    -0.097 C  
HETATM    7  C   UNL     2      -6.081   9.626  64.761  1.00  0.00    -0.085 C  
HETATM    8  C   UNL     2      -5.285  10.012  66.025  1.00  0.00    -0.044 C  
HETATM    9  C   UNL     2      -5.580  11.418  66.609  1.00  0.00    -0.138 C  
HETATM   10  C   UNL     2      -7.071  11.712  66.764  1.00  0.00    -0.083 C  
HETATM   11  C   UNL     2      -7.784  10.512  67.376  1.00  0.00    -0.102 C  
ENDROOT
BRANCH  10  12
HETATM   12  O   UNL     2      -7.666  11.924  65.465  1.00  0.00     0.904 OA 
BRANCH  12  13
HETATM   13  C   UNL     2      -8.991  11.657  65.272  1.00  0.00     0.137 C  
HETATM   14  O   UNL     2      -9.462  11.095  64.289  1.00  0.00    -0.226 OA 
BRANCH  13  15
HETATM   15  C   UNL     2      -9.782  12.182  66.494  1.00  0.00    -0.223 C  
HETATM   16  O   UNL     2     -10.230  11.159  67.384  1.00  0.00    -0.181 OA 
HETATM   17  H   UNL     2     -10.716  11.481  68.134  1.00  0.00     0.000 HD 
BRANCH  15  18
HETATM   18  C   UNL     2      -8.967  13.227  67.227  1.00  0.00    -0.217 A  
HETATM   19  C   UNL     2      -8.523  12.939  68.533  1.00  0.00    -0.045 A  
HETATM   20  C   UNL     2      -7.834  13.877  69.273  1.00  0.00     0.254 A  
HETATM   21  C   UNL     2      -7.565  15.130  68.737  1.00  0.00    -0.136 A  
HETATM   22  C   UNL     2      -7.993  15.444  67.446  1.00  0.00    -0.213 A  
HETATM   23  C   UNL     2      -8.698  14.500  66.697  1.00  0.00    -0.162 A  
ENDBRANCH  15  18
ENDBRANCH  13  15
ENDBRANCH  12  13
ENDBRANCH  10  12
TORSDOF 4
ENDMDL
MODEL      271
REMARK 921   NORMALIZED FREE ENERGY PREDICTED BY IDOCK:   61.03 KCAL/MOL
REMARK 922        TOTAL FREE ENERGY PREDICTED BY IDOCK:   74.67 KCAL/MOL
REMARK 923 INTER-LIGAND FREE ENERGY PREDICTED BY IDOCK:   62.28 KCAL/MOL
REMARK 924 INTRA-LIGAND FREE ENERGY PREDICTED BY IDOCK:   12.39 KCAL/MOL
REMARK 927      BINDING AFFINITY PREDICTED BY RF-SCORE:    0.00 PKD
ROOT
HETATM    1 BR   UNL     1      -9.743   5.428  70.698  1.00  0.00    -0.256 Br 
HETATM    2  C   UNL     2      -8.117   7.487  67.761  1.00  0.00    -0.119 C  
HETATM    3  N   UNL     2      -7.674   8.792  68.505  1.00  0.00    -0.098 N  
HETATM    4  C   UNL     2      -6.178   8.610  68.666  1.00  0.00    -0.046 C  
HETATM    5  C   UNL     2      -8.461   8.904  69.842  1.00  0.00    -0.135 C  
HETATM    6  C   UNL     2      -9.890   9.216  69.356  1.00  0.00    -0.173 C  
HETATM    7  C   UNL     2      -9.705   9.910  67.993  1.00  0.00    -0.160 C  
HETATM    8  C   UNL     2      -8.182  10.081  67.819  1.00  0.00    -0.113 C  
HETATM    9  C   UNL     2      -7.549  11.300  68.539  1.00  0.00    -0.123 C  
HETATM   10  C   UNL     2      -7.973  11.431  70.001  1.00  0.00     1.541 C  
HETATM   11  C   UNL     2      -7.910  10.073  70.691  1.00  0.00     0.359 C  
ENDROOT
BRANCH  10  12
HETATM   12  O   UNL     2      -9.348  11.865  70.075  1.00  0.00     2.042 OA 
BRANCH  12  13
HETATM   13  C   UNL     2      -9.635  13.159  70.404  1.00  0.00     4.738 C  
HETATM   14  O   UNL     2     -10.292  13.934  69.715  1.00  0.00     0.299 OA 
BRANCH  13  15
HETATM   15  C   UNL     2      -8.992  13.473  71.776  1.00  0.00    12.974 C  
HETATM   16  O   UNL     2      -9.894  13.375  72.880  1.00  0.00    10.262 OA 
HETATM   17  H   UNL     2      -9.499  13.568  73.722  1.00  0.00     0.000 HD 
BRANCH  15  18
HETATM   18  C   UNL     2      -7.772  12.600  71.987  1.00  0.00    12.420 A  
HETATM   19  C   UNL     2      -7.957  11.213  72.146  1.00  0.00    11.206 A  
HETATM   20  C   UNL     2      -6.890  10.378  72.406  1.00  0.00     3.131 A  
HETATM   21  C   UNL     2      -5.607  10.898  72.516  1.00  0.00     0.895 A  
HETATM   22  C   UNL     2      -5.393  12.269  72.364  1.00  0.00     0.546 A  
HETATM   23  C   UNL     2      -6.471  13.118  72.109  1.00  0.00     3.088 A  
ENDBRANCH  15  18
ENDBRANCH  13  15
ENDBRANCH  12  13
ENDBRANCH  10  12
TORSDOF 4
ENDMDL
