MODEL        1
REMARK 921   NORMALIZED FREE ENERGY PREDICTED BY IDOCK:   -6.51 KCAL/MOL
REMARK 922        TOTAL FREE ENERGY PREDICTED BY IDOCK:   -8.95 KCAL/MOL
REMARK 923 INTER-LIGAND FREE ENERGY PREDICTED BY IDOCK:   -8.03 KCAL/MOL
REMARK 924 INTRA-LIGAND FREE ENERGY PREDICTED BY IDOCK:   -0.92 KCAL/MOL
REMARK 927      BINDING AFFINITY PREDICTED BY RF-SCORE:    0.00 PKD
ROOT
HETATM    1  C   UNL     1      -7.844  16.249  67.857  1.00  0.00    -0.145 C  
HETATM    2  C   UNL     1      -8.273  14.898  68.441  1.00  0.00    -0.151 C  
HETATM    3  C   UNL     1      -9.655  15.157  69.034  1.00  0.00    -0.229 C  
HETATM    4  C   UNL     1      -9.950  16.620  68.694  1.00  0.00    -0.261 C  
HETATM    5  C   UNL     1     -10.653  16.732  67.332  1.00  0.00    -0.291 C  
HETATM    6  N   UNL     1      -8.595  17.182  68.695  1.00  0.00    -0.264 NA 
HETATM    7  C   UNL     1      -8.485  18.584  68.327  1.00  0.00    -0.318 C  
HETATM    8  C   UNL     1      -9.735  16.546  66.115  1.00  0.00    -0.317 C  
HETATM    9  C   UNL     1      -8.228  16.363  66.381  1.00  0.00    -0.366 C  
ENDROOT
BRANCH   8  10
HETATM   10  O   UNL     1     -10.152  15.417  65.323  1.00  0.00    -0.349 OA 
BRANCH  10  11
HETATM   11  C   UNL     1     -11.285  15.660  64.591  1.00  0.00    -0.369 C  
HETATM   12  O   UNL     1     -11.476  16.679  63.938  1.00  0.00    -1.186 OA 
BRANCH  11  13
HETATM   13  C   UNL     1     -12.227  14.449  64.648  1.00  0.00    -0.464 C  
HETATM   14  O   UNL     1     -12.412  13.929  63.322  1.00  0.00    -1.113 OA 
HETATM   15  H   UNL     1     -12.995  13.180  63.357  1.00  0.00     0.000 HD 
BRANCH  13  16
HETATM   16  C   UNL     1     -11.786  13.340  65.580  1.00  0.00    -0.419 A  
HETATM   17  C   UNL     1     -12.098  13.363  66.949  1.00  0.00    -0.406 A  
HETATM   18  C   UNL     1     -11.717  12.311  67.782  1.00  0.00    -0.403 A  
HETATM   19  C   UNL     1     -11.036  11.213  67.259  1.00  0.00    -0.354 A  
HETATM   20  C   UNL     1     -10.743  11.161  65.902  1.00  0.00    -0.261 A  
HETATM   21  C   UNL     1     -11.124  12.209  65.067  1.00  0.00    -0.368 A  
ENDBRANCH  13  16
ENDBRANCH  11  13
ENDBRANCH  10  11
ENDBRANCH   8  10
TORSDOF 4
ENDMDL
MODEL        2
REMARK 921   NORMALIZED FREE ENERGY PREDICTED BY IDOCK:   -6.14 KCAL/MOL
REMARK 922        TOTAL FREE ENERGY PREDICTED BY IDOCK:   -8.49 KCAL/MOL
REMARK 923 INTER-LIGAND FREE ENERGY PREDICTED BY IDOCK:   -7.99 KCAL/MOL
REMARK 924 INTRA-LIGAND FREE ENERGY PREDICTED BY IDOCK:   -0.51 KCAL/MOL
REMARK 927      BINDING AFFINITY PREDICTED BY RF-SCORE:    0.00 PKD
ROOT
HETATM    1  C   UNL     1      -9.917  19.727  68.333  1.00  0.00    -0.439 C  
HETATM    2  C   UNL     1     -11.033  19.838  67.289  1.00  0.00    -0.345 C  
HETATM    3  C   UNL     1     -10.342  19.565  65.956  1.00  0.00    -0.604 C  
HETATM    4  C   UNL     1      -8.892  19.255  66.333  1.00  0.00    -0.348 C  
HETATM    5  C   UNL     1      -8.705  17.752  66.593  1.00  0.00    -0.281 C  
HETATM    6  N   UNL     1      -8.739  20.075  67.539  1.00  0.00    -0.336 NA 
HETATM    7  C   UNL     1      -7.464  19.966  68.229  1.00  0.00    -0.284 C  
HETATM    8  C   UNL     1      -9.251  17.257  67.941  1.00  0.00    -0.247 C  
HETATM    9  C   UNL     1      -9.829  18.312  68.904  1.00  0.00    -0.341 C  
ENDROOT
BRANCH   8  10
HETATM   10  O   UNL     1     -10.280  16.269  67.749  1.00  0.00    -0.257 OA 
BRANCH  10  11
HETATM   11  C   UNL     1     -10.412  15.413  68.812  1.00  0.00    -0.231 C  
HETATM   12  O   UNL     1      -9.469  14.937  69.433  1.00  0.00    -0.160 OA 
BRANCH  11  13
HETATM   13  C   UNL     1     -11.895  15.209  69.153  1.00  0.00    -0.313 C  
HETATM   14  O   UNL     1     -12.367  14.008  68.520  1.00  0.00    -0.533 OA 
HETATM   15  H   UNL     1     -13.284  13.882  68.731  1.00  0.00     0.000 HD 
BRANCH  13  16
HETATM   16  C   UNL     1     -12.211  15.169  70.634  1.00  0.00    -0.401 A  
HETATM   17  C   UNL     1     -11.719  16.143  71.516  1.00  0.00    -0.533 A  
HETATM   18  C   UNL     1     -12.054  16.110  72.870  1.00  0.00    -0.643 A  
HETATM   19  C   UNL     1     -12.901  15.116  73.359  1.00  0.00    -0.661 A  
HETATM   20  C   UNL     1     -13.419  14.160  72.495  1.00  0.00    -0.634 A  
HETATM   21  C   UNL     1     -13.087  14.191  71.143  1.00  0.00    -0.398 A  
ENDBRANCH  13  16
ENDBRANCH  11  13
ENDBRANCH  10  11
ENDBRANCH   8  10
TORSDOF 4
ENDMDL
MODEL        3
REMARK 921   NORMALIZED FREE ENERGY PREDICTED BY IDOCK:   -6.14 KCAL/MOL
REMARK 922        TOTAL FREE ENERGY PREDICTED BY IDOCK:   -8.49 KCAL/MOL
REMARK 923 INTER-LIGAND FREE ENERGY PREDICTED BY IDOCK:   -7.88 KCAL/MOL
REMARK 924 INTRA-LIGAND FREE ENERGY PREDICTED BY IDOCK:   -0.62 KCAL/MOL
REMARK 927      BINDING AFFINITY PREDICTED BY RF-SCORE:    0.00 PKD
ROOT
HETATM    1  C   UNL     1      -8.503  18.317  66.383  1.00  0.00    -0.244 C  
HETATM    2  C   UNL     1      -7.266  18.500  67.268  1.00  0.00    -0.215 C  
HETATM    3  C   UNL     1      -7.719  19.456  68.369  1.00  0.00    -0.363 C  
HETATM    4  C   UNL     1      -9.200  19.703  68.075  1.00  0.00    -0.334 C  
HETATM    5  C   UNL     1     -10.079  18.666  68.789  1.00  0.00    -0.398 C  
HETATM    6  N   UNL     1      -9.217  19.571  66.614  1.00  0.00    -0.335 NA 
HETATM    7  C   UNL     1     -10.520  19.677  65.978  1.00  0.00    -0.523 C  
HETATM    8  C   UNL     1     -10.095  17.275  68.137  1.00  0.00    -0.325 C  
HETATM    9  C   UNL     1      -9.321  17.100  66.816  1.00  0.00    -0.268 C  
ENDROOT
BRANCH   8  10
HETATM   10  O   UNL     1      -9.593  16.274  69.043  1.00  0.00    -0.237 OA 
BRANCH  10  11
HETATM   11  C   UNL     1     -10.257  15.079  68.948  1.00  0.00    -0.235 C  
HETATM   12  O   UNL     1      -9.707  14.001  68.752  1.00  0.00    -0.205 OA 
BRANCH  11  13
HETATM   13  C   UNL     1     -11.758  15.279  69.200  1.00  0.00    -0.335 C  
HETATM   14  O   UNL     1     -12.501  14.331  68.417  1.00  0.00    -0.564 OA 
HETATM   15  H   UNL     1     -13.430  14.455  68.572  1.00  0.00     0.000 HD 
BRANCH  13  16
HETATM   16  C   UNL     1     -12.180  15.191  70.652  1.00  0.00    -0.401 A  
HETATM   17  C   UNL     1     -12.960  14.126  71.128  1.00  0.00    -0.419 A  
HETATM   18  C   UNL     1     -13.303  14.044  72.478  1.00  0.00    -0.639 A  
HETATM   19  C   UNL     1     -12.857  15.013  73.375  1.00  0.00    -0.652 A  
HETATM   20  C   UNL     1     -12.060  16.059  72.927  1.00  0.00    -0.626 A  
HETATM   21  C   UNL     1     -11.715  16.142  71.580  1.00  0.00    -0.558 A  
ENDBRANCH  13  16
ENDBRANCH  11  13
ENDBRANCH  10  11
ENDBRANCH   8  10
TORSDOF 4
ENDMDL
MODEL        4
REMARK 921   NORMALIZED FREE ENERGY PREDICTED BY IDOCK:   -6.12 KCAL/MOL
REMARK 922        TOTAL FREE ENERGY PREDICTED BY IDOCK:   -8.47 KCAL/MOL
REMARK 923 INTER-LIGAND FREE ENERGY PREDICTED BY IDOCK:   -7.89 KCAL/MOL
REMARK 924 INTRA-LIGAND FREE ENERGY PREDICTED BY IDOCK:   -0.58 KCAL/MOL
REMARK 927      BINDING AFFINITY PREDICTED BY RF-SCORE:    0.00 PKD
ROOT
HETATM    1  C   UNL     1     -10.420  13.461  64.524  1.00  0.00    -0.413 C  
HETATM    2  C   UNL     1     -11.809  13.708  63.926  1.00  0.00    -0.419 C  
HETATM    3  C   UNL     1     -12.689  12.621  64.537  1.00  0.00    -0.439 C  
HETATM    4  C   UNL     1     -11.759  11.867  65.490  1.00  0.00    -0.157 C  
HETATM    5  C   UNL     1     -11.785  12.497  66.891  1.00  0.00    -0.447 C  
HETATM    6  N   UNL     1     -10.473  12.028  64.806  1.00  0.00    -0.281 NA 
HETATM    7  C   UNL     1      -9.312  11.479  65.489  1.00  0.00    -0.185 C  
HETATM    8  C   UNL     1     -10.995  13.809  67.023  1.00  0.00    -0.290 C  
HETATM    9  C   UNL     1     -10.205  14.289  65.791  1.00  0.00    -0.351 C  
ENDROOT
BRANCH   8  10
HETATM   10  O   UNL     1     -11.859  14.895  67.406  1.00  0.00    -0.348 OA 
BRANCH  10  11
HETATM   11  C   UNL     1     -11.308  15.713  68.357  1.00  0.00    -0.364 C  
HETATM   12  O   UNL     1     -11.106  16.912  68.200  1.00  0.00    -0.347 OA 
BRANCH  11  13
HETATM   13  C   UNL     1     -11.060  14.932  69.656  1.00  0.00    -0.276 C  
HETATM   14  O   UNL     1      -9.714  15.163  70.099  1.00  0.00    -0.476 OA 
HETATM   15  H   UNL     1      -9.560  14.680  70.902  1.00  0.00     0.000 HD 
BRANCH  13  16
HETATM   16  C   UNL     1     -12.032  15.233  70.778  1.00  0.00    -0.384 A  
HETATM   17  C   UNL     1     -13.394  14.912  70.676  1.00  0.00    -0.253 A  
HETATM   18  C   UNL     1     -14.265  15.162  71.738  1.00  0.00    -0.674 A  
HETATM   19  C   UNL     1     -13.784  15.718  72.923  1.00  0.00    -0.631 A  
HETATM   20  C   UNL     1     -12.434  16.017  73.051  1.00  0.00    -0.614 A  
HETATM   21  C   UNL     1     -11.563  15.768  71.993  1.00  0.00    -0.541 A  
ENDBRANCH  13  16
ENDBRANCH  11  13
ENDBRANCH  10  11
ENDBRANCH   8  10
TORSDOF 4
ENDMDL
MODEL        5
REMARK 921   NORMALIZED FREE ENERGY PREDICTED BY IDOCK:   -6.02 KCAL/MOL
REMARK 922        TOTAL FREE ENERGY PREDICTED BY IDOCK:   -8.34 KCAL/MOL
REMARK 923 INTER-LIGAND FREE ENERGY PREDICTED BY IDOCK:   -7.95 KCAL/MOL
REMARK 924 INTRA-LIGAND FREE ENERGY PREDICTED BY IDOCK:   -0.39 KCAL/MOL
REMARK 927      BINDING AFFINITY PREDICTED BY RF-SCORE:    0.00 PKD
ROOT
HETATM    1  C   UNL     1      -9.984  14.194  65.167  1.00  0.00    -0.229 C  
HETATM    2  C   UNL     1     -10.720  15.516  64.926  1.00  0.00    -0.415 C  
HETATM    3  C   UNL     1     -12.010  15.114  64.216  1.00  0.00    -0.276 C  
HETATM    4  C   UNL     1     -11.954  13.586  64.156  1.00  0.00    -0.448 C  
HETATM    5  C   UNL     1     -12.598  12.967  65.406  1.00  0.00    -0.481 C  
HETATM    6  N   UNL     1     -10.506  13.366  64.081  1.00  0.00    -0.319 NA 
HETATM    7  C   UNL     1     -10.069  11.979  64.083  1.00  0.00    -0.313 C  
HETATM    8  C   UNL     1     -11.737  13.033  66.676  1.00  0.00    -0.381 C  
HETATM    9  C   UNL     1     -10.316  13.615  66.542  1.00  0.00    -0.282 C  
ENDROOT
BRANCH   8  10
HETATM   10  O   UNL     1     -12.396  13.791  67.707  1.00  0.00    -0.251 OA 
BRANCH  10  11
HETATM   11  C   UNL     1     -11.794  13.674  68.933  1.00  0.00    -0.364 C  
HETATM   12  O   UNL     1     -11.455  12.608  69.434  1.00  0.00    -0.276 OA 
BRANCH  11  13
HETATM   13  C   UNL     1     -11.539  15.062  69.538  1.00  0.00    -0.311 C  
HETATM   14  O   UNL     1     -11.933  16.071  68.595  1.00  0.00    -0.431 OA 
HETATM   15  H   UNL     1     -11.775  16.929  68.970  1.00  0.00     0.000 HD 
BRANCH  13  16
HETATM   16  C   UNL     1     -12.214  15.310  70.871  1.00  0.00    -0.409 A  
HETATM   17  C   UNL     1     -11.534  15.920  71.937  1.00  0.00    -0.442 A  
HETATM   18  C   UNL     1     -12.187  16.176  73.144  1.00  0.00    -0.643 A  
HETATM   19  C   UNL     1     -13.532  15.844  73.297  1.00  0.00    -0.599 A  
HETATM   20  C   UNL     1     -14.228  15.266  72.243  1.00  0.00    -0.642 A  
HETATM   21  C   UNL     1     -13.579  15.010  71.038  1.00  0.00    -0.442 A  
ENDBRANCH  13  16
ENDBRANCH  11  13
ENDBRANCH  10  11
ENDBRANCH   8  10
TORSDOF 4
ENDMDL
MODEL        6
REMARK 921   NORMALIZED FREE ENERGY PREDICTED BY IDOCK:   -5.94 KCAL/MOL
REMARK 922        TOTAL FREE ENERGY PREDICTED BY IDOCK:   -8.24 KCAL/MOL
REMARK 923 INTER-LIGAND FREE ENERGY PREDICTED BY IDOCK:   -7.58 KCAL/MOL
REMARK 924 INTRA-LIGAND FREE ENERGY PREDICTED BY IDOCK:   -0.67 KCAL/MOL
REMARK 927      BINDING AFFINITY PREDICTED BY RF-SCORE:    0.00 PKD
ROOT
HETATM    1  C   UNL     1     -10.056  18.492  68.324  1.00  0.00    -0.390 C  
HETATM    2  C   UNL     1     -10.715  19.503  67.380  1.00  0.00    -0.589 C  
HETATM    3  C   UNL     1      -9.685  19.725  66.275  1.00  0.00    -0.532 C  
HETATM    4  C   UNL     1      -8.535  18.780  66.629  1.00  0.00    -0.294 C  
HETATM    5  C   UNL     1      -8.743  17.402  65.983  1.00  0.00    -0.097 C  
HETATM    6  N   UNL     1      -8.637  18.756  68.092  1.00  0.00    -0.300 NA 
HETATM    7  C   UNL     1      -7.713  17.871  68.782  1.00  0.00    -0.259 C  
HETATM    8  C   UNL     1      -9.794  16.518  66.672  1.00  0.00    -0.268 C  
HETATM    9  C   UNL     1     -10.442  17.058  67.960  1.00  0.00    -0.353 C  
ENDROOT
BRANCH   8  10
HETATM   10  O   UNL     1     -10.871  16.200  65.771  1.00  0.00    -0.290 OA 
BRANCH  10  11
HETATM   11  C   UNL     1     -10.984  14.858  65.516  1.00  0.00    -0.350 C  
HETATM   12  O   UNL     1     -10.176  14.212  64.860  1.00  0.00    -0.412 OA 
BRANCH  11  13
HETATM   13  C   UNL     1     -12.214  14.280  66.232  1.00  0.00    -0.410 C  
HETATM   14  O   UNL     1     -13.083  13.669  65.265  1.00  0.00    -0.735 OA 
HETATM   15  H   UNL     1     -13.843  13.312  65.708  1.00  0.00     0.000 HD 
BRANCH  13  16
HETATM   16  C   UNL     1     -11.903  13.296  67.340  1.00  0.00    -0.413 A  
HETATM   17  C   UNL     1     -11.939  13.675  68.691  1.00  0.00    -0.395 A  
HETATM   18  C   UNL     1     -11.688  12.742  69.698  1.00  0.00    -0.372 A  
HETATM   19  C   UNL     1     -11.417  11.414  69.372  1.00  0.00    -0.378 A  
HETATM   20  C   UNL     1     -11.405  11.015  68.042  1.00  0.00    -0.374 A  
HETATM   21  C   UNL     1     -11.656  11.944  67.035  1.00  0.00    -0.365 A  
ENDBRANCH  13  16
ENDBRANCH  11  13
ENDBRANCH  10  11
ENDBRANCH   8  10
TORSDOF 4
ENDMDL
MODEL        7
REMARK 921   NORMALIZED FREE ENERGY PREDICTED BY IDOCK:   -5.93 KCAL/MOL
REMARK 922        TOTAL FREE ENERGY PREDICTED BY IDOCK:   -8.23 KCAL/MOL
REMARK 923 INTER-LIGAND FREE ENERGY PREDICTED BY IDOCK:   -7.47 KCAL/MOL
REMARK 924 INTRA-LIGAND FREE ENERGY PREDICTED BY IDOCK:   -0.76 KCAL/MOL
REMARK 927      BINDING AFFINITY PREDICTED BY RF-SCORE:    0.00 PKD
ROOT
HETATM    1  C   UNL     1      -8.206  15.813  67.817  1.00  0.00    -0.144 C  
HETATM    2  C   UNL     1      -9.203  15.938  68.974  1.00  0.00    -0.242 C  
HETATM    3  C   UNL     1      -9.752  17.357  68.858  1.00  0.00    -0.251 C  
HETATM    4  C   UNL     1      -9.080  17.926  67.606  1.00  0.00    -0.250 C  
HETATM    5  C   UNL     1      -9.921  17.634  66.355  1.00  0.00    -0.337 C  
HETATM    6  N   UNL     1      -7.803  17.206  67.627  1.00  0.00    -0.175 NA 
HETATM    7  C   UNL     1      -6.911  17.453  66.506  1.00  0.00    -0.260 C  
HETATM    8  C   UNL     1      -9.839  16.188  65.844  1.00  0.00    -0.353 C  
HETATM    9  C   UNL     1      -8.872  15.232  66.570  1.00  0.00    -0.335 C  
ENDROOT
BRANCH   8  10
HETATM   10  O   UNL     1     -11.134  15.558  65.868  1.00  0.00    -0.301 OA 
BRANCH  10  11
HETATM   11  C   UNL     1     -11.706  15.454  64.627  1.00  0.00    -0.267 C  
HETATM   12  O   UNL     1     -11.694  16.346  63.787  1.00  0.00    -1.049 OA 
BRANCH  11  13
HETATM   13  C   UNL     1     -12.285  14.047  64.422  1.00  0.00    -0.426 C  
HETATM   14  O   UNL     1     -12.454  13.803  63.016  1.00  0.00    -1.068 OA 
HETATM   15  H   UNL     1     -12.812  12.932  62.889  1.00  0.00     0.000 HD 
BRANCH  13  16
HETATM   16  C   UNL     1     -11.478  12.927  65.046  1.00  0.00    -0.350 A  
HETATM   17  C   UNL     1     -10.296  12.454  64.455  1.00  0.00    -0.351 A  
HETATM   18  C   UNL     1      -9.547  11.450  65.068  1.00  0.00    -0.250 A  
HETATM   19  C   UNL     1      -9.957  10.916  66.289  1.00  0.00    -0.274 A  
HETATM   20  C   UNL     1     -11.109  11.390  66.902  1.00  0.00    -0.356 A  
HETATM   21  C   UNL     1     -11.858  12.394  66.293  1.00  0.00    -0.431 A  
ENDBRANCH  13  16
ENDBRANCH  11  13
ENDBRANCH  10  11
ENDBRANCH   8  10
TORSDOF 4
ENDMDL
MODEL        8
REMARK 921   NORMALIZED FREE ENERGY PREDICTED BY IDOCK:   -5.90 KCAL/MOL
REMARK 922        TOTAL FREE ENERGY PREDICTED BY IDOCK:   -8.20 KCAL/MOL
REMARK 923 INTER-LIGAND FREE ENERGY PREDICTED BY IDOCK:   -7.58 KCAL/MOL
REMARK 924 INTRA-LIGAND FREE ENERGY PREDICTED BY IDOCK:   -0.62 KCAL/MOL
REMARK 927      BINDING AFFINITY PREDICTED BY RF-SCORE:    0.00 PKD
ROOT
HETATM    1  C   UNL     1     -12.257  13.632  64.923  1.00  0.00    -0.414 C  
HETATM    2  C   UNL     1     -12.707  12.414  64.111  1.00  0.00    -0.446 C  
HETATM    3  C   UNL     1     -11.408  11.738  63.679  1.00  0.00    -0.525 C  
HETATM    4  C   UNL     1     -10.306  12.579  64.327  1.00  0.00    -0.370 C  
HETATM    5  C   UNL     1      -9.968  12.049  65.729  1.00  0.00    -0.266 C  
HETATM    6  N   UNL     1     -10.942  13.901  64.345  1.00  0.00    -0.360 NA 
HETATM    7  C   UNL     1     -10.183  14.966  64.979  1.00  0.00    -0.330 C  
HETATM    8  C   UNL     1     -10.993  12.402  66.817  1.00  0.00    -0.263 C  
HETATM    9  C   UNL     1     -12.174  13.306  66.415  1.00  0.00    -0.419 C  
ENDROOT
BRANCH   8  10
HETATM   10  O   UNL     1     -11.564  11.212  67.392  1.00  0.00    -0.522 OA 
BRANCH  10  11
HETATM   11  C   UNL     1     -11.173  10.997  68.688  1.00  0.00    -0.263 C  
HETATM   12  O   UNL     1     -10.006  10.880  69.044  1.00  0.00    -0.205 OA 
BRANCH  11  13
HETATM   13  C   UNL     1     -12.391  11.004  69.623  1.00  0.00    -0.234 C  
HETATM   14  O   UNL     1     -12.356   9.836  70.458  1.00  0.00    -0.449 OA 
HETATM   15  H   UNL     1     -13.109   9.840  71.036  1.00  0.00     0.000 HD 
BRANCH  13  16
HETATM   16  C   UNL     1     -12.533  12.246  70.478  1.00  0.00    -0.272 A  
HETATM   17  C   UNL     1     -12.142  13.510  70.009  1.00  0.00    -0.411 A  
HETATM   18  C   UNL     1     -12.319  14.646  70.799  1.00  0.00    -0.398 A  
HETATM   19  C   UNL     1     -12.904  14.540  72.060  1.00  0.00    -0.409 A  
HETATM   20  C   UNL     1     -13.321  13.301  72.529  1.00  0.00    -0.569 A  
HETATM   21  C   UNL     1     -13.148  12.165  71.743  1.00  0.00    -0.457 A  
ENDBRANCH  13  16
ENDBRANCH  11  13
ENDBRANCH  10  11
ENDBRANCH   8  10
TORSDOF 4
ENDMDL
MODEL        9
REMARK 921   NORMALIZED FREE ENERGY PREDICTED BY IDOCK:   -5.74 KCAL/MOL
REMARK 922        TOTAL FREE ENERGY PREDICTED BY IDOCK:   -8.01 KCAL/MOL
REMARK 923 INTER-LIGAND FREE ENERGY PREDICTED BY IDOCK:   -7.40 KCAL/MOL
REMARK 924 INTRA-LIGAND FREE ENERGY PREDICTED BY IDOCK:   -0.61 KCAL/MOL
REMARK 927      BINDING AFFINITY PREDICTED BY RF-SCORE:    0.00 PKD
ROOT
HETATM    1  C   UNL     1      -8.678  17.735  66.225  1.00  0.00    -0.176 C  
HETATM    2  C   UNL     1      -7.570  17.326  67.201  1.00  0.00    -0.217 C  
HETATM    3  C   UNL     1      -8.062  17.806  68.564  1.00  0.00    -0.297 C  
HETATM    4  C   UNL     1      -9.445  18.400  68.284  1.00  0.00    -0.324 C  
HETATM    5  C   UNL     1     -10.535  17.325  68.410  1.00  0.00    -0.381 C  
HETATM    6  N   UNL     1      -9.265  18.884  66.912  1.00  0.00    -0.294 NA 
HETATM    7  C   UNL     1     -10.439  19.461  66.278  1.00  0.00    -0.493 C  
HETATM    8  C   UNL     1     -10.621  16.350  67.227  1.00  0.00    -0.293 C  
HETATM    9  C   UNL     1      -9.689  16.605  66.027  1.00  0.00    -0.306 C  
ENDROOT
BRANCH   8  10
HETATM   10  O   UNL     1     -10.379  14.996  67.655  1.00  0.00    -0.240 OA 
BRANCH  10  11
HETATM   11  C   UNL     1     -11.511  14.224  67.671  1.00  0.00    -0.346 C  
HETATM   12  O   UNL     1     -12.406  14.298  66.837  1.00  0.00    -0.408 OA 
BRANCH  11  13
HETATM   13  C   UNL     1     -11.453  13.215  68.828  1.00  0.00    -0.307 C  
HETATM   14  O   UNL     1     -10.081  12.952  69.159  1.00  0.00    -0.414 OA 
HETATM   15  H   UNL     1     -10.045  12.328  69.874  1.00  0.00     0.000 HD 
BRANCH  13  16
HETATM   16  C   UNL     1     -12.215  13.625  70.071  1.00  0.00    -0.395 A  
HETATM   17  C   UNL     1     -12.626  12.682  71.025  1.00  0.00    -0.354 A  
HETATM   18  C   UNL     1     -13.291  13.086  72.183  1.00  0.00    -0.622 A  
HETATM   19  C   UNL     1     -13.539  14.438  72.414  1.00  0.00    -0.578 A  
HETATM   20  C   UNL     1     -13.114  15.388  71.494  1.00  0.00    -0.545 A  
HETATM   21  C   UNL     1     -12.449  14.988  70.338  1.00  0.00    -0.407 A  
ENDBRANCH  13  16
ENDBRANCH  11  13
ENDBRANCH  10  11
ENDBRANCH   8  10
TORSDOF 4
ENDMDL
MODEL       10
REMARK 921   NORMALIZED FREE ENERGY PREDICTED BY IDOCK:   -5.69 KCAL/MOL
REMARK 922        TOTAL FREE ENERGY PREDICTED BY IDOCK:   -7.94 KCAL/MOL
REMARK 923 INTER-LIGAND FREE ENERGY PREDICTED BY IDOCK:   -7.45 KCAL/MOL
REMARK 924 INTRA-LIGAND FREE ENERGY PREDICTED BY IDOCK:   -0.49 KCAL/MOL
REMARK 927      BINDING AFFINITY PREDICTED BY RF-SCORE:    0.00 PKD
ROOT
HETATM    1  C   UNL     1     -10.016  19.162  68.407  1.00  0.00    -0.418 C  
HETATM    2  C   UNL     1     -11.020  19.458  67.288  1.00  0.00    -0.454 C  
HETATM    3  C   UNL     1     -10.198  19.384  66.004  1.00  0.00    -0.540 C  
HETATM    4  C   UNL     1      -8.795  18.989  66.471  1.00  0.00    -0.327 C  
HETATM    5  C   UNL     1      -8.642  17.461  66.507  1.00  0.00    -0.293 C  
HETATM    6  N   UNL     1      -8.762  19.607  67.801  1.00  0.00    -0.316 NA 
HETATM    7  C   UNL     1      -7.565  19.365  68.589  1.00  0.00    -0.363 C  
HETATM    8  C   UNL     1      -9.324  16.772  67.698  1.00  0.00    -0.228 C  
HETATM    9  C   UNL     1      -9.993  17.673  68.753  1.00  0.00    -0.358 C  
ENDROOT
BRANCH   8  10
HETATM   10  O   UNL     1     -10.332  15.846  67.250  1.00  0.00    -0.279 OA 
BRANCH  10  11
HETATM   11  C   UNL     1     -10.058  14.546  67.585  1.00  0.00    -0.228 C  
HETATM   12  O   UNL     1      -9.012  14.175  68.105  1.00  0.00    -0.174 OA 
BRANCH  11  13
HETATM   13  C   UNL     1     -11.270  13.651  67.288  1.00  0.00    -0.309 C  
HETATM   14  O   UNL     1     -12.473  14.426  67.405  1.00  0.00    -0.603 OA 
HETATM   15  H   UNL     1     -13.222  13.873  67.222  1.00  0.00     0.000 HD 
BRANCH  13  16
HETATM   16  C   UNL     1     -11.234  12.954  65.944  1.00  0.00    -0.323 A  
HETATM   17  C   UNL     1     -10.473  11.793  65.737  1.00  0.00    -0.302 A  
HETATM   18  C   UNL     1     -10.487  11.144  64.502  1.00  0.00    -0.415 A  
HETATM   19  C   UNL     1     -11.274  11.634  63.461  1.00  0.00    -0.462 A  
HETATM   20  C   UNL     1     -12.055  12.766  63.656  1.00  0.00    -0.624 A  
HETATM   21  C   UNL     1     -12.045  13.415  64.888  1.00  0.00    -0.430 A  
ENDBRANCH  13  16
ENDBRANCH  11  13
ENDBRANCH  10  11
ENDBRANCH   8  10
TORSDOF 4
ENDMDL
MODEL       11
REMARK 921   NORMALIZED FREE ENERGY PREDICTED BY IDOCK:   -5.69 KCAL/MOL
REMARK 922        TOTAL FREE ENERGY PREDICTED BY IDOCK:   -7.94 KCAL/MOL
REMARK 923 INTER-LIGAND FREE ENERGY PREDICTED BY IDOCK:   -7.59 KCAL/MOL
REMARK 924 INTRA-LIGAND FREE ENERGY PREDICTED BY IDOCK:   -0.35 KCAL/MOL
REMARK 927      BINDING AFFINITY PREDICTED BY RF-SCORE:    0.00 PKD
ROOT
HETATM    1  C   UNL     1     -12.458  13.860  64.582  1.00  0.00    -0.325 C  
HETATM    2  C   UNL     1     -12.260  12.436  64.050  1.00  0.00    -0.579 C  
HETATM    3  C   UNL     1     -10.764  12.174  64.201  1.00  0.00    -0.405 C  
HETATM    4  C   UNL     1     -10.219  13.440  64.866  1.00  0.00    -0.319 C  
HETATM    5  C   UNL     1     -10.266  13.316  66.397  1.00  0.00    -0.292 C  
HETATM    6  N   UNL     1     -11.143  14.449  64.338  1.00  0.00    -0.268 NA 
HETATM    7  C   UNL     1     -10.961  15.804  64.834  1.00  0.00    -0.427 C  
HETATM    8  C   UNL     1     -11.661  13.489  67.016  1.00  0.00    -0.383 C  
HETATM    9  C   UNL     1     -12.820  13.853  66.067  1.00  0.00    -0.302 C  
ENDROOT
BRANCH   8  10
HETATM   10  O   UNL     1     -12.065  12.299  67.720  1.00  0.00    -0.478 OA 
BRANCH  10  11
HETATM   11  C   UNL     1     -11.601  12.250  69.008  1.00  0.00    -0.316 C  
HETATM   12  O   UNL     1     -11.788  13.129  69.841  1.00  0.00    -0.317 OA 
BRANCH  11  13
HETATM   13  C   UNL     1     -10.890  10.914  69.270  1.00  0.00    -0.241 C  
HETATM   14  O   UNL     1      -9.493  11.157  69.502  1.00  0.00    -0.394 OA 
HETATM   15  H   UNL     1      -9.054  10.331  69.663  1.00  0.00     0.000 HD 
BRANCH  13  16
HETATM   16  C   UNL     1     -11.467  10.096  70.406  1.00  0.00    -0.400 A  
HETATM   17  C   UNL     1     -10.666   9.235  71.173  1.00  0.00    -0.403 A  
HETATM   18  C   UNL     1     -11.210   8.521  72.241  1.00  0.00    -0.432 A  
HETATM   19  C   UNL     1     -12.556   8.670  72.570  1.00  0.00    -0.367 A  
HETATM   20  C   UNL     1     -13.358   9.538  71.840  1.00  0.00    -0.518 A  
HETATM   21  C   UNL     1     -12.817  10.253  70.774  1.00  0.00    -0.427 A  
ENDBRANCH  13  16
ENDBRANCH  11  13
ENDBRANCH  10  11
ENDBRANCH   8  10
TORSDOF 4
ENDMDL
MODEL       12
REMARK 921   NORMALIZED FREE ENERGY PREDICTED BY IDOCK:   -5.67 KCAL/MOL
REMARK 922        TOTAL FREE ENERGY PREDICTED BY IDOCK:   -7.91 KCAL/MOL
REMARK 923 INTER-LIGAND FREE ENERGY PREDICTED BY IDOCK:   -7.23 KCAL/MOL
REMARK 924 INTRA-LIGAND FREE ENERGY PREDICTED BY IDOCK:   -0.69 KCAL/MOL
REMARK 927      BINDING AFFINITY PREDICTED BY RF-SCORE:    0.00 PKD
ROOT
HETATM    1  C   UNL     1     -10.332   7.389  70.478  1.00  0.00    -0.214 C  
HETATM    2  C   UNL     1     -11.639   6.636  70.209  1.00  0.00    -0.454 C  
HETATM    3  C   UNL     1     -12.483   6.871  71.459  1.00  0.00    -0.420 C  
HETATM    4  C   UNL     1     -11.627   7.794  72.330  1.00  0.00    -0.338 C  
HETATM    5  C   UNL     1     -11.917   9.269  72.011  1.00  0.00    -0.391 C  
HETATM    6  N   UNL     1     -10.279   7.371  71.939  1.00  0.00    -0.186 NA 
HETATM    7  C   UNL     1      -9.178   8.111  72.535  1.00  0.00    -0.251 C  
HETATM    8  C   UNL     1     -11.293   9.782  70.704  1.00  0.00    -0.330 C  
HETATM    9  C   UNL     1     -10.387   8.812  69.921  1.00  0.00    -0.212 C  
ENDROOT
BRANCH   8  10
HETATM   10  O   UNL     1     -12.309  10.227  69.787  1.00  0.00    -0.125 OA 
BRANCH  10  11
HETATM   11  C   UNL     1     -11.961  11.364  69.106  1.00  0.00    -0.328 C  
HETATM   12  O   UNL     1     -12.127  11.524  67.902  1.00  0.00    -0.630 OA 
BRANCH  11  13
HETATM   13  C   UNL     1     -11.415  12.422  70.076  1.00  0.00    -0.031 C  
HETATM   14  O   UNL     1     -10.477  13.261  69.385  1.00  0.00    -0.427 OA 
HETATM   15  H   UNL     1     -10.139  13.915  69.985  1.00  0.00     0.000 HD 
BRANCH  13  16
HETATM   16  C   UNL     1     -12.470  13.274  70.751  1.00  0.00    -0.403 A  
HETATM   17  C   UNL     1     -13.209  12.799  71.846  1.00  0.00    -0.511 A  
HETATM   18  C   UNL     1     -14.148  13.616  72.478  1.00  0.00    -0.487 A  
HETATM   19  C   UNL     1     -14.348  14.924  72.039  1.00  0.00    -0.651 A  
HETATM   20  C   UNL     1     -13.606  15.419  70.975  1.00  0.00    -0.465 A  
HETATM   21  C   UNL     1     -12.668  14.607  70.343  1.00  0.00    -0.370 A  
ENDBRANCH  13  16
ENDBRANCH  11  13
ENDBRANCH  10  11
ENDBRANCH   8  10
TORSDOF 4
ENDMDL
MODEL       13
REMARK 921   NORMALIZED FREE ENERGY PREDICTED BY IDOCK:   -5.64 KCAL/MOL
REMARK 922        TOTAL FREE ENERGY PREDICTED BY IDOCK:   -7.88 KCAL/MOL
REMARK 923 INTER-LIGAND FREE ENERGY PREDICTED BY IDOCK:   -7.06 KCAL/MOL
REMARK 924 INTRA-LIGAND FREE ENERGY PREDICTED BY IDOCK:   -0.82 KCAL/MOL
REMARK 927      BINDING AFFINITY PREDICTED BY RF-SCORE:    0.00 PKD
ROOT
HETATM    1  C   UNL     1      -9.045  15.647  67.138  1.00  0.00    -0.210 C  
HETATM    2  C   UNL     1      -8.375  14.292  67.387  1.00  0.00    -0.212 C  
HETATM    3  C   UNL     1      -9.457  13.445  68.053  1.00  0.00    -0.218 C  
HETATM    4  C   UNL     1     -10.689  14.352  68.082  1.00  0.00    -0.236 C  
HETATM    5  C   UNL     1     -11.522  14.182  66.803  1.00  0.00    -0.383 C  
HETATM    6  N   UNL     1     -10.058  15.671  68.192  1.00  0.00    -0.221 NA 
HETATM    7  C   UNL     1     -10.957  16.814  68.171  1.00  0.00    -0.309 C  
HETATM    8  C   UNL     1     -10.941  14.869  65.558  1.00  0.00    -0.350 C  
HETATM    9  C   UNL     1      -9.665  15.713  65.742  1.00  0.00    -0.380 C  
ENDROOT
BRANCH   8  10
HETATM   10  O   UNL     1     -10.652  13.908  64.525  1.00  0.00    -0.424 OA 
BRANCH  10  11
HETATM   11  C   UNL     1     -11.776  13.429  63.904  1.00  0.00    -0.404 C  
HETATM   12  O   UNL     1     -12.574  14.128  63.290  1.00  0.00    -0.766 OA 
BRANCH  11  13
HETATM   13  C   UNL     1     -11.841  11.899  64.022  1.00  0.00    -0.364 C  
HETATM   14  O   UNL     1     -12.505  11.362  62.867  1.00  0.00    -0.949 OA 
HETATM   15  H   UNL     1     -12.545  10.416  62.940  1.00  0.00     0.000 HD 
BRANCH  13  16
HETATM   16  C   UNL     1     -10.503  11.216  64.213  1.00  0.00    -0.427 A  
HETATM   17  C   UNL     1      -9.598  11.064  63.151  1.00  0.00    -0.384 A  
HETATM   18  C   UNL     1      -8.353  10.467  63.359  1.00  0.00    -0.158 A  
HETATM   19  C   UNL     1      -7.988  10.030  64.631  1.00  0.00    -0.145 A  
HETATM   20  C   UNL     1      -8.861  10.197  65.699  1.00  0.00    -0.185 A  
HETATM   21  C   UNL     1     -10.103  10.794  65.495  1.00  0.00    -0.335 A  
ENDBRANCH  13  16
ENDBRANCH  11  13
ENDBRANCH  10  11
ENDBRANCH   8  10
TORSDOF 4
ENDMDL
MODEL       14
REMARK 921   NORMALIZED FREE ENERGY PREDICTED BY IDOCK:   -5.62 KCAL/MOL
REMARK 922        TOTAL FREE ENERGY PREDICTED BY IDOCK:   -7.86 KCAL/MOL
REMARK 923 INTER-LIGAND FREE ENERGY PREDICTED BY IDOCK:   -7.24 KCAL/MOL
REMARK 924 INTRA-LIGAND FREE ENERGY PREDICTED BY IDOCK:   -0.61 KCAL/MOL
REMARK 927      BINDING AFFINITY PREDICTED BY RF-SCORE:    0.00 PKD
ROOT
HETATM    1  C   UNL     1      -9.433   7.823  68.333  1.00  0.00    -0.147 C  
HETATM    2  C   UNL     1     -10.563   7.704  67.304  1.00  0.00    -0.388 C  
HETATM    3  C   UNL     1     -10.953   6.228  67.329  1.00  0.00    -0.455 C  
HETATM    4  C   UNL     1     -10.065   5.617  68.415  1.00  0.00    -0.173 C  
HETATM    5  C   UNL     1     -10.752   5.691  69.787  1.00  0.00    -0.401 C  
HETATM    6  N   UNL     1      -8.877   6.471  68.315  1.00  0.00    -0.120 NA 
HETATM    7  C   UNL     1      -7.821   6.214  69.280  1.00  0.00    -0.104 C  
HETATM    8  C   UNL     1     -10.739   7.081  70.441  1.00  0.00    -0.234 C  
HETATM    9  C   UNL     1      -9.975   8.203  69.711  1.00  0.00    -0.191 C  
ENDROOT
BRANCH   8  10
HETATM   10  O   UNL     1     -12.079   7.565  70.651  1.00  0.00    -0.212 OA 
BRANCH  10  11
HETATM   11  C   UNL     1     -12.228   8.246  71.831  1.00  0.00    -0.337 C  
HETATM   12  O   UNL     1     -11.483   8.122  72.796  1.00  0.00    -0.408 OA 
BRANCH  11  13
HETATM   13  C   UNL     1     -13.403   9.231  71.735  1.00  0.00    -0.409 C  
HETATM   14  O   UNL     1     -14.153   9.196  72.959  1.00  0.00    -1.068 OA 
HETATM   15  H   UNL     1     -14.879   9.805  72.899  1.00  0.00     0.000 HD 
BRANCH  13  16
HETATM   16  C   UNL     1     -13.015  10.658  71.408  1.00  0.00    -0.545 A  
HETATM   17  C   UNL     1     -12.244  10.970  70.277  1.00  0.00    -0.447 A  
HETATM   18  C   UNL     1     -11.932  12.295  69.973  1.00  0.00    -0.379 A  
HETATM   19  C   UNL     1     -12.399  13.329  70.782  1.00  0.00    -0.425 A  
HETATM   20  C   UNL     1     -13.186  13.041  71.890  1.00  0.00    -0.527 A  
HETATM   21  C   UNL     1     -13.500  11.719  72.196  1.00  0.00    -0.273 A  
ENDBRANCH  13  16
ENDBRANCH  11  13
ENDBRANCH  10  11
ENDBRANCH   8  10
TORSDOF 4
ENDMDL
MODEL       15
REMARK 921   NORMALIZED FREE ENERGY PREDICTED BY IDOCK:   -5.59 KCAL/MOL
REMARK 922        TOTAL FREE ENERGY PREDICTED BY IDOCK:   -7.82 KCAL/MOL
REMARK 923 INTER-LIGAND FREE ENERGY PREDICTED BY IDOCK:   -7.33 KCAL/MOL
REMARK 924 INTRA-LIGAND FREE ENERGY PREDICTED BY IDOCK:   -0.49 KCAL/MOL
REMARK 927      BINDING AFFINITY PREDICTED BY RF-SCORE:    0.00 PKD
ROOT
HETATM    1  C   UNL     1      -9.967  19.487  68.418  1.00  0.00    -0.443 C  
HETATM    2  C   UNL     1     -10.902  19.965  67.301  1.00  0.00    -0.376 C  
HETATM    3  C   UNL     1     -10.065  19.862  66.029  1.00  0.00    -0.589 C  
HETATM    4  C   UNL     1      -8.731  19.274  66.494  1.00  0.00    -0.345 C  
HETATM    5  C   UNL     1      -8.765  17.739  66.444  1.00  0.00    -0.255 C  
HETATM    6  N   UNL     1      -8.655  19.808  67.858  1.00  0.00    -0.314 NA 
HETATM    7  C   UNL     1      -7.514  19.379  68.650  1.00  0.00    -0.350 C  
HETATM    8  C   UNL     1      -9.553  17.073  67.582  1.00  0.00    -0.249 C  
HETATM    9  C   UNL     1     -10.132  17.989  68.677  1.00  0.00    -0.401 C  
ENDROOT
BRANCH   8  10
HETATM   10  O   UNL     1     -10.655  16.304  67.066  1.00  0.00    -0.314 OA 
BRANCH  10  11
HETATM   11  C   UNL     1     -10.542  14.961  67.320  1.00  0.00    -0.272 C  
HETATM   12  O   UNL     1     -11.082  14.392  68.261  1.00  0.00    -0.244 OA 
BRANCH  11  13
HETATM   13  C   UNL     1      -9.717  14.277  66.221  1.00  0.00    -0.302 C  
HETATM   14  O   UNL     1      -8.706  13.457  66.828  1.00  0.00    -0.377 OA 
HETATM   15  H   UNL     1      -8.195  13.033  66.148  1.00  0.00     0.000 HD 
BRANCH  13  16
HETATM   16  C   UNL     1     -10.522  13.457  65.234  1.00  0.00    -0.334 A  
HETATM   17  C   UNL     1     -11.681  13.967  64.628  1.00  0.00    -0.413 A  
HETATM   18  C   UNL     1     -12.385  13.209  63.692  1.00  0.00    -0.482 A  
HETATM   19  C   UNL     1     -11.933  11.940  63.333  1.00  0.00    -0.528 A  
HETATM   20  C   UNL     1     -10.773  11.431  63.902  1.00  0.00    -0.462 A  
HETATM   21  C   UNL     1     -10.067  12.185  64.836  1.00  0.00    -0.280 A  
ENDBRANCH  13  16
ENDBRANCH  11  13
ENDBRANCH  10  11
ENDBRANCH   8  10
TORSDOF 4
ENDMDL
MODEL       16
REMARK 921   NORMALIZED FREE ENERGY PREDICTED BY IDOCK:   -5.57 KCAL/MOL
REMARK 922        TOTAL FREE ENERGY PREDICTED BY IDOCK:   -7.79 KCAL/MOL
REMARK 923 INTER-LIGAND FREE ENERGY PREDICTED BY IDOCK:   -6.99 KCAL/MOL
REMARK 924 INTRA-LIGAND FREE ENERGY PREDICTED BY IDOCK:   -0.80 KCAL/MOL
REMARK 927      BINDING AFFINITY PREDICTED BY RF-SCORE:    0.00 PKD
ROOT
HETATM    1  C   UNL     1      -8.944  15.129  67.941  1.00  0.00    -0.174 C  
HETATM    2  C   UNL     1      -9.941  15.382  69.077  1.00  0.00    -0.229 C  
HETATM    3  C   UNL     1     -10.527  16.759  68.774  1.00  0.00    -0.338 C  
HETATM    4  C   UNL     1      -9.873  17.171  67.453  1.00  0.00    -0.264 C  
HETATM    5  C   UNL     1     -10.709  16.691  66.257  1.00  0.00    -0.119 C  
HETATM    6  N   UNL     1      -8.577  16.493  67.563  1.00  0.00    -0.176 NA 
HETATM    7  C   UNL     1      -7.695  16.610  66.414  1.00  0.00    -0.293 C  
HETATM    8  C   UNL     1     -10.590  15.192  65.945  1.00  0.00    -0.337 C  
HETATM    9  C   UNL     1      -9.597  14.368  66.787  1.00  0.00    -0.279 C  
ENDROOT
BRANCH   8  10
HETATM   10  O   UNL     1     -11.868  14.538  66.061  1.00  0.00    -0.373 OA 
BRANCH  10  11
HETATM   11  C   UNL     1     -12.321  14.026  64.873  1.00  0.00    -0.427 C  
HETATM   12  O   UNL     1     -12.564  14.702  63.880  1.00  0.00    -0.834 OA 
BRANCH  11  13
HETATM   13  C   UNL     1     -12.403  12.494  64.948  1.00  0.00    -0.470 C  
HETATM   14  O   UNL     1     -13.468  12.033  64.101  1.00  0.00    -0.672 OA 
HETATM   15  H   UNL     1     -13.518  11.086  64.148  1.00  0.00     0.000 HD 
BRANCH  13  16
HETATM   16  C   UNL     1     -11.119  11.769  64.603  1.00  0.00    -0.363 A  
HETATM   17  C   UNL     1     -10.532  10.852  65.489  1.00  0.00    -0.286 A  
HETATM   18  C   UNL     1      -9.371  10.164  65.134  1.00  0.00    -0.290 A  
HETATM   19  C   UNL     1      -8.789  10.369  63.884  1.00  0.00    -0.222 A  
HETATM   20  C   UNL     1      -9.372  11.252  62.984  1.00  0.00    -0.359 A  
HETATM   21  C   UNL     1     -10.531  11.938  63.335  1.00  0.00    -0.487 A  
ENDBRANCH  13  16
ENDBRANCH  11  13
ENDBRANCH  10  11
ENDBRANCH   8  10
TORSDOF 4
ENDMDL
MODEL       17
REMARK 921   NORMALIZED FREE ENERGY PREDICTED BY IDOCK:   -5.52 KCAL/MOL
REMARK 922        TOTAL FREE ENERGY PREDICTED BY IDOCK:   -7.74 KCAL/MOL
REMARK 923 INTER-LIGAND FREE ENERGY PREDICTED BY IDOCK:   -7.45 KCAL/MOL
REMARK 924 INTRA-LIGAND FREE ENERGY PREDICTED BY IDOCK:   -0.28 KCAL/MOL
REMARK 927      BINDING AFFINITY PREDICTED BY RF-SCORE:    0.00 PKD
ROOT
HETATM    1  C   UNL     1     -11.554  11.722  65.824  1.00  0.00    -0.125 C  
HETATM    2  C   UNL     1     -11.208  11.269  67.247  1.00  0.00    -0.364 C  
HETATM    3  C   UNL     1      -9.831  11.869  67.517  1.00  0.00    -0.194 C  
HETATM    4  C   UNL     1      -9.511  12.676  66.256  1.00  0.00    -0.207 C  
HETATM    5  C   UNL     1     -10.025  14.118  66.386  1.00  0.00    -0.302 C  
HETATM    6  N   UNL     1     -10.225  11.895  65.241  1.00  0.00    -0.263 NA 
HETATM    7  C   UNL     1     -10.198  12.430  63.889  1.00  0.00    -0.383 C  
HETATM    8  C   UNL     1     -11.542  14.281  66.208  1.00  0.00    -0.372 C  
HETATM    9  C   UNL     1     -12.353  13.025  65.835  1.00  0.00    -0.432 C  
ENDROOT
BRANCH   8  10
HETATM   10  O   UNL     1     -12.146  14.821  67.398  1.00  0.00    -0.303 OA 
BRANCH  10  11
HETATM   11  C   UNL     1     -11.255  15.477  68.206  1.00  0.00    -0.343 C  
HETATM   12  O   UNL     1     -10.824  16.603  67.984  1.00  0.00    -0.343 OA 
BRANCH  11  13
HETATM   13  C   UNL     1     -10.943  14.636  69.452  1.00  0.00    -0.257 C  
HETATM   14  O   UNL     1      -9.827  15.212  70.148  1.00  0.00    -0.494 OA 
HETATM   15  H   UNL     1      -9.634  14.692  70.919  1.00  0.00     0.000 HD 
BRANCH  13  16
HETATM   16  C   UNL     1     -12.106  14.452  70.406  1.00  0.00    -0.399 A  
HETATM   17  C   UNL     1     -12.335  13.231  71.058  1.00  0.00    -0.379 A  
HETATM   18  C   UNL     1     -13.389  13.095  71.963  1.00  0.00    -0.587 A  
HETATM   19  C   UNL     1     -14.216  14.182  72.244  1.00  0.00    -0.598 A  
HETATM   20  C   UNL     1     -13.988  15.405  71.627  1.00  0.00    -0.617 A  
HETATM   21  C   UNL     1     -12.936  15.543  70.725  1.00  0.00    -0.490 A  
ENDBRANCH  13  16
ENDBRANCH  11  13
ENDBRANCH  10  11
ENDBRANCH   8  10
TORSDOF 4
ENDMDL
MODEL       18
REMARK 921   NORMALIZED FREE ENERGY PREDICTED BY IDOCK:   -5.50 KCAL/MOL
REMARK 922        TOTAL FREE ENERGY PREDICTED BY IDOCK:   -7.71 KCAL/MOL
REMARK 923 INTER-LIGAND FREE ENERGY PREDICTED BY IDOCK:   -7.24 KCAL/MOL
REMARK 924 INTRA-LIGAND FREE ENERGY PREDICTED BY IDOCK:   -0.47 KCAL/MOL
REMARK 927      BINDING AFFINITY PREDICTED BY RF-SCORE:    0.00 PKD
ROOT
HETATM    1  C   UNL     1     -12.363  13.753  64.688  1.00  0.00    -0.372 C  
HETATM    2  C   UNL     1     -12.514  12.502  63.816  1.00  0.00    -0.552 C  
HETATM    3  C   UNL     1     -11.088  11.989  63.629  1.00  0.00    -0.525 C  
HETATM    4  C   UNL     1     -10.226  12.944  64.459  1.00  0.00    -0.310 C  
HETATM    5  C   UNL     1     -10.085  12.437  65.902  1.00  0.00    -0.272 C  
HETATM    6  N   UNL     1     -11.006  14.182  64.353  1.00  0.00    -0.303 NA 
HETATM    7  C   UNL     1     -10.504  15.319  65.106  1.00  0.00    -0.411 C  
HETATM    8  C   UNL     1     -11.323  12.651  66.786  1.00  0.00    -0.320 C  
HETATM    9  C   UNL     1     -12.511  13.417  66.172  1.00  0.00    -0.389 C  
ENDROOT
BRANCH   8  10
HETATM   10  O   UNL     1     -11.844  11.394  67.257  1.00  0.00    -0.594 OA 
BRANCH  10  11
HETATM   11  C   UNL     1     -11.496  11.118  68.554  1.00  0.00    -0.302 C  
HETATM   12  O   UNL     1     -12.138  11.484  69.532  1.00  0.00    -0.308 OA 
BRANCH  11  13
HETATM   13  C   UNL     1     -10.246  10.227  68.594  1.00  0.00    -0.180 C  
HETATM   14  O   UNL     1      -9.529  10.469  69.815  1.00  0.00    -0.417 OA 
HETATM   15  H   UNL     1      -8.756   9.918  69.839  1.00  0.00     0.000 HD 
BRANCH  13  16
HETATM   16  C   UNL     1     -10.512   8.744  68.437  1.00  0.00    -0.220 A  
HETATM   17  C   UNL     1     -10.483   8.121  67.180  1.00  0.00    -0.396 A  
HETATM   18  C   UNL     1     -10.692   6.746  67.063  1.00  0.00    -0.435 A  
HETATM   19  C   UNL     1     -10.915   5.972  68.200  1.00  0.00    -0.340 A  
HETATM   20  C   UNL     1     -10.921   6.568  69.455  1.00  0.00    -0.398 A  
HETATM   21  C   UNL     1     -10.711   7.939  69.575  1.00  0.00    -0.195 A  
ENDBRANCH  13  16
ENDBRANCH  11  13
ENDBRANCH  10  11
ENDBRANCH   8  10
TORSDOF 4
ENDMDL
MODEL       19
REMARK 921   NORMALIZED FREE ENERGY PREDICTED BY IDOCK:   -5.50 KCAL/MOL
REMARK 922        TOTAL FREE ENERGY PREDICTED BY IDOCK:   -7.71 KCAL/MOL
REMARK 923 INTER-LIGAND FREE ENERGY PREDICTED BY IDOCK:   -7.35 KCAL/MOL
REMARK 924 INTRA-LIGAND FREE ENERGY PREDICTED BY IDOCK:   -0.36 KCAL/MOL
REMARK 927      BINDING AFFINITY PREDICTED BY RF-SCORE:    0.00 PKD
ROOT
HETATM    1  C   UNL     1     -10.662  16.905  68.190  1.00  0.00    -0.375 C  
HETATM    2  C   UNL     1     -10.599  18.094  67.224  1.00  0.00    -0.384 C  
HETATM    3  C   UNL     1      -9.213  18.003  66.592  1.00  0.00    -0.291 C  
HETATM    4  C   UNL     1      -8.602  16.734  67.190  1.00  0.00    -0.196 C  
HETATM    5  C   UNL     1      -8.936  15.508  66.328  1.00  0.00    -0.362 C  
HETATM    6  N   UNL     1      -9.248  16.711  68.507  1.00  0.00    -0.226 NA 
HETATM    7  C   UNL     1      -8.945  15.564  69.347  1.00  0.00    -0.275 C  
HETATM    8  C   UNL     1     -10.374  14.987  66.476  1.00  0.00    -0.284 C  
HETATM    9  C   UNL     1     -11.275  15.676  67.519  1.00  0.00    -0.245 C  
ENDROOT
BRANCH   8  10
HETATM   10  O   UNL     1     -11.077  15.047  65.221  1.00  0.00    -0.349 OA 
BRANCH  10  11
HETATM   11  C   UNL     1     -11.935  13.996  65.032  1.00  0.00    -0.401 C  
HETATM   12  O   UNL     1     -13.133  14.030  65.291  1.00  0.00    -0.782 OA 
BRANCH  11  13
HETATM   13  C   UNL     1     -11.199  12.814  64.384  1.00  0.00    -0.347 C  
HETATM   14  O   UNL     1     -10.011  13.294  63.735  1.00  0.00    -0.699 OA 
HETATM   15  H   UNL     1      -9.556  12.564  63.334  1.00  0.00     0.000 HD 
BRANCH  13  16
HETATM   16  C   UNL     1     -10.849  11.684  65.329  1.00  0.00    -0.340 A  
HETATM   17  C   UNL     1     -11.333  11.651  66.646  1.00  0.00    -0.338 A  
HETATM   18  C   UNL     1     -11.031  10.579  67.488  1.00  0.00    -0.365 A  
HETATM   19  C   UNL     1     -10.258   9.517  67.021  1.00  0.00    -0.321 A  
HETATM   20  C   UNL     1      -9.793   9.520  65.712  1.00  0.00    -0.363 A  
HETATM   21  C   UNL     1     -10.094  10.588  64.870  1.00  0.00    -0.403 A  
ENDBRANCH  13  16
ENDBRANCH  11  13
ENDBRANCH  10  11
ENDBRANCH   8  10
TORSDOF 4
ENDMDL
MODEL       20
REMARK 921   NORMALIZED FREE ENERGY PREDICTED BY IDOCK:   -5.47 KCAL/MOL
REMARK 922        TOTAL FREE ENERGY PREDICTED BY IDOCK:   -7.66 KCAL/MOL
REMARK 923 INTER-LIGAND FREE ENERGY PREDICTED BY IDOCK:   -7.84 KCAL/MOL
REMARK 924 INTRA-LIGAND FREE ENERGY PREDICTED BY IDOCK:    0.17 KCAL/MOL
REMARK 927      BINDING AFFINITY PREDICTED BY RF-SCORE:    0.00 PKD
ROOT
HETATM    1  C   UNL     1     -12.250  13.884  64.636  1.00  0.00    -0.419 C  
HETATM    2  C   UNL     1     -12.494  12.611  63.818  1.00  0.00    -0.514 C  
HETATM    3  C   UNL     1     -11.127  11.935  63.741  1.00  0.00    -0.510 C  
HETATM    4  C   UNL     1     -10.208  12.834  64.572  1.00  0.00    -0.308 C  
HETATM    5  C   UNL     1     -10.201  12.395  66.044  1.00  0.00    -0.267 C  
HETATM    6  N   UNL     1     -10.837  14.142  64.361  1.00  0.00    -0.297 NA 
HETATM    7  C   UNL     1     -10.251  15.258  65.085  1.00  0.00    -0.339 C  
HETATM    8  C   UNL     1     -11.452  12.792  66.843  1.00  0.00    -0.340 C  
HETATM    9  C   UNL     1     -12.512  13.648  66.123  1.00  0.00    -0.449 C  
ENDROOT
BRANCH   8  10
HETATM   10  O   UNL     1     -12.136  11.628  67.344  1.00  0.00    -0.605 OA 
BRANCH  10  11
HETATM   11  C   UNL     1     -11.326  10.802  68.079  1.00  0.00    -0.307 C  
HETATM   12  O   UNL     1     -10.754   9.817  67.626  1.00  0.00    -0.260 OA 
BRANCH  11  13
HETATM   13  C   UNL     1     -11.184  11.331  69.513  1.00  0.00    -0.272 C  
HETATM   14  O   UNL     1     -12.030  12.479  69.682  1.00  0.00    -0.303 OA 
HETATM   15  H   UNL     1     -11.942  12.806  70.569  1.00  0.00     0.000 HD 
BRANCH  13  16
HETATM   16  C   UNL     1     -11.469  10.316  70.600  1.00  0.00    -0.435 A  
HETATM   17  C   UNL     1     -12.761  10.135  71.117  1.00  0.00    -0.494 A  
HETATM   18  C   UNL     1     -13.009   9.165  72.089  1.00  0.00    -0.498 A  
HETATM   19  C   UNL     1     -11.974   8.350  72.547  1.00  0.00    -0.418 A  
HETATM   20  C   UNL     1     -10.694   8.497  72.027  1.00  0.00    -0.410 A  
HETATM   21  C   UNL     1     -10.445   9.463  71.055  1.00  0.00    -0.392 A  
ENDBRANCH  13  16
ENDBRANCH  11  13
ENDBRANCH  10  11
ENDBRANCH   8  10
TORSDOF 4
ENDMDL
MODEL       21
REMARK 921   NORMALIZED FREE ENERGY PREDICTED BY IDOCK:   -5.46 KCAL/MOL
REMARK 922        TOTAL FREE ENERGY PREDICTED BY IDOCK:   -7.65 KCAL/MOL
REMARK 923 INTER-LIGAND FREE ENERGY PREDICTED BY IDOCK:   -7.22 KCAL/MOL
REMARK 924 INTRA-LIGAND FREE ENERGY PREDICTED BY IDOCK:   -0.43 KCAL/MOL
REMARK 927      BINDING AFFINITY PREDICTED BY RF-SCORE:    0.00 PKD
ROOT
HETATM    1  C   UNL     1     -10.805   6.002  71.523  1.00  0.00    -0.266 C  
HETATM    2  C   UNL     1     -11.356   5.710  72.923  1.00  0.00    -0.325 C  
HETATM    3  C   UNL     1     -10.342   6.342  73.874  1.00  0.00    -0.338 C  
HETATM    4  C   UNL     1      -9.316   7.007  72.953  1.00  0.00    -0.140 C  
HETATM    5  C   UNL     1      -9.727   8.452  72.632  1.00  0.00    -0.332 C  
HETATM    6  N   UNL     1      -9.372   6.116  71.789  1.00  0.00    -0.151 NA 
HETATM    7  C   UNL     1      -8.552   6.499  70.652  1.00  0.00    -0.139 C  
HETATM    8  C   UNL     1     -10.862   8.588  71.606  1.00  0.00    -0.286 C  
HETATM    9  C   UNL     1     -11.390   7.295  70.955  1.00  0.00    -0.308 C  
ENDROOT
BRANCH   8  10
HETATM   10  O   UNL     1     -12.001   9.253  72.182  1.00  0.00    -0.344 OA 
BRANCH  10  11
HETATM   11  C   UNL     1     -12.856   9.771  71.244  1.00  0.00    -0.377 C  
HETATM   12  O   UNL     1     -14.031   9.442  71.128  1.00  0.00    -0.226 OA 
BRANCH  11  13
HETATM   13  C   UNL     1     -12.153  10.863  70.425  1.00  0.00    -0.363 C  
HETATM   14  O   UNL     1     -12.439  10.670  69.031  1.00  0.00    -0.777 OA 
HETATM   15  H   UNL     1     -12.004  11.346  68.525  1.00  0.00     0.000 HD 
BRANCH  13  16
HETATM   16  C   UNL     1     -12.493  12.283  70.830  1.00  0.00    -0.371 A  
HETATM   17  C   UNL     1     -12.153  13.379  70.022  1.00  0.00    -0.404 A  
HETATM   18  C   UNL     1     -12.512  14.675  70.394  1.00  0.00    -0.410 A  
HETATM   19  C   UNL     1     -13.230  14.893  71.569  1.00  0.00    -0.448 A  
HETATM   20  C   UNL     1     -13.598  13.818  72.367  1.00  0.00    -0.690 A  
HETATM   21  C   UNL     1     -13.243  12.523  71.997  1.00  0.00    -0.524 A  
ENDBRANCH  13  16
ENDBRANCH  11  13
ENDBRANCH  10  11
ENDBRANCH   8  10
TORSDOF 4
ENDMDL
MODEL       22
REMARK 921   NORMALIZED FREE ENERGY PREDICTED BY IDOCK:   -5.45 KCAL/MOL
REMARK 922        TOTAL FREE ENERGY PREDICTED BY IDOCK:   -7.64 KCAL/MOL
REMARK 923 INTER-LIGAND FREE ENERGY PREDICTED BY IDOCK:   -6.98 KCAL/MOL
REMARK 924 INTRA-LIGAND FREE ENERGY PREDICTED BY IDOCK:   -0.67 KCAL/MOL
REMARK 927      BINDING AFFINITY PREDICTED BY RF-SCORE:    0.00 PKD
ROOT
HETATM    1  C   UNL     1      -9.224  17.718  66.711  1.00  0.00    -0.273 C  
HETATM    2  C   UNL     1      -7.846  17.257  66.225  1.00  0.00    -0.344 C  
HETATM    3  C   UNL     1      -7.528  16.030  67.076  1.00  0.00    -0.264 C  
HETATM    4  C   UNL     1      -8.771  15.836  67.946  1.00  0.00    -0.170 C  
HETATM    5  C   UNL     1      -9.791  14.927  67.245  1.00  0.00    -0.229 C  
HETATM    6  N   UNL     1      -9.230  17.222  68.086  1.00  0.00    -0.260 NA 
HETATM    7  C   UNL     1     -10.472  17.413  68.817  1.00  0.00    -0.333 C  
HETATM    8  C   UNL     1     -10.584  15.599  66.113  1.00  0.00    -0.320 C  
HETATM    9  C   UNL     1     -10.344  17.101  65.872  1.00  0.00    -0.294 C  
ENDROOT
BRANCH   8  10
HETATM   10  O   UNL     1     -10.350  14.938  64.856  1.00  0.00    -0.400 OA 
BRANCH  10  11
HETATM   11  C   UNL     1     -11.426  14.212  64.418  1.00  0.00    -0.332 C  
HETATM   12  O   UNL     1     -12.531  14.690  64.187  1.00  0.00    -0.736 OA 
BRANCH  11  13
HETATM   13  C   UNL     1     -11.026  12.747  64.190  1.00  0.00    -0.398 C  
HETATM   14  O   UNL     1      -9.726  12.700  63.581  1.00  0.00    -0.672 OA 
HETATM   15  H   UNL     1      -9.478  11.794  63.440  1.00  0.00     0.000 HD 
BRANCH  13  16
HETATM   16  C   UNL     1     -11.046  11.879  65.431  1.00  0.00    -0.360 A  
HETATM   17  C   UNL     1     -10.257  10.722  65.532  1.00  0.00    -0.330 A  
HETATM   18  C   UNL     1     -10.260   9.959  66.700  1.00  0.00    -0.293 A  
HETATM   19  C   UNL     1     -11.037  10.349  67.790  1.00  0.00    -0.365 A  
HETATM   20  C   UNL     1     -11.803  11.505  67.718  1.00  0.00    -0.228 A  
HETATM   21  C   UNL     1     -11.800  12.270  66.554  1.00  0.00    -0.378 A  
ENDBRANCH  13  16
ENDBRANCH  11  13
ENDBRANCH  10  11
ENDBRANCH   8  10
TORSDOF 4
ENDMDL
MODEL       23
REMARK 921   NORMALIZED FREE ENERGY PREDICTED BY IDOCK:   -5.43 KCAL/MOL
REMARK 922        TOTAL FREE ENERGY PREDICTED BY IDOCK:   -7.61 KCAL/MOL
REMARK 923 INTER-LIGAND FREE ENERGY PREDICTED BY IDOCK:   -7.00 KCAL/MOL
REMARK 924 INTRA-LIGAND FREE ENERGY PREDICTED BY IDOCK:   -0.62 KCAL/MOL
REMARK 927      BINDING AFFINITY PREDICTED BY RF-SCORE:    0.00 PKD
ROOT
HETATM    1  C   UNL     1      -8.959  11.233  67.373  1.00  0.00    -0.144 C  
HETATM    2  C   UNL     1      -7.799  11.255  66.373  1.00  0.00    -0.109 C  
HETATM    3  C   UNL     1      -8.300  10.438  65.185  1.00  0.00    -0.165 C  
HETATM    4  C   UNL     1      -9.735  10.059  65.559  1.00  0.00    -0.289 C  
HETATM    5  C   UNL     1     -10.726  11.130  65.079  1.00  0.00    -0.301 C  
HETATM    6  N   UNL     1      -9.627   9.982  67.020  1.00  0.00    -0.166 NA 
HETATM    7  C   UNL     1     -10.861   9.705  67.738  1.00  0.00    -0.217 C  
HETATM    8  C   UNL     1     -10.753  12.411  65.927  1.00  0.00    -0.266 C  
HETATM    9  C   UNL     1      -9.873  12.445  67.191  1.00  0.00    -0.206 C  
ENDROOT
BRANCH   8  10
HETATM   10  O   UNL     1     -10.386  13.559  65.139  1.00  0.00    -0.330 OA 
BRANCH  10  11
HETATM   11  C   UNL     1     -11.372  14.509  65.077  1.00  0.00    -0.377 C  
HETATM   12  O   UNL     1     -12.562  14.278  65.257  1.00  0.00    -0.466 OA 
BRANCH  11  13
HETATM   13  C   UNL     1     -10.762  15.896  64.830  1.00  0.00    -0.341 C  
HETATM   14  O   UNL     1     -11.530  16.582  63.829  1.00  0.00    -1.615 OA 
HETATM   15  H   UNL     1     -11.153  17.440  63.676  1.00  0.00     0.000 HD 
BRANCH  13  16
HETATM   16  C   UNL     1     -10.632  16.765  66.064  1.00  0.00    -0.232 A  
HETATM   17  C   UNL     1     -10.410  16.210  67.334  1.00  0.00    -0.294 A  
HETATM   18  C   UNL     1     -10.253  17.031  68.451  1.00  0.00    -0.331 A  
HETATM   19  C   UNL     1     -10.297  18.418  68.314  1.00  0.00    -0.384 A  
HETATM   20  C   UNL     1     -10.488  18.985  67.061  1.00  0.00    -0.514 A  
HETATM   21  C   UNL     1     -10.644  18.168  65.944  1.00  0.00    -0.247 A  
ENDBRANCH  13  16
ENDBRANCH  11  13
ENDBRANCH  10  11
ENDBRANCH   8  10
TORSDOF 4
ENDMDL
MODEL       24
REMARK 921   NORMALIZED FREE ENERGY PREDICTED BY IDOCK:   -5.40 KCAL/MOL
REMARK 922        TOTAL FREE ENERGY PREDICTED BY IDOCK:   -7.59 KCAL/MOL
REMARK 923 INTER-LIGAND FREE ENERGY PREDICTED BY IDOCK:   -6.51 KCAL/MOL
REMARK 924 INTRA-LIGAND FREE ENERGY PREDICTED BY IDOCK:   -1.08 KCAL/MOL
REMARK 927      BINDING AFFINITY PREDICTED BY RF-SCORE:    0.00 PKD
ROOT
HETATM    1  C   UNL     1      -9.210   8.749  67.278  1.00  0.00    -0.139 C  
HETATM    2  C   UNL     1     -10.552   9.252  67.819  1.00  0.00    -0.307 C  
HETATM    3  C   UNL     1     -10.330  10.740  68.076  1.00  0.00    -0.211 C  
HETATM    4  C   UNL     1      -8.897  11.000  67.605  1.00  0.00    -0.131 C  
HETATM    5  C   UNL     1      -8.873  11.382  66.117  1.00  0.00    -0.186 C  
HETATM    6  N   UNL     1      -8.276   9.700  67.879  1.00  0.00    -0.106 NA 
HETATM    7  C   UNL     1      -6.888   9.556  67.475  1.00  0.00    -0.083 C  
HETATM    8  C   UNL     1      -9.070  10.208  65.146  1.00  0.00    -0.201 C  
HETATM    9  C   UNL     1      -9.174   8.795  65.750  1.00  0.00    -0.269 C  
ENDROOT
BRANCH   8  10
HETATM   10  O   UNL     1     -10.247  10.398  64.339  1.00  0.00    -0.333 OA 
BRANCH  10  11
HETATM   11  C   UNL     1     -10.076  11.323  63.342  1.00  0.00    -0.400 C  
HETATM   12  O   UNL     1      -9.151  11.305  62.538  1.00  0.00    -0.339 OA 
BRANCH  11  13
HETATM   13  C   UNL     1     -11.240  12.324  63.335  1.00  0.00    -0.420 C  
HETATM   14  O   UNL     1     -12.475  11.614  63.148  1.00  0.00    -0.937 OA 
HETATM   15  H   UNL     1     -13.195  12.233  63.144  1.00  0.00     0.000 HD 
BRANCH  13  16
HETATM   16  C   UNL     1     -11.333  13.204  64.565  1.00  0.00    -0.383 A  
HETATM   17  C   UNL     1     -12.203  12.898  65.624  1.00  0.00    -0.519 A  
HETATM   18  C   UNL     1     -12.243  13.701  66.764  1.00  0.00    -0.416 A  
HETATM   19  C   UNL     1     -11.403  14.809  66.872  1.00  0.00    -0.358 A  
HETATM   20  C   UNL     1     -10.517  15.110  65.846  1.00  0.00    -0.350 A  
HETATM   21  C   UNL     1     -10.474  14.310  64.707  1.00  0.00    -0.421 A  
ENDBRANCH  13  16
ENDBRANCH  11  13
ENDBRANCH  10  11
ENDBRANCH   8  10
TORSDOF 4
ENDMDL
MODEL       25
REMARK 921   NORMALIZED FREE ENERGY PREDICTED BY IDOCK:   -5.40 KCAL/MOL
REMARK 922        TOTAL FREE ENERGY PREDICTED BY IDOCK:   -7.58 KCAL/MOL
REMARK 923 INTER-LIGAND FREE ENERGY PREDICTED BY IDOCK:   -6.97 KCAL/MOL
REMARK 924 INTRA-LIGAND FREE ENERGY PREDICTED BY IDOCK:   -0.61 KCAL/MOL
REMARK 927      BINDING AFFINITY PREDICTED BY RF-SCORE:    0.00 PKD
ROOT
HETATM    1  C   UNL     1     -12.070  12.500  65.859  1.00  0.00    -0.352 C  
HETATM    2  C   UNL     1     -11.007  11.422  66.099  1.00  0.00    -0.294 C  
HETATM    3  C   UNL     1      -9.780  11.916  65.338  1.00  0.00    -0.228 C  
HETATM    4  C   UNL     1     -10.202  13.272  64.768  1.00  0.00    -0.304 C  
HETATM    5  C   UNL     1      -9.886  14.402  65.759  1.00  0.00    -0.330 C  
HETATM    6  N   UNL     1     -11.640  13.055  64.576  1.00  0.00    -0.342 NA 
HETATM    7  C   UNL     1     -12.401  14.198  64.100  1.00  0.00    -0.335 C  
HETATM    8  C   UNL     1     -10.852  14.506  66.949  1.00  0.00    -0.305 C  
HETATM    9  C   UNL     1     -12.058  13.549  66.971  1.00  0.00    -0.401 C  
ENDROOT
BRANCH   8  10
HETATM   10  O   UNL     1     -10.156  14.320  68.196  1.00  0.00    -0.221 OA 
BRANCH  10  11
HETATM   11  C   UNL     1      -9.667  15.487  68.722  1.00  0.00    -0.213 C  
HETATM   12  O   UNL     1      -8.497  15.662  69.040  1.00  0.00    -0.194 OA 
BRANCH  11  13
HETATM   13  C   UNL     1     -10.773  16.552  68.778  1.00  0.00    -0.339 C  
HETATM   14  O   UNL     1     -11.094  16.832  70.149  1.00  0.00    -0.451 OA 
HETATM   15  H   UNL     1     -11.777  17.490  70.184  1.00  0.00     0.000 HD 
BRANCH  13  16
HETATM   16  C   UNL     1     -10.455  17.841  68.049  1.00  0.00    -0.399 A  
HETATM   17  C   UNL     1     -10.594  17.952  66.657  1.00  0.00    -0.243 A  
HETATM   18  C   UNL     1     -10.334  19.161  66.010  1.00  0.00    -0.538 A  
HETATM   19  C   UNL     1      -9.950  20.281  66.746  1.00  0.00    -0.587 A  
HETATM   20  C   UNL     1      -9.833  20.197  68.128  1.00  0.00    -0.460 A  
HETATM   21  C   UNL     1     -10.093  18.992  68.776  1.00  0.00    -0.429 A  
ENDBRANCH  13  16
ENDBRANCH  11  13
ENDBRANCH  10  11
ENDBRANCH   8  10
TORSDOF 4
ENDMDL
MODEL       26
REMARK 921   NORMALIZED FREE ENERGY PREDICTED BY IDOCK:   -5.39 KCAL/MOL
REMARK 922        TOTAL FREE ENERGY PREDICTED BY IDOCK:   -7.57 KCAL/MOL
REMARK 923 INTER-LIGAND FREE ENERGY PREDICTED BY IDOCK:   -7.04 KCAL/MOL
REMARK 924 INTRA-LIGAND FREE ENERGY PREDICTED BY IDOCK:   -0.53 KCAL/MOL
REMARK 927      BINDING AFFINITY PREDICTED BY RF-SCORE:    0.00 PKD
ROOT
HETATM    1  C   UNL     1     -10.595  13.672  64.545  1.00  0.00    -0.411 C  
HETATM    2  C   UNL     1     -12.042  13.996  64.157  1.00  0.00    -0.456 C  
HETATM    3  C   UNL     1     -12.890  13.098  65.055  1.00  0.00    -0.370 C  
HETATM    4  C   UNL     1     -11.874  12.370  65.937  1.00  0.00    -0.405 C  
HETATM    5  C   UNL     1     -11.591  13.169  67.218  1.00  0.00    -0.404 C  
HETATM    6  N   UNL     1     -10.722  12.300  65.032  1.00  0.00    -0.288 NA 
HETATM    7  C   UNL     1      -9.511  11.715  65.584  1.00  0.00    -0.209 C  
HETATM    8  C   UNL     1     -10.679  14.390  67.030  1.00  0.00    -0.285 C  
HETATM    9  C   UNL     1     -10.083  14.622  65.627  1.00  0.00    -0.389 C  
ENDROOT
BRANCH   8  10
HETATM   10  O   UNL     1     -11.360  15.605  67.393  1.00  0.00    -0.281 OA 
BRANCH  10  11
HETATM   11  C   UNL     1     -11.343  15.852  68.741  1.00  0.00    -0.378 C  
HETATM   12  O   UNL     1     -12.166  15.408  69.532  1.00  0.00    -0.313 OA 
BRANCH  11  13
HETATM   13  C   UNL     1     -10.111  16.690  69.114  1.00  0.00    -0.285 C  
HETATM   14  O   UNL     1      -8.997  15.816  69.353  1.00  0.00    -0.255 OA 
HETATM   15  H   UNL     1      -8.235  16.334  69.584  1.00  0.00     0.000 HD 
BRANCH  13  16
HETATM   16  C   UNL     1      -9.729  17.749  68.101  1.00  0.00    -0.313 A  
HETATM   17  C   UNL     1     -10.487  18.919  67.939  1.00  0.00    -0.459 A  
HETATM   18  C   UNL     1     -10.094  19.900  67.028  1.00  0.00    -0.578 A  
HETATM   19  C   UNL     1      -8.929  19.737  66.280  1.00  0.00    -0.431 A  
HETATM   20  C   UNL     1      -8.151  18.598  66.448  1.00  0.00    -0.300 A  
HETATM   21  C   UNL     1      -8.540  17.618  67.357  1.00  0.00    -0.229 A  
ENDBRANCH  13  16
ENDBRANCH  11  13
ENDBRANCH  10  11
ENDBRANCH   8  10
TORSDOF 4
ENDMDL
MODEL       27
REMARK 921   NORMALIZED FREE ENERGY PREDICTED BY IDOCK:   -5.36 KCAL/MOL
REMARK 922        TOTAL FREE ENERGY PREDICTED BY IDOCK:   -7.53 KCAL/MOL
REMARK 923 INTER-LIGAND FREE ENERGY PREDICTED BY IDOCK:   -6.83 KCAL/MOL
REMARK 924 INTRA-LIGAND FREE ENERGY PREDICTED BY IDOCK:   -0.71 KCAL/MOL
REMARK 927      BINDING AFFINITY PREDICTED BY RF-SCORE:    0.00 PKD
ROOT
HETATM    1  C   UNL     1      -9.293  11.708  66.222  1.00  0.00    -0.216 C  
HETATM    2  C   UNL     1     -10.168  12.329  65.128  1.00  0.00    -0.305 C  
HETATM    3  C   UNL     1     -11.599  12.114  65.613  1.00  0.00    -0.409 C  
HETATM    4  C   UNL     1     -11.444  11.442  66.979  1.00  0.00    -0.156 C  
HETATM    5  C   UNL     1     -11.358  12.493  68.097  1.00  0.00    -0.343 C  
HETATM    6  N   UNL     1     -10.193  10.702  66.782  1.00  0.00    -0.224 NA 
HETATM    7  C   UNL     1      -9.688   9.982  67.939  1.00  0.00    -0.146 C  
HETATM    8  C   UNL     1     -10.006  13.214  68.203  1.00  0.00    -0.234 C  
HETATM    9  C   UNL     1      -8.878  12.751  67.260  1.00  0.00    -0.198 C  
ENDROOT
BRANCH   8  10
HETATM   10  O   UNL     1     -10.159  14.630  67.996  1.00  0.00    -0.222 OA 
BRANCH  10  11
HETATM   11  C   UNL     1     -10.002  15.364  69.143  1.00  0.00    -0.241 C  
HETATM   12  O   UNL     1      -8.933  15.510  69.725  1.00  0.00    -0.240 OA 
BRANCH  11  13
HETATM   13  C   UNL     1     -11.328  16.028  69.539  1.00  0.00    -0.344 C  
HETATM   14  O   UNL     1     -12.299  15.803  68.505  1.00  0.00    -0.432 OA 
HETATM   15  H   UNL     1     -13.120  16.214  68.750  1.00  0.00     0.000 HD 
BRANCH  13  16
HETATM   16  C   UNL     1     -11.888  15.589  70.876  1.00  0.00    -0.413 A  
HETATM   17  C   UNL     1     -11.681  16.342  72.043  1.00  0.00    -0.528 A  
HETATM   18  C   UNL     1     -12.240  15.940  73.257  1.00  0.00    -0.625 A  
HETATM   19  C   UNL     1     -13.028  14.792  73.320  1.00  0.00    -0.608 A  
HETATM   20  C   UNL     1     -13.266  14.050  72.170  1.00  0.00    -0.526 A  
HETATM   21  C   UNL     1     -12.711  14.449  70.957  1.00  0.00    -0.416 A  
ENDBRANCH  13  16
ENDBRANCH  11  13
ENDBRANCH  10  11
ENDBRANCH   8  10
TORSDOF 4
ENDMDL
MODEL       28
REMARK 921   NORMALIZED FREE ENERGY PREDICTED BY IDOCK:   -5.36 KCAL/MOL
REMARK 922        TOTAL FREE ENERGY PREDICTED BY IDOCK:   -7.53 KCAL/MOL
REMARK 923 INTER-LIGAND FREE ENERGY PREDICTED BY IDOCK:   -6.78 KCAL/MOL
REMARK 924 INTRA-LIGAND FREE ENERGY PREDICTED BY IDOCK:   -0.75 KCAL/MOL
REMARK 927      BINDING AFFINITY PREDICTED BY RF-SCORE:    0.00 PKD
ROOT
HETATM    1  C   UNL     1     -10.732  12.272  65.806  1.00  0.00    -0.263 C  
HETATM    2  C   UNL     1     -11.168  13.048  64.559  1.00  0.00    -0.372 C  
HETATM    3  C   UNL     1     -12.165  14.082  65.078  1.00  0.00    -0.448 C  
HETATM    4  C   UNL     1     -12.182  13.868  66.593  1.00  0.00    -0.424 C  
HETATM    5  C   UNL     1     -11.117  14.737  67.279  1.00  0.00    -0.334 C  
HETATM    6  N   UNL     1     -11.898  12.432  66.673  1.00  0.00    -0.563 NA 
HETATM    7  C   UNL     1     -11.765  11.880  68.011  1.00  0.00    -0.312 C  
HETATM    8  C   UNL     1      -9.677  14.223  67.139  1.00  0.00    -0.254 C  
HETATM    9  C   UNL     1      -9.469  12.875  66.422  1.00  0.00    -0.228 C  
ENDROOT
BRANCH   8  10
HETATM   10  O   UNL     1      -8.851  15.183  66.454  1.00  0.00    -0.285 OA 
BRANCH  10  11
HETATM   11  C   UNL     1      -7.744  15.554  67.173  1.00  0.00    -0.222 C  
HETATM   12  O   UNL     1      -6.612  15.137  66.958  1.00  0.00    -0.233 OA 
BRANCH  11  13
HETATM   13  C   UNL     1      -8.118  16.614  68.220  1.00  0.00    -0.198 C  
HETATM   14  O   UNL     1      -6.942  16.991  68.954  1.00  0.00    -0.196 OA 
HETATM   15  H   UNL     1      -7.173  17.646  69.601  1.00  0.00     0.000 HD 
BRANCH  13  16
HETATM   16  C   UNL     1      -8.798  17.848  67.665  1.00  0.00    -0.250 A  
HETATM   17  C   UNL     1      -8.215  18.610  66.640  1.00  0.00    -0.289 A  
HETATM   18  C   UNL     1      -8.878  19.720  66.115  1.00  0.00    -0.378 A  
HETATM   19  C   UNL     1     -10.138  20.075  66.593  1.00  0.00    -0.607 A  
HETATM   20  C   UNL     1     -10.742  19.317  67.588  1.00  0.00    -0.533 A  
HETATM   21  C   UNL     1     -10.083  18.208  68.113  1.00  0.00    -0.388 A  
ENDBRANCH  13  16
ENDBRANCH  11  13
ENDBRANCH  10  11
ENDBRANCH   8  10
TORSDOF 4
ENDMDL
MODEL       29
REMARK 921   NORMALIZED FREE ENERGY PREDICTED BY IDOCK:   -5.36 KCAL/MOL
REMARK 922        TOTAL FREE ENERGY PREDICTED BY IDOCK:   -7.53 KCAL/MOL
REMARK 923 INTER-LIGAND FREE ENERGY PREDICTED BY IDOCK:   -6.92 KCAL/MOL
REMARK 924 INTRA-LIGAND FREE ENERGY PREDICTED BY IDOCK:   -0.61 KCAL/MOL
REMARK 927      BINDING AFFINITY PREDICTED BY RF-SCORE:    0.00 PKD
ROOT
HETATM    1  C   UNL     1     -10.798   8.313  71.960  1.00  0.00    -0.301 C  
HETATM    2  C   UNL     1      -9.359   8.731  72.281  1.00  0.00    -0.223 C  
HETATM    3  C   UNL     1      -8.529   8.163  71.132  1.00  0.00    -0.146 C  
HETATM    4  C   UNL     1      -9.556   7.514  70.202  1.00  0.00    -0.168 C  
HETATM    5  C   UNL     1     -10.068   8.525  69.164  1.00  0.00    -0.207 C  
HETATM    6  N   UNL     1     -10.582   7.104  71.166  1.00  0.00    -0.222 NA 
HETATM    7  C   UNL     1     -11.780   6.499  70.607  1.00  0.00    -0.374 C  
HETATM    8  C   UNL     1     -11.077   9.549  69.704  1.00  0.00    -0.171 C  
HETATM    9  C   UNL     1     -11.529   9.398  71.169  1.00  0.00    -0.422 C  
ENDROOT
BRANCH   8  10
HETATM   10  O   UNL     1     -10.575  10.892  69.565  1.00  0.00    -0.229 OA 
BRANCH  10  11
HETATM   11  C   UNL     1     -11.427  11.719  68.881  1.00  0.00    -0.297 C  
HETATM   12  O   UNL     1     -12.267  11.330  68.078  1.00  0.00    -0.621 OA 
BRANCH  11  13
HETATM   13  C   UNL     1     -11.228  13.176  69.323  1.00  0.00    -0.206 C  
HETATM   14  O   UNL     1     -11.260  14.031  68.170  1.00  0.00    -0.254 OA 
HETATM   15  H   UNL     1     -11.136  14.932  68.444  1.00  0.00     0.000 HD 
BRANCH  13  16
HETATM   16  C   UNL     1     -12.217  13.669  70.359  1.00  0.00    -0.434 A  
HETATM   17  C   UNL     1     -12.771  12.806  71.316  1.00  0.00    -0.364 A  
HETATM   18  C   UNL     1     -13.650  13.290  72.286  1.00  0.00    -0.703 A  
HETATM   19  C   UNL     1     -13.973  14.645  72.326  1.00  0.00    -0.589 A  
HETATM   20  C   UNL     1     -13.413  15.519  71.403  1.00  0.00    -0.583 A  
HETATM   21  C   UNL     1     -12.535  15.039  70.435  1.00  0.00    -0.407 A  
ENDBRANCH  13  16
ENDBRANCH  11  13
ENDBRANCH  10  11
ENDBRANCH   8  10
TORSDOF 4
ENDMDL
MODEL       30
REMARK 921   NORMALIZED FREE ENERGY PREDICTED BY IDOCK:   -5.34 KCAL/MOL
REMARK 922        TOTAL FREE ENERGY PREDICTED BY IDOCK:   -7.51 KCAL/MOL
REMARK 923 INTER-LIGAND FREE ENERGY PREDICTED BY IDOCK:   -7.56 KCAL/MOL
REMARK 924 INTRA-LIGAND FREE ENERGY PREDICTED BY IDOCK:    0.05 KCAL/MOL
REMARK 927      BINDING AFFINITY PREDICTED BY RF-SCORE:    0.00 PKD
ROOT
HETATM    1  C   UNL     1      -9.562   6.349  72.728  1.00  0.00    -0.150 C  
HETATM    2  C   UNL     1      -8.762   6.773  71.491  1.00  0.00    -0.127 C  
HETATM    3  C   UNL     1      -9.673   6.441  70.312  1.00  0.00    -0.186 C  
HETATM    4  C   UNL     1     -10.955   5.910  70.956  1.00  0.00    -0.266 C  
HETATM    5  C   UNL     1     -11.941   7.055  71.233  1.00  0.00    -0.388 C  
HETATM    6  N   UNL     1     -10.418   5.300  72.177  1.00  0.00    -0.215 NA 
HETATM    7  C   UNL     1     -11.396   4.742  73.096  1.00  0.00    -0.295 C  
HETATM    8  C   UNL     1     -11.593   7.929  72.447  1.00  0.00    -0.380 C  
HETATM    9  C   UNL     1     -10.372   7.516  73.292  1.00  0.00    -0.412 C  
ENDROOT
BRANCH   8  10
HETATM   10  O   UNL     1     -11.377   9.296  72.054  1.00  0.00    -0.349 OA 
BRANCH  10  11
HETATM   11  C   UNL     1     -12.479   9.873  71.477  1.00  0.00    -0.411 C  
HETATM   12  O   UNL     1     -13.635   9.588  71.767  1.00  0.00    -0.387 OA 
BRANCH  11  13
HETATM   13  C   UNL     1     -12.053  10.968  70.488  1.00  0.00    -0.377 C  
HETATM   14  O   UNL     1     -12.522  10.629  69.174  1.00  0.00    -0.752 OA 
HETATM   15  H   UNL     1     -12.259  11.306  68.562  1.00  0.00     0.000 HD 
BRANCH  13  16
HETATM   16  C   UNL     1     -12.506  12.367  70.852  1.00  0.00    -0.367 A  
HETATM   17  C   UNL     1     -13.266  12.618  72.004  1.00  0.00    -0.531 A  
HETATM   18  C   UNL     1     -13.638  13.920  72.341  1.00  0.00    -0.676 A  
HETATM   19  C   UNL     1     -13.241  14.991  71.543  1.00  0.00    -0.484 A  
HETATM   20  C   UNL     1     -12.464  14.765  70.414  1.00  0.00    -0.405 A  
HETATM   21  C   UNL     1     -12.091  13.467  70.076  1.00  0.00    -0.404 A  
ENDBRANCH  13  16
ENDBRANCH  11  13
ENDBRANCH  10  11
ENDBRANCH   8  10
TORSDOF 4
ENDMDL
MODEL       31
REMARK 921   NORMALIZED FREE ENERGY PREDICTED BY IDOCK:   -5.33 KCAL/MOL
REMARK 922        TOTAL FREE ENERGY PREDICTED BY IDOCK:   -7.49 KCAL/MOL
REMARK 923 INTER-LIGAND FREE ENERGY PREDICTED BY IDOCK:   -6.99 KCAL/MOL
REMARK 924 INTRA-LIGAND FREE ENERGY PREDICTED BY IDOCK:   -0.50 KCAL/MOL
REMARK 927      BINDING AFFINITY PREDICTED BY RF-SCORE:    0.00 PKD
ROOT
HETATM    1  C   UNL     1     -10.433  14.279  64.877  1.00  0.00    -0.430 C  
HETATM    2  C   UNL     1     -11.870  14.629  64.475  1.00  0.00    -0.442 C  
HETATM    3  C   UNL     1     -12.736  14.026  65.579  1.00  0.00    -0.517 C  
HETATM    4  C   UNL     1     -11.732  13.429  66.569  1.00  0.00    -0.373 C  
HETATM    5  C   UNL     1     -11.327  14.466  67.627  1.00  0.00    -0.348 C  
HETATM    6  N   UNL     1     -10.637  13.065  65.665  1.00  0.00    -0.278 NA 
HETATM    7  C   UNL     1      -9.445  12.518  66.293  1.00  0.00    -0.210 C  
HETATM    8  C   UNL     1     -10.337  15.535  67.138  1.00  0.00    -0.272 C  
HETATM    9  C   UNL     1      -9.799  15.400  65.701  1.00  0.00    -0.387 C  
ENDROOT
BRANCH   8  10
HETATM   10  O   UNL     1     -10.908  16.852  67.241  1.00  0.00    -0.257 OA 
BRANCH  10  11
HETATM   11  C   UNL     1     -10.533  17.516  68.380  1.00  0.00    -0.372 C  
HETATM   12  O   UNL     1     -10.444  16.992  69.484  1.00  0.00    -0.295 OA 
BRANCH  11  13
HETATM   13  C   UNL     1     -10.171  18.973  68.055  1.00  0.00    -0.399 C  
HETATM   14  O   UNL     1     -10.443  19.797  69.199  1.00  0.00    -0.592 OA 
HETATM   15  H   UNL     1     -10.219  20.697  68.998  1.00  0.00     0.000 HD 
BRANCH  13  16
HETATM   16  C   UNL     1      -8.744  19.187  67.592  1.00  0.00    -0.329 A  
HETATM   17  C   UNL     1      -8.447  19.539  66.266  1.00  0.00    -0.370 A  
HETATM   18  C   UNL     1      -7.129  19.771  65.871  1.00  0.00    -0.314 A  
HETATM   19  C   UNL     1      -6.092  19.674  66.798  1.00  0.00    -0.177 A  
HETATM   20  C   UNL     1      -6.370  19.355  68.120  1.00  0.00    -0.253 A  
HETATM   21  C   UNL     1      -7.685  19.123  68.518  1.00  0.00    -0.376 A  
ENDBRANCH  13  16
ENDBRANCH  11  13
ENDBRANCH  10  11
ENDBRANCH   8  10
TORSDOF 4
ENDMDL
MODEL       32
REMARK 921   NORMALIZED FREE ENERGY PREDICTED BY IDOCK:   -5.33 KCAL/MOL
REMARK 922        TOTAL FREE ENERGY PREDICTED BY IDOCK:   -7.49 KCAL/MOL
REMARK 923 INTER-LIGAND FREE ENERGY PREDICTED BY IDOCK:   -6.82 KCAL/MOL
REMARK 924 INTRA-LIGAND FREE ENERGY PREDICTED BY IDOCK:   -0.67 KCAL/MOL
REMARK 927      BINDING AFFINITY PREDICTED BY RF-SCORE:    0.00 PKD
ROOT
HETATM    1  C   UNL     1     -10.350  13.678  64.627  1.00  0.00    -0.384 C  
HETATM    2  C   UNL     1      -9.797  14.622  65.701  1.00  0.00    -0.354 C  
HETATM    3  C   UNL     1     -10.965  14.840  66.660  1.00  0.00    -0.326 C  
HETATM    4  C   UNL     1     -12.085  13.957  66.105  1.00  0.00    -0.448 C  
HETATM    5  C   UNL     1     -12.018  12.546  66.709  1.00  0.00    -0.327 C  
HETATM    6  N   UNL     1     -11.778  13.989  64.672  1.00  0.00    -0.385 NA 
HETATM    7  C   UNL     1     -12.625  13.172  63.818  1.00  0.00    -0.173 C  
HETATM    8  C   UNL     1     -10.911  11.650  66.133  1.00  0.00    -0.288 C  
HETATM    9  C   UNL     1     -10.069  12.216  64.974  1.00  0.00    -0.289 C  
ENDROOT
BRANCH   8  10
HETATM   10  O   UNL     1      -9.983  11.252  67.159  1.00  0.00    -0.188 OA 
BRANCH  10  11
HETATM   11  C   UNL     1     -10.255  10.015  67.683  1.00  0.00    -0.204 C  
HETATM   12  O   UNL     1     -10.731   9.085  67.042  1.00  0.00    -0.242 OA 
BRANCH  11  13
HETATM   13  C   UNL     1      -9.808   9.946  69.151  1.00  0.00    -0.198 C  
HETATM   14  O   UNL     1      -8.837  10.974  69.400  1.00  0.00    -0.388 OA 
HETATM   15  H   UNL     1      -8.560  10.932  70.307  1.00  0.00     0.000 HD 
BRANCH  13  16
HETATM   16  C   UNL     1     -10.929  10.038  70.165  1.00  0.00    -0.368 A  
HETATM   17  C   UNL     1     -11.822  11.121  70.177  1.00  0.00    -0.449 A  
HETATM   18  C   UNL     1     -12.872  11.166  71.095  1.00  0.00    -0.473 A  
HETATM   19  C   UNL     1     -13.057  10.123  72.001  1.00  0.00    -0.538 A  
HETATM   20  C   UNL     1     -12.199   9.031  71.985  1.00  0.00    -0.446 A  
HETATM   21  C   UNL     1     -11.151   8.982  71.070  1.00  0.00    -0.356 A  
ENDBRANCH  13  16
ENDBRANCH  11  13
ENDBRANCH  10  11
ENDBRANCH   8  10
TORSDOF 4
ENDMDL
MODEL       33
REMARK 921   NORMALIZED FREE ENERGY PREDICTED BY IDOCK:   -5.31 KCAL/MOL
REMARK 922        TOTAL FREE ENERGY PREDICTED BY IDOCK:   -7.48 KCAL/MOL
REMARK 923 INTER-LIGAND FREE ENERGY PREDICTED BY IDOCK:   -7.01 KCAL/MOL
REMARK 924 INTRA-LIGAND FREE ENERGY PREDICTED BY IDOCK:   -0.46 KCAL/MOL
REMARK 927      BINDING AFFINITY PREDICTED BY RF-SCORE:    0.00 PKD
ROOT
HETATM    1  C   UNL     1     -11.870  12.807  66.722  1.00  0.00    -0.382 C  
HETATM    2  C   UNL     1     -10.556  12.473  67.438  1.00  0.00    -0.242 C  
HETATM    3  C   UNL     1      -9.548  12.259  66.313  1.00  0.00    -0.248 C  
HETATM    4  C   UNL     1     -10.336  12.547  65.033  1.00  0.00    -0.299 C  
HETATM    5  C   UNL     1     -10.247  14.034  64.659  1.00  0.00    -0.242 C  
HETATM    6  N   UNL     1     -11.683  12.131  65.439  1.00  0.00    -0.352 NA 
HETATM    7  C   UNL     1     -12.738  12.340  64.461  1.00  0.00    -0.243 C  
HETATM    8  C   UNL     1     -11.123  14.967  65.509  1.00  0.00    -0.357 C  
HETATM    9  C   UNL     1     -12.045  14.316  66.557  1.00  0.00    -0.454 C  
ENDROOT
BRANCH   8  10
HETATM   10  O   UNL     1     -10.318  15.932  66.213  1.00  0.00    -0.289 OA 
BRANCH  10  11
HETATM   11  C   UNL     1     -10.632  17.229  65.900  1.00  0.00    -0.204 C  
HETATM   12  O   UNL     1     -10.944  17.609  64.777  1.00  0.00    -0.917 OA 
BRANCH  11  13
HETATM   13  C   UNL     1     -10.612  18.103  67.162  1.00  0.00    -0.344 C  
HETATM   14  O   UNL     1     -10.875  17.284  68.312  1.00  0.00    -0.365 OA 
HETATM   15  H   UNL     1     -10.862  17.824  69.092  1.00  0.00     0.000 HD 
BRANCH  13  16
HETATM   16  C   UNL     1      -9.336  18.892  67.372  1.00  0.00    -0.321 A  
HETATM   17  C   UNL     1      -8.627  18.835  68.582  1.00  0.00    -0.358 A  
HETATM   18  C   UNL     1      -7.433  19.538  68.740  1.00  0.00    -0.387 A  
HETATM   19  C   UNL     1      -6.918  20.292  67.686  1.00  0.00    -0.317 A  
HETATM   20  C   UNL     1      -7.591  20.338  66.472  1.00  0.00    -0.288 A  
HETATM   21  C   UNL     1      -8.784  19.636  66.311  1.00  0.00    -0.401 A  
ENDBRANCH  13  16
ENDBRANCH  11  13
ENDBRANCH  10  11
ENDBRANCH   8  10
TORSDOF 4
ENDMDL
MODEL       34
REMARK 921   NORMALIZED FREE ENERGY PREDICTED BY IDOCK:   -5.31 KCAL/MOL
REMARK 922        TOTAL FREE ENERGY PREDICTED BY IDOCK:   -7.47 KCAL/MOL
REMARK 923 INTER-LIGAND FREE ENERGY PREDICTED BY IDOCK:   -6.66 KCAL/MOL
REMARK 924 INTRA-LIGAND FREE ENERGY PREDICTED BY IDOCK:   -0.81 KCAL/MOL
REMARK 927      BINDING AFFINITY PREDICTED BY RF-SCORE:    0.00 PKD
ROOT
HETATM    1  C   UNL     1     -11.822  12.774  66.501  1.00  0.00    -0.405 C  
HETATM    2  C   UNL     1     -11.843  12.985  68.019  1.00  0.00    -0.391 C  
HETATM    3  C   UNL     1     -10.372  12.986  68.427  1.00  0.00    -0.257 C  
HETATM    4  C   UNL     1      -9.609  12.839  67.109  1.00  0.00    -0.219 C  
HETATM    5  C   UNL     1      -9.308  14.216  66.497  1.00  0.00    -0.285 C  
HETATM    6  N   UNL     1     -10.563  12.051  66.323  1.00  0.00    -0.244 NA 
HETATM    7  C   UNL     1     -10.186  11.778  64.946  1.00  0.00    -0.273 C  
HETATM    8  C   UNL     1     -10.508  14.899  65.824  1.00  0.00    -0.330 C  
HETATM    9  C   UNL     1     -11.829  14.108  65.754  1.00  0.00    -0.385 C  
ENDROOT
BRANCH   8  10
HETATM   10  O   UNL     1     -10.813  16.153  66.462  1.00  0.00    -0.262 OA 
BRANCH  10  11
HETATM   11  C   UNL     1     -10.721  17.226  65.615  1.00  0.00    -0.120 C  
HETATM   12  O   UNL     1     -11.168  17.243  64.474  1.00  0.00    -1.083 OA 
BRANCH  11  13
HETATM   13  C   UNL     1     -10.053  18.412  66.326  1.00  0.00    -0.392 C  
HETATM   14  O   UNL     1     -10.935  18.914  67.343  1.00  0.00    -0.437 OA 
HETATM   15  H   UNL     1     -10.522  19.647  67.782  1.00  0.00     0.000 HD 
BRANCH  13  16
HETATM   16  C   UNL     1      -8.693  18.115  66.923  1.00  0.00    -0.267 A  
HETATM   17  C   UNL     1      -8.426  18.328  68.285  1.00  0.00    -0.309 A  
HETATM   18  C   UNL     1      -7.178  18.009  68.822  1.00  0.00    -0.283 A  
HETATM   19  C   UNL     1      -6.186  17.457  68.013  1.00  0.00    -0.149 A  
HETATM   20  C   UNL     1      -6.442  17.215  66.670  1.00  0.00    -0.267 A  
HETATM   21  C   UNL     1      -7.687  17.531  66.131  1.00  0.00    -0.304 A  
ENDBRANCH  13  16
ENDBRANCH  11  13
ENDBRANCH  10  11
ENDBRANCH   8  10
TORSDOF 4
ENDMDL
MODEL       35
REMARK 921   NORMALIZED FREE ENERGY PREDICTED BY IDOCK:   -5.30 KCAL/MOL
REMARK 922        TOTAL FREE ENERGY PREDICTED BY IDOCK:   -7.46 KCAL/MOL
REMARK 923 INTER-LIGAND FREE ENERGY PREDICTED BY IDOCK:   -6.70 KCAL/MOL
REMARK 924 INTRA-LIGAND FREE ENERGY PREDICTED BY IDOCK:   -0.76 KCAL/MOL
REMARK 927      BINDING AFFINITY PREDICTED BY RF-SCORE:    0.00 PKD
ROOT
HETATM    1  C   UNL     1     -10.571  12.814  65.925  1.00  0.00    -0.274 C  
HETATM    2  C   UNL     1     -10.963  13.369  64.551  1.00  0.00    -0.404 C  
HETATM    3  C   UNL     1     -11.926  14.513  64.860  1.00  0.00    -0.425 C  
HETATM    4  C   UNL     1     -11.970  14.575  66.388  1.00  0.00    -0.334 C  
HETATM    5  C   UNL     1     -10.881  15.514  66.928  1.00  0.00    -0.301 C  
HETATM    6  N   UNL     1     -11.741  13.167  66.728  1.00  0.00    -0.365 NA 
HETATM    7  C   UNL     1     -11.644  12.859  68.145  1.00  0.00    -0.336 C  
HETATM    8  C   UNL     1      -9.459  14.933  66.907  1.00  0.00    -0.237 C  
HETATM    9  C   UNL     1      -9.294  13.472  66.447  1.00  0.00    -0.191 C  
ENDROOT
BRANCH   8  10
HETATM   10  O   UNL     1      -8.589  15.726  66.078  1.00  0.00    -0.277 OA 
BRANCH  10  11
HETATM   11  C   UNL     1      -7.435  16.105  66.712  1.00  0.00    -0.211 C  
HETATM   12  O   UNL     1      -6.616  15.321  67.176  1.00  0.00    -0.292 OA 
BRANCH  11  13
HETATM   13  C   UNL     1      -7.288  17.634  66.685  1.00  0.00    -0.230 C  
HETATM   14  O   UNL     1      -6.925  18.052  65.359  1.00  0.00    -0.481 OA 
HETATM   15  H   UNL     1      -6.834  18.997  65.342  1.00  0.00     0.000 HD 
BRANCH  13  16
HETATM   16  C   UNL     1      -8.507  18.401  67.152  1.00  0.00    -0.254 A  
HETATM   17  C   UNL     1      -8.755  18.627  68.515  1.00  0.00    -0.362 A  
HETATM   18  C   UNL     1      -9.863  19.372  68.922  1.00  0.00    -0.523 A  
HETATM   19  C   UNL     1     -10.728  19.916  67.974  1.00  0.00    -0.271 A  
HETATM   20  C   UNL     1     -10.483  19.726  66.620  1.00  0.00    -0.615 A  
HETATM   21  C   UNL     1      -9.377  18.985  66.211  1.00  0.00    -0.319 A  
ENDBRANCH  13  16
ENDBRANCH  11  13
ENDBRANCH  10  11
ENDBRANCH   8  10
TORSDOF 4
ENDMDL
MODEL       36
REMARK 921   NORMALIZED FREE ENERGY PREDICTED BY IDOCK:   -5.30 KCAL/MOL
REMARK 922        TOTAL FREE ENERGY PREDICTED BY IDOCK:   -7.46 KCAL/MOL
REMARK 923 INTER-LIGAND FREE ENERGY PREDICTED BY IDOCK:   -7.00 KCAL/MOL
REMARK 924 INTRA-LIGAND FREE ENERGY PREDICTED BY IDOCK:   -0.46 KCAL/MOL
REMARK 927      BINDING AFFINITY PREDICTED BY RF-SCORE:    0.00 PKD
ROOT
HETATM    1  C   UNL     1      -8.474  19.095  68.149  1.00  0.00    -0.320 C  
HETATM    2  C   UNL     1      -9.844  19.671  68.523  1.00  0.00    -0.519 C  
HETATM    3  C   UNL     1     -10.737  19.347  67.327  1.00  0.00    -0.603 C  
HETATM    4  C   UNL     1      -9.834  18.553  66.380  1.00  0.00    -0.361 C  
HETATM    5  C   UNL     1      -9.912  17.050  66.684  1.00  0.00    -0.307 C  
HETATM    6  N   UNL     1      -8.526  19.140  66.689  1.00  0.00    -0.297 NA 
HETATM    7  C   UNL     1      -7.385  18.556  66.002  1.00  0.00    -0.240 C  
HETATM    8  C   UNL     1      -9.137  16.603  67.933  1.00  0.00    -0.218 C  
HETATM    9  C   UNL     1      -8.309  17.669  68.675  1.00  0.00    -0.267 C  
ENDROOT
BRANCH   8  10
HETATM   10  O   UNL     1     -10.022  16.019  68.908  1.00  0.00    -0.211 OA 
BRANCH  10  11
HETATM   11  C   UNL     1     -10.231  14.678  68.712  1.00  0.00    -0.242 C  
HETATM   12  O   UNL     1      -9.335  13.845  68.645  1.00  0.00    -0.187 OA 
BRANCH  11  13
HETATM   13  C   UNL     1     -11.735  14.373  68.670  1.00  0.00    -0.332 C  
HETATM   14  O   UNL     1     -12.064  13.780  67.404  1.00  0.00    -0.386 OA 
HETATM   15  H   UNL     1     -12.994  13.591  67.377  1.00  0.00     0.000 HD 
BRANCH  13  16
HETATM   16  C   UNL     1     -12.240  13.495  69.796  1.00  0.00    -0.330 A  
HETATM   17  C   UNL     1     -12.147  12.096  69.736  1.00  0.00    -0.306 A  
HETATM   18  C   UNL     1     -12.582  11.308  70.803  1.00  0.00    -0.425 A  
HETATM   19  C   UNL     1     -13.099  11.906  71.951  1.00  0.00    -0.474 A  
HETATM   20  C   UNL     1     -13.173  13.290  72.039  1.00  0.00    -0.541 A  
HETATM   21  C   UNL     1     -12.739  14.079  70.977  1.00  0.00    -0.431 A  
ENDBRANCH  13  16
ENDBRANCH  11  13
ENDBRANCH  10  11
ENDBRANCH   8  10
TORSDOF 4
ENDMDL
MODEL       37
REMARK 921   NORMALIZED FREE ENERGY PREDICTED BY IDOCK:   -5.30 KCAL/MOL
REMARK 922        TOTAL FREE ENERGY PREDICTED BY IDOCK:   -7.46 KCAL/MOL
REMARK 923 INTER-LIGAND FREE ENERGY PREDICTED BY IDOCK:   -6.79 KCAL/MOL
REMARK 924 INTRA-LIGAND FREE ENERGY PREDICTED BY IDOCK:   -0.67 KCAL/MOL
REMARK 927      BINDING AFFINITY PREDICTED BY RF-SCORE:    0.00 PKD
ROOT
HETATM    1  C   UNL     1      -8.735  18.078  66.214  1.00  0.00    -0.168 C  
HETATM    2  C   UNL     1      -7.438  17.925  67.017  1.00  0.00    -0.223 C  
HETATM    3  C   UNL     1      -7.660  18.768  68.270  1.00  0.00    -0.307 C  
HETATM    4  C   UNL     1      -9.090  19.293  68.130  1.00  0.00    -0.331 C  
HETATM    5  C   UNL     1     -10.094  18.317  68.762  1.00  0.00    -0.393 C  
HETATM    6  N   UNL     1      -9.210  19.383  66.671  1.00  0.00    -0.325 NA 
HETATM    7  C   UNL     1     -10.508  19.792  66.160  1.00  0.00    -0.509 C  
HETATM    8  C   UNL     1     -10.384  17.059  67.929  1.00  0.00    -0.338 C  
HETATM    9  C   UNL     1      -9.725  16.959  66.540  1.00  0.00    -0.295 C  
ENDROOT
BRANCH   8  10
HETATM   10  O   UNL     1     -10.013  15.868  68.647  1.00  0.00    -0.204 OA 
BRANCH  10  11
HETATM   11  C   UNL     1     -11.088  15.187  69.156  1.00  0.00    -0.258 C  
HETATM   12  O   UNL     1     -12.047  15.723  69.700  1.00  0.00    -0.355 OA 
BRANCH  11  13
HETATM   13  C   UNL     1     -10.950  13.684  68.877  1.00  0.00    -0.249 C  
HETATM   14  O   UNL     1     -11.728  12.949  69.835  1.00  0.00    -0.417 OA 
HETATM   15  H   UNL     1     -11.643  12.019  69.662  1.00  0.00     0.000 HD 
BRANCH  13  16
HETATM   16  C   UNL     1     -11.324  13.258  67.473  1.00  0.00    -0.329 A  
HETATM   17  C   UNL     1     -12.228  13.999  66.696  1.00  0.00    -0.463 A  
HETATM   18  C   UNL     1     -12.527  13.611  65.390  1.00  0.00    -0.537 A  
HETATM   19  C   UNL     1     -11.915  12.489  64.834  1.00  0.00    -0.468 A  
HETATM   20  C   UNL     1     -10.998  11.759  65.578  1.00  0.00    -0.344 A  
HETATM   21  C   UNL     1     -10.696  12.145  66.882  1.00  0.00    -0.271 A  
ENDBRANCH  13  16
ENDBRANCH  11  13
ENDBRANCH  10  11
ENDBRANCH   8  10
TORSDOF 4
ENDMDL
MODEL       38
REMARK 921   NORMALIZED FREE ENERGY PREDICTED BY IDOCK:   -5.28 KCAL/MOL
REMARK 922        TOTAL FREE ENERGY PREDICTED BY IDOCK:   -7.44 KCAL/MOL
REMARK 923 INTER-LIGAND FREE ENERGY PREDICTED BY IDOCK:   -7.04 KCAL/MOL
REMARK 924 INTRA-LIGAND FREE ENERGY PREDICTED BY IDOCK:   -0.40 KCAL/MOL
REMARK 927      BINDING AFFINITY PREDICTED BY RF-SCORE:    0.00 PKD
ROOT
HETATM    1  C   UNL     1     -12.074  13.957  64.667  1.00  0.00    -0.431 C  
HETATM    2  C   UNL     1     -12.909  13.911  65.951  1.00  0.00    -0.387 C  
HETATM    3  C   UNL     1     -12.044  13.139  66.944  1.00  0.00    -0.377 C  
HETATM    4  C   UNL     1     -10.749  12.852  66.182  1.00  0.00    -0.272 C  
HETATM    5  C   UNL     1      -9.736  13.990  66.378  1.00  0.00    -0.309 C  
HETATM    6  N   UNL     1     -11.253  12.756  64.808  1.00  0.00    -0.294 NA 
HETATM    7  C   UNL     1     -10.252  12.555  63.772  1.00  0.00    -0.333 C  
HETATM    8  C   UNL     1     -10.030  15.263  65.569  1.00  0.00    -0.348 C  
HETATM    9  C   UNL     1     -11.227  15.228  64.600  1.00  0.00    -0.366 C  
ENDROOT
BRANCH   8  10
HETATM   10  O   UNL     1     -10.238  16.391  66.439  1.00  0.00    -0.291 OA 
BRANCH  10  11
HETATM   11  C   UNL     1      -9.178  17.259  66.461  1.00  0.00    -0.261 C  
HETATM   12  O   UNL     1      -8.148  17.103  65.816  1.00  0.00    -0.497 OA 
BRANCH  11  13
HETATM   13  C   UNL     1      -9.502  18.477  67.338  1.00  0.00    -0.283 C  
HETATM   14  O   UNL     1     -10.241  18.047  68.493  1.00  0.00    -0.367 OA 
HETATM   15  H   UNL     1     -10.442  18.800  69.035  1.00  0.00     0.000 HD 
BRANCH  13  16
HETATM   16  C   UNL     1      -8.300  19.292  67.769  1.00  0.00    -0.335 A  
HETATM   17  C   UNL     1      -7.547  18.947  68.902  1.00  0.00    -0.337 A  
HETATM   18  C   UNL     1      -6.419  19.688  69.258  1.00  0.00    -0.365 A  
HETATM   19  C   UNL     1      -6.017  20.772  68.478  1.00  0.00    -0.388 A  
HETATM   20  C   UNL     1      -6.736  21.111  67.339  1.00  0.00    -0.429 A  
HETATM   21  C   UNL     1      -7.861  20.372  66.981  1.00  0.00    -0.365 A  
ENDBRANCH  13  16
ENDBRANCH  11  13
ENDBRANCH  10  11
ENDBRANCH   8  10
TORSDOF 4
ENDMDL
MODEL       39
REMARK 921   NORMALIZED FREE ENERGY PREDICTED BY IDOCK:   -5.28 KCAL/MOL
REMARK 922        TOTAL FREE ENERGY PREDICTED BY IDOCK:   -7.43 KCAL/MOL
REMARK 923 INTER-LIGAND FREE ENERGY PREDICTED BY IDOCK:   -6.26 KCAL/MOL
REMARK 924 INTRA-LIGAND FREE ENERGY PREDICTED BY IDOCK:   -1.17 KCAL/MOL
REMARK 927      BINDING AFFINITY PREDICTED BY RF-SCORE:    0.00 PKD
ROOT
HETATM    1  C   UNL     1     -10.059  14.753  68.701  1.00  0.00    -0.238 C  
HETATM    2  C   UNL     1      -8.762  15.374  69.229  1.00  0.00    -0.252 C  
HETATM    3  C   UNL     1      -7.832  15.409  68.019  1.00  0.00    -0.133 C  
HETATM    4  C   UNL     1      -8.682  14.866  66.868  1.00  0.00    -0.248 C  
HETATM    5  C   UNL     1      -9.436  16.003  66.163  1.00  0.00    -0.371 C  
HETATM    6  N   UNL     1      -9.565  13.944  67.588  1.00  0.00    -0.210 NA 
HETATM    7  C   UNL     1     -10.586  13.283  66.791  1.00  0.00    -0.276 C  
HETATM    8  C   UNL     1     -10.658  16.537  66.925  1.00  0.00    -0.238 C  
HETATM    9  C   UNL     1     -11.042  15.829  68.238  1.00  0.00    -0.342 C  
ENDROOT
BRANCH   8  10
HETATM   10  O   UNL     1     -10.500  17.933  67.242  1.00  0.00    -0.363 OA 
BRANCH  10  11
HETATM   11  C   UNL     1     -10.345  18.724  66.133  1.00  0.00    -0.448 C  
HETATM   12  O   UNL     1     -11.033  18.636  65.124  1.00  0.00    -0.543 OA 
BRANCH  11  13
HETATM   13  C   UNL     1      -9.248  19.772  66.374  1.00  0.00    -0.389 C  
HETATM   14  O   UNL     1      -9.804  20.884  67.093  1.00  0.00    -0.605 OA 
HETATM   15  H   UNL     1      -9.126  21.532  67.242  1.00  0.00     0.000 HD 
BRANCH  13  16
HETATM   16  C   UNL     1      -8.018  19.256  67.092  1.00  0.00    -0.287 A  
HETATM   17  C   UNL     1      -6.930  18.716  66.390  1.00  0.00    -0.254 A  
HETATM   18  C   UNL     1      -5.790  18.284  67.069  1.00  0.00    -0.164 A  
HETATM   19  C   UNL     1      -5.713  18.401  68.456  1.00  0.00    -0.181 A  
HETATM   20  C   UNL     1      -6.770  18.959  69.164  1.00  0.00    -0.326 A  
HETATM   21  C   UNL     1      -7.908  19.392  68.489  1.00  0.00    -0.389 A  
ENDBRANCH  13  16
ENDBRANCH  11  13
ENDBRANCH  10  11
ENDBRANCH   8  10
TORSDOF 4
ENDMDL
MODEL       40
REMARK 921   NORMALIZED FREE ENERGY PREDICTED BY IDOCK:   -5.27 KCAL/MOL
REMARK 922        TOTAL FREE ENERGY PREDICTED BY IDOCK:   -7.42 KCAL/MOL
REMARK 923 INTER-LIGAND FREE ENERGY PREDICTED BY IDOCK:   -6.85 KCAL/MOL
REMARK 924 INTRA-LIGAND FREE ENERGY PREDICTED BY IDOCK:   -0.56 KCAL/MOL
REMARK 927      BINDING AFFINITY PREDICTED BY RF-SCORE:    0.00 PKD
ROOT
HETATM    1  C   UNL     1     -10.278  10.308  66.251  1.00  0.00    -0.221 C  
HETATM    2  C   UNL     1     -11.025  10.248  67.587  1.00  0.00    -0.356 C  
HETATM    3  C   UNL     1     -10.085  10.921  68.584  1.00  0.00    -0.200 C  
HETATM    4  C   UNL     1      -8.893  11.376  67.739  1.00  0.00    -0.143 C  
HETATM    5  C   UNL     1      -9.121  12.793  67.191  1.00  0.00    -0.219 C  
HETATM    6  N   UNL     1      -8.886  10.345  66.695  1.00  0.00    -0.133 NA 
HETATM    7  C   UNL     1      -7.896  10.508  65.643  1.00  0.00    -0.150 C  
HETATM    8  C   UNL     1     -10.100  12.879  66.010  1.00  0.00    -0.285 C  
HETATM    9  C   UNL     1     -10.661  11.556  65.455  1.00  0.00    -0.335 C  
ENDROOT
BRANCH   8  10
HETATM   10  O   UNL     1     -11.235  13.701  66.340  1.00  0.00    -0.301 OA 
BRANCH  10  11
HETATM   11  C   UNL     1     -11.748  14.371  65.260  1.00  0.00    -0.364 C  
HETATM   12  O   UNL     1     -12.832  14.120  64.746  1.00  0.00    -0.677 OA 
BRANCH  11  13
HETATM   13  C   UNL     1     -10.812  15.516  64.847  1.00  0.00    -0.427 C  
HETATM   14  O   UNL     1     -11.546  16.472  64.066  1.00  0.00    -1.490 OA 
HETATM   15  H   UNL     1     -10.968  17.180  63.811  1.00  0.00     0.000 HD 
BRANCH  13  16
HETATM   16  C   UNL     1     -10.115  16.216  65.996  1.00  0.00    -0.372 A  
HETATM   17  C   UNL     1      -8.715  16.286  66.073  1.00  0.00    -0.285 A  
HETATM   18  C   UNL     1      -8.094  16.970  67.119  1.00  0.00    -0.216 A  
HETATM   19  C   UNL     1      -8.861  17.610  68.091  1.00  0.00    -0.269 A  
HETATM   20  C   UNL     1     -10.248  17.575  68.015  1.00  0.00    -0.354 A  
HETATM   21  C   UNL     1     -10.870  16.893  66.972  1.00  0.00    -0.055 A  
ENDBRANCH  13  16
ENDBRANCH  11  13
ENDBRANCH  10  11
ENDBRANCH   8  10
TORSDOF 4
ENDMDL
MODEL       41
REMARK 921   NORMALIZED FREE ENERGY PREDICTED BY IDOCK:   -5.25 KCAL/MOL
REMARK 922        TOTAL FREE ENERGY PREDICTED BY IDOCK:   -7.40 KCAL/MOL
REMARK 923 INTER-LIGAND FREE ENERGY PREDICTED BY IDOCK:   -6.55 KCAL/MOL
REMARK 924 INTRA-LIGAND FREE ENERGY PREDICTED BY IDOCK:   -0.85 KCAL/MOL
REMARK 927      BINDING AFFINITY PREDICTED BY RF-SCORE:    0.00 PKD
ROOT
HETATM    1  C   UNL     1     -10.042  14.233  65.126  1.00  0.00    -0.321 C  
HETATM    2  C   UNL     1     -10.988  15.370  64.724  1.00  0.00    -0.411 C  
HETATM    3  C   UNL     1     -12.260  14.665  64.260  1.00  0.00    -0.432 C  
HETATM    4  C   UNL     1     -11.979  13.178  64.488  1.00  0.00    -0.389 C  
HETATM    5  C   UNL     1     -12.409  12.752  65.899  1.00  0.00    -0.319 C  
HETATM    6  N   UNL     1     -10.527  13.138  64.287  1.00  0.00    -0.424 NA 
HETATM    7  C   UNL     1      -9.888  11.851  64.504  1.00  0.00    -0.178 C  
HETATM    8  C   UNL     1     -11.459  13.190  67.024  1.00  0.00    -0.336 C  
HETATM    9  C   UNL     1     -10.160  13.912  66.616  1.00  0.00    -0.273 C  
ENDROOT
BRANCH   8  10
HETATM   10  O   UNL     1     -12.131  14.052  67.961  1.00  0.00    -0.362 OA 
BRANCH  10  11
HETATM   11  C   UNL     1     -11.819  13.777  69.267  1.00  0.00    -0.344 C  
HETATM   12  O   UNL     1     -11.710  12.646  69.725  1.00  0.00    -0.309 OA 
BRANCH  11  13
HETATM   13  C   UNL     1     -11.555  15.079  70.039  1.00  0.00    -0.287 C  
HETATM   14  O   UNL     1     -11.293  14.769  71.416  1.00  0.00    -0.528 OA 
HETATM   15  H   UNL     1     -11.129  15.574  71.893  1.00  0.00     0.000 HD 
BRANCH  13  16
HETATM   16  C   UNL     1     -10.438  15.936  69.481  1.00  0.00    -0.281 A  
HETATM   17  C   UNL     1      -9.105  15.497  69.481  1.00  0.00    -0.260 A  
HETATM   18  C   UNL     1      -8.096  16.285  68.925  1.00  0.00    -0.231 A  
HETATM   19  C   UNL     1      -8.407  17.515  68.346  1.00  0.00    -0.278 A  
HETATM   20  C   UNL     1      -9.725  17.953  68.313  1.00  0.00    -0.327 A  
HETATM   21  C   UNL     1     -10.733  17.167  68.865  1.00  0.00    -0.257 A  
ENDBRANCH  13  16
ENDBRANCH  11  13
ENDBRANCH  10  11
ENDBRANCH   8  10
TORSDOF 4
ENDMDL
MODEL       42
REMARK 921   NORMALIZED FREE ENERGY PREDICTED BY IDOCK:   -5.21 KCAL/MOL
REMARK 922        TOTAL FREE ENERGY PREDICTED BY IDOCK:   -7.35 KCAL/MOL
REMARK 923 INTER-LIGAND FREE ENERGY PREDICTED BY IDOCK:   -6.68 KCAL/MOL
REMARK 924 INTRA-LIGAND FREE ENERGY PREDICTED BY IDOCK:   -0.67 KCAL/MOL
REMARK 927      BINDING AFFINITY PREDICTED BY RF-SCORE:    0.00 PKD
ROOT
HETATM    1  C   UNL     1     -10.218   6.776  71.319  1.00  0.00    -0.202 C  
HETATM    2  C   UNL     1     -11.550   6.387  70.669  1.00  0.00    -0.412 C  
HETATM    3  C   UNL     1     -12.582   7.295  71.333  1.00  0.00    -0.423 C  
HETATM    4  C   UNL     1     -11.762   8.185  72.270  1.00  0.00    -0.379 C  
HETATM    5  C   UNL     1     -11.295   9.456  71.546  1.00  0.00    -0.464 C  
HETATM    6  N   UNL     1     -10.662   7.279  72.618  1.00  0.00    -0.254 NA 
HETATM    7  C   UNL     1      -9.619   7.836  73.464  1.00  0.00    -0.270 C  
HETATM    8  C   UNL     1     -10.123   9.253  70.575  1.00  0.00    -0.255 C  
HETATM    9  C   UNL     1      -9.494   7.848  70.503  1.00  0.00    -0.162 C  
ENDROOT
BRANCH   8  10
HETATM   10  O   UNL     1     -10.500   9.603  69.230  1.00  0.00    -0.200 OA 
BRANCH  10  11
HETATM   11  C   UNL     1     -10.259  10.918  68.927  1.00  0.00    -0.198 C  
HETATM   12  O   UNL     1      -9.148  11.434  68.937  1.00  0.00    -0.127 OA 
BRANCH  11  13
HETATM   13  C   UNL     1     -11.560  11.615  68.502  1.00  0.00    -0.317 C  
HETATM   14  O   UNL     1     -12.660  10.707  68.665  1.00  0.00    -0.645 OA 
HETATM   15  H   UNL     1     -13.465  11.138  68.402  1.00  0.00     0.000 HD 
BRANCH  13  16
HETATM   16  C   UNL     1     -11.853  12.914  69.223  1.00  0.00    -0.363 A  
HETATM   17  C   UNL     1     -12.254  12.935  70.568  1.00  0.00    -0.395 A  
HETATM   18  C   UNL     1     -12.480  14.145  71.224  1.00  0.00    -0.446 A  
HETATM   19  C   UNL     1     -12.290  15.353  70.553  1.00  0.00    -0.452 A  
HETATM   20  C   UNL     1     -11.866  15.352  69.231  1.00  0.00    -0.365 A  
HETATM   21  C   UNL     1     -11.639  14.145  68.573  1.00  0.00    -0.351 A  
ENDBRANCH  13  16
ENDBRANCH  11  13
ENDBRANCH  10  11
ENDBRANCH   8  10
TORSDOF 4
ENDMDL
MODEL       43
REMARK 921   NORMALIZED FREE ENERGY PREDICTED BY IDOCK:   -5.21 KCAL/MOL
REMARK 922        TOTAL FREE ENERGY PREDICTED BY IDOCK:   -7.35 KCAL/MOL
REMARK 923 INTER-LIGAND FREE ENERGY PREDICTED BY IDOCK:   -6.74 KCAL/MOL
REMARK 924 INTRA-LIGAND FREE ENERGY PREDICTED BY IDOCK:   -0.61 KCAL/MOL
REMARK 927      BINDING AFFINITY PREDICTED BY RF-SCORE:    0.00 PKD
ROOT
HETATM    1  C   UNL     1     -10.399  14.273  66.921  1.00  0.00    -0.268 C  
HETATM    2  C   UNL     1     -11.861  14.343  67.377  1.00  0.00    -0.430 C  
HETATM    3  C   UNL     1     -11.784  14.684  68.863  1.00  0.00    -0.343 C  
HETATM    4  C   UNL     1     -10.289  14.848  69.141  1.00  0.00    -0.245 C  
HETATM    5  C   UNL     1      -9.848  16.302  68.915  1.00  0.00    -0.246 C  
HETATM    6  N   UNL     1      -9.722  13.912  68.165  1.00  0.00    -0.216 NA 
HETATM    7  C   UNL     1      -8.270  13.861  68.097  1.00  0.00    -0.158 C  
HETATM    8  C   UNL     1      -9.705  16.711  67.441  1.00  0.00    -0.251 C  
HETATM    9  C   UNL     1      -9.922  15.619  66.376  1.00  0.00    -0.298 C  
ENDROOT
BRANCH   8  10
HETATM   10  O   UNL     1     -10.603  17.788  67.115  1.00  0.00    -0.346 OA 
BRANCH  10  11
HETATM   11  C   UNL     1     -10.137  19.017  67.503  1.00  0.00    -0.373 C  
HETATM   12  O   UNL     1     -10.649  19.702  68.380  1.00  0.00    -0.361 OA 
BRANCH  11  13
HETATM   13  C   UNL     1      -8.850  19.365  66.740  1.00  0.00    -0.327 C  
HETATM   14  O   UNL     1      -9.152  20.321  65.711  1.00  0.00    -0.547 OA 
HETATM   15  H   UNL     1      -8.356  20.536  65.239  1.00  0.00     0.000 HD 
BRANCH  13  16
HETATM   16  C   UNL     1      -7.715  19.878  67.602  1.00  0.00    -0.326 A  
HETATM   17  C   UNL     1      -7.464  19.347  68.877  1.00  0.00    -0.399 A  
HETATM   18  C   UNL     1      -6.388  19.806  69.638  1.00  0.00    -0.378 A  
HETATM   19  C   UNL     1      -5.538  20.787  69.131  1.00  0.00    -0.413 A  
HETATM   20  C   UNL     1      -5.756  21.305  67.860  1.00  0.00    -0.394 A  
HETATM   21  C   UNL     1      -6.828  20.847  67.098  1.00  0.00    -0.417 A  
ENDBRANCH  13  16
ENDBRANCH  11  13
ENDBRANCH  10  11
ENDBRANCH   8  10
TORSDOF 4
ENDMDL
MODEL       44
REMARK 921   NORMALIZED FREE ENERGY PREDICTED BY IDOCK:   -5.18 KCAL/MOL
REMARK 922        TOTAL FREE ENERGY PREDICTED BY IDOCK:   -7.31 KCAL/MOL
REMARK 923 INTER-LIGAND FREE ENERGY PREDICTED BY IDOCK:   -7.28 KCAL/MOL
REMARK 924 INTRA-LIGAND FREE ENERGY PREDICTED BY IDOCK:   -0.03 KCAL/MOL
REMARK 927      BINDING AFFINITY PREDICTED BY RF-SCORE:    0.00 PKD
ROOT
HETATM    1  C   UNL     1     -10.820  15.561  67.009  1.00  0.00    -0.314 C  
HETATM    2  C   UNL     1     -10.240  14.144  67.080  1.00  0.00    -0.260 C  
HETATM    3  C   UNL     1      -8.802  14.341  67.553  1.00  0.00    -0.202 C  
HETATM    4  C   UNL     1      -8.677  15.849  67.781  1.00  0.00    -0.170 C  
HETATM    5  C   UNL     1      -9.067  16.218  69.220  1.00  0.00    -0.185 C  
HETATM    6  N   UNL     1      -9.617  16.359  66.777  1.00  0.00    -0.238 NA 
HETATM    7  C   UNL     1      -9.814  17.799  66.759  1.00  0.00    -0.320 C  
HETATM    8  C   UNL     1     -10.577  16.215  69.501  1.00  0.00    -0.306 C  
HETATM    9  C   UNL     1     -11.520  15.941  68.314  1.00  0.00    -0.320 C  
ENDROOT
BRANCH   8  10
HETATM   10  O   UNL     1     -10.910  15.254  70.521  1.00  0.00    -0.295 OA 
BRANCH  10  11
HETATM   11  C   UNL     1     -11.787  15.741  71.455  1.00  0.00    -0.446 C  
HETATM   12  O   UNL     1     -11.611  16.774  72.091  1.00  0.00    -0.307 OA 
BRANCH  11  13
HETATM   13  C   UNL     1     -13.039  14.855  71.527  1.00  0.00    -0.356 C  
HETATM   14  O   UNL     1     -14.027  15.353  70.611  1.00  0.00    -0.823 OA 
HETATM   15  H   UNL     1     -14.801  14.804  70.655  1.00  0.00     0.000 HD 
BRANCH  13  16
HETATM   16  C   UNL     1     -12.794  13.382  71.270  1.00  0.00    -0.407 A  
HETATM   17  C   UNL     1     -13.333  12.391  72.104  1.00  0.00    -0.508 A  
HETATM   18  C   UNL     1     -13.128  11.039  71.826  1.00  0.00    -0.554 A  
HETATM   19  C   UNL     1     -12.398  10.657  70.701  1.00  0.00    -0.462 A  
HETATM   20  C   UNL     1     -11.879  11.624  69.850  1.00  0.00    -0.434 A  
HETATM   21  C   UNL     1     -12.084  12.974  70.124  1.00  0.00    -0.377 A  
ENDBRANCH  13  16
ENDBRANCH  11  13
ENDBRANCH  10  11
ENDBRANCH   8  10
TORSDOF 4
ENDMDL
MODEL       45
REMARK 921   NORMALIZED FREE ENERGY PREDICTED BY IDOCK:   -5.16 KCAL/MOL
REMARK 922        TOTAL FREE ENERGY PREDICTED BY IDOCK:   -7.29 KCAL/MOL
REMARK 923 INTER-LIGAND FREE ENERGY PREDICTED BY IDOCK:   -6.39 KCAL/MOL
REMARK 924 INTRA-LIGAND FREE ENERGY PREDICTED BY IDOCK:   -0.90 KCAL/MOL
REMARK 927      BINDING AFFINITY PREDICTED BY RF-SCORE:    0.00 PKD
ROOT
HETATM    1  C   UNL     1      -9.932  10.732  67.392  1.00  0.00    -0.184 C  
HETATM    2  C   UNL     1      -8.787  11.747  67.469  1.00  0.00    -0.162 C  
HETATM    3  C   UNL     1      -7.789  11.282  66.411  1.00  0.00    -0.109 C  
HETATM    4  C   UNL     1      -8.461  10.071  65.758  1.00  0.00    -0.138 C  
HETATM    5  C   UNL     1      -9.329  10.505  64.567  1.00  0.00    -0.299 C  
HETATM    6  N   UNL     1      -9.242   9.548  66.884  1.00  0.00    -0.140 NA 
HETATM    7  C   UNL     1     -10.089   8.403  66.597  1.00  0.00    -0.288 C  
HETATM    8  C   UNL     1     -10.670  11.151  64.947  1.00  0.00    -0.248 C  
HETATM    9  C   UNL     1     -11.033  11.208  66.443  1.00  0.00    -0.248 C  
ENDROOT
BRANCH   8  10
HETATM   10  O   UNL     1     -10.750  12.500  64.452  1.00  0.00    -0.306 OA 
BRANCH  10  11
HETATM   11  C   UNL     1     -12.027  12.882  64.131  1.00  0.00    -0.423 C  
HETATM   12  O   UNL     1     -12.796  12.210  63.454  1.00  0.00    -0.765 OA 
BRANCH  11  13
HETATM   13  C   UNL     1     -12.369  14.221  64.802  1.00  0.00    -0.426 C  
HETATM   14  O   UNL     1     -13.625  14.100  65.489  1.00  0.00    -0.685 OA 
HETATM   15  H   UNL     1     -13.836  14.927  65.904  1.00  0.00     0.000 HD 
BRANCH  13  16
HETATM   16  C   UNL     1     -11.312  14.749  65.748  1.00  0.00    -0.336 A  
HETATM   17  C   UNL     1     -10.185  15.442  65.279  1.00  0.00    -0.390 A  
HETATM   18  C   UNL     1      -9.243  15.955  66.171  1.00  0.00    -0.384 A  
HETATM   19  C   UNL     1      -9.422  15.801  67.545  1.00  0.00    -0.218 A  
HETATM   20  C   UNL     1     -10.545  15.143  68.029  1.00  0.00    -0.258 A  
HETATM   21  C   UNL     1     -11.487  14.630  67.140  1.00  0.00    -0.380 A  
ENDBRANCH  13  16
ENDBRANCH  11  13
ENDBRANCH  10  11
ENDBRANCH   8  10
TORSDOF 4
ENDMDL
MODEL       46
REMARK 921   NORMALIZED FREE ENERGY PREDICTED BY IDOCK:   -5.16 KCAL/MOL
REMARK 922        TOTAL FREE ENERGY PREDICTED BY IDOCK:   -7.29 KCAL/MOL
REMARK 923 INTER-LIGAND FREE ENERGY PREDICTED BY IDOCK:   -6.85 KCAL/MOL
REMARK 924 INTRA-LIGAND FREE ENERGY PREDICTED BY IDOCK:   -0.44 KCAL/MOL
REMARK 927      BINDING AFFINITY PREDICTED BY RF-SCORE:    0.00 PKD
ROOT
HETATM    1  C   UNL     1     -10.120  13.509  64.882  1.00  0.00    -0.254 C  
HETATM    2  C   UNL     1      -9.675  14.505  65.959  1.00  0.00    -0.331 C  
HETATM    3  C   UNL     1     -10.958  14.863  66.705  1.00  0.00    -0.326 C  
HETATM    4  C   UNL     1     -12.037  14.000  66.047  1.00  0.00    -0.439 C  
HETATM    5  C   UNL     1     -12.155  12.641  66.754  1.00  0.00    -0.236 C  
HETATM    6  N   UNL     1     -11.515  13.899  64.681  1.00  0.00    -0.362 NA 
HETATM    7  C   UNL     1     -12.274  13.062  63.767  1.00  0.00    -0.460 C  
HETATM    8  C   UNL     1     -11.035  11.642  66.424  1.00  0.00    -0.295 C  
HETATM    9  C   UNL     1      -9.992  12.066  65.373  1.00  0.00    -0.279 C  
ENDROOT
BRANCH   8  10
HETATM   10  O   UNL     1     -10.302  11.279  67.609  1.00  0.00    -0.177 OA 
BRANCH  10  11
HETATM   11  C   UNL     1     -10.770  10.137  68.205  1.00  0.00    -0.244 C  
HETATM   12  O   UNL     1     -10.643   9.013  67.733  1.00  0.00    -0.246 OA 
BRANCH  11  13
HETATM   13  C   UNL     1     -11.395  10.464  69.569  1.00  0.00    -0.265 C  
HETATM   14  O   UNL     1     -12.822  10.553  69.427  1.00  0.00    -0.654 OA 
HETATM   15  H   UNL     1     -13.209  10.755  70.271  1.00  0.00     0.000 HD 
BRANCH  13  16
HETATM   16  C   UNL     1     -11.046   9.496  70.680  1.00  0.00    -0.364 A  
HETATM   17  C   UNL     1      -9.714   9.238  71.039  1.00  0.00    -0.341 A  
HETATM   18  C   UNL     1      -9.416   8.373  72.092  1.00  0.00    -0.360 A  
HETATM   19  C   UNL     1     -10.444   7.767  72.814  1.00  0.00    -0.390 A  
HETATM   20  C   UNL     1     -11.769   8.032  72.490  1.00  0.00    -0.446 A  
HETATM   21  C   UNL     1     -12.069   8.896  71.440  1.00  0.00    -0.381 A  
ENDBRANCH  13  16
ENDBRANCH  11  13
ENDBRANCH  10  11
ENDBRANCH   8  10
TORSDOF 4
ENDMDL
MODEL       47
REMARK 921   NORMALIZED FREE ENERGY PREDICTED BY IDOCK:   -5.13 KCAL/MOL
REMARK 922        TOTAL FREE ENERGY PREDICTED BY IDOCK:   -7.25 KCAL/MOL
REMARK 923 INTER-LIGAND FREE ENERGY PREDICTED BY IDOCK:   -6.93 KCAL/MOL
REMARK 924 INTRA-LIGAND FREE ENERGY PREDICTED BY IDOCK:   -0.33 KCAL/MOL
REMARK 927      BINDING AFFINITY PREDICTED BY RF-SCORE:    0.00 PKD
ROOT
HETATM    1  C   UNL     1     -10.489  13.307  64.283  1.00  0.00    -0.352 C  
HETATM    2  C   UNL     1     -10.189  14.707  64.832  1.00  0.00    -0.322 C  
HETATM    3  C   UNL     1     -11.493  15.148  65.493  1.00  0.00    -0.213 C  
HETATM    4  C   UNL     1     -12.428  13.948  65.334  1.00  0.00    -0.501 C  
HETATM    5  C   UNL     1     -12.295  12.990  66.527  1.00  0.00    -0.175 C  
HETATM    6  N   UNL     1     -11.935  13.378  64.076  1.00  0.00    -0.450 NA 
HETATM    7  C   UNL     1     -12.567  12.143  63.642  1.00  0.00    -0.504 C  
HETATM    8  C   UNL     1     -11.033  12.115  66.515  1.00  0.00    -0.284 C  
HETATM    9  C   UNL     1     -10.105  12.222  65.289  1.00  0.00    -0.295 C  
ENDROOT
BRANCH   8  10
HETATM   10  O   UNL     1     -10.215  12.372  67.672  1.00  0.00    -0.202 OA 
BRANCH  10  11
HETATM   11  C   UNL     1     -10.084  11.283  68.494  1.00  0.00    -0.204 C  
HETATM   12  O   UNL     1      -9.011  10.854  68.902  1.00  0.00    -0.167 OA 
BRANCH  11  13
HETATM   13  C   UNL     1     -11.466  10.738  68.884  1.00  0.00    -0.293 C  
HETATM   14  O   UNL     1     -11.355   9.340  69.195  1.00  0.00    -0.443 OA 
HETATM   15  H   UNL     1     -12.209   9.003  69.436  1.00  0.00     0.000 HD 
BRANCH  13  16
HETATM   16  C   UNL     1     -12.141  11.468  70.026  1.00  0.00    -0.408 A  
HETATM   17  C   UNL     1     -12.856  10.780  71.019  1.00  0.00    -0.480 A  
HETATM   18  C   UNL     1     -13.436  11.469  72.084  1.00  0.00    -0.219 A  
HETATM   19  C   UNL     1     -13.295  12.853  72.184  1.00  0.00    -0.615 A  
HETATM   20  C   UNL     1     -12.568  13.547  71.226  1.00  0.00    -0.427 A  
HETATM   21  C   UNL     1     -11.987  12.862  70.162  1.00  0.00    -0.373 A  
ENDBRANCH  13  16
ENDBRANCH  11  13
ENDBRANCH  10  11
ENDBRANCH   8  10
TORSDOF 4
ENDMDL
MODEL       48
REMARK 921   NORMALIZED FREE ENERGY PREDICTED BY IDOCK:   -5.08 KCAL/MOL
REMARK 922        TOTAL FREE ENERGY PREDICTED BY IDOCK:   -7.19 KCAL/MOL
REMARK 923 INTER-LIGAND FREE ENERGY PREDICTED BY IDOCK:   -6.13 KCAL/MOL
REMARK 924 INTRA-LIGAND FREE ENERGY PREDICTED BY IDOCK:   -1.06 KCAL/MOL
REMARK 927      BINDING AFFINITY PREDICTED BY RF-SCORE:    0.00 PKD
ROOT
HETATM    1  C   UNL     1     -12.157  14.363  64.485  1.00  0.00    -0.481 C  
HETATM    2  C   UNL     1     -11.794  12.960  63.986  1.00  0.00    -0.512 C  
HETATM    3  C   UNL     1     -10.338  12.769  64.403  1.00  0.00    -0.388 C  
HETATM    4  C   UNL     1      -9.988  14.048  65.167  1.00  0.00    -0.225 C  
HETATM    5  C   UNL     1     -10.304  13.894  66.662  1.00  0.00    -0.278 C  
HETATM    6  N   UNL     1     -10.851  15.020  64.489  1.00  0.00    -0.243 NA 
HETATM    7  C   UNL     1     -10.831  16.373  65.020  1.00  0.00    -0.273 C  
HETATM    8  C   UNL     1     -11.795  13.989  67.020  1.00  0.00    -0.428 C  
HETATM    9  C   UNL     1     -12.780  14.312  65.880  1.00  0.00    -0.310 C  
ENDROOT
BRANCH   8  10
HETATM   10  O   UNL     1     -12.258  12.769  67.628  1.00  0.00    -0.321 OA 
BRANCH  10  11
HETATM   11  C   UNL     1     -11.918  12.663  68.952  1.00  0.00    -0.242 C  
HETATM   12  O   UNL     1     -12.013  13.577  69.762  1.00  0.00    -0.310 OA 
BRANCH  11  13
HETATM   13  C   UNL     1     -11.481  11.227  69.278  1.00  0.00    -0.301 C  
HETATM   14  O   UNL     1     -12.644  10.391  69.389  1.00  0.00    -0.687 OA 
HETATM   15  H   UNL     1     -12.374   9.503  69.591  1.00  0.00     0.000 HD 
BRANCH  13  16
HETATM   16  C   UNL     1     -10.500  10.619  68.297  1.00  0.00    -0.214 A  
HETATM   17  C   UNL     1     -10.935   9.909  67.168  1.00  0.00    -0.147 A  
HETATM   18  C   UNL     1     -10.015   9.391  66.255  1.00  0.00    -0.353 A  
HETATM   19  C   UNL     1      -8.649   9.592  66.447  1.00  0.00    -0.136 A  
HETATM   20  C   UNL     1      -8.202  10.316  67.545  1.00  0.00    -0.114 A  
HETATM   21  C   UNL     1      -9.118  10.835  68.456  1.00  0.00    -0.170 A  
ENDBRANCH  13  16
ENDBRANCH  11  13
ENDBRANCH  10  11
ENDBRANCH   8  10
TORSDOF 4
ENDMDL
MODEL       49
REMARK 921   NORMALIZED FREE ENERGY PREDICTED BY IDOCK:   -5.05 KCAL/MOL
REMARK 922        TOTAL FREE ENERGY PREDICTED BY IDOCK:   -7.15 KCAL/MOL
REMARK 923 INTER-LIGAND FREE ENERGY PREDICTED BY IDOCK:   -6.65 KCAL/MOL
REMARK 924 INTRA-LIGAND FREE ENERGY PREDICTED BY IDOCK:   -0.51 KCAL/MOL
REMARK 927      BINDING AFFINITY PREDICTED BY RF-SCORE:    0.00 PKD
ROOT
HETATM    1  C   UNL     1      -9.663   7.444  71.170  1.00  0.00    -0.163 C  
HETATM    2  C   UNL     1     -10.012   6.772  69.837  1.00  0.00    -0.184 C  
HETATM    3  C   UNL     1     -11.495   6.432  69.956  1.00  0.00    -0.496 C  
HETATM    4  C   UNL     1     -11.908   6.989  71.320  1.00  0.00    -0.330 C  
HETATM    5  C   UNL     1     -12.382   8.445  71.195  1.00  0.00    -0.219 C  
HETATM    6  N   UNL     1     -10.653   6.850  72.066  1.00  0.00    -0.210 NA 
HETATM    7  C   UNL     1     -10.658   7.365  73.426  1.00  0.00    -0.377 C  
HETATM    8  C   UNL     1     -11.258   9.477  71.019  1.00  0.00    -0.362 C  
HETATM    9  C   UNL     1      -9.806   8.964  71.080  1.00  0.00    -0.345 C  
ENDROOT
BRANCH   8  10
HETATM   10  O   UNL     1     -11.393  10.179  69.770  1.00  0.00    -0.248 OA 
BRANCH  10  11
HETATM   11  C   UNL     1     -11.693  11.507  69.927  1.00  0.00    -0.343 C  
HETATM   12  O   UNL     1     -12.526  11.935  70.717  1.00  0.00    -0.349 OA 
BRANCH  11  13
HETATM   13  C   UNL     1     -10.788  12.369  69.035  1.00  0.00    -0.148 C  
HETATM   14  O   UNL     1      -9.481  11.777  68.971  1.00  0.00    -0.408 OA 
HETATM   15  H   UNL     1      -8.921  12.311  68.420  1.00  0.00     0.000 HD 
BRANCH  13  16
HETATM   16  C   UNL     1     -11.314  12.610  67.635  1.00  0.00    -0.362 A  
HETATM   17  C   UNL     1     -11.978  13.798  67.293  1.00  0.00    -0.436 A  
HETATM   18  C   UNL     1     -12.419  14.016  65.987  1.00  0.00    -0.489 A  
HETATM   19  C   UNL     1     -12.186  13.059  65.000  1.00  0.00    -0.501 A  
HETATM   20  C   UNL     1     -11.506  11.889  65.314  1.00  0.00    -0.313 A  
HETATM   21  C   UNL     1     -11.064  11.670  66.616  1.00  0.00    -0.364 A  
ENDBRANCH  13  16
ENDBRANCH  11  13
ENDBRANCH  10  11
ENDBRANCH   8  10
TORSDOF 4
ENDMDL
MODEL       50
REMARK 921   NORMALIZED FREE ENERGY PREDICTED BY IDOCK:   -4.97 KCAL/MOL
REMARK 922        TOTAL FREE ENERGY PREDICTED BY IDOCK:   -7.05 KCAL/MOL
REMARK 923 INTER-LIGAND FREE ENERGY PREDICTED BY IDOCK:   -6.67 KCAL/MOL
REMARK 924 INTRA-LIGAND FREE ENERGY PREDICTED BY IDOCK:   -0.39 KCAL/MOL
REMARK 927      BINDING AFFINITY PREDICTED BY RF-SCORE:    0.00 PKD
ROOT
HETATM    1  C   UNL     1      -9.066   9.134  65.146  1.00  0.00    -0.176 C  
HETATM    2  C   UNL     1      -9.600   8.630  66.492  1.00  0.00    -0.303 C  
HETATM    3  C   UNL     1      -8.968   9.556  67.527  1.00  0.00    -0.133 C  
HETATM    4  C   UNL     1      -8.167  10.565  66.701  1.00  0.00    -0.129 C  
HETATM    5  C   UNL     1      -9.033  11.778  66.331  1.00  0.00    -0.201 C  
HETATM    6  N   UNL     1      -7.798   9.742  65.544  1.00  0.00    -0.115 NA 
HETATM    7  C   UNL     1      -7.068  10.420  64.485  1.00  0.00    -0.007 C  
HETATM    8  C   UNL     1     -10.045  11.529  65.202  1.00  0.00    -0.268 C  
HETATM    9  C   UNL     1     -10.019  10.150  64.516  1.00  0.00    -0.275 C  
ENDROOT
BRANCH   8  10
HETATM   10  O   UNL     1     -11.394  11.732  65.665  1.00  0.00    -0.307 OA 
BRANCH  10  11
HETATM   11  C   UNL     1     -12.174  12.416  64.770  1.00  0.00    -0.423 C  
HETATM   12  O   UNL     1     -13.218  11.984  64.295  1.00  0.00    -0.710 OA 
BRANCH  11  13
HETATM   13  C   UNL     1     -11.594  13.815  64.516  1.00  0.00    -0.392 C  
HETATM   14  O   UNL     1     -12.436  14.517  63.587  1.00  0.00    -1.072 OA 
HETATM   15  H   UNL     1     -12.077  15.382  63.430  1.00  0.00     0.000 HD 
BRANCH  13  16
HETATM   16  C   UNL     1     -11.386  14.655  65.759  1.00  0.00    -0.340 A  
HETATM   17  C   UNL     1     -11.954  14.297  66.991  1.00  0.00    -0.463 A  
HETATM   18  C   UNL     1     -11.717  15.064  68.133  1.00  0.00    -0.335 A  
HETATM   19  C   UNL     1     -10.893  16.187  68.065  1.00  0.00    -0.333 A  
HETATM   20  C   UNL     1     -10.300  16.540  66.860  1.00  0.00    -0.300 A  
HETATM   21  C   UNL     1     -10.535  15.776  65.719  1.00  0.00    -0.384 A  
ENDBRANCH  13  16
ENDBRANCH  11  13
ENDBRANCH  10  11
ENDBRANCH   8  10
TORSDOF 4
ENDMDL
MODEL       51
REMARK 921   NORMALIZED FREE ENERGY PREDICTED BY IDOCK:   -4.94 KCAL/MOL
REMARK 922        TOTAL FREE ENERGY PREDICTED BY IDOCK:   -7.01 KCAL/MOL
REMARK 923 INTER-LIGAND FREE ENERGY PREDICTED BY IDOCK:   -6.60 KCAL/MOL
REMARK 924 INTRA-LIGAND FREE ENERGY PREDICTED BY IDOCK:   -0.42 KCAL/MOL
REMARK 927      BINDING AFFINITY PREDICTED BY RF-SCORE:    0.00 PKD
ROOT
HETATM    1  C   UNL     1      -6.243  18.604  66.849  1.00  0.00    -0.177 C  
HETATM    2  C   UNL     1      -5.895  17.412  67.748  1.00  0.00    -0.137 C  
HETATM    3  C   UNL     1      -6.841  17.541  68.940  1.00  0.00    -0.246 C  
HETATM    4  C   UNL     1      -7.707  18.759  68.611  1.00  0.00    -0.326 C  
HETATM    5  C   UNL     1      -8.958  18.343  67.825  1.00  0.00    -0.292 C  
HETATM    6  N   UNL     1      -6.766  19.561  67.822  1.00  0.00    -0.226 NA 
HETATM    7  C   UNL     1      -7.292  20.797  67.265  1.00  0.00    -0.343 C  
HETATM    8  C   UNL     1      -8.712  18.013  66.345  1.00  0.00    -0.227 C  
HETATM    9  C   UNL     1      -7.286  18.222  65.799  1.00  0.00    -0.218 C  
ENDROOT
BRANCH   8  10
HETATM   10  O   UNL     1      -9.068  16.649  66.053  1.00  0.00    -0.410 OA 
BRANCH  10  11
HETATM   11  C   UNL     1     -10.356  16.512  65.604  1.00  0.00    -0.322 C  
HETATM   12  O   UNL     1     -10.996  17.408  65.067  1.00  0.00    -0.703 OA 
BRANCH  11  13
HETATM   13  C   UNL     1     -10.839  15.067  65.800  1.00  0.00    -0.350 C  
HETATM   14  O   UNL     1      -9.833  14.161  65.320  1.00  0.00    -0.542 OA 
HETATM   15  H   UNL     1     -10.132  13.268  65.441  1.00  0.00     0.000 HD 
BRANCH  13  16
HETATM   16  C   UNL     1     -11.220  14.709  67.221  1.00  0.00    -0.344 A  
HETATM   17  C   UNL     1     -11.710  13.436  67.552  1.00  0.00    -0.406 A  
HETATM   18  C   UNL     1     -12.017  13.114  68.875  1.00  0.00    -0.317 A  
HETATM   19  C   UNL     1     -11.821  14.052  69.888  1.00  0.00    -0.393 A  
HETATM   20  C   UNL     1     -11.311  15.307  69.583  1.00  0.00    -0.304 A  
HETATM   21  C   UNL     1     -11.002  15.630  68.264  1.00  0.00    -0.315 A  
ENDBRANCH  13  16
ENDBRANCH  11  13
ENDBRANCH  10  11
ENDBRANCH   8  10
TORSDOF 4
ENDMDL
MODEL       52
REMARK 921   NORMALIZED FREE ENERGY PREDICTED BY IDOCK:   -4.94 KCAL/MOL
REMARK 922        TOTAL FREE ENERGY PREDICTED BY IDOCK:   -7.01 KCAL/MOL
REMARK 923 INTER-LIGAND FREE ENERGY PREDICTED BY IDOCK:   -6.73 KCAL/MOL
REMARK 924 INTRA-LIGAND FREE ENERGY PREDICTED BY IDOCK:   -0.28 KCAL/MOL
REMARK 927      BINDING AFFINITY PREDICTED BY RF-SCORE:    0.00 PKD
ROOT
HETATM    1  C   UNL     1      -8.958  18.446  68.324  1.00  0.00    -0.312 C  
HETATM    2  C   UNL     1     -10.077  19.467  68.559  1.00  0.00    -0.527 C  
HETATM    3  C   UNL     1     -10.726  19.647  67.189  1.00  0.00    -0.587 C  
HETATM    4  C   UNL     1      -9.977  18.671  66.279  1.00  0.00    -0.372 C  
HETATM    5  C   UNL     1     -10.657  17.293  66.279  1.00  0.00    -0.184 C  
HETATM    6  N   UNL     1      -8.654  18.664  66.911  1.00  0.00    -0.273 NA 
HETATM    7  C   UNL     1      -7.674  17.759  66.333  1.00  0.00    -0.283 C  
HETATM    8  C   UNL     1     -10.403  16.448  67.537  1.00  0.00    -0.288 C  
HETATM    9  C   UNL     1      -9.441  17.021  68.595  1.00  0.00    -0.274 C  
ENDROOT
BRANCH   8  10
HETATM   10  O   UNL     1     -11.636  16.154  68.219  1.00  0.00    -0.321 OA 
BRANCH  10  11
HETATM   11  C   UNL     1     -11.945  14.819  68.225  1.00  0.00    -0.223 C  
HETATM   12  O   UNL     1     -12.197  14.166  67.219  1.00  0.00    -0.402 OA 
BRANCH  11  13
HETATM   13  C   UNL     1     -11.851  14.255  69.651  1.00  0.00    -0.318 C  
HETATM   14  O   UNL     1     -13.070  14.539  70.355  1.00  0.00    -0.520 OA 
HETATM   15  H   UNL     1     -13.012  14.191  71.237  1.00  0.00     0.000 HD 
BRANCH  13  16
HETATM   16  C   UNL     1     -11.541  12.775  69.733  1.00  0.00    -0.288 A  
HETATM   17  C   UNL     1     -10.511  12.196  68.974  1.00  0.00    -0.072 A  
HETATM   18  C   UNL     1     -10.216  10.838  69.096  1.00  0.00    -0.229 A  
HETATM   19  C   UNL     1     -10.932  10.042  69.989  1.00  0.00    -0.352 A  
HETATM   20  C   UNL     1     -11.935  10.603  70.768  1.00  0.00    -0.477 A  
HETATM   21  C   UNL     1     -12.231  11.959  70.650  1.00  0.00    -0.424 A  
ENDBRANCH  13  16
ENDBRANCH  11  13
ENDBRANCH  10  11
ENDBRANCH   8  10
TORSDOF 4
ENDMDL
MODEL       53
REMARK 921   NORMALIZED FREE ENERGY PREDICTED BY IDOCK:   -4.92 KCAL/MOL
REMARK 922        TOTAL FREE ENERGY PREDICTED BY IDOCK:   -6.99 KCAL/MOL
REMARK 923 INTER-LIGAND FREE ENERGY PREDICTED BY IDOCK:   -6.00 KCAL/MOL
REMARK 924 INTRA-LIGAND FREE ENERGY PREDICTED BY IDOCK:   -0.99 KCAL/MOL
REMARK 927      BINDING AFFINITY PREDICTED BY RF-SCORE:    0.00 PKD
ROOT
HETATM    1  C   UNL     1     -10.150  10.558  67.307  1.00  0.00    -0.201 C  
HETATM    2  C   UNL     1     -10.483   9.088  67.027  1.00  0.00    -0.316 C  
HETATM    3  C   UNL     1      -9.680   8.308  68.065  1.00  0.00    -0.187 C  
HETATM    4  C   UNL     1      -8.993   9.385  68.907  1.00  0.00    -0.136 C  
HETATM    5  C   UNL     1      -9.880   9.800  70.091  1.00  0.00    -0.306 C  
HETATM    6  N   UNL     1      -8.823  10.448  67.910  1.00  0.00    -0.125 NA 
HETATM    7  C   UNL     1      -8.249  11.693  68.395  1.00  0.00    -0.155 C  
HETATM    8  C   UNL     1     -11.058  10.716  69.725  1.00  0.00    -0.295 C  
HETATM    9  C   UNL     1     -11.166  11.185  68.262  1.00  0.00    -0.343 C  
ENDROOT
BRANCH   8  10
HETATM   10  O   UNL     1     -12.315  10.095  70.052  1.00  0.00    -0.150 OA 
BRANCH  10  11
HETATM   11  C   UNL     1     -12.667  10.246  71.368  1.00  0.00    -0.442 C  
HETATM   12  O   UNL     1     -12.690  11.322  71.955  1.00  0.00    -0.335 OA 
BRANCH  11  13
HETATM   13  C   UNL     1     -13.096   8.898  71.965  1.00  0.00    -0.402 C  
HETATM   14  O   UNL     1     -14.304   8.458  71.324  1.00  0.00    -0.604 OA 
HETATM   15  H   UNL     1     -14.569   7.624  71.693  1.00  0.00     0.000 HD 
BRANCH  13  16
HETATM   16  C   UNL     1     -12.048   7.806  71.894  1.00  0.00    -0.341 A  
HETATM   17  C   UNL     1     -11.100   7.630  72.914  1.00  0.00    -0.448 A  
HETATM   18  C   UNL     1     -10.169   6.593  72.848  1.00  0.00    -0.215 A  
HETATM   19  C   UNL     1     -10.184   5.705  71.773  1.00  0.00    -0.253 A  
HETATM   20  C   UNL     1     -11.132   5.848  70.768  1.00  0.00    -0.324 A  
HETATM   21  C   UNL     1     -12.063   6.881  70.832  1.00  0.00    -0.424 A  
ENDBRANCH  13  16
ENDBRANCH  11  13
ENDBRANCH  10  11
ENDBRANCH   8  10
TORSDOF 4
ENDMDL
MODEL       54
REMARK 921   NORMALIZED FREE ENERGY PREDICTED BY IDOCK:   -4.92 KCAL/MOL
REMARK 922        TOTAL FREE ENERGY PREDICTED BY IDOCK:   -6.99 KCAL/MOL
REMARK 923 INTER-LIGAND FREE ENERGY PREDICTED BY IDOCK:   -6.51 KCAL/MOL
REMARK 924 INTRA-LIGAND FREE ENERGY PREDICTED BY IDOCK:   -0.48 KCAL/MOL
REMARK 927      BINDING AFFINITY PREDICTED BY RF-SCORE:    0.00 PKD
ROOT
HETATM    1  C   UNL     1      -9.258  19.554  66.521  1.00  0.00    -0.365 C  
HETATM    2  C   UNL     1      -7.873  19.191  65.975  1.00  0.00    -0.254 C  
HETATM    3  C   UNL     1      -7.196  18.436  67.116  1.00  0.00    -0.217 C  
HETATM    4  C   UNL     1      -8.261  18.364  68.212  1.00  0.00    -0.299 C  
HETATM    5  C   UNL     1      -9.120  17.100  68.056  1.00  0.00    -0.240 C  
HETATM    6  N   UNL     1      -9.002  19.604  67.959  1.00  0.00    -0.318 NA 
HETATM    7  C   UNL     1     -10.168  19.833  68.797  1.00  0.00    -0.367 C  
HETATM    8  C   UNL     1     -10.163  17.164  66.929  1.00  0.00    -0.315 C  
HETATM    9  C   UNL     1     -10.295  18.491  66.158  1.00  0.00    -0.457 C  
ENDROOT
BRANCH   8  10
HETATM   10  O   UNL     1      -9.924  16.139  65.947  1.00  0.00    -0.317 OA 
BRANCH  10  11
HETATM   11  C   UNL     1     -11.003  15.317  65.751  1.00  0.00    -0.338 C  
HETATM   12  O   UNL     1     -11.636  15.249  64.704  1.00  0.00    -0.404 OA 
BRANCH  11  13
HETATM   13  C   UNL     1     -11.247  14.450  66.995  1.00  0.00    -0.328 C  
HETATM   14  O   UNL     1     -12.638  14.506  67.348  1.00  0.00    -0.509 OA 
HETATM   15  H   UNL     1     -12.789  13.970  68.117  1.00  0.00     0.000 HD 
BRANCH  13  16
HETATM   16  C   UNL     1     -10.806  13.007  66.864  1.00  0.00    -0.282 A  
HETATM   17  C   UNL     1     -11.475  11.970  67.533  1.00  0.00    -0.403 A  
HETATM   18  C   UNL     1     -11.077  10.643  67.366  1.00  0.00    -0.341 A  
HETATM   19  C   UNL     1     -10.017  10.330  66.515  1.00  0.00    -0.280 A  
HETATM   20  C   UNL     1      -9.361  11.341  65.824  1.00  0.00    -0.245 A  
HETATM   21  C   UNL     1      -9.757  12.666  65.988  1.00  0.00    -0.232 A  
ENDBRANCH  13  16
ENDBRANCH  11  13
ENDBRANCH  10  11
ENDBRANCH   8  10
TORSDOF 4
ENDMDL
MODEL       55
REMARK 921   NORMALIZED FREE ENERGY PREDICTED BY IDOCK:   -4.91 KCAL/MOL
REMARK 922        TOTAL FREE ENERGY PREDICTED BY IDOCK:   -6.98 KCAL/MOL
REMARK 923 INTER-LIGAND FREE ENERGY PREDICTED BY IDOCK:   -6.46 KCAL/MOL
REMARK 924 INTRA-LIGAND FREE ENERGY PREDICTED BY IDOCK:   -0.52 KCAL/MOL
REMARK 927      BINDING AFFINITY PREDICTED BY RF-SCORE:    0.00 PKD
ROOT
HETATM    1  C   UNL     1     -11.948  13.318  67.712  1.00  0.00    -0.314 C  
HETATM    2  C   UNL     1     -11.626  12.528  68.985  1.00  0.00    -0.365 C  
HETATM    3  C   UNL     1     -10.713  11.398  68.516  1.00  0.00    -0.235 C  
HETATM    4  C   UNL     1     -10.524  11.656  67.019  1.00  0.00    -0.224 C  
HETATM    5  C   UNL     1      -9.312  12.567  66.771  1.00  0.00    -0.230 C  
HETATM    6  N   UNL     1     -11.804  12.289  66.684  1.00  0.00    -0.594 NA 
HETATM    7  C   UNL     1     -11.950  12.747  65.312  1.00  0.00    -0.429 C  
HETATM    8  C   UNL     1      -9.547  14.052  67.083  1.00  0.00    -0.245 C  
HETATM    9  C   UNL     1     -10.966  14.473  67.512  1.00  0.00    -0.297 C  
ENDROOT
BRANCH   8  10
HETATM   10  O   UNL     1      -8.653  14.510  68.115  1.00  0.00    -0.155 OA 
BRANCH  10  11
HETATM   11  C   UNL     1      -7.913  15.602  67.743  1.00  0.00    -0.144 C  
HETATM   12  O   UNL     1      -7.148  15.621  66.786  1.00  0.00    -0.194 OA 
BRANCH  11  13
HETATM   13  C   UNL     1      -8.241  16.802  68.643  1.00  0.00    -0.252 C  
HETATM   14  O   UNL     1      -7.019  17.371  69.139  1.00  0.00    -0.237 OA 
HETATM   15  H   UNL     1      -7.222  18.114  69.696  1.00  0.00     0.000 HD 
BRANCH  13  16
HETATM   16  C   UNL     1      -9.083  17.878  67.990  1.00  0.00    -0.267 A  
HETATM   17  C   UNL     1      -9.191  19.164  68.543  1.00  0.00    -0.425 A  
HETATM   18  C   UNL     1      -9.940  20.152  67.904  1.00  0.00    -0.537 A  
HETATM   19  C   UNL     1     -10.577  19.877  66.695  1.00  0.00    -0.540 A  
HETATM   20  C   UNL     1     -10.459  18.619  66.119  1.00  0.00    -0.473 A  
HETATM   21  C   UNL     1      -9.711  17.631  66.754  1.00  0.00    -0.300 A  
ENDBRANCH  13  16
ENDBRANCH  11  13
ENDBRANCH  10  11
ENDBRANCH   8  10
TORSDOF 4
ENDMDL
MODEL       56
REMARK 921   NORMALIZED FREE ENERGY PREDICTED BY IDOCK:   -4.90 KCAL/MOL
REMARK 922        TOTAL FREE ENERGY PREDICTED BY IDOCK:   -6.97 KCAL/MOL
REMARK 923 INTER-LIGAND FREE ENERGY PREDICTED BY IDOCK:   -6.56 KCAL/MOL
REMARK 924 INTRA-LIGAND FREE ENERGY PREDICTED BY IDOCK:   -0.41 KCAL/MOL
REMARK 927      BINDING AFFINITY PREDICTED BY RF-SCORE:    0.00 PKD
ROOT
HETATM    1  C   UNL     1     -10.234   7.070  70.983  1.00  0.00    -0.196 C  
HETATM    2  C   UNL     1     -11.542   6.539  70.387  1.00  0.00    -0.470 C  
HETATM    3  C   UNL     1     -12.637   7.147  71.260  1.00  0.00    -0.421 C  
HETATM    4  C   UNL     1     -11.885   8.034  72.255  1.00  0.00    -0.369 C  
HETATM    5  C   UNL     1     -11.715   9.456  71.699  1.00  0.00    -0.468 C  
HETATM    6  N   UNL     1     -10.619   7.303  72.374  1.00  0.00    -0.225 NA 
HETATM    7  C   UNL     1      -9.603   7.918  73.212  1.00  0.00    -0.285 C  
HETATM    8  C   UNL     1     -10.631   9.602  70.620  1.00  0.00    -0.319 C  
HETATM    9  C   UNL     1      -9.788   8.356  70.287  1.00  0.00    -0.188 C  
ENDROOT
BRANCH   8  10
HETATM   10  O   UNL     1     -11.198  10.058  69.378  1.00  0.00    -0.231 OA 
BRANCH  10  11
HETATM   11  C   UNL     1     -10.587  11.182  68.886  1.00  0.00    -0.207 C  
HETATM   12  O   UNL     1      -9.403  11.241  68.574  1.00  0.00    -0.176 OA 
BRANCH  11  13
HETATM   13  C   UNL     1     -11.610  12.314  68.712  1.00  0.00    -0.330 C  
HETATM   14  O   UNL     1     -11.520  13.211  69.830  1.00  0.00    -0.474 OA 
HETATM   15  H   UNL     1     -12.152  13.911  69.723  1.00  0.00     0.000 HD 
BRANCH  13  16
HETATM   16  C   UNL     1     -11.489  13.090  67.417  1.00  0.00    -0.380 A  
HETATM   17  C   UNL     1     -11.985  12.581  66.206  1.00  0.00    -0.410 A  
HETATM   18  C   UNL     1     -11.899  13.331  65.032  1.00  0.00    -0.384 A  
HETATM   19  C   UNL     1     -11.335  14.606  65.054  1.00  0.00    -0.390 A  
HETATM   20  C   UNL     1     -10.865  15.136  66.248  1.00  0.00    -0.333 A  
HETATM   21  C   UNL     1     -10.950  14.391  67.421  1.00  0.00    -0.303 A  
ENDBRANCH  13  16
ENDBRANCH  11  13
ENDBRANCH  10  11
ENDBRANCH   8  10
TORSDOF 4
ENDMDL
MODEL       57
REMARK 921   NORMALIZED FREE ENERGY PREDICTED BY IDOCK:   -4.87 KCAL/MOL
REMARK 922        TOTAL FREE ENERGY PREDICTED BY IDOCK:   -6.93 KCAL/MOL
REMARK 923 INTER-LIGAND FREE ENERGY PREDICTED BY IDOCK:   -6.43 KCAL/MOL
REMARK 924 INTRA-LIGAND FREE ENERGY PREDICTED BY IDOCK:   -0.50 KCAL/MOL
REMARK 927      BINDING AFFINITY PREDICTED BY RF-SCORE:    0.00 PKD
ROOT
HETATM    1  C   UNL     1     -11.702  13.461  67.775  1.00  0.00    -0.359 C  
HETATM    2  C   UNL     1     -10.457  12.790  68.364  1.00  0.00    -0.253 C  
HETATM    3  C   UNL     1      -9.525  12.595  67.171  1.00  0.00    -0.214 C  
HETATM    4  C   UNL     1     -10.273  13.225  65.994  1.00  0.00    -0.291 C  
HETATM    5  C   UNL     1      -9.926  14.715  65.861  1.00  0.00    -0.352 C  
HETATM    6  N   UNL     1     -11.664  12.987  66.392  1.00  0.00    -0.370 NA 
HETATM    7  C   UNL     1     -12.683  13.536  65.513  1.00  0.00    -0.440 C  
HETATM    8  C   UNL     1     -10.604  15.631  66.891  1.00  0.00    -0.311 C  
HETATM    9  C   UNL     1     -11.608  14.984  67.864  1.00  0.00    -0.350 C  
ENDROOT
BRANCH   8  10
HETATM   10  O   UNL     1      -9.626  16.310  67.701  1.00  0.00    -0.224 OA 
BRANCH  10  11
HETATM   11  C   UNL     1      -9.870  17.652  67.831  1.00  0.00    -0.300 C  
HETATM   12  O   UNL     1     -10.250  18.185  68.867  1.00  0.00    -0.379 OA 
BRANCH  11  13
HETATM   13  C   UNL     1      -9.527  18.387  66.527  1.00  0.00    -0.317 C  
HETATM   14  O   UNL     1     -10.606  19.269  66.180  1.00  0.00    -0.454 OA 
HETATM   15  H   UNL     1     -10.394  19.723  65.374  1.00  0.00     0.000 HD 
BRANCH  13  16
HETATM   16  C   UNL     1      -8.221  19.155  66.552  1.00  0.00    -0.315 A  
HETATM   17  C   UNL     1      -7.126  18.769  65.765  1.00  0.00    -0.265 A  
HETATM   18  C   UNL     1      -5.946  19.514  65.773  1.00  0.00    -0.197 A  
HETATM   19  C   UNL     1      -5.850  20.665  66.553  1.00  0.00    -0.235 A  
HETATM   20  C   UNL     1      -6.933  21.078  67.318  1.00  0.00    -0.428 A  
HETATM   21  C   UNL     1      -8.112  20.337  67.310  1.00  0.00    -0.381 A  
ENDBRANCH  13  16
ENDBRANCH  11  13
ENDBRANCH  10  11
ENDBRANCH   8  10
TORSDOF 4
ENDMDL
MODEL       58
REMARK 921   NORMALIZED FREE ENERGY PREDICTED BY IDOCK:   -4.86 KCAL/MOL
REMARK 922        TOTAL FREE ENERGY PREDICTED BY IDOCK:   -6.91 KCAL/MOL
REMARK 923 INTER-LIGAND FREE ENERGY PREDICTED BY IDOCK:   -6.49 KCAL/MOL
REMARK 924 INTRA-LIGAND FREE ENERGY PREDICTED BY IDOCK:   -0.42 KCAL/MOL
REMARK 927      BINDING AFFINITY PREDICTED BY RF-SCORE:    0.00 PKD
ROOT
HETATM    1  C   UNL     1     -12.104  14.295  65.311  1.00  0.00    -0.400 C  
HETATM    2  C   UNL     1     -12.664  13.194  64.405  1.00  0.00    -0.235 C  
HETATM    3  C   UNL     1     -11.442  12.374  63.997  1.00  0.00    -0.479 C  
HETATM    4  C   UNL     1     -10.278  13.023  64.748  1.00  0.00    -0.291 C  
HETATM    5  C   UNL     1     -10.092  12.378  66.130  1.00  0.00    -0.265 C  
HETATM    6  N   UNL     1     -10.734  14.415  64.815  1.00  0.00    -0.417 NA 
HETATM    7  C   UNL     1      -9.879  15.334  65.550  1.00  0.00    -0.326 C  
HETATM    8  C   UNL     1     -11.122  12.806  67.186  1.00  0.00    -0.277 C  
HETATM    9  C   UNL     1     -12.149  13.881  66.782  1.00  0.00    -0.476 C  
ENDROOT
BRANCH   8  10
HETATM   10  O   UNL     1     -11.876  11.674  67.659  1.00  0.00    -0.575 OA 
BRANCH  10  11
HETATM   11  C   UNL     1     -11.538  11.294  68.932  1.00  0.00    -0.319 C  
HETATM   12  O   UNL     1     -11.247  12.076  69.829  1.00  0.00    -0.166 OA 
BRANCH  11  13
HETATM   13  C   UNL     1     -11.653   9.770  69.082  1.00  0.00     0.205 C  
HETATM   14  O   UNL     1     -11.230   9.139  67.863  1.00  0.00    -0.494 OA 
HETATM   15  H   UNL     1     -11.301   8.196  67.957  1.00  0.00     0.000 HD 
BRANCH  13  16
HETATM   16  C   UNL     1     -10.895   9.185  70.256  1.00  0.00    -0.282 A  
HETATM   17  C   UNL     1      -9.497   9.276  70.347  1.00  0.00    -0.292 A  
HETATM   18  C   UNL     1      -8.822   8.766  71.457  1.00  0.00    -0.295 A  
HETATM   19  C   UNL     1      -9.534   8.174  72.499  1.00  0.00    -0.339 A  
HETATM   20  C   UNL     1     -10.920   8.100  72.439  1.00  0.00    -0.414 A  
HETATM   21  C   UNL     1     -11.596   8.610  71.333  1.00  0.00    -0.354 A  
ENDBRANCH  13  16
ENDBRANCH  11  13
ENDBRANCH  10  11
ENDBRANCH   8  10
TORSDOF 4
ENDMDL
MODEL       59
REMARK 921   NORMALIZED FREE ENERGY PREDICTED BY IDOCK:   -4.84 KCAL/MOL
REMARK 922        TOTAL FREE ENERGY PREDICTED BY IDOCK:   -6.90 KCAL/MOL
REMARK 923 INTER-LIGAND FREE ENERGY PREDICTED BY IDOCK:   -6.41 KCAL/MOL
REMARK 924 INTRA-LIGAND FREE ENERGY PREDICTED BY IDOCK:   -0.49 KCAL/MOL
REMARK 927      BINDING AFFINITY PREDICTED BY RF-SCORE:    0.00 PKD
ROOT
HETATM    1  C   UNL     1     -11.521  11.026  67.435  1.00  0.00    -0.135 C  
HETATM    2  C   UNL     1     -11.680  11.092  68.958  1.00  0.00    -0.402 C  
HETATM    3  C   UNL     1     -10.310  10.700  69.505  1.00  0.00    -0.214 C  
HETATM    4  C   UNL     1      -9.444  10.499  68.260  1.00  0.00    -0.155 C  
HETATM    5  C   UNL     1      -8.764  11.814  67.850  1.00  0.00    -0.164 C  
HETATM    6  N   UNL     1     -10.449  10.041  67.296  1.00  0.00    -0.241 NA 
HETATM    7  C   UNL     1      -9.978   9.816  65.939  1.00  0.00    -0.275 C  
HETATM    8  C   UNL     1      -9.683  12.826  67.150  1.00  0.00    -0.216 C  
HETATM    9  C   UNL     1     -11.131  12.386  66.858  1.00  0.00    -0.335 C  
ENDROOT
BRANCH   8  10
HETATM   10  O   UNL     1      -9.769  14.051  67.902  1.00  0.00    -0.217 OA 
BRANCH  10  11
HETATM   11  C   UNL     1      -9.591  15.170  67.132  1.00  0.00    -0.218 C  
HETATM   12  O   UNL     1      -8.640  15.344  66.380  1.00  0.00    -0.287 OA 
BRANCH  11  13
HETATM   13  C   UNL     1     -10.785  16.124  67.291  1.00  0.00    -0.277 C  
HETATM   14  O   UNL     1     -11.485  15.809  68.505  1.00  0.00    -0.356 OA 
HETATM   15  H   UNL     1     -12.223  16.399  68.603  1.00  0.00     0.000 HD 
BRANCH  13  16
HETATM   16  C   UNL     1     -10.433  17.597  67.265  1.00  0.00    -0.338 A  
HETATM   17  C   UNL     1     -10.533  18.356  66.089  1.00  0.00    -0.422 A  
HETATM   18  C   UNL     1     -10.242  19.721  66.097  1.00  0.00    -0.618 A  
HETATM   19  C   UNL     1      -9.865  20.351  67.282  1.00  0.00    -0.597 A  
HETATM   20  C   UNL     1      -9.788  19.620  68.461  1.00  0.00    -0.519 A  
HETATM   21  C   UNL     1     -10.078  18.259  68.456  1.00  0.00    -0.419 A  
ENDBRANCH  13  16
ENDBRANCH  11  13
ENDBRANCH  10  11
ENDBRANCH   8  10
TORSDOF 4
ENDMDL
MODEL       60
REMARK 921   NORMALIZED FREE ENERGY PREDICTED BY IDOCK:   -4.83 KCAL/MOL
REMARK 922        TOTAL FREE ENERGY PREDICTED BY IDOCK:   -6.88 KCAL/MOL
REMARK 923 INTER-LIGAND FREE ENERGY PREDICTED BY IDOCK:   -6.91 KCAL/MOL
REMARK 924 INTRA-LIGAND FREE ENERGY PREDICTED BY IDOCK:    0.03 KCAL/MOL
REMARK 927      BINDING AFFINITY PREDICTED BY RF-SCORE:    0.00 PKD
ROOT
HETATM    1  C   UNL     1     -10.539  12.645  64.048  1.00  0.00    -0.427 C  
HETATM    2  C   UNL     1     -11.924  12.907  63.445  1.00  0.00    -0.612 C  
HETATM    3  C   UNL     1     -12.900  12.283  64.439  1.00  0.00    -0.294 C  
HETATM    4  C   UNL     1     -12.012  11.762  65.572  1.00  0.00     0.215 C  
HETATM    5  C   UNL     1     -11.808  12.842  66.645  1.00  0.00    -0.461 C  
HETATM    6  N   UNL     1     -10.786  11.438  64.835  1.00  0.00    -0.284 NA 
HETATM    7  C   UNL     1      -9.666  10.970  65.634  1.00  0.00    -0.232 C  
HETATM    8  C   UNL     1     -10.816  13.952  66.264  1.00  0.00    -0.290 C  
HETATM    9  C   UNL     1     -10.080  13.815  64.917  1.00  0.00    -0.297 C  
ENDROOT
BRANCH   8  10
HETATM   10  O   UNL     1     -11.462  15.239  66.251  1.00  0.00    -0.233 OA 
BRANCH  10  11
HETATM   11  C   UNL     1     -10.750  16.193  65.573  1.00  0.00    -0.342 C  
HETATM   12  O   UNL     1     -11.029  16.589  64.447  1.00  0.00    -0.872 OA 
BRANCH  11  13
HETATM   13  C   UNL     1      -9.616  16.740  66.453  1.00  0.00    -0.281 C  
HETATM   14  O   UNL     1      -8.380  16.683  65.724  1.00  0.00    -0.391 OA 
HETATM   15  H   UNL     1      -7.679  17.021  66.268  1.00  0.00     0.000 HD 
BRANCH  13  16
HETATM   16  C   UNL     1      -9.838  18.141  66.983  1.00  0.00    -0.324 A  
HETATM   17  C   UNL     1      -9.991  18.392  68.355  1.00  0.00    -0.406 A  
HETATM   18  C   UNL     1     -10.155  19.695  68.826  1.00  0.00    -0.532 A  
HETATM   19  C   UNL     1     -10.149  20.768  67.935  1.00  0.00    -0.093 A  
HETATM   20  C   UNL     1      -9.971  20.541  66.577  1.00  0.00    -0.329 A  
HETATM   21  C   UNL     1      -9.807  19.241  66.105  1.00  0.00    -0.429 A  
ENDBRANCH  13  16
ENDBRANCH  11  13
ENDBRANCH  10  11
ENDBRANCH   8  10
TORSDOF 4
ENDMDL
MODEL       61
REMARK 921   NORMALIZED FREE ENERGY PREDICTED BY IDOCK:   -4.82 KCAL/MOL
REMARK 922        TOTAL FREE ENERGY PREDICTED BY IDOCK:   -6.86 KCAL/MOL
REMARK 923 INTER-LIGAND FREE ENERGY PREDICTED BY IDOCK:   -5.99 KCAL/MOL
REMARK 924 INTRA-LIGAND FREE ENERGY PREDICTED BY IDOCK:   -0.87 KCAL/MOL
REMARK 927      BINDING AFFINITY PREDICTED BY RF-SCORE:    0.00 PKD
ROOT
HETATM    1  C   UNL     1      -9.557  17.887  68.699  1.00  0.00    -0.328 C  
HETATM    2  C   UNL     1     -10.727  17.713  67.725  1.00  0.00    -0.336 C  
HETATM    3  C   UNL     1     -10.293  18.456  66.465  1.00  0.00    -0.426 C  
HETATM    4  C   UNL     1      -8.879  18.949  66.780  1.00  0.00    -0.309 C  
HETATM    5  C   UNL     1      -7.832  17.903  66.371  1.00  0.00    -0.307 C  
HETATM    6  N   UNL     1      -8.971  19.142  68.231  1.00  0.00    -0.323 NA 
HETATM    7  C   UNL     1      -7.747  19.550  68.900  1.00  0.00    -0.334 C  
HETATM    8  C   UNL     1      -7.715  16.701  67.321  1.00  0.00    -0.169 C  
HETATM    9  C   UNL     1      -8.574  16.720  68.600  1.00  0.00    -0.263 C  
ENDROOT
BRANCH   8  10
HETATM   10  O   UNL     1      -8.023  15.472  66.638  1.00  0.00    -0.226 OA 
BRANCH  10  11
HETATM   11  C   UNL     1      -7.453  14.371  67.224  1.00  0.00    -0.074 C  
HETATM   12  O   UNL     1      -6.320  14.349  67.691  1.00  0.00    -0.217 OA 
BRANCH  11  13
HETATM   13  C   UNL     1      -8.460  13.213  67.279  1.00  0.00    -0.198 C  
HETATM   14  O   UNL     1      -8.597  12.765  68.636  1.00  0.00    -0.342 OA 
HETATM   15  H   UNL     1      -9.220  12.049  68.670  1.00  0.00     0.000 HD 
BRANCH  13  16
HETATM   16  C   UNL     1      -9.824  13.526  66.699  1.00  0.00    -0.279 A  
HETATM   17  C   UNL     1     -10.094  13.373  65.330  1.00  0.00    -0.270 A  
HETATM   18  C   UNL     1     -11.369  13.628  64.824  1.00  0.00    -0.365 A  
HETATM   19  C   UNL     1     -12.397  14.021  65.679  1.00  0.00    -0.502 A  
HETATM   20  C   UNL     1     -12.156  14.151  67.041  1.00  0.00    -0.449 A  
HETATM   21  C   UNL     1     -10.884  13.896  67.549  1.00  0.00    -0.274 A  
ENDBRANCH  13  16
ENDBRANCH  11  13
ENDBRANCH  10  11
ENDBRANCH   8  10
TORSDOF 4
ENDMDL
MODEL       62
REMARK 921   NORMALIZED FREE ENERGY PREDICTED BY IDOCK:   -4.81 KCAL/MOL
REMARK 922        TOTAL FREE ENERGY PREDICTED BY IDOCK:   -6.86 KCAL/MOL
REMARK 923 INTER-LIGAND FREE ENERGY PREDICTED BY IDOCK:   -6.23 KCAL/MOL
REMARK 924 INTRA-LIGAND FREE ENERGY PREDICTED BY IDOCK:   -0.63 KCAL/MOL
REMARK 927      BINDING AFFINITY PREDICTED BY RF-SCORE:    0.00 PKD
ROOT
HETATM    1  C   UNL     1     -12.034  14.086  66.771  1.00  0.00    -0.444 C  
HETATM    2  C   UNL     1     -12.243  13.376  65.429  1.00  0.00    -0.492 C  
HETATM    3  C   UNL     1     -10.939  13.602  64.668  1.00  0.00    -0.403 C  
HETATM    4  C   UNL     1     -10.051  14.370  65.649  1.00  0.00    -0.353 C  
HETATM    5  C   UNL     1      -9.230  13.402  66.515  1.00  0.00    -0.182 C  
HETATM    6  N   UNL     1     -11.060  15.114  66.410  1.00  0.00    -0.335 NA 
HETATM    7  C   UNL     1     -10.562  15.921  67.512  1.00  0.00    -0.315 C  
HETATM    8  C   UNL     1     -10.019  12.712  67.637  1.00  0.00    -0.216 C  
HETATM    9  C   UNL     1     -11.491  13.125  67.829  1.00  0.00    -0.352 C  
ENDROOT
BRANCH   8  10
HETATM   10  O   UNL     1     -10.013  11.282  67.469  1.00  0.00    -0.179 OA 
BRANCH  10  11
HETATM   11  C   UNL     1      -9.478  10.614  68.539  1.00  0.00    -0.176 C  
HETATM   12  O   UNL     1      -8.517  11.012  69.188  1.00  0.00    -0.118 OA 
BRANCH  11  13
HETATM   13  C   UNL     1     -10.298   9.354  68.848  1.00  0.00    -0.213 C  
HETATM   14  O   UNL     1      -9.409   8.243  69.043  1.00  0.00    -0.147 OA 
HETATM   15  H   UNL     1      -9.916   7.464  69.234  1.00  0.00     0.000 HD 
BRANCH  13  16
HETATM   16  C   UNL     1     -11.237   9.476  70.031  1.00  0.00    -0.243 A  
HETATM   17  C   UNL     1     -12.214  10.482  70.092  1.00  0.00    -0.358 A  
HETATM   18  C   UNL     1     -13.094  10.553  71.173  1.00  0.00    -0.450 A  
HETATM   19  C   UNL     1     -13.024   9.609  72.197  1.00  0.00    -0.493 A  
HETATM   20  C   UNL     1     -12.082   8.591  72.139  1.00  0.00    -0.449 A  
HETATM   21  C   UNL     1     -11.202   8.518  71.061  1.00  0.00    -0.312 A  
ENDBRANCH  13  16
ENDBRANCH  11  13
ENDBRANCH  10  11
ENDBRANCH   8  10
TORSDOF 4
ENDMDL
MODEL       63
REMARK 921   NORMALIZED FREE ENERGY PREDICTED BY IDOCK:   -4.79 KCAL/MOL
REMARK 922        TOTAL FREE ENERGY PREDICTED BY IDOCK:   -6.83 KCAL/MOL
REMARK 923 INTER-LIGAND FREE ENERGY PREDICTED BY IDOCK:   -6.18 KCAL/MOL
REMARK 924 INTRA-LIGAND FREE ENERGY PREDICTED BY IDOCK:   -0.64 KCAL/MOL
REMARK 927      BINDING AFFINITY PREDICTED BY RF-SCORE:    0.00 PKD
ROOT
HETATM    1  C   UNL     1      -9.242  18.193  67.842  1.00  0.00    -0.269 C  
HETATM    2  C   UNL     1     -10.685  18.214  67.326  1.00  0.00    -0.336 C  
HETATM    3  C   UNL     1     -10.644  17.401  66.035  1.00  0.00    -0.210 C  
HETATM    4  C   UNL     1      -9.196  16.917  65.934  1.00  0.00    -0.077 C  
HETATM    5  C   UNL     1      -9.022  15.565  66.642  1.00  0.00    -0.320 C  
HETATM    6  N   UNL     1      -8.490  18.016  66.601  1.00  0.00    -0.254 NA 
HETATM    7  C   UNL     1      -7.054  17.852  66.755  1.00  0.00    -0.197 C  
HETATM    8  C   UNL     1      -8.978  15.640  68.175  1.00  0.00    -0.179 C  
HETATM    9  C   UNL     1      -9.019  17.039  68.820  1.00  0.00    -0.249 C  
ENDROOT
BRANCH   8  10
HETATM   10  O   UNL     1     -10.057  14.887  68.760  1.00  0.00    -0.226 OA 
BRANCH  10  11
HETATM   11  C   UNL     1     -10.105  13.588  68.327  1.00  0.00    -0.247 C  
HETATM   12  O   UNL     1      -9.161  12.809  68.382  1.00  0.00    -0.192 OA 
BRANCH  11  13
HETATM   13  C   UNL     1     -11.520  13.237  67.844  1.00  0.00    -0.306 C  
HETATM   14  O   UNL     1     -12.397  14.345  68.099  1.00  0.00    -0.601 OA 
HETATM   15  H   UNL     1     -13.272  14.129  67.800  1.00  0.00     0.000 HD 
BRANCH  13  16
HETATM   16  C   UNL     1     -11.615  12.829  66.388  1.00  0.00    -0.435 A  
HETATM   17  C   UNL     1     -12.250  13.642  65.437  1.00  0.00    -0.474 A  
HETATM   18  C   UNL     1     -12.291  13.266  64.094  1.00  0.00    -0.408 A  
HETATM   19  C   UNL     1     -11.682  12.082  63.678  1.00  0.00    -0.587 A  
HETATM   20  C   UNL     1     -11.026  11.279  64.602  1.00  0.00    -0.281 A  
HETATM   21  C   UNL     1     -10.983  11.653  65.943  1.00  0.00    -0.334 A  
ENDBRANCH  13  16
ENDBRANCH  11  13
ENDBRANCH  10  11
ENDBRANCH   8  10
TORSDOF 4
ENDMDL
MODEL       64
REMARK 921   NORMALIZED FREE ENERGY PREDICTED BY IDOCK:   -4.77 KCAL/MOL
REMARK 922        TOTAL FREE ENERGY PREDICTED BY IDOCK:   -6.80 KCAL/MOL
REMARK 923 INTER-LIGAND FREE ENERGY PREDICTED BY IDOCK:   -6.39 KCAL/MOL
REMARK 924 INTRA-LIGAND FREE ENERGY PREDICTED BY IDOCK:   -0.42 KCAL/MOL
REMARK 927      BINDING AFFINITY PREDICTED BY RF-SCORE:    0.00 PKD
ROOT
HETATM    1  C   UNL     1     -11.940  11.157  68.320  1.00  0.00    -0.101 C  
HETATM    2  C   UNL     1     -11.772  10.807  69.803  1.00  0.00    -0.399 C  
HETATM    3  C   UNL     1     -10.327  10.326  69.922  1.00  0.00    -0.281 C  
HETATM    4  C   UNL     1      -9.750  10.495  68.515  1.00  0.00    -0.165 C  
HETATM    5  C   UNL     1      -9.138  11.892  68.340  1.00  0.00    -0.167 C  
HETATM    6  N   UNL     1     -10.949  10.281  67.698  1.00  0.00    -0.303 NA 
HETATM    7  C   UNL     1     -10.781  10.444  66.263  1.00  0.00    -0.037 C  
HETATM    8  C   UNL     1     -10.157  13.025  68.149  1.00  0.00    -0.237 C  
HETATM    9  C   UNL     1     -11.645  12.635  68.062  1.00  0.00    -0.394 C  
ENDROOT
BRANCH   8  10
HETATM   10  O   UNL     1     -10.049  14.000  69.204  1.00  0.00    -0.116 OA 
BRANCH  10  11
HETATM   11  C   UNL     1     -10.492  15.244  68.836  1.00  0.00    -0.241 C  
HETATM   12  O   UNL     1     -10.787  15.558  67.689  1.00  0.00    -0.292 OA 
BRANCH  11  13
HETATM   13  C   UNL     1     -10.636  16.146  70.071  1.00  0.00    -0.269 C  
HETATM   14  O   UNL     1     -10.732  17.516  69.650  1.00  0.00    -0.318 OA 
HETATM   15  H   UNL     1     -10.821  18.073  70.413  1.00  0.00     0.000 HD 
BRANCH  13  16
HETATM   16  C   UNL     1     -11.799  15.804  70.979  1.00  0.00    -0.460 A  
HETATM   17  C   UNL     1     -11.803  16.164  72.336  1.00  0.00    -0.637 A  
HETATM   18  C   UNL     1     -12.902  15.874  73.145  1.00  0.00    -0.643 A  
HETATM   19  C   UNL     1     -14.020  15.237  72.607  1.00  0.00    -0.555 A  
HETATM   20  C   UNL     1     -14.045  14.898  71.261  1.00  0.00    -0.475 A  
HETATM   21  C   UNL     1     -12.950  15.188  70.451  1.00  0.00    -0.296 A  
ENDBRANCH  13  16
ENDBRANCH  11  13
ENDBRANCH  10  11
ENDBRANCH   8  10
TORSDOF 4
ENDMDL
MODEL       65
REMARK 921   NORMALIZED FREE ENERGY PREDICTED BY IDOCK:   -4.76 KCAL/MOL
REMARK 922        TOTAL FREE ENERGY PREDICTED BY IDOCK:   -6.79 KCAL/MOL
REMARK 923 INTER-LIGAND FREE ENERGY PREDICTED BY IDOCK:   -6.51 KCAL/MOL
REMARK 924 INTRA-LIGAND FREE ENERGY PREDICTED BY IDOCK:   -0.29 KCAL/MOL
REMARK 927      BINDING AFFINITY PREDICTED BY RF-SCORE:    0.00 PKD
ROOT
HETATM    1  C   UNL     1     -11.675   6.658  71.090  1.00  0.00    -0.346 C  
HETATM    2  C   UNL     1     -12.922   7.465  71.469  1.00  0.00    -0.421 C  
HETATM    3  C   UNL     1     -12.388   8.629  72.300  1.00  0.00    -0.449 C  
HETATM    4  C   UNL     1     -10.869   8.445  72.286  1.00  0.00    -0.352 C  
HETATM    5  C   UNL     1     -10.242   9.176  71.090  1.00  0.00    -0.384 C  
HETATM    6  N   UNL     1     -10.769   6.985  72.190  1.00  0.00    -0.214 NA 
HETATM    7  C   UNL     1      -9.425   6.442  72.077  1.00  0.00    -0.151 C  
HETATM    8  C   UNL     1     -10.424   8.475  69.735  1.00  0.00    -0.220 C  
HETATM    9  C   UNL     1     -11.119   7.099  69.736  1.00  0.00    -0.239 C  
ENDROOT
BRANCH   8  10
HETATM   10  O   UNL     1     -11.160   9.306  68.818  1.00  0.00    -0.066 OA 
BRANCH  10  11
HETATM   11  C   UNL     1     -10.590   9.373  67.574  1.00  0.00    -0.267 C  
HETATM   12  O   UNL     1     -10.494   8.420  66.809  1.00  0.00    -0.314 OA 
BRANCH  11  13
HETATM   13  C   UNL     1     -10.168  10.815  67.256  1.00  0.00    -0.205 C  
HETATM   14  O   UNL     1      -8.751  10.855  67.025  1.00  0.00    -0.138 OA 
HETATM   15  H   UNL     1      -8.490  11.746  66.829  1.00  0.00     0.000 HD 
BRANCH  13  16
HETATM   16  C   UNL     1     -10.898  11.451  66.091  1.00  0.00    -0.310 A  
HETATM   17  C   UNL     1     -11.911  12.402  66.290  1.00  0.00    -0.431 A  
HETATM   18  C   UNL     1     -12.543  13.006  65.202  1.00  0.00    -0.530 A  
HETATM   19  C   UNL     1     -12.160  12.683  63.901  1.00  0.00    -0.567 A  
HETATM   20  C   UNL     1     -11.141  11.764  63.686  1.00  0.00    -0.518 A  
HETATM   21  C   UNL     1     -10.508  11.161  64.770  1.00  0.00    -0.388 A  
ENDBRANCH  13  16
ENDBRANCH  11  13
ENDBRANCH  10  11
ENDBRANCH   8  10
TORSDOF 4
ENDMDL
MODEL       66
REMARK 921   NORMALIZED FREE ENERGY PREDICTED BY IDOCK:   -4.75 KCAL/MOL
REMARK 922        TOTAL FREE ENERGY PREDICTED BY IDOCK:   -6.78 KCAL/MOL
REMARK 923 INTER-LIGAND FREE ENERGY PREDICTED BY IDOCK:   -6.25 KCAL/MOL
REMARK 924 INTRA-LIGAND FREE ENERGY PREDICTED BY IDOCK:   -0.52 KCAL/MOL
REMARK 927      BINDING AFFINITY PREDICTED BY RF-SCORE:    0.00 PKD
ROOT
HETATM    1  C   UNL     1     -11.157   8.604  72.281  1.00  0.00    -0.325 C  
HETATM    2  C   UNL     1      -9.729   8.175  72.637  1.00  0.00    -0.360 C  
HETATM    3  C   UNL     1      -9.517   6.873  71.869  1.00  0.00    -0.146 C  
HETATM    4  C   UNL     1     -10.812   6.679  71.078  1.00  0.00    -0.245 C  
HETATM    5  C   UNL     1     -10.717   7.357  69.703  1.00  0.00    -0.245 C  
HETATM    6  N   UNL     1     -11.781   7.319  71.973  1.00  0.00    -0.284 NA 
HETATM    7  C   UNL     1     -13.151   7.386  71.490  1.00  0.00    -0.374 C  
HETATM    8  C   UNL     1     -10.860   8.887  69.725  1.00  0.00    -0.200 C  
HETATM    9  C   UNL     1     -11.169   9.551  71.081  1.00  0.00    -0.446 C  
ENDROOT
BRANCH   8  10
HETATM   10  O   UNL     1      -9.673   9.523  69.217  1.00  0.00    -0.163 OA 
BRANCH  10  11
HETATM   11  C   UNL     1      -9.924  10.724  68.606  1.00  0.00    -0.182 C  
HETATM   12  O   UNL     1      -9.298  11.754  68.830  1.00  0.00    -0.130 OA 
BRANCH  11  13
HETATM   13  C   UNL     1     -11.036  10.569  67.558  1.00  0.00    -0.303 C  
HETATM   14  O   UNL     1     -12.154  11.391  67.927  1.00  0.00    -0.646 OA 
HETATM   15  H   UNL     1     -12.842  11.295  67.279  1.00  0.00     0.000 HD 
BRANCH  13  16
HETATM   16  C   UNL     1     -10.618  10.875  66.134  1.00  0.00    -0.270 A  
HETATM   17  C   UNL     1      -9.805   9.996  65.402  1.00  0.00    -0.384 A  
HETATM   18  C   UNL     1      -9.466  10.278  64.078  1.00  0.00    -0.356 A  
HETATM   19  C   UNL     1      -9.948  11.431  63.461  1.00  0.00    -0.424 A  
HETATM   20  C   UNL     1     -10.777  12.298  64.162  1.00  0.00    -0.412 A  
HETATM   21  C   UNL     1     -11.118  12.019  65.482  1.00  0.00    -0.361 A  
ENDBRANCH  13  16
ENDBRANCH  11  13
ENDBRANCH  10  11
ENDBRANCH   8  10
TORSDOF 4
ENDMDL
MODEL       67
REMARK 921   NORMALIZED FREE ENERGY PREDICTED BY IDOCK:   -4.73 KCAL/MOL
REMARK 922        TOTAL FREE ENERGY PREDICTED BY IDOCK:   -6.76 KCAL/MOL
REMARK 923 INTER-LIGAND FREE ENERGY PREDICTED BY IDOCK:   -6.18 KCAL/MOL
REMARK 924 INTRA-LIGAND FREE ENERGY PREDICTED BY IDOCK:   -0.58 KCAL/MOL
REMARK 927      BINDING AFFINITY PREDICTED BY RF-SCORE:    0.00 PKD
ROOT
HETATM    1  C   UNL     1      -8.613  16.965  68.571  1.00  0.00    -0.251 C  
HETATM    2  C   UNL     1      -9.975  16.786  69.251  1.00  0.00    -0.206 C  
HETATM    3  C   UNL     1     -10.990  16.927  68.120  1.00  0.00    -0.290 C  
HETATM    4  C   UNL     1     -10.139  17.112  66.862  1.00  0.00    -0.298 C  
HETATM    5  C   UNL     1      -9.805  15.756  66.224  1.00  0.00    -0.320 C  
HETATM    6  N   UNL     1      -8.967  17.794  67.420  1.00  0.00    -0.239 NA 
HETATM    7  C   UNL     1      -7.885  18.070  66.489  1.00  0.00    -0.260 C  
HETATM    8  C   UNL     1      -8.713  14.953  66.947  1.00  0.00    -0.248 C  
HETATM    9  C   UNL     1      -8.021  15.620  68.151  1.00  0.00    -0.129 C  
ENDROOT
BRANCH   8  10
HETATM   10  O   UNL     1      -9.224  13.691  67.414  1.00  0.00    -0.204 OA 
BRANCH  10  11
HETATM   11  C   UNL     1     -10.061  13.081  66.515  1.00  0.00    -0.270 C  
HETATM   12  O   UNL     1      -9.678  12.476  65.521  1.00  0.00    -0.220 OA 
BRANCH  11  13
HETATM   13  C   UNL     1     -11.520  13.200  66.978  1.00  0.00    -0.336 C  
HETATM   14  O   UNL     1     -12.373  12.534  66.033  1.00  0.00    -0.615 OA 
HETATM   15  H   UNL     1     -13.276  12.608  66.319  1.00  0.00     0.000 HD 
BRANCH  13  16
HETATM   16  C   UNL     1     -11.792  12.680  68.374  1.00  0.00    -0.347 A  
HETATM   17  C   UNL     1     -12.117  13.545  69.430  1.00  0.00    -0.340 A  
HETATM   18  C   UNL     1     -12.403  13.041  70.700  1.00  0.00    -0.391 A  
HETATM   19  C   UNL     1     -12.386  11.665  70.928  1.00  0.00    -0.436 A  
HETATM   20  C   UNL     1     -12.093  10.793  69.888  1.00  0.00    -0.410 A  
HETATM   21  C   UNL     1     -11.809  11.293  68.620  1.00  0.00    -0.369 A  
ENDBRANCH  13  16
ENDBRANCH  11  13
ENDBRANCH  10  11
ENDBRANCH   8  10
TORSDOF 4
ENDMDL
MODEL       68
REMARK 921   NORMALIZED FREE ENERGY PREDICTED BY IDOCK:   -4.73 KCAL/MOL
REMARK 922        TOTAL FREE ENERGY PREDICTED BY IDOCK:   -6.76 KCAL/MOL
REMARK 923 INTER-LIGAND FREE ENERGY PREDICTED BY IDOCK:   -5.96 KCAL/MOL
REMARK 924 INTRA-LIGAND FREE ENERGY PREDICTED BY IDOCK:   -0.80 KCAL/MOL
REMARK 927      BINDING AFFINITY PREDICTED BY RF-SCORE:    0.00 PKD
ROOT
HETATM    1  C   UNL     1      -8.776  15.835  66.487  1.00  0.00    -0.319 C  
HETATM    2  C   UNL     1      -8.253  14.891  67.575  1.00  0.00    -0.199 C  
HETATM    3  C   UNL     1      -8.867  15.419  68.869  1.00  0.00    -0.211 C  
HETATM    4  C   UNL     1      -9.749  16.588  68.425  1.00  0.00    -0.236 C  
HETATM    5  C   UNL     1     -11.170  16.105  68.096  1.00  0.00    -0.311 C  
HETATM    6  N   UNL     1      -9.011  17.060  67.249  1.00  0.00    -0.213 NA 
HETATM    7  C   UNL     1      -9.620  18.153  66.509  1.00  0.00    -0.317 C  
HETATM    8  C   UNL     1     -11.309  15.378  66.750  1.00  0.00    -0.125 C  
HETATM    9  C   UNL     1     -10.059  15.296  65.854  1.00  0.00    -0.359 C  
ENDROOT
BRANCH   8  10
HETATM   10  O   UNL     1     -11.769  14.027  66.938  1.00  0.00    -0.366 OA 
BRANCH  10  11
HETATM   11  C   UNL     1     -12.301  13.474  65.802  1.00  0.00    -0.468 C  
HETATM   12  O   UNL     1     -13.130  14.029  65.090  1.00  0.00    -0.776 OA 
BRANCH  11  13
HETATM   13  C   UNL     1     -11.654  12.111  65.517  1.00  0.00    -0.343 C  
HETATM   14  O   UNL     1     -10.946  12.173  64.269  1.00  0.00    -0.296 OA 
HETATM   15  H   UNL     1     -10.546  11.331  64.093  1.00  0.00     0.000 HD 
BRANCH  13  16
HETATM   16  C   UNL     1     -10.734  11.601  66.607  1.00  0.00    -0.310 A  
HETATM   17  C   UNL     1      -9.338  11.687  66.491  1.00  0.00    -0.216 A  
HETATM   18  C   UNL     1      -8.510  11.247  67.524  1.00  0.00    -0.131 A  
HETATM   19  C   UNL     1      -9.064  10.733  68.696  1.00  0.00    -0.173 A  
HETATM   20  C   UNL     1     -10.444  10.666  68.840  1.00  0.00    -0.232 A  
HETATM   21  C   UNL     1     -11.273  11.106  67.810  1.00  0.00    -0.359 A  
ENDBRANCH  13  16
ENDBRANCH  11  13
ENDBRANCH  10  11
ENDBRANCH   8  10
TORSDOF 4
ENDMDL
MODEL       69
REMARK 921   NORMALIZED FREE ENERGY PREDICTED BY IDOCK:   -4.71 KCAL/MOL
REMARK 922        TOTAL FREE ENERGY PREDICTED BY IDOCK:   -6.73 KCAL/MOL
REMARK 923 INTER-LIGAND FREE ENERGY PREDICTED BY IDOCK:   -6.15 KCAL/MOL
REMARK 924 INTRA-LIGAND FREE ENERGY PREDICTED BY IDOCK:   -0.59 KCAL/MOL
REMARK 927      BINDING AFFINITY PREDICTED BY RF-SCORE:    0.00 PKD
ROOT
HETATM    1  C   UNL     1     -10.637  12.682  66.338  1.00  0.00    -0.251 C  
HETATM    2  C   UNL     1      -9.273  13.122  66.881  1.00  0.00    -0.236 C  
HETATM    3  C   UNL     1      -9.556  14.429  67.619  1.00  0.00    -0.214 C  
HETATM    4  C   UNL     1     -11.070  14.614  67.502  1.00  0.00    -0.313 C  
HETATM    5  C   UNL     1     -11.794  13.941  68.678  1.00  0.00    -0.407 C  
HETATM    6  N   UNL     1     -11.329  13.964  66.213  1.00  0.00    -0.317 NA 
HETATM    7  C   UNL     1     -12.722  13.886  65.805  1.00  0.00    -0.461 C  
HETATM    8  C   UNL     1     -11.889  12.410  68.587  1.00  0.00    -0.302 C  
HETATM    9  C   UNL     1     -11.344  11.739  67.312  1.00  0.00    -0.379 C  
ENDROOT
BRANCH   8  10
HETATM   10  O   UNL     1     -11.221  11.785  69.698  1.00  0.00    -0.232 OA 
BRANCH  10  11
HETATM   11  C   UNL     1     -11.905  10.710  70.205  1.00  0.00    -0.337 C  
HETATM   12  O   UNL     1     -13.127  10.642  70.271  1.00  0.00    -0.223 OA 
BRANCH  11  13
HETATM   13  C   UNL     1     -10.929   9.592  70.596  1.00  0.00    -0.306 C  
HETATM   14  O   UNL     1     -11.243   9.129  71.919  1.00  0.00    -0.364 OA 
HETATM   15  H   UNL     1     -10.639   8.437  72.162  1.00  0.00     0.000 HD 
BRANCH  13  16
HETATM   16  C   UNL     1     -10.883   8.420  69.638  1.00  0.00    -0.153 A  
HETATM   17  C   UNL     1     -10.563   8.591  68.282  1.00  0.00    -0.173 A  
HETATM   18  C   UNL     1     -10.487   7.493  67.425  1.00  0.00    -0.367 A  
HETATM   19  C   UNL     1     -10.711   6.206  67.913  1.00  0.00    -0.374 A  
HETATM   20  C   UNL     1     -11.002   6.015  69.257  1.00  0.00    -0.436 A  
HETATM   21  C   UNL     1     -11.077   7.109  70.115  1.00  0.00    -0.301 A  
ENDBRANCH  13  16
ENDBRANCH  11  13
ENDBRANCH  10  11
ENDBRANCH   8  10
TORSDOF 4
ENDMDL
MODEL       70
REMARK 921   NORMALIZED FREE ENERGY PREDICTED BY IDOCK:   -4.71 KCAL/MOL
REMARK 922        TOTAL FREE ENERGY PREDICTED BY IDOCK:   -6.73 KCAL/MOL
REMARK 923 INTER-LIGAND FREE ENERGY PREDICTED BY IDOCK:   -6.11 KCAL/MOL
REMARK 924 INTRA-LIGAND FREE ENERGY PREDICTED BY IDOCK:   -0.62 KCAL/MOL
REMARK 927      BINDING AFFINITY PREDICTED BY RF-SCORE:    0.00 PKD
ROOT
HETATM    1  C   UNL     1      -5.939  16.939  67.125  1.00  0.00    -0.173 C  
HETATM    2  C   UNL     1      -6.412  15.537  67.524  1.00  0.00    -0.186 C  
HETATM    3  C   UNL     1      -7.399  15.774  68.664  1.00  0.00    -0.137 C  
HETATM    4  C   UNL     1      -7.471  17.296  68.797  1.00  0.00    -0.260 C  
HETATM    5  C   UNL     1      -8.572  17.872  67.894  1.00  0.00    -0.252 C  
HETATM    6  N   UNL     1      -6.119  17.675  68.376  1.00  0.00    -0.172 NA 
HETATM    7  C   UNL     1      -5.846  19.101  68.308  1.00  0.00    -0.213 C  
HETATM    8  C   UNL     1      -8.215  17.935  66.401  1.00  0.00    -0.255 C  
HETATM    9  C   UNL     1      -6.791  17.512  65.993  1.00  0.00    -0.281 C  
ENDROOT
BRANCH   8  10
HETATM   10  O   UNL     1      -9.122  17.135  65.620  1.00  0.00    -0.500 OA 
BRANCH  10  11
HETATM   11  C   UNL     1     -10.399  17.633  65.596  1.00  0.00    -0.111 C  
HETATM   12  O   UNL     1     -10.679  18.816  65.751  1.00  0.00    -0.475 OA 
BRANCH  11  13
HETATM   13  C   UNL     1     -11.402  16.516  65.272  1.00  0.00     0.211 C  
HETATM   14  O   UNL     1     -11.441  16.311  63.851  1.00  0.00    -1.484 OA 
HETATM   15  H   UNL     1     -12.062  15.620  63.650  1.00  0.00     0.000 HD 
BRANCH  13  16
HETATM   16  C   UNL     1     -11.142  15.201  65.976  1.00  0.00    -0.312 A  
HETATM   17  C   UNL     1     -10.395  14.178  65.371  1.00  0.00    -0.384 A  
HETATM   18  C   UNL     1     -10.134  12.989  66.053  1.00  0.00    -0.286 A  
HETATM   19  C   UNL     1     -10.599  12.812  67.356  1.00  0.00    -0.241 A  
HETATM   20  C   UNL     1     -11.317  13.824  67.980  1.00  0.00    -0.318 A  
HETATM   21  C   UNL     1     -11.578  15.012  67.302  1.00  0.00    -0.285 A  
ENDBRANCH  13  16
ENDBRANCH  11  13
ENDBRANCH  10  11
ENDBRANCH   8  10
TORSDOF 4
ENDMDL
MODEL       71
REMARK 921   NORMALIZED FREE ENERGY PREDICTED BY IDOCK:   -4.71 KCAL/MOL
REMARK 922        TOTAL FREE ENERGY PREDICTED BY IDOCK:   -6.73 KCAL/MOL
REMARK 923 INTER-LIGAND FREE ENERGY PREDICTED BY IDOCK:   -6.24 KCAL/MOL
REMARK 924 INTRA-LIGAND FREE ENERGY PREDICTED BY IDOCK:   -0.49 KCAL/MOL
REMARK 927      BINDING AFFINITY PREDICTED BY RF-SCORE:    0.00 PKD
ROOT
HETATM    1  C   UNL     1     -11.724  12.882  67.743  1.00  0.00    -0.362 C  
HETATM    2  C   UNL     1     -10.448  12.367  68.418  1.00  0.00    -0.245 C  
HETATM    3  C   UNL     1      -9.400  12.364  67.308  1.00  0.00    -0.184 C  
HETATM    4  C   UNL     1     -10.130  12.937  66.091  1.00  0.00    -0.276 C  
HETATM    5  C   UNL     1      -9.993  14.466  66.043  1.00  0.00    -0.337 C  
HETATM    6  N   UNL     1     -11.501  12.486  66.354  1.00  0.00    -0.343 NA 
HETATM    7  C   UNL     1     -12.511  12.927  65.406  1.00  0.00    -0.454 C  
HETATM    8  C   UNL     1     -10.881  15.226  67.039  1.00  0.00    -0.321 C  
HETATM    9  C   UNL     1     -11.859  14.398  67.895  1.00  0.00    -0.384 C  
ENDROOT
BRANCH   8  10
HETATM   10  O   UNL     1     -10.084  15.997  67.958  1.00  0.00    -0.233 OA 
BRANCH  10  11
HETATM   11  C   UNL     1      -9.996  17.321  67.616  1.00  0.00    -0.297 C  
HETATM   12  O   UNL     1     -10.902  18.132  67.766  1.00  0.00    -0.385 OA 
BRANCH  11  13
HETATM   13  C   UNL     1      -8.587  17.647  67.099  1.00  0.00    -0.227 C  
HETATM   14  O   UNL     1      -8.681  18.619  66.045  1.00  0.00    -0.491 OA 
HETATM   15  H   UNL     1      -7.809  18.820  65.726  1.00  0.00     0.000 HD 
BRANCH  13  16
HETATM   16  C   UNL     1      -7.614  18.126  68.157  1.00  0.00    -0.269 A  
HETATM   17  C   UNL     1      -7.657  19.438  68.655  1.00  0.00    -0.398 A  
HETATM   18  C   UNL     1      -6.777  19.847  69.658  1.00  0.00    -0.337 A  
HETATM   19  C   UNL     1      -5.855  18.947  70.192  1.00  0.00    -0.242 A  
HETATM   20  C   UNL     1      -5.818  17.637  69.731  1.00  0.00    -0.250 A  
HETATM   21  C   UNL     1      -6.695  17.226  68.730  1.00  0.00    -0.203 A  
ENDBRANCH  13  16
ENDBRANCH  11  13
ENDBRANCH  10  11
ENDBRANCH   8  10
TORSDOF 4
ENDMDL
MODEL       72
REMARK 921   NORMALIZED FREE ENERGY PREDICTED BY IDOCK:   -4.70 KCAL/MOL
REMARK 922        TOTAL FREE ENERGY PREDICTED BY IDOCK:   -6.72 KCAL/MOL
REMARK 923 INTER-LIGAND FREE ENERGY PREDICTED BY IDOCK:   -6.10 KCAL/MOL
REMARK 924 INTRA-LIGAND FREE ENERGY PREDICTED BY IDOCK:   -0.61 KCAL/MOL
REMARK 927      BINDING AFFINITY PREDICTED BY RF-SCORE:    0.00 PKD
ROOT
HETATM    1  C   UNL     1     -10.547   8.667  71.972  1.00  0.00    -0.351 C  
HETATM    2  C   UNL     1      -9.369   7.755  72.331  1.00  0.00    -0.224 C  
HETATM    3  C   UNL     1      -9.945   6.343  72.278  1.00  0.00    -0.178 C  
HETATM    4  C   UNL     1     -11.396   6.538  71.831  1.00  0.00    -0.285 C  
HETATM    5  C   UNL     1     -11.504   6.502  70.300  1.00  0.00    -0.474 C  
HETATM    6  N   UNL     1     -11.686   7.857  72.403  1.00  0.00    -0.355 NA 
HETATM    7  C   UNL     1     -12.997   8.408  72.104  1.00  0.00    -0.337 C  
HETATM    8  C   UNL     1     -11.025   7.777  69.589  1.00  0.00    -0.122 C  
HETATM    9  C   UNL     1     -10.586   8.961  70.472  1.00  0.00    -0.262 C  
ENDROOT
BRANCH   8  10
HETATM   10  O   UNL     1      -9.924   7.493  68.705  1.00  0.00    -0.163 OA 
BRANCH  10  11
HETATM   11  C   UNL     1     -10.275   7.514  67.381  1.00  0.00    -0.249 C  
HETATM   12  O   UNL     1     -11.222   6.895  66.910  1.00  0.00    -0.353 OA 
BRANCH  11  13
HETATM   13  C   UNL     1      -9.367   8.478  66.603  1.00  0.00    -0.189 C  
HETATM   14  O   UNL     1      -8.874   7.820  65.425  1.00  0.00    -0.346 OA 
HETATM   15  H   UNL     1      -8.312   8.415  64.945  1.00  0.00     0.000 HD 
BRANCH  13  16
HETATM   16  C   UNL     1     -10.011   9.796  66.225  1.00  0.00    -0.331 A  
HETATM   17  C   UNL     1      -9.996  10.269  64.903  1.00  0.00    -0.393 A  
HETATM   18  C   UNL     1     -10.629  11.467  64.570  1.00  0.00    -0.390 A  
HETATM   19  C   UNL     1     -11.302  12.200  65.546  1.00  0.00    -0.393 A  
HETATM   20  C   UNL     1     -11.351  11.733  66.854  1.00  0.00    -0.386 A  
HETATM   21  C   UNL     1     -10.720  10.537  67.189  1.00  0.00    -0.323 A  
ENDBRANCH  13  16
ENDBRANCH  11  13
ENDBRANCH  10  11
ENDBRANCH   8  10
TORSDOF 4
ENDMDL
MODEL       73
REMARK 921   NORMALIZED FREE ENERGY PREDICTED BY IDOCK:   -4.69 KCAL/MOL
REMARK 922        TOTAL FREE ENERGY PREDICTED BY IDOCK:   -6.70 KCAL/MOL
REMARK 923 INTER-LIGAND FREE ENERGY PREDICTED BY IDOCK:   -6.18 KCAL/MOL
REMARK 924 INTRA-LIGAND FREE ENERGY PREDICTED BY IDOCK:   -0.52 KCAL/MOL
REMARK 927      BINDING AFFINITY PREDICTED BY RF-SCORE:    0.00 PKD
ROOT
HETATM    1  C   UNL     1      -9.678  10.791  66.022  1.00  0.00    -0.217 C  
HETATM    2  C   UNL     1     -10.739   9.962  66.753  1.00  0.00    -0.154 C  
HETATM    3  C   UNL     1     -10.019   9.413  67.982  1.00  0.00    -0.209 C  
HETATM    4  C   UNL     1      -8.615  10.015  67.903  1.00  0.00    -0.121 C  
HETATM    5  C   UNL     1      -8.559  11.366  68.632  1.00  0.00    -0.126 C  
HETATM    6  N   UNL     1      -8.445  10.133  66.452  1.00  0.00    -0.129 NA 
HETATM    7  C   UNL     1      -7.211  10.755  66.001  1.00  0.00    -0.105 C  
HETATM    8  C   UNL     1      -9.196  12.538  67.870  1.00  0.00    -0.200 C  
HETATM    9  C   UNL     1      -9.726  12.258  66.450  1.00  0.00    -0.243 C  
ENDROOT
BRANCH   8  10
HETATM   10  O   UNL     1     -10.293  13.102  68.613  1.00  0.00    -0.243 OA 
BRANCH  10  11
HETATM   11  C   UNL     1     -10.134  14.438  68.880  1.00  0.00    -0.200 C  
HETATM   12  O   UNL     1      -9.050  15.008  68.913  1.00  0.00    -0.188 OA 
BRANCH  11  13
HETATM   13  C   UNL     1     -11.502  15.115  69.048  1.00  0.00    -0.309 C  
HETATM   14  O   UNL     1     -12.452  14.490  68.171  1.00  0.00    -0.589 OA 
HETATM   15  H   UNL     1     -13.298  14.909  68.275  1.00  0.00     0.000 HD 
BRANCH  13  16
HETATM   16  C   UNL     1     -12.038  15.128  70.464  1.00  0.00    -0.390 A  
HETATM   17  C   UNL     1     -12.808  14.069  70.969  1.00  0.00    -0.410 A  
HETATM   18  C   UNL     1     -13.257  14.083  72.290  1.00  0.00    -0.558 A  
HETATM   19  C   UNL     1     -12.930  15.145  73.131  1.00  0.00    -0.627 A  
HETATM   20  C   UNL     1     -12.146  16.189  72.656  1.00  0.00    -0.652 A  
HETATM   21  C   UNL     1     -11.694  16.177  71.339  1.00  0.00    -0.506 A  
ENDBRANCH  13  16
ENDBRANCH  11  13
ENDBRANCH  10  11
ENDBRANCH   8  10
TORSDOF 4
ENDMDL
MODEL       74
REMARK 921   NORMALIZED FREE ENERGY PREDICTED BY IDOCK:   -4.68 KCAL/MOL
REMARK 922        TOTAL FREE ENERGY PREDICTED BY IDOCK:   -6.70 KCAL/MOL
REMARK 923 INTER-LIGAND FREE ENERGY PREDICTED BY IDOCK:   -6.05 KCAL/MOL
REMARK 924 INTRA-LIGAND FREE ENERGY PREDICTED BY IDOCK:   -0.65 KCAL/MOL
REMARK 927      BINDING AFFINITY PREDICTED BY RF-SCORE:    0.00 PKD
ROOT
HETATM    1  C   UNL     1     -10.066  14.379  65.951  1.00  0.00    -0.325 C  
HETATM    2  C   UNL     1     -11.000  15.067  66.953  1.00  0.00    -0.324 C  
HETATM    3  C   UNL     1     -12.281  14.237  66.915  1.00  0.00    -0.366 C  
HETATM    4  C   UNL     1     -11.970  13.097  65.943  1.00  0.00    -0.427 C  
HETATM    5  C   UNL     1     -11.365  11.896  66.686  1.00  0.00    -0.400 C  
HETATM    6  N   UNL     1     -11.023  13.756  65.038  1.00  0.00    -0.337 NA 
HETATM    7  C   UNL     1     -10.445  12.920  63.999  1.00  0.00    -0.368 C  
HETATM    8  C   UNL     1      -9.893  12.064  67.093  1.00  0.00    -0.196 C  
HETATM    9  C   UNL     1      -9.173  13.348  66.641  1.00  0.00    -0.223 C  
ENDROOT
BRANCH   8  10
HETATM   10  O   UNL     1      -9.741  11.989  68.523  1.00  0.00    -0.207 OA 
BRANCH  10  11
HETATM   11  C   UNL     1      -8.987  10.920  68.931  1.00  0.00    -0.140 C  
HETATM   12  O   UNL     1      -7.793  10.788  68.687  1.00  0.00    -0.106 OA 
BRANCH  11  13
HETATM   13  C   UNL     1      -9.830   9.968  69.792  1.00  0.00    -0.235 C  
HETATM   14  O   UNL     1     -11.006  10.655  70.247  1.00  0.00    -0.400 OA 
HETATM   15  H   UNL     1     -11.527  10.067  70.780  1.00  0.00     0.000 HD 
BRANCH  13  16
HETATM   16  C   UNL     1     -10.221   8.671  69.114  1.00  0.00    -0.215 A  
HETATM   17  C   UNL     1     -10.595   7.539  69.854  1.00  0.00    -0.243 A  
HETATM   18  C   UNL     1     -10.990   6.367  69.208  1.00  0.00    -0.418 A  
HETATM   19  C   UNL     1     -11.035   6.314  67.816  1.00  0.00    -0.427 A  
HETATM   20  C   UNL     1     -10.694   7.434  67.068  1.00  0.00    -0.389 A  
HETATM   21  C   UNL     1     -10.301   8.605  67.709  1.00  0.00    -0.303 A  
ENDBRANCH  13  16
ENDBRANCH  11  13
ENDBRANCH  10  11
ENDBRANCH   8  10
TORSDOF 4
ENDMDL
MODEL       75
REMARK 921   NORMALIZED FREE ENERGY PREDICTED BY IDOCK:   -4.66 KCAL/MOL
REMARK 922        TOTAL FREE ENERGY PREDICTED BY IDOCK:   -6.67 KCAL/MOL
REMARK 923 INTER-LIGAND FREE ENERGY PREDICTED BY IDOCK:   -6.38 KCAL/MOL
REMARK 924 INTRA-LIGAND FREE ENERGY PREDICTED BY IDOCK:   -0.29 KCAL/MOL
REMARK 927      BINDING AFFINITY PREDICTED BY RF-SCORE:    0.00 PKD
ROOT
HETATM    1  C   UNL     1     -10.172  12.599  65.584  1.00  0.00    -0.273 C  
HETATM    2  C   UNL     1     -10.422  13.083  64.152  1.00  0.00    -0.395 C  
HETATM    3  C   UNL     1     -11.927  13.334  64.088  1.00  0.00    -0.505 C  
HETATM    4  C   UNL     1     -12.425  13.038  65.504  1.00  0.00    -0.438 C  
HETATM    5  C   UNL     1     -12.379  14.302  66.375  1.00  0.00    -0.378 C  
HETATM    6  N   UNL     1     -11.466  12.010  65.924  1.00  0.00    -0.353 NA 
HETATM    7  C   UNL     1     -11.599  11.533  67.291  1.00  0.00    -0.199 C  
HETATM    8  C   UNL     1     -10.977  14.702  66.860  1.00  0.00    -0.324 C  
HETATM    9  C   UNL     1      -9.808  13.761  66.508  1.00  0.00    -0.294 C  
ENDROOT
BRANCH   8  10
HETATM   10  O   UNL     1     -10.615  16.007  66.373  1.00  0.00    -0.308 OA 
BRANCH  10  11
HETATM   11  C   UNL     1     -10.061  16.809  67.337  1.00  0.00    -0.276 C  
HETATM   12  O   UNL     1     -10.699  17.350  68.232  1.00  0.00    -0.371 OA 
BRANCH  11  13
HETATM   13  C   UNL     1      -8.535  16.862  67.177  1.00  0.00    -0.197 C  
HETATM   14  O   UNL     1      -8.192  16.595  65.807  1.00  0.00    -0.344 OA 
HETATM   15  H   UNL     1      -7.248  16.628  65.708  1.00  0.00     0.000 HD 
BRANCH  13  16
HETATM   16  C   UNL     1      -7.889  18.156  67.627  1.00  0.00    -0.224 A  
HETATM   17  C   UNL     1      -7.921  19.310  66.829  1.00  0.00    -0.285 A  
HETATM   18  C   UNL     1      -7.356  20.503  67.281  1.00  0.00    -0.373 A  
HETATM   19  C   UNL     1      -6.767  20.566  68.543  1.00  0.00    -0.224 A  
HETATM   20  C   UNL     1      -6.751  19.441  69.357  1.00  0.00    -0.354 A  
HETATM   21  C   UNL     1      -7.315  18.249  68.909  1.00  0.00    -0.268 A  
ENDBRANCH  13  16
ENDBRANCH  11  13
ENDBRANCH  10  11
ENDBRANCH   8  10
TORSDOF 4
ENDMDL
MODEL       76
REMARK 921   NORMALIZED FREE ENERGY PREDICTED BY IDOCK:   -4.64 KCAL/MOL
REMARK 922        TOTAL FREE ENERGY PREDICTED BY IDOCK:   -6.65 KCAL/MOL
REMARK 923 INTER-LIGAND FREE ENERGY PREDICTED BY IDOCK:   -6.07 KCAL/MOL
REMARK 924 INTRA-LIGAND FREE ENERGY PREDICTED BY IDOCK:   -0.58 KCAL/MOL
REMARK 927      BINDING AFFINITY PREDICTED BY RF-SCORE:    0.00 PKD
ROOT
HETATM    1  C   UNL     1      -9.257  15.624  67.391  1.00  0.00    -0.198 C  
HETATM    2  C   UNL     1      -9.262  15.810  68.912  1.00  0.00    -0.227 C  
HETATM    3  C   UNL     1     -10.699  15.508  69.331  1.00  0.00    -0.251 C  
HETATM    4  C   UNL     1     -11.401  15.108  68.032  1.00  0.00    -0.337 C  
HETATM    5  C   UNL     1     -11.286  13.595  67.793  1.00  0.00    -0.336 C  
HETATM    6  N   UNL     1     -10.652  15.907  67.056  1.00  0.00    -0.308 NA 
HETATM    7  C   UNL     1     -11.014  15.715  65.661  1.00  0.00    -0.272 C  
HETATM    8  C   UNL     1      -9.912  13.122  67.296  1.00  0.00    -0.230 C  
HETATM    9  C   UNL     1      -8.851  14.201  67.007  1.00  0.00    -0.237 C  
ENDROOT
BRANCH   8  10
HETATM   10  O   UNL     1      -9.317  12.198  68.226  1.00  0.00    -0.198 OA 
BRANCH  10  11
HETATM   11  C   UNL     1      -9.758  10.910  68.066  1.00  0.00    -0.165 C  
HETATM   12  O   UNL     1     -10.254  10.476  67.033  1.00  0.00    -0.207 OA 
BRANCH  11  13
HETATM   13  C   UNL     1      -9.469  10.086  69.329  1.00  0.00    -0.217 C  
HETATM   14  O   UNL     1      -8.381  10.686  70.050  1.00  0.00    -0.305 OA 
HETATM   15  H   UNL     1      -8.203  10.176  70.831  1.00  0.00     0.000 HD 
BRANCH  13  16
HETATM   16  C   UNL     1     -10.656   9.894  70.251  1.00  0.00    -0.359 A  
HETATM   17  C   UNL     1     -10.675   8.881  71.223  1.00  0.00    -0.357 A  
HETATM   18  C   UNL     1     -11.761   8.748  72.089  1.00  0.00    -0.433 A  
HETATM   19  C   UNL     1     -12.834   9.635  72.010  1.00  0.00    -0.497 A  
HETATM   20  C   UNL     1     -12.819  10.660  71.073  1.00  0.00    -0.496 A  
HETATM   21  C   UNL     1     -11.736  10.796  70.208  1.00  0.00    -0.442 A  
ENDBRANCH  13  16
ENDBRANCH  11  13
ENDBRANCH  10  11
ENDBRANCH   8  10
TORSDOF 4
ENDMDL
MODEL       77
REMARK 921   NORMALIZED FREE ENERGY PREDICTED BY IDOCK:   -4.62 KCAL/MOL
REMARK 922        TOTAL FREE ENERGY PREDICTED BY IDOCK:   -6.61 KCAL/MOL
REMARK 923 INTER-LIGAND FREE ENERGY PREDICTED BY IDOCK:   -6.55 KCAL/MOL
REMARK 924 INTRA-LIGAND FREE ENERGY PREDICTED BY IDOCK:   -0.07 KCAL/MOL
REMARK 927      BINDING AFFINITY PREDICTED BY RF-SCORE:    0.00 PKD
ROOT
HETATM    1  C   UNL     1     -10.203   5.913  69.912  1.00  0.00    -0.218 C  
HETATM    2  C   UNL     1      -9.929   5.486  71.358  1.00  0.00    -0.241 C  
HETATM    3  C   UNL     1      -8.602   6.154  71.711  1.00  0.00    -0.133 C  
HETATM    4  C   UNL     1      -8.240   6.967  70.466  1.00  0.00    -0.123 C  
HETATM    5  C   UNL     1      -8.829   8.383  70.550  1.00  0.00    -0.156 C  
HETATM    6  N   UNL     1      -8.848   6.147  69.414  1.00  0.00    -0.125 NA 
HETATM    7  C   UNL     1      -8.760   6.674  68.062  1.00  0.00    -0.117 C  
HETATM    8  C   UNL     1     -10.337   8.472  70.272  1.00  0.00    -0.205 C  
HETATM    9  C   UNL     1     -11.062   7.177  69.859  1.00  0.00    -0.264 C  
ENDROOT
BRANCH   8  10
HETATM   10  O   UNL     1     -11.042   8.990  71.416  1.00  0.00    -0.274 OA 
BRANCH  10  11
HETATM   11  C   UNL     1     -12.209   9.630  71.087  1.00  0.00    -0.350 C  
HETATM   12  O   UNL     1     -13.314   9.302  71.503  1.00  0.00    -0.356 OA 
BRANCH  11  13
HETATM   13  C   UNL     1     -11.919  10.847  70.197  1.00  0.00    -0.352 C  
HETATM   14  O   UNL     1     -12.478  10.626  68.893  1.00  0.00    -0.791 OA 
HETATM   15  H   UNL     1     -12.299  11.378  68.343  1.00  0.00     0.000 HD 
BRANCH  13  16
HETATM   16  C   UNL     1     -12.404  12.172  70.749  1.00  0.00    -0.391 A  
HETATM   17  C   UNL     1     -12.138  13.383  70.092  1.00  0.00    -0.415 A  
HETATM   18  C   UNL     1     -12.629  14.588  70.596  1.00  0.00    -0.416 A  
HETATM   19  C   UNL     1     -13.408  14.599  71.752  1.00  0.00    -0.445 A  
HETATM   20  C   UNL     1     -13.704  13.406  72.401  1.00  0.00    -0.698 A  
HETATM   21  C   UNL     1     -13.216  12.202  71.899  1.00  0.00    -0.474 A  
ENDBRANCH  13  16
ENDBRANCH  11  13
ENDBRANCH  10  11
ENDBRANCH   8  10
TORSDOF 4
ENDMDL
MODEL       78
REMARK 921   NORMALIZED FREE ENERGY PREDICTED BY IDOCK:   -4.60 KCAL/MOL
REMARK 922        TOTAL FREE ENERGY PREDICTED BY IDOCK:   -6.60 KCAL/MOL
REMARK 923 INTER-LIGAND FREE ENERGY PREDICTED BY IDOCK:   -6.04 KCAL/MOL
REMARK 924 INTRA-LIGAND FREE ENERGY PREDICTED BY IDOCK:   -0.56 KCAL/MOL
REMARK 927      BINDING AFFINITY PREDICTED BY RF-SCORE:    0.00 PKD
ROOT
HETATM    1  C   UNL     1     -10.494  13.165  64.249  1.00  0.00    -0.389 C  
HETATM    2  C   UNL     1     -10.107  14.383  65.095  1.00  0.00    -0.359 C  
HETATM    3  C   UNL     1     -11.346  14.677  65.937  1.00  0.00    -0.338 C  
HETATM    4  C   UNL     1     -12.334  13.570  65.562  1.00  0.00    -0.481 C  
HETATM    5  C   UNL     1     -12.157  12.349  66.477  1.00  0.00    -0.179 C  
HETATM    6  N   UNL     1     -11.947  13.313  64.171  1.00  0.00    -0.423 NA 
HETATM    7  C   UNL     1     -12.652  12.233  63.500  1.00  0.00    -0.476 C  
HETATM    8  C   UNL     1     -10.932  11.478  66.162  1.00  0.00    -0.266 C  
HETATM    9  C   UNL     1     -10.085  11.861  64.933  1.00  0.00    -0.296 C  
ENDROOT
BRANCH   8  10
HETATM   10  O   UNL     1     -10.031  11.430  67.284  1.00  0.00    -0.191 OA 
BRANCH  10  11
HETATM   11  C   UNL     1      -9.355  10.241  67.383  1.00  0.00    -0.145 C  
HETATM   12  O   UNL     1      -8.156  10.149  67.621  1.00  0.00    -0.109 OA 
BRANCH  11  13
HETATM   13  C   UNL     1     -10.325   9.061  67.233  1.00  0.00    -0.273 C  
HETATM   14  O   UNL     1      -9.857   8.191  66.190  1.00  0.00    -0.435 OA 
HETATM   15  H   UNL     1     -10.457   7.461  66.096  1.00  0.00     0.000 HD 
BRANCH  13  16
HETATM   16  C   UNL     1     -10.563   8.265  68.499  1.00  0.00    -0.143 A  
HETATM   17  C   UNL     1     -10.603   8.882  69.759  1.00  0.00    -0.230 A  
HETATM   18  C   UNL     1     -10.864   8.136  70.908  1.00  0.00    -0.254 A  
HETATM   19  C   UNL     1     -11.108   6.766  70.815  1.00  0.00    -0.323 A  
HETATM   20  C   UNL     1     -11.099   6.143  69.574  1.00  0.00    -0.490 A  
HETATM   21  C   UNL     1     -10.840   6.886  68.425  1.00  0.00    -0.238 A  
ENDBRANCH  13  16
ENDBRANCH  11  13
ENDBRANCH  10  11
ENDBRANCH   8  10
TORSDOF 4
ENDMDL
MODEL       79
REMARK 921   NORMALIZED FREE ENERGY PREDICTED BY IDOCK:   -4.59 KCAL/MOL
REMARK 922        TOTAL FREE ENERGY PREDICTED BY IDOCK:   -6.58 KCAL/MOL
REMARK 923 INTER-LIGAND FREE ENERGY PREDICTED BY IDOCK:   -7.11 KCAL/MOL
REMARK 924 INTRA-LIGAND FREE ENERGY PREDICTED BY IDOCK:    0.53 KCAL/MOL
REMARK 927      BINDING AFFINITY PREDICTED BY RF-SCORE:    0.00 PKD
ROOT
HETATM    1  C   UNL     1     -11.598  13.599  65.655  1.00  0.00    -0.328 C  
HETATM    2  C   UNL     1     -10.577  12.529  66.057  1.00  0.00    -0.289 C  
HETATM    3  C   UNL     1      -9.246  13.274  66.124  1.00  0.00     0.004 C  
HETATM    4  C   UNL     1      -9.607  14.730  65.819  1.00  0.00    -0.254 C  
HETATM    5  C   UNL     1      -9.952  15.488  67.109  1.00  0.00    -0.242 C  
HETATM    6  N   UNL     1     -10.757  14.549  64.928  1.00  0.00    -0.420 NA 
HETATM    7  C   UNL     1     -11.421  15.764  64.486  1.00  0.00    -0.289 C  
HETATM    8  C   UNL     1     -11.340  15.178  67.689  1.00  0.00    -0.321 C  
HETATM    9  C   UNL     1     -12.252  14.233  66.883  1.00  0.00    -0.366 C  
ENDROOT
BRANCH   8  10
HETATM   10  O   UNL     1     -11.233  14.618  69.011  1.00  0.00    -0.243 OA 
BRANCH  10  11
HETATM   11  C   UNL     1     -11.474  15.530  70.006  1.00  0.00    -0.331 C  
HETATM   12  O   UNL     1     -10.968  16.645  70.054  1.00  0.00    -0.333 OA 
BRANCH  11  13
HETATM   13  C   UNL     1     -12.518  14.983  70.991  1.00  0.00    -0.338 C  
HETATM   14  O   UNL     1     -13.806  15.530  70.670  1.00  0.00    -0.864 OA 
HETATM   15  H   UNL     1     -14.452  15.192  71.279  1.00  0.00     0.000 HD 
BRANCH  13  16
HETATM   16  C   UNL     1     -12.602  13.472  71.059  1.00  0.00    -0.438 A  
HETATM   17  C   UNL     1     -11.825  12.655  70.223  1.00  0.00    -0.295 A  
HETATM   18  C   UNL     1     -11.888  11.265  70.331  1.00  0.00    -0.443 A  
HETATM   19  C   UNL     1     -12.713  10.672  71.286  1.00  0.00    -0.537 A  
HETATM   20  C   UNL     1     -13.468  11.466  72.140  1.00  0.00    -0.203 A  
HETATM   21  C   UNL     1     -13.406  12.854  72.035  1.00  0.00    -0.579 A  
ENDBRANCH  13  16
ENDBRANCH  11  13
ENDBRANCH  10  11
ENDBRANCH   8  10
TORSDOF 4
ENDMDL
MODEL       80
REMARK 921   NORMALIZED FREE ENERGY PREDICTED BY IDOCK:   -4.57 KCAL/MOL
REMARK 922        TOTAL FREE ENERGY PREDICTED BY IDOCK:   -6.56 KCAL/MOL
REMARK 923 INTER-LIGAND FREE ENERGY PREDICTED BY IDOCK:   -6.10 KCAL/MOL
REMARK 924 INTRA-LIGAND FREE ENERGY PREDICTED BY IDOCK:   -0.46 KCAL/MOL
REMARK 927      BINDING AFFINITY PREDICTED BY RF-SCORE:    0.00 PKD
ROOT
HETATM    1  C   UNL     1      -9.201  18.692  68.413  1.00  0.00    -0.326 C  
HETATM    2  C   UNL     1     -10.497  19.466  68.154  1.00  0.00    -0.476 C  
HETATM    3  C   UNL     1     -10.743  19.314  66.655  1.00  0.00    -0.504 C  
HETATM    4  C   UNL     1      -9.606  18.411  66.171  1.00  0.00    -0.187 C  
HETATM    5  C   UNL     1     -10.009  16.931  66.258  1.00  0.00    -0.324 C  
HETATM    6  N   UNL     1      -8.542  18.778  67.111  1.00  0.00    -0.272 NA 
HETATM    7  C   UNL     1      -7.296  18.039  66.988  1.00  0.00    -0.202 C  
HETATM    8  C   UNL     1      -9.989  16.340  67.676  1.00  0.00    -0.247 C  
HETATM    9  C   UNL     1      -9.489  17.245  68.817  1.00  0.00    -0.256 C  
ENDROOT
BRANCH   8  10
HETATM   10  O   UNL     1     -11.298  15.879  68.061  1.00  0.00    -0.342 OA 
BRANCH  10  11
HETATM   11  C   UNL     1     -11.569  14.604  67.634  1.00  0.00    -0.361 C  
HETATM   12  O   UNL     1     -12.185  14.339  66.609  1.00  0.00    -0.449 OA 
BRANCH  11  13
HETATM   13  C   UNL     1     -10.925  13.577  68.577  1.00  0.00    -0.267 C  
HETATM   14  O   UNL     1     -11.798  13.345  69.694  1.00  0.00    -0.299 OA 
HETATM   15  H   UNL     1     -11.400  12.710  70.276  1.00  0.00     0.000 HD 
BRANCH  13  16
HETATM   16  C   UNL     1     -10.557  12.259  67.928  1.00  0.00    -0.232 A  
HETATM   17  C   UNL     1     -11.182  11.058  68.298  1.00  0.00    -0.340 A  
HETATM   18  C   UNL     1     -10.855   9.861  67.659  1.00  0.00    -0.318 A  
HETATM   19  C   UNL     1      -9.915   9.849  66.630  1.00  0.00    -0.277 A  
HETATM   20  C   UNL     1      -9.306  11.032  66.233  1.00  0.00    -0.206 A  
HETATM   21  C   UNL     1      -9.631  12.228  66.867  1.00  0.00    -0.214 A  
ENDBRANCH  13  16
ENDBRANCH  11  13
ENDBRANCH  10  11
ENDBRANCH   8  10
TORSDOF 4
ENDMDL
MODEL       81
REMARK 921   NORMALIZED FREE ENERGY PREDICTED BY IDOCK:   -4.56 KCAL/MOL
REMARK 922        TOTAL FREE ENERGY PREDICTED BY IDOCK:   -6.54 KCAL/MOL
REMARK 923 INTER-LIGAND FREE ENERGY PREDICTED BY IDOCK:   -5.84 KCAL/MOL
REMARK 924 INTRA-LIGAND FREE ENERGY PREDICTED BY IDOCK:   -0.71 KCAL/MOL
REMARK 927      BINDING AFFINITY PREDICTED BY RF-SCORE:    0.00 PKD
ROOT
HETATM    1  C   UNL     1     -12.145  14.000  66.764  1.00  0.00    -0.447 C  
HETATM    2  C   UNL     1     -12.190  14.024  65.233  1.00  0.00    -0.451 C  
HETATM    3  C   UNL     1     -10.788  14.464  64.815  1.00  0.00    -0.415 C  
HETATM    4  C   UNL     1     -10.021  14.599  66.132  1.00  0.00    -0.304 C  
HETATM    5  C   UNL     1      -9.353  13.269  66.513  1.00  0.00    -0.221 C  
HETATM    6  N   UNL     1     -11.103  14.986  67.043  1.00  0.00    -0.330 NA 
HETATM    7  C   UNL     1     -10.737  15.134  68.442  1.00  0.00    -0.248 C  
HETATM    8  C   UNL     1     -10.306  12.207  67.079  1.00  0.00    -0.211 C  
HETATM    9  C   UNL     1     -11.778  12.611  67.287  1.00  0.00    -0.435 C  
ENDROOT
BRANCH   8  10
HETATM   10  O   UNL     1     -10.317  11.029  66.252  1.00  0.00    -0.237 OA 
BRANCH  10  11
HETATM   11  C   UNL     1      -9.632   9.976  66.801  1.00  0.00    -0.181 C  
HETATM   12  O   UNL     1      -8.411   9.869  66.789  1.00  0.00    -0.124 OA 
BRANCH  11  13
HETATM   13  C   UNL     1     -10.603   9.008  67.492  1.00  0.00    -0.237 C  
HETATM   14  O   UNL     1     -10.422   7.689  66.954  1.00  0.00    -0.315 OA 
HETATM   15  H   UNL     1     -11.023   7.091  67.382  1.00  0.00     0.000 HD 
BRANCH  13  16
HETATM   16  C   UNL     1     -10.498   8.968  69.003  1.00  0.00    -0.235 A  
HETATM   17  C   UNL     1     -11.285   9.798  69.817  1.00  0.00    -0.242 A  
HETATM   18  C   UNL     1     -11.200   9.717  71.207  1.00  0.00    -0.446 A  
HETATM   19  C   UNL     1     -10.344   8.793  71.805  1.00  0.00    -0.413 A  
HETATM   20  C   UNL     1      -9.578   7.945  71.015  1.00  0.00    -0.177 A  
HETATM   21  C   UNL     1      -9.661   8.024  69.627  1.00  0.00    -0.168 A  
ENDBRANCH  13  16
ENDBRANCH  11  13
ENDBRANCH  10  11
ENDBRANCH   8  10
TORSDOF 4
ENDMDL
MODEL       82
REMARK 921   NORMALIZED FREE ENERGY PREDICTED BY IDOCK:   -4.55 KCAL/MOL
REMARK 922        TOTAL FREE ENERGY PREDICTED BY IDOCK:   -6.53 KCAL/MOL
REMARK 923 INTER-LIGAND FREE ENERGY PREDICTED BY IDOCK:   -6.36 KCAL/MOL
REMARK 924 INTRA-LIGAND FREE ENERGY PREDICTED BY IDOCK:   -0.17 KCAL/MOL
REMARK 927      BINDING AFFINITY PREDICTED BY RF-SCORE:    0.00 PKD
ROOT
HETATM    1  C   UNL     1      -8.172  18.421  67.124  1.00  0.00    -0.245 C  
HETATM    2  C   UNL     1      -7.630  17.484  66.039  1.00  0.00    -0.256 C  
HETATM    3  C   UNL     1      -6.559  16.657  66.745  1.00  0.00    -0.217 C  
HETATM    4  C   UNL     1      -6.605  17.132  68.199  1.00  0.00    -0.158 C  
HETATM    5  C   UNL     1      -7.605  16.299  69.014  1.00  0.00    -0.219 C  
HETATM    6  N   UNL     1      -7.022  18.527  68.021  1.00  0.00    -0.223 NA 
HETATM    7  C   UNL     1      -7.244  19.288  69.239  1.00  0.00    -0.276 C  
HETATM    8  C   UNL     1      -9.083  16.641  68.767  1.00  0.00    -0.256 C  
HETATM    9  C   UNL     1      -9.391  17.817  67.821  1.00  0.00    -0.257 C  
ENDROOT
BRANCH   8  10
HETATM   10  O   UNL     1      -9.796  15.501  68.251  1.00  0.00    -0.210 OA 
BRANCH  10  11
HETATM   11  C   UNL     1     -11.148  15.567  68.470  1.00  0.00    -0.307 C  
HETATM   12  O   UNL     1     -11.902  16.337  67.886  1.00  0.00     0.046 OA 
BRANCH  11  13
HETATM   13  C   UNL     1     -11.579  14.495  69.481  1.00  0.00    -0.307 C  
HETATM   14  O   UNL     1     -10.449  13.671  69.810  1.00  0.00    -0.255 OA 
HETATM   15  H   UNL     1     -10.716  13.008  70.435  1.00  0.00     0.000 HD 
BRANCH  13  16
HETATM   16  C   UNL     1     -12.213  15.030  70.748  1.00  0.00    -0.386 A  
HETATM   17  C   UNL     1     -13.600  14.972  70.956  1.00  0.00    -0.442 A  
HETATM   18  C   UNL     1     -14.160  15.435  72.148  1.00  0.00    -0.651 A  
HETATM   19  C   UNL     1     -13.341  15.943  73.155  1.00  0.00    -0.681 A  
HETATM   20  C   UNL     1     -11.965  15.983  72.978  1.00  0.00    -0.597 A  
HETATM   21  C   UNL     1     -11.403  15.521  71.790  1.00  0.00    -0.463 A  
ENDBRANCH  13  16
ENDBRANCH  11  13
ENDBRANCH  10  11
ENDBRANCH   8  10
TORSDOF 4
ENDMDL
MODEL       83
REMARK 921   NORMALIZED FREE ENERGY PREDICTED BY IDOCK:   -4.53 KCAL/MOL
REMARK 922        TOTAL FREE ENERGY PREDICTED BY IDOCK:   -6.51 KCAL/MOL
REMARK 923 INTER-LIGAND FREE ENERGY PREDICTED BY IDOCK:   -5.98 KCAL/MOL
REMARK 924 INTRA-LIGAND FREE ENERGY PREDICTED BY IDOCK:   -0.52 KCAL/MOL
REMARK 927      BINDING AFFINITY PREDICTED BY RF-SCORE:    0.00 PKD
ROOT
HETATM    1  C   UNL     1     -10.243  12.305  68.319  1.00  0.00    -0.220 C  
HETATM    2  C   UNL     1     -11.727  12.474  67.978  1.00  0.00    -0.410 C  
HETATM    3  C   UNL     1     -11.752  12.688  66.466  1.00  0.00    -0.463 C  
HETATM    4  C   UNL     1     -10.288  12.563  66.038  1.00  0.00    -0.256 C  
HETATM    5  C   UNL     1      -9.942  11.105  65.699  1.00  0.00    -0.297 C  
HETATM    6  N   UNL     1      -9.606  13.056  67.239  1.00  0.00    -0.218 NA 
HETATM    7  C   UNL     1      -8.153  13.008  67.214  1.00  0.00    -0.161 C  
HETATM    8  C   UNL     1      -9.753  10.186  66.915  1.00  0.00    -0.187 C  
HETATM    9  C   UNL     1      -9.836  10.831  68.312  1.00  0.00    -0.177 C  
ENDROOT
BRANCH   8  10
HETATM   10  O   UNL     1     -10.708   9.109  66.902  1.00  0.00    -0.203 OA 
BRANCH  10  11
HETATM   11  C   UNL     1     -10.124   7.870  66.843  1.00  0.00    -0.291 C  
HETATM   12  O   UNL     1      -8.949   7.677  66.557  1.00  0.00    -0.143 OA 
BRANCH  11  13
HETATM   13  C   UNL     1     -11.129   6.786  67.258  1.00  0.00    -0.324 C  
HETATM   14  O   UNL     1     -11.096   5.716  66.301  1.00  0.00    -0.734 OA 
HETATM   15  H   UNL     1     -11.717   5.045  66.558  1.00  0.00     0.000 HD 
BRANCH  13  16
HETATM   16  C   UNL     1     -10.931   6.234  68.655  1.00  0.00    -0.423 A  
HETATM   17  C   UNL     1      -9.969   5.249  68.927  1.00  0.00    -0.250 A  
HETATM   18  C   UNL     1      -9.776   4.784  70.228  1.00  0.00    -0.296 A  
HETATM   19  C   UNL     1     -10.527   5.308  71.279  1.00  0.00    -0.274 A  
HETATM   20  C   UNL     1     -11.465   6.303  71.033  1.00  0.00    -0.370 A  
HETATM   21  C   UNL     1     -11.658   6.770  69.735  1.00  0.00    -0.284 A  
ENDBRANCH  13  16
ENDBRANCH  11  13
ENDBRANCH  10  11
ENDBRANCH   8  10
TORSDOF 4
ENDMDL
MODEL       84
REMARK 921   NORMALIZED FREE ENERGY PREDICTED BY IDOCK:   -4.45 KCAL/MOL
REMARK 922        TOTAL FREE ENERGY PREDICTED BY IDOCK:   -6.41 KCAL/MOL
REMARK 923 INTER-LIGAND FREE ENERGY PREDICTED BY IDOCK:   -5.68 KCAL/MOL
REMARK 924 INTRA-LIGAND FREE ENERGY PREDICTED BY IDOCK:   -0.73 KCAL/MOL
REMARK 927      BINDING AFFINITY PREDICTED BY RF-SCORE:    0.00 PKD
ROOT
HETATM    1  C   UNL     1      -9.112   6.601  68.181  1.00  0.00    -0.119 C  
HETATM    2  C   UNL     1      -7.679   7.142  68.239  1.00  0.00    -0.120 C  
HETATM    3  C   UNL     1      -7.373   7.573  66.807  1.00  0.00    -0.092 C  
HETATM    4  C   UNL     1      -8.672   7.309  66.042  1.00  0.00    -0.151 C  
HETATM    5  C   UNL     1      -9.589   8.540  66.082  1.00  0.00    -0.276 C  
HETATM    6  N   UNL     1      -9.204   6.165  66.789  1.00  0.00    -0.131 NA 
HETATM    7  C   UNL     1     -10.509   5.679  66.370  1.00  0.00    -0.198 C  
HETATM    8  C   UNL     1     -10.320   8.758  67.416  1.00  0.00    -0.280 C  
HETATM    9  C   UNL     1     -10.131   7.692  68.512  1.00  0.00    -0.205 C  
ENDROOT
BRANCH   8  10
HETATM   10  O   UNL     1      -9.955  10.021  68.004  1.00  0.00    -0.143 OA 
BRANCH  10  11
HETATM   11  C   UNL     1     -11.036  10.775  68.378  1.00  0.00    -0.266 C  
HETATM   12  O   UNL     1     -11.960  11.071  67.630  1.00  0.00    -0.583 OA 
BRANCH  11  13
HETATM   13  C   UNL     1     -10.956  11.119  69.873  1.00  0.00    -0.092 C  
HETATM   14  O   UNL     1     -11.553  12.406  70.096  1.00  0.00    -0.514 OA 
HETATM   15  H   UNL     1     -11.504  12.619  71.020  1.00  0.00     0.000 HD 
BRANCH  13  16
HETATM   16  C   UNL     1     -11.578  10.094  70.798  1.00  0.00    -0.445 A  
HETATM   17  C   UNL     1     -10.789   9.234  71.579  1.00  0.00    -0.442 A  
HETATM   18  C   UNL     1     -11.383   8.325  72.455  1.00  0.00    -0.457 A  
HETATM   19  C   UNL     1     -12.771   8.273  72.578  1.00  0.00    -0.225 A  
HETATM   20  C   UNL     1     -13.566   9.135  71.834  1.00  0.00    -0.493 A  
HETATM   21  C   UNL     1     -12.976  10.045  70.960  1.00  0.00    -0.445 A  
ENDBRANCH  13  16
ENDBRANCH  11  13
ENDBRANCH  10  11
ENDBRANCH   8  10
TORSDOF 4
ENDMDL
MODEL       85
REMARK 921   NORMALIZED FREE ENERGY PREDICTED BY IDOCK:   -4.45 KCAL/MOL
REMARK 922        TOTAL FREE ENERGY PREDICTED BY IDOCK:   -6.41 KCAL/MOL
REMARK 923 INTER-LIGAND FREE ENERGY PREDICTED BY IDOCK:   -5.59 KCAL/MOL
REMARK 924 INTRA-LIGAND FREE ENERGY PREDICTED BY IDOCK:   -0.82 KCAL/MOL
REMARK 927      BINDING AFFINITY PREDICTED BY RF-SCORE:    0.00 PKD
ROOT
HETATM    1  C   UNL     1      -9.727  14.280  67.228  1.00  0.00    -0.234 C  
HETATM    2  C   UNL     1     -10.324  13.532  68.425  1.00  0.00    -0.249 C  
HETATM    3  C   UNL     1     -11.829  13.758  68.307  1.00  0.00    -0.413 C  
HETATM    4  C   UNL     1     -11.995  14.565  67.018  1.00  0.00    -0.345 C  
HETATM    5  C   UNL     1     -12.169  13.633  65.809  1.00  0.00    -0.503 C  
HETATM    6  N   UNL     1     -10.734  15.313  66.996  1.00  0.00    -0.308 NA 
HETATM    7  C   UNL     1     -10.512  16.156  65.832  1.00  0.00    -0.352 C  
HETATM    8  C   UNL     1     -10.877  12.960  65.322  1.00  0.00    -0.292 C  
HETATM    9  C   UNL     1      -9.562  13.355  66.021  1.00  0.00    -0.174 C  
ENDROOT
BRANCH   8  10
HETATM   10  O   UNL     1     -10.976  11.526  65.413  1.00  0.00    -0.282 OA 
BRANCH  10  11
HETATM   11  C   UNL     1     -10.354  10.875  64.379  1.00  0.00    -0.361 C  
HETATM   12  O   UNL     1     -10.570  11.102  63.194  1.00  0.00    -0.295 OA 
BRANCH  11  13
HETATM   13  C   UNL     1      -9.306   9.892  64.920  1.00  0.00    -0.268 C  
HETATM   14  O   UNL     1      -8.004  10.495  64.841  1.00  0.00    -0.245 OA 
HETATM   15  H   UNL     1      -7.356   9.887  65.176  1.00  0.00     0.000 HD 
BRANCH  13  16
HETATM   16  C   UNL     1      -9.561   9.399  66.329  1.00  0.00    -0.297 A  
HETATM   17  C   UNL     1     -10.378   8.286  66.582  1.00  0.00    -0.293 A  
HETATM   18  C   UNL     1     -10.567   7.824  67.884  1.00  0.00    -0.221 A  
HETATM   19  C   UNL     1      -9.928   8.454  68.952  1.00  0.00    -0.194 A  
HETATM   20  C   UNL     1      -9.094   9.539  68.718  1.00  0.00    -0.133 A  
HETATM   21  C   UNL     1      -8.903  10.002  67.418  1.00  0.00    -0.132 A  
ENDBRANCH  13  16
ENDBRANCH  11  13
ENDBRANCH  10  11
ENDBRANCH   8  10
TORSDOF 4
ENDMDL
MODEL       86
REMARK 921   NORMALIZED FREE ENERGY PREDICTED BY IDOCK:   -4.44 KCAL/MOL
REMARK 922        TOTAL FREE ENERGY PREDICTED BY IDOCK:   -6.40 KCAL/MOL
REMARK 923 INTER-LIGAND FREE ENERGY PREDICTED BY IDOCK:   -5.67 KCAL/MOL
REMARK 924 INTRA-LIGAND FREE ENERGY PREDICTED BY IDOCK:   -0.73 KCAL/MOL
REMARK 927      BINDING AFFINITY PREDICTED BY RF-SCORE:    0.00 PKD
ROOT
HETATM    1  C   UNL     1     -10.404   5.374  67.767  1.00  0.00    -0.166 C  
HETATM    2  C   UNL     1     -10.370   5.597  69.283  1.00  0.00    -0.340 C  
HETATM    3  C   UNL     1      -9.003   6.223  69.549  1.00  0.00    -0.134 C  
HETATM    4  C   UNL     1      -8.375   6.373  68.162  1.00  0.00    -0.116 C  
HETATM    5  C   UNL     1      -8.736   7.732  67.544  1.00  0.00    -0.125 C  
HETATM    6  N   UNL     1      -8.981   5.238  67.459  1.00  0.00    -0.109 NA 
HETATM    7  C   UNL     1      -8.654   5.111  66.048  1.00  0.00    -0.124 C  
HETATM    8  C   UNL     1     -10.168   7.834  66.999  1.00  0.00    -0.305 C  
HETATM    9  C   UNL     1     -11.038   6.562  67.044  1.00  0.00    -0.411 C  
ENDROOT
BRANCH   8  10
HETATM   10  O   UNL     1     -10.909   8.863  67.681  1.00  0.00    -0.205 OA 
BRANCH  10  11
HETATM   11  C   UNL     1     -10.323  10.099  67.593  1.00  0.00    -0.219 C  
HETATM   12  O   UNL     1     -10.204  10.730  66.550  1.00  0.00    -0.220 OA 
BRANCH  11  13
HETATM   13  C   UNL     1      -9.917  10.598  68.987  1.00  0.00    -0.213 C  
HETATM   14  O   UNL     1      -9.726  12.021  68.945  1.00  0.00    -0.406 OA 
HETATM   15  H   UNL     1      -9.475  12.330  69.807  1.00  0.00     0.000 HD 
BRANCH  13  16
HETATM   16  C   UNL     1     -10.880  10.240  70.100  1.00  0.00    -0.362 A  
HETATM   17  C   UNL     1     -12.113  10.896  70.244  1.00  0.00    -0.440 A  
HETATM   18  C   UNL     1     -13.003  10.522  71.252  1.00  0.00    -0.532 A  
HETATM   19  C   UNL     1     -12.684   9.477  72.117  1.00  0.00    -0.442 A  
HETATM   20  C   UNL     1     -11.480   8.799  71.972  1.00  0.00    -0.441 A  
HETATM   21  C   UNL     1     -10.591   9.169  70.967  1.00  0.00    -0.362 A  
ENDBRANCH  13  16
ENDBRANCH  11  13
ENDBRANCH  10  11
ENDBRANCH   8  10
TORSDOF 4
ENDMDL
MODEL       87
REMARK 921   NORMALIZED FREE ENERGY PREDICTED BY IDOCK:   -4.44 KCAL/MOL
REMARK 922        TOTAL FREE ENERGY PREDICTED BY IDOCK:   -6.40 KCAL/MOL
REMARK 923 INTER-LIGAND FREE ENERGY PREDICTED BY IDOCK:   -5.90 KCAL/MOL
REMARK 924 INTRA-LIGAND FREE ENERGY PREDICTED BY IDOCK:   -0.50 KCAL/MOL
REMARK 927      BINDING AFFINITY PREDICTED BY RF-SCORE:    0.00 PKD
ROOT
HETATM    1  C   UNL     1      -8.045   8.278  67.705  1.00  0.00    -0.127 C  
HETATM    2  C   UNL     1      -7.567   9.708  67.429  1.00  0.00    -0.095 C  
HETATM    3  C   UNL     1      -8.666  10.320  66.564  1.00  0.00    -0.139 C  
HETATM    4  C   UNL     1      -9.726   9.221  66.457  1.00  0.00    -0.240 C  
HETATM    5  C   UNL     1     -10.743   9.330  67.603  1.00  0.00    -0.276 C  
HETATM    6  N   UNL     1      -8.887   8.020  66.538  1.00  0.00    -0.143 NA 
HETATM    7  C   UNL     1      -9.591   6.748  66.542  1.00  0.00    -0.140 C  
HETATM    8  C   UNL     1     -10.238   8.828  68.964  1.00  0.00    -0.207 C  
HETATM    9  C   UNL     1      -8.833   8.198  69.013  1.00  0.00    -0.144 C  
ENDROOT
BRANCH   8  10
HETATM   10  O   UNL     1     -10.247   9.887  69.940  1.00  0.00    -0.228 OA 
BRANCH  10  11
HETATM   11  C   UNL     1     -11.123   9.663  70.971  1.00  0.00    -0.368 C  
HETATM   12  O   UNL     1     -10.822   9.107  72.021  1.00  0.00    -0.352 OA 
BRANCH  11  13
HETATM   13  C   UNL     1     -12.494  10.275  70.649  1.00  0.00    -0.318 C  
HETATM   14  O   UNL     1     -13.515   9.545  71.347  1.00  0.00    -0.374 OA 
HETATM   15  H   UNL     1     -14.363   9.924  71.148  1.00  0.00     0.000 HD 
BRANCH  13  16
HETATM   16  C   UNL     1     -12.620  11.754  70.951  1.00  0.00    -0.384 A  
HETATM   17  C   UNL     1     -12.066  12.727  70.104  1.00  0.00    -0.370 A  
HETATM   18  C   UNL     1     -12.228  14.085  70.380  1.00  0.00    -0.433 A  
HETATM   19  C   UNL     1     -12.961  14.492  71.494  1.00  0.00    -0.406 A  
HETATM   20  C   UNL     1     -13.540  13.544  72.327  1.00  0.00    -0.690 A  
HETATM   21  C   UNL     1     -13.380  12.187  72.054  1.00  0.00    -0.470 A  
ENDBRANCH  13  16
ENDBRANCH  11  13
ENDBRANCH  10  11
ENDBRANCH   8  10
TORSDOF 4
ENDMDL
MODEL       88
REMARK 921   NORMALIZED FREE ENERGY PREDICTED BY IDOCK:   -4.44 KCAL/MOL
REMARK 922        TOTAL FREE ENERGY PREDICTED BY IDOCK:   -6.40 KCAL/MOL
REMARK 923 INTER-LIGAND FREE ENERGY PREDICTED BY IDOCK:   -5.50 KCAL/MOL
REMARK 924 INTRA-LIGAND FREE ENERGY PREDICTED BY IDOCK:   -0.90 KCAL/MOL
REMARK 927      BINDING AFFINITY PREDICTED BY RF-SCORE:    0.00 PKD
ROOT
HETATM    1  C   UNL     1      -8.747  11.366  67.200  1.00  0.00    -0.155 C  
HETATM    2  C   UNL     1      -9.320  12.270  68.297  1.00  0.00    -0.199 C  
HETATM    3  C   UNL     1     -10.787  11.860  68.406  1.00  0.00    -0.263 C  
HETATM    4  C   UNL     1     -10.937  10.707  67.411  1.00  0.00    -0.298 C  
HETATM    5  C   UNL     1     -10.641   9.360  68.088  1.00  0.00    -0.261 C  
HETATM    6  N   UNL     1      -9.939  11.081  66.403  1.00  0.00    -0.214 NA 
HETATM    7  C   UNL     1      -9.752  10.141  65.310  1.00  0.00    -0.300 C  
HETATM    8  C   UNL     1      -9.152   9.071  68.328  1.00  0.00    -0.133 C  
HETATM    9  C   UNL     1      -8.134  10.096  67.792  1.00  0.00    -0.109 C  
ENDROOT
BRANCH   8  10
HETATM   10  O   UNL     1      -8.876   8.914  69.732  1.00  0.00    -0.135 OA 
BRANCH  10  11
HETATM   11  C   UNL     1      -9.221   7.679  70.215  1.00  0.00    -0.157 C  
HETATM   12  O   UNL     1      -9.020   6.626  69.620  1.00  0.00    -0.141 OA 
BRANCH  11  13
HETATM   13  C   UNL     1      -9.816   7.803  71.625  1.00  0.00    -0.163 C  
HETATM   14  O   UNL     1      -9.073   8.782  72.369  1.00  0.00    -0.366 OA 
HETATM   15  H   UNL     1      -9.441   8.859  73.241  1.00  0.00     0.000 HD 
BRANCH  13  16
HETATM   16  C   UNL     1     -11.293   8.135  71.668  1.00  0.00    -0.315 A  
HETATM   17  C   UNL     1     -11.747   9.460  71.760  1.00  0.00    -0.444 A  
HETATM   18  C   UNL     1     -13.112   9.746  71.758  1.00  0.00    -0.528 A  
HETATM   19  C   UNL     1     -14.044   8.716  71.644  1.00  0.00    -0.468 A  
HETATM   20  C   UNL     1     -13.613   7.401  71.524  1.00  0.00    -0.454 A  
HETATM   21  C   UNL     1     -12.251   7.113  71.525  1.00  0.00    -0.396 A  
ENDBRANCH  13  16
ENDBRANCH  11  13
ENDBRANCH  10  11
ENDBRANCH   8  10
TORSDOF 4
ENDMDL
MODEL       89
REMARK 921   NORMALIZED FREE ENERGY PREDICTED BY IDOCK:   -4.44 KCAL/MOL
REMARK 922        TOTAL FREE ENERGY PREDICTED BY IDOCK:   -6.40 KCAL/MOL
REMARK 923 INTER-LIGAND FREE ENERGY PREDICTED BY IDOCK:   -5.74 KCAL/MOL
REMARK 924 INTRA-LIGAND FREE ENERGY PREDICTED BY IDOCK:   -0.66 KCAL/MOL
REMARK 927      BINDING AFFINITY PREDICTED BY RF-SCORE:    0.00 PKD
ROOT
HETATM    1  C   UNL     1     -10.548  12.711  63.734  1.00  0.00    -0.397 C  
HETATM    2  C   UNL     1     -11.950  13.282  63.497  1.00  0.00    -0.537 C  
HETATM    3  C   UNL     1     -12.871  12.403  64.338  1.00  0.00    -0.344 C  
HETATM    4  C   UNL     1     -11.927  11.429  65.048  1.00  0.00     0.576 C  
HETATM    5  C   UNL     1     -11.459  12.006  66.393  1.00  0.00    -0.417 C  
HETATM    6  N   UNL     1     -10.850  11.318  64.059  1.00  0.00    -0.370 NA 
HETATM    7  C   UNL     1      -9.711  10.502  64.444  1.00  0.00    -0.328 C  
HETATM    8  C   UNL     1     -10.387  13.101  66.288  1.00  0.00    -0.287 C  
HETATM    9  C   UNL     1      -9.842  13.430  64.884  1.00  0.00    -0.046 C  
ENDROOT
BRANCH   8  10
HETATM   10  O   UNL     1     -10.860  14.342  66.845  1.00  0.00    -0.291 OA 
BRANCH  10  11
HETATM   11  C   UNL     1     -10.401  14.572  68.116  1.00  0.00    -0.232 C  
HETATM   12  O   UNL     1      -9.249  14.366  68.479  1.00  0.00    -0.194 OA 
BRANCH  11  13
HETATM   13  C   UNL     1     -11.509  15.192  68.980  1.00  0.00    -0.309 C  
HETATM   14  O   UNL     1     -12.572  15.653  68.131  1.00  0.00     0.080 OA 
HETATM   15  H   UNL     1     -13.257  16.036  68.666  1.00  0.00     0.000 HD 
BRANCH  13  16
HETATM   16  C   UNL     1     -12.066  14.280  70.054  1.00  0.00    -0.400 A  
HETATM   17  C   UNL     1     -12.748  14.790  71.170  1.00  0.00    -0.402 A  
HETATM   18  C   UNL     1     -13.288  13.930  72.127  1.00  0.00    -0.555 A  
HETATM   19  C   UNL     1     -13.171  12.549  71.975  1.00  0.00    -0.524 A  
HETATM   20  C   UNL     1     -12.523  12.027  70.863  1.00  0.00    -0.384 A  
HETATM   21  C   UNL     1     -11.984  12.882  69.906  1.00  0.00    -0.377 A  
ENDBRANCH  13  16
ENDBRANCH  11  13
ENDBRANCH  10  11
ENDBRANCH   8  10
TORSDOF 4
ENDMDL
MODEL       90
REMARK 921   NORMALIZED FREE ENERGY PREDICTED BY IDOCK:   -4.43 KCAL/MOL
REMARK 922        TOTAL FREE ENERGY PREDICTED BY IDOCK:   -6.39 KCAL/MOL
REMARK 923 INTER-LIGAND FREE ENERGY PREDICTED BY IDOCK:   -5.96 KCAL/MOL
REMARK 924 INTRA-LIGAND FREE ENERGY PREDICTED BY IDOCK:   -0.44 KCAL/MOL
REMARK 927      BINDING AFFINITY PREDICTED BY RF-SCORE:    0.00 PKD
ROOT
HETATM    1  C   UNL     1     -10.145   8.202  72.267  1.00  0.00    -0.269 C  
HETATM    2  C   UNL     1      -8.648   8.442  72.048  1.00  0.00    -0.254 C  
HETATM    3  C   UNL     1      -8.315   7.664  70.778  1.00  0.00    -0.117 C  
HETATM    4  C   UNL     1      -9.655   7.084  70.322  1.00  0.00    -0.168 C  
HETATM    5  C   UNL     1     -10.380   8.060  69.382  1.00  0.00    -0.217 C  
HETATM    6  N   UNL     1     -10.333   6.909  71.611  1.00  0.00    -0.199 NA 
HETATM    7  C   UNL     1     -11.704   6.429  71.551  1.00  0.00    -0.313 C  
HETATM    8  C   UNL     1     -11.040   9.259  70.080  1.00  0.00    -0.230 C  
HETATM    9  C   UNL     1     -10.985   9.303  71.619  1.00  0.00    -0.433 C  
ENDROOT
BRANCH   8  10
HETATM   10  O   UNL     1     -10.480  10.500  69.613  1.00  0.00    -0.235 OA 
BRANCH  10  11
HETATM   11  C   UNL     1     -11.404  11.320  69.020  1.00  0.00    -0.278 C  
HETATM   12  O   UNL     1     -12.604  11.079  68.967  1.00  0.00    -0.378 OA 
BRANCH  11  13
HETATM   13  C   UNL     1     -10.731  12.604  68.512  1.00  0.00    -0.248 C  
HETATM   14  O   UNL     1      -9.305  12.457  68.594  1.00  0.00    -0.372 OA 
HETATM   15  H   UNL     1      -8.889  13.251  68.280  1.00  0.00     0.000 HD 
BRANCH  13  16
HETATM   16  C   UNL     1     -11.127  13.020  67.111  1.00  0.00    -0.304 A  
HETATM   17  C   UNL     1     -10.506  12.472  65.978  1.00  0.00    -0.282 A  
HETATM   18  C   UNL     1     -10.914  12.840  64.695  1.00  0.00    -0.355 A  
HETATM   19  C   UNL     1     -11.960  13.746  64.525  1.00  0.00    -0.458 A  
HETATM   20  C   UNL     1     -12.604  14.278  65.635  1.00  0.00    -0.429 A  
HETATM   21  C   UNL     1     -12.200  13.911  66.916  1.00  0.00    -0.415 A  
ENDBRANCH  13  16
ENDBRANCH  11  13
ENDBRANCH  10  11
ENDBRANCH   8  10
TORSDOF 4
ENDMDL
MODEL       91
REMARK 921   NORMALIZED FREE ENERGY PREDICTED BY IDOCK:   -4.43 KCAL/MOL
REMARK 922        TOTAL FREE ENERGY PREDICTED BY IDOCK:   -6.38 KCAL/MOL
REMARK 923 INTER-LIGAND FREE ENERGY PREDICTED BY IDOCK:   -5.43 KCAL/MOL
REMARK 924 INTRA-LIGAND FREE ENERGY PREDICTED BY IDOCK:   -0.95 KCAL/MOL
REMARK 927      BINDING AFFINITY PREDICTED BY RF-SCORE:    0.00 PKD
ROOT
HETATM    1  C   UNL     1      -9.064   8.127  68.361  1.00  0.00    -0.136 C  
HETATM    2  C   UNL     1      -7.772   8.874  68.012  1.00  0.00    -0.101 C  
HETATM    3  C   UNL     1      -8.038   9.478  66.635  1.00  0.00    -0.108 C  
HETATM    4  C   UNL     1      -9.484   9.089  66.319  1.00  0.00    -0.242 C  
HETATM    5  C   UNL     1     -10.461  10.156  66.836  1.00  0.00    -0.286 C  
HETATM    6  N   UNL     1      -9.589   7.813  67.034  1.00  0.00    -0.170 NA 
HETATM    7  C   UNL     1     -10.894   7.173  67.011  1.00  0.00    -0.312 C  
HETATM    8  C   UNL     1     -10.697  10.134  68.354  1.00  0.00    -0.230 C  
HETATM    9  C   UNL     1     -10.018   9.013  69.163  1.00  0.00    -0.187 C  
ENDROOT
BRANCH   8  10
HETATM   10  O   UNL     1     -10.294  11.378  68.956  1.00  0.00    -0.201 OA 
BRANCH  10  11
HETATM   11  C   UNL     1     -11.351  12.176  69.309  1.00  0.00    -0.266 C  
HETATM   12  O   UNL     1     -12.279  11.813  70.022  1.00  0.00    -0.287 OA 
BRANCH  11  13
HETATM   13  C   UNL     1     -11.161  13.593  68.749  1.00  0.00    -0.279 C  
HETATM   14  O   UNL     1      -9.888  14.105  69.175  1.00  0.00    -0.415 OA 
HETATM   15  H   UNL     1      -9.771  14.981  68.829  1.00  0.00     0.000 HD 
BRANCH  13  16
HETATM   16  C   UNL     1     -11.286  13.708  67.244  1.00  0.00    -0.329 A  
HETATM   17  C   UNL     1     -10.185  14.037  66.438  1.00  0.00    -0.293 A  
HETATM   18  C   UNL     1     -10.313  14.098  65.050  1.00  0.00    -0.443 A  
HETATM   19  C   UNL     1     -11.536  13.812  64.446  1.00  0.00    -0.418 A  
HETATM   20  C   UNL     1     -12.629  13.457  65.226  1.00  0.00    -0.518 A  
HETATM   21  C   UNL     1     -12.504  13.395  66.611  1.00  0.00    -0.212 A  
ENDBRANCH  13  16
ENDBRANCH  11  13
ENDBRANCH  10  11
ENDBRANCH   8  10
TORSDOF 4
ENDMDL
MODEL       92
REMARK 921   NORMALIZED FREE ENERGY PREDICTED BY IDOCK:   -4.42 KCAL/MOL
REMARK 922        TOTAL FREE ENERGY PREDICTED BY IDOCK:   -6.37 KCAL/MOL
REMARK 923 INTER-LIGAND FREE ENERGY PREDICTED BY IDOCK:   -5.85 KCAL/MOL
REMARK 924 INTRA-LIGAND FREE ENERGY PREDICTED BY IDOCK:   -0.52 KCAL/MOL
REMARK 927      BINDING AFFINITY PREDICTED BY RF-SCORE:    0.00 PKD
ROOT
HETATM    1  C   UNL     1     -11.574  14.749  66.280  1.00  0.00    -0.298 C  
HETATM    2  C   UNL     1     -11.753  14.754  67.802  1.00  0.00    -0.368 C  
HETATM    3  C   UNL     1     -10.531  14.011  68.335  1.00  0.00    -0.254 C  
HETATM    4  C   UNL     1      -9.705  13.688  67.088  1.00  0.00    -0.245 C  
HETATM    5  C   UNL     1      -8.720  14.825  66.776  1.00  0.00    -0.255 C  
HETATM    6  N   UNL     1     -10.765  13.547  66.084  1.00  0.00    -0.286 NA 
HETATM    7  C   UNL     1     -10.325  13.303  64.720  1.00  0.00    -0.363 C  
HETATM    8  C   UNL     1      -9.353  16.070  66.137  1.00  0.00    -0.342 C  
HETATM    9  C   UNL     1     -10.856  16.011  65.801  1.00  0.00    -0.236 C  
ENDROOT
BRANCH   8  10
HETATM   10  O   UNL     1      -9.165  17.229  66.970  1.00  0.00    -0.232 OA 
BRANCH  10  11
HETATM   11  C   UNL     1      -8.163  18.054  66.529  1.00  0.00    -0.271 C  
HETATM   12  O   UNL     1      -7.573  17.911  65.464  1.00  0.00    -0.518 OA 
BRANCH  11  13
HETATM   13  C   UNL     1      -7.948  19.211  67.516  1.00  0.00    -0.257 C  
HETATM   14  O   UNL     1      -9.216  19.616  68.055  1.00  0.00    -0.320 OA 
HETATM   15  H   UNL     1      -9.084  20.331  68.666  1.00  0.00     0.000 HD 
BRANCH  13  16
HETATM   16  C   UNL     1      -6.979  18.917  68.643  1.00  0.00    -0.313 A  
HETATM   17  C   UNL     1      -6.670  19.879  69.616  1.00  0.00    -0.337 A  
HETATM   18  C   UNL     1      -5.806  19.574  70.668  1.00  0.00    -0.235 A  
HETATM   19  C   UNL     1      -5.252  18.299  70.773  1.00  0.00    -0.277 A  
HETATM   20  C   UNL     1      -5.568  17.326  69.834  1.00  0.00    -0.230 A  
HETATM   21  C   UNL     1      -6.432  17.627  68.784  1.00  0.00    -0.213 A  
ENDBRANCH  13  16
ENDBRANCH  11  13
ENDBRANCH  10  11
ENDBRANCH   8  10
TORSDOF 4
ENDMDL
MODEL       93
REMARK 921   NORMALIZED FREE ENERGY PREDICTED BY IDOCK:   -4.41 KCAL/MOL
REMARK 922        TOTAL FREE ENERGY PREDICTED BY IDOCK:   -6.36 KCAL/MOL
REMARK 923 INTER-LIGAND FREE ENERGY PREDICTED BY IDOCK:   -5.88 KCAL/MOL
REMARK 924 INTRA-LIGAND FREE ENERGY PREDICTED BY IDOCK:   -0.48 KCAL/MOL
REMARK 927      BINDING AFFINITY PREDICTED BY RF-SCORE:    0.00 PKD
ROOT
HETATM    1  C   UNL     1     -11.735  12.640  67.362  1.00  0.00    -0.369 C  
HETATM    2  C   UNL     1     -11.263  12.156  68.738  1.00  0.00    -0.314 C  
HETATM    3  C   UNL     1      -9.801  11.770  68.528  1.00  0.00    -0.192 C  
HETATM    4  C   UNL     1      -9.519  12.118  67.065  1.00  0.00    -0.201 C  
HETATM    5  C   UNL     1      -9.023  13.566  66.934  1.00  0.00    -0.219 C  
HETATM    6  N   UNL     1     -10.842  11.903  66.470  1.00  0.00    -0.266 NA 
HETATM    7  C   UNL     1     -10.967  12.219  65.057  1.00  0.00    -0.302 C  
HETATM    8  C   UNL     1     -10.116  14.637  67.067  1.00  0.00    -0.249 C  
HETATM    9  C   UNL     1     -11.571  14.153  67.219  1.00  0.00    -0.399 C  
ENDROOT
BRANCH   8  10
HETATM   10  O   UNL     1      -9.853  15.507  68.184  1.00  0.00    -0.214 OA 
BRANCH  10  11
HETATM   11  C   UNL     1      -9.888  16.837  67.853  1.00  0.00    -0.257 C  
HETATM   12  O   UNL     1     -10.797  17.598  68.162  1.00  0.00    -0.349 OA 
BRANCH  11  13
HETATM   13  C   UNL     1      -8.602  17.239  67.117  1.00  0.00    -0.206 C  
HETATM   14  O   UNL     1      -8.921  17.594  65.762  1.00  0.00    -0.509 OA 
HETATM   15  H   UNL     1      -8.126  17.843  65.307  1.00  0.00     0.000 HD 
BRANCH  13  16
HETATM   16  C   UNL     1      -7.815  18.356  67.771  1.00  0.00    -0.249 A  
HETATM   17  C   UNL     1      -7.140  18.165  68.987  1.00  0.00    -0.244 A  
HETATM   18  C   UNL     1      -6.388  19.196  69.551  1.00  0.00    -0.318 A  
HETATM   19  C   UNL     1      -6.284  20.425  68.902  1.00  0.00    -0.360 A  
HETATM   20  C   UNL     1      -6.923  20.623  67.684  1.00  0.00    -0.376 A  
HETATM   21  C   UNL     1      -7.673  19.595  67.118  1.00  0.00    -0.288 A  
ENDBRANCH  13  16
ENDBRANCH  11  13
ENDBRANCH  10  11
ENDBRANCH   8  10
TORSDOF 4
ENDMDL
MODEL       94
REMARK 921   NORMALIZED FREE ENERGY PREDICTED BY IDOCK:   -4.40 KCAL/MOL
REMARK 922        TOTAL FREE ENERGY PREDICTED BY IDOCK:   -6.35 KCAL/MOL
REMARK 923 INTER-LIGAND FREE ENERGY PREDICTED BY IDOCK:   -5.99 KCAL/MOL
REMARK 924 INTRA-LIGAND FREE ENERGY PREDICTED BY IDOCK:   -0.36 KCAL/MOL
REMARK 927      BINDING AFFINITY PREDICTED BY RF-SCORE:    0.00 PKD
ROOT
HETATM    1  C   UNL     1      -8.526  18.578  67.016  1.00  0.00    -0.264 C  
HETATM    2  C   UNL     1      -8.066  17.557  65.969  1.00  0.00    -0.162 C  
HETATM    3  C   UNL     1      -6.880  16.848  66.619  1.00  0.00    -0.271 C  
HETATM    4  C   UNL     1      -6.783  17.467  68.015  1.00  0.00    -0.179 C  
HETATM    5  C   UNL     1      -7.640  16.683  69.020  1.00  0.00    -0.226 C  
HETATM    6  N   UNL     1      -7.287  18.819  67.754  1.00  0.00    -0.231 NA 
HETATM    7  C   UNL     1      -7.406  19.691  68.911  1.00  0.00    -0.338 C  
HETATM    8  C   UNL     1      -9.151  16.940  68.920  1.00  0.00    -0.223 C  
HETATM    9  C   UNL     1      -9.625  18.002  67.908  1.00  0.00    -0.284 C  
ENDROOT
BRANCH   8  10
HETATM   10  O   UNL     1      -9.861  15.728  68.606  1.00  0.00    -0.200 OA 
BRANCH  10  11
HETATM   11  C   UNL     1     -10.685  15.307  69.617  1.00  0.00    -0.281 C  
HETATM   12  O   UNL     1     -10.544  15.620  70.794  1.00  0.00    -0.255 OA 
BRANCH  11  13
HETATM   13  C   UNL     1     -11.837  14.463  69.053  1.00  0.00    -0.323 C  
HETATM   14  O   UNL     1     -11.563  14.144  67.680  1.00  0.00    -0.323 OA 
HETATM   15  H   UNL     1     -12.275  13.622  67.331  1.00  0.00     0.000 HD 
BRANCH  13  16
HETATM   16  C   UNL     1     -12.139  13.197  69.827  1.00  0.00    -0.336 A  
HETATM   17  C   UNL     1     -11.631  11.951  69.426  1.00  0.00    -0.388 A  
HETATM   18  C   UNL     1     -11.888  10.803  70.176  1.00  0.00    -0.427 A  
HETATM   19  C   UNL     1     -12.642  10.885  71.346  1.00  0.00    -0.508 A  
HETATM   20  C   UNL     1     -13.130  12.113  71.773  1.00  0.00    -0.457 A  
HETATM   21  C   UNL     1     -12.873  13.261  71.027  1.00  0.00    -0.311 A  
ENDBRANCH  13  16
ENDBRANCH  11  13
ENDBRANCH  10  11
ENDBRANCH   8  10
TORSDOF 4
ENDMDL
MODEL       95
REMARK 921   NORMALIZED FREE ENERGY PREDICTED BY IDOCK:   -4.39 KCAL/MOL
REMARK 922        TOTAL FREE ENERGY PREDICTED BY IDOCK:   -6.33 KCAL/MOL
REMARK 923 INTER-LIGAND FREE ENERGY PREDICTED BY IDOCK:   -5.94 KCAL/MOL
REMARK 924 INTRA-LIGAND FREE ENERGY PREDICTED BY IDOCK:   -0.39 KCAL/MOL
REMARK 927      BINDING AFFINITY PREDICTED BY RF-SCORE:    0.00 PKD
ROOT
HETATM    1  C   UNL     1      -8.675  18.208  66.440  1.00  0.00    -0.231 C  
HETATM    2  C   UNL     1      -7.526  17.700  67.318  1.00  0.00    -0.210 C  
HETATM    3  C   UNL     1      -8.005  17.929  68.749  1.00  0.00    -0.246 C  
HETATM    4  C   UNL     1      -9.419  18.493  68.594  1.00  0.00    -0.345 C  
HETATM    5  C   UNL     1     -10.457  17.361  68.562  1.00  0.00    -0.370 C  
HETATM    6  N   UNL     1      -9.295  19.201  67.316  1.00  0.00    -0.297 NA 
HETATM    7  C   UNL     1     -10.509  19.816  66.806  1.00  0.00    -0.489 C  
HETATM    8  C   UNL     1     -10.529  16.587  67.237  1.00  0.00    -0.304 C  
HETATM    9  C   UNL     1      -9.639  17.078  66.078  1.00  0.00    -0.215 C  
ENDROOT
BRANCH   8  10
HETATM   10  O   UNL     1     -10.216  15.196  67.434  1.00  0.00    -0.233 OA 
BRANCH  10  11
HETATM   11  C   UNL     1     -11.192  14.352  66.970  1.00  0.00    -0.328 C  
HETATM   12  O   UNL     1     -12.394  14.555  67.097  1.00  0.00    -0.290 OA 
BRANCH  11  13
HETATM   13  C   UNL     1     -10.564  13.174  66.212  1.00  0.00    -0.284 C  
HETATM   14  O   UNL     1      -9.225  13.519  65.822  1.00  0.00    -0.471 OA 
HETATM   15  H   UNL     1      -8.837  12.791  65.353  1.00  0.00     0.000 HD 
BRANCH  13  16
HETATM   16  C   UNL     1     -10.558  11.860  66.965  1.00  0.00    -0.260 A  
HETATM   17  C   UNL     1      -9.746  10.787  66.566  1.00  0.00    -0.236 A  
HETATM   18  C   UNL     1      -9.726   9.600  67.299  1.00  0.00    -0.213 A  
HETATM   19  C   UNL     1     -10.503   9.472  68.449  1.00  0.00    -0.261 A  
HETATM   20  C   UNL     1     -11.293  10.533  68.874  1.00  0.00    -0.313 A  
HETATM   21  C   UNL     1     -11.313  11.720  68.146  1.00  0.00    -0.348 A  
ENDBRANCH  13  16
ENDBRANCH  11  13
ENDBRANCH  10  11
ENDBRANCH   8  10
TORSDOF 4
ENDMDL
MODEL       96
REMARK 921   NORMALIZED FREE ENERGY PREDICTED BY IDOCK:   -4.38 KCAL/MOL
REMARK 922        TOTAL FREE ENERGY PREDICTED BY IDOCK:   -6.32 KCAL/MOL
REMARK 923 INTER-LIGAND FREE ENERGY PREDICTED BY IDOCK:   -5.82 KCAL/MOL
REMARK 924 INTRA-LIGAND FREE ENERGY PREDICTED BY IDOCK:   -0.50 KCAL/MOL
REMARK 927      BINDING AFFINITY PREDICTED BY RF-SCORE:    0.00 PKD
ROOT
HETATM    1  C   UNL     1     -11.258   6.210  69.830  1.00  0.00    -0.414 C  
HETATM    2  C   UNL     1     -12.137   6.805  70.936  1.00  0.00    -0.421 C  
HETATM    3  C   UNL     1     -11.173   7.073  72.090  1.00  0.00    -0.291 C  
HETATM    4  C   UNL     1      -9.801   6.672  71.544  1.00  0.00    -0.171 C  
HETATM    5  C   UNL     1      -9.116   7.865  70.862  1.00  0.00    -0.157 C  
HETATM    6  N   UNL     1     -10.177   5.607  70.608  1.00  0.00    -0.212 NA 
HETATM    7  C   UNL     1      -9.093   5.028  69.831  1.00  0.00    -0.119 C  
HETATM    8  C   UNL     1      -9.662   8.215  69.469  1.00  0.00    -0.170 C  
HETATM    9  C   UNL     1     -10.749   7.295  68.881  1.00  0.00    -0.173 C  
ENDROOT
BRANCH   8  10
HETATM   10  O   UNL     1     -10.198   9.551  69.446  1.00  0.00    -0.186 OA 
BRANCH  10  11
HETATM   11  C   UNL     1     -10.037  10.176  68.236  1.00  0.00    -0.156 C  
HETATM   12  O   UNL     1      -8.984  10.204  67.611  1.00  0.00    -0.131 OA 
BRANCH  11  13
HETATM   13  C   UNL     1     -11.374  10.758  67.754  1.00  0.00    -0.279 C  
HETATM   14  O   UNL     1     -12.359  10.608  68.789  1.00  0.00    -0.814 OA 
HETATM   15  H   UNL     1     -13.185  10.967  68.491  1.00  0.00     0.000 HD 
BRANCH  13  16
HETATM   16  C   UNL     1     -11.316  12.203  67.304  1.00  0.00    -0.398 A  
HETATM   17  C   UNL     1     -11.862  12.613  66.077  1.00  0.00    -0.492 A  
HETATM   18  C   UNL     1     -11.833  13.956  65.700  1.00  0.00    -0.383 A  
HETATM   19  C   UNL     1     -11.276  14.911  66.549  1.00  0.00    -0.335 A  
HETATM   20  C   UNL     1     -10.755  14.527  67.779  1.00  0.00    -0.256 A  
HETATM   21  C   UNL     1     -10.784  13.188  68.158  1.00  0.00    -0.258 A  
ENDBRANCH  13  16
ENDBRANCH  11  13
ENDBRANCH  10  11
ENDBRANCH   8  10
TORSDOF 4
ENDMDL
MODEL       97
REMARK 921   NORMALIZED FREE ENERGY PREDICTED BY IDOCK:   -4.37 KCAL/MOL
REMARK 922        TOTAL FREE ENERGY PREDICTED BY IDOCK:   -6.31 KCAL/MOL
REMARK 923 INTER-LIGAND FREE ENERGY PREDICTED BY IDOCK:   -5.72 KCAL/MOL
REMARK 924 INTRA-LIGAND FREE ENERGY PREDICTED BY IDOCK:   -0.60 KCAL/MOL
REMARK 927      BINDING AFFINITY PREDICTED BY RF-SCORE:    0.00 PKD
ROOT
HETATM    1  C   UNL     1      -9.866   7.180  66.876  1.00  0.00    -0.208 C  
HETATM    2  C   UNL     1     -10.837   6.002  67.014  1.00  0.00    -0.413 C  
HETATM    3  C   UNL     1     -10.198   5.097  68.064  1.00  0.00    -0.178 C  
HETATM    4  C   UNL     1      -8.938   5.849  68.500  1.00  0.00    -0.113 C  
HETATM    5  C   UNL     1      -9.243   6.786  69.678  1.00  0.00    -0.145 C  
HETATM    6  N   UNL     1      -8.599   6.561  67.264  1.00  0.00    -0.112 NA 
HETATM    7  C   UNL     1      -7.459   7.460  67.337  1.00  0.00    -0.104 C  
HETATM    8  C   UNL     1      -9.984   8.078  69.300  1.00  0.00    -0.191 C  
HETATM    9  C   UNL     1     -10.253   8.331  67.804  1.00  0.00    -0.282 C  
ENDROOT
BRANCH   8  10
HETATM   10  O   UNL     1     -11.259   8.154  69.965  1.00  0.00    -0.205 OA 
BRANCH  10  11
HETATM   11  C   UNL     1     -11.284   9.075  70.980  1.00  0.00    -0.295 C  
HETATM   12  O   UNL     1     -10.403   9.194  71.823  1.00  0.00    -0.344 OA 
BRANCH  11  13
HETATM   13  C   UNL     1     -12.524   9.973  70.856  1.00  0.00    -0.337 C  
HETATM   14  O   UNL     1     -13.114  10.150  72.154  1.00  0.00    -0.435 OA 
HETATM   15  H   UNL     1     -13.880  10.705  72.077  1.00  0.00     0.000 HD 
BRANCH  13  16
HETATM   16  C   UNL     1     -12.274  11.322  70.215  1.00  0.00    -0.428 A  
HETATM   17  C   UNL     1     -12.484  12.520  70.917  1.00  0.00    -0.361 A  
HETATM   18  C   UNL     1     -12.208  13.751  70.320  1.00  0.00    -0.429 A  
HETATM   19  C   UNL     1     -11.703  13.803  69.022  1.00  0.00    -0.372 A  
HETATM   20  C   UNL     1     -11.464  12.627  68.322  1.00  0.00    -0.356 A  
HETATM   21  C   UNL     1     -11.736  11.398  68.916  1.00  0.00    -0.409 A  
ENDBRANCH  13  16
ENDBRANCH  11  13
ENDBRANCH  10  11
ENDBRANCH   8  10
TORSDOF 4
ENDMDL
MODEL       98
REMARK 921   NORMALIZED FREE ENERGY PREDICTED BY IDOCK:   -4.36 KCAL/MOL
REMARK 922        TOTAL FREE ENERGY PREDICTED BY IDOCK:   -6.30 KCAL/MOL
REMARK 923 INTER-LIGAND FREE ENERGY PREDICTED BY IDOCK:   -5.81 KCAL/MOL
REMARK 924 INTRA-LIGAND FREE ENERGY PREDICTED BY IDOCK:   -0.49 KCAL/MOL
REMARK 927      BINDING AFFINITY PREDICTED BY RF-SCORE:    0.00 PKD
ROOT
HETATM    1  C   UNL     1     -10.695  12.446  65.336  1.00  0.00    -0.282 C  
HETATM    2  C   UNL     1     -11.181  12.882  63.949  1.00  0.00    -0.471 C  
HETATM    3  C   UNL     1     -12.497  13.609  64.214  1.00  0.00    -0.304 C  
HETATM    4  C   UNL     1     -12.643  13.595  65.737  1.00  0.00    -0.461 C  
HETATM    5  C   UNL     1     -11.980  14.833  66.360  1.00  0.00    -0.179 C  
HETATM    6  N   UNL     1     -11.956  12.342  66.069  1.00  0.00    -0.602 NA 
HETATM    7  C   UNL     1     -11.835  12.035  67.484  1.00  0.00    -0.205 C  
HETATM    8  C   UNL     1     -10.446  14.783  66.421  1.00  0.00    -0.293 C  
HETATM    9  C   UNL     1      -9.758  13.488  65.949  1.00  0.00    -0.199 C  
ENDROOT
BRANCH   8  10
HETATM   10  O   UNL     1      -9.864  15.858  65.661  1.00  0.00    -0.328 OA 
BRANCH  10  11
HETATM   11  C   UNL     1      -9.354  16.859  66.446  1.00  0.00    -0.276 C  
HETATM   12  O   UNL     1     -10.011  17.500  67.258  1.00  0.00    -0.292 OA 
BRANCH  11  13
HETATM   13  C   UNL     1      -7.842  17.002  66.214  1.00  0.00    -0.311 C  
HETATM   14  O   UNL     1      -7.565  18.303  65.671  1.00  0.00    -0.532 OA 
HETATM   15  H   UNL     1      -6.631  18.391  65.528  1.00  0.00     0.000 HD 
BRANCH  13  16
HETATM   16  C   UNL     1      -6.984  16.761  67.439  1.00  0.00    -0.182 A  
HETATM   17  C   UNL     1      -6.888  17.710  68.468  1.00  0.00    -0.223 A  
HETATM   18  C   UNL     1      -6.123  17.450  69.606  1.00  0.00    -0.249 A  
HETATM   19  C   UNL     1      -5.458  16.232  69.740  1.00  0.00    -0.148 A  
HETATM   20  C   UNL     1      -5.563  15.270  68.744  1.00  0.00    -0.090 A  
HETATM   21  C   UNL     1      -6.327  15.526  67.608  1.00  0.00    -0.181 A  
ENDBRANCH  13  16
ENDBRANCH  11  13
ENDBRANCH  10  11
ENDBRANCH   8  10
TORSDOF 4
ENDMDL
MODEL       99
REMARK 921   NORMALIZED FREE ENERGY PREDICTED BY IDOCK:   -4.34 KCAL/MOL
REMARK 922        TOTAL FREE ENERGY PREDICTED BY IDOCK:   -6.27 KCAL/MOL
REMARK 923 INTER-LIGAND FREE ENERGY PREDICTED BY IDOCK:   -5.63 KCAL/MOL
REMARK 924 INTRA-LIGAND FREE ENERGY PREDICTED BY IDOCK:   -0.64 KCAL/MOL
REMARK 927      BINDING AFFINITY PREDICTED BY RF-SCORE:    0.00 PKD
ROOT
HETATM    1  C   UNL     1     -11.005  15.446  69.081  1.00  0.00    -0.252 C  
HETATM    2  C   UNL     1      -9.564  15.086  68.701  1.00  0.00    -0.219 C  
HETATM    3  C   UNL     1      -9.513  13.563  68.787  1.00  0.00     0.037 C  
HETATM    4  C   UNL     1     -10.943  13.152  69.148  1.00  0.00    -0.145 C  
HETATM    5  C   UNL     1     -11.781  12.926  67.881  1.00  0.00    -0.405 C  
HETATM    6  N   UNL     1     -11.375  14.315  69.929  1.00  0.00    -0.233 NA 
HETATM    7  C   UNL     1     -12.755  14.300  70.387  1.00  0.00    -0.295 C  
HETATM    8  C   UNL     1     -12.239  14.210  67.172  1.00  0.00    -0.313 C  
HETATM    9  C   UNL     1     -11.895  15.553  67.843  1.00  0.00    -0.031 C  
ENDROOT
BRANCH   8  10
HETATM   10  O   UNL     1     -11.716  14.274  65.832  1.00  0.00    -0.354 OA 
BRANCH  10  11
HETATM   11  C   UNL     1     -11.978  13.148  65.095  1.00  0.00    -0.394 C  
HETATM   12  O   UNL     1     -13.083  12.625  65.008  1.00  0.00    -0.808 OA 
BRANCH  11  13
HETATM   13  C   UNL     1     -10.717  12.694  64.346  1.00  0.00    -0.359 C  
HETATM   14  O   UNL     1      -9.862  13.827  64.124  1.00  0.00    -0.638 OA 
HETATM   15  H   UNL     1      -9.083  13.546  63.661  1.00  0.00     0.000 HD 
BRANCH  13  16
HETATM   16  C   UNL     1      -9.937  11.585  65.021  1.00  0.00    -0.305 A  
HETATM   17  C   UNL     1     -10.106  10.240  64.655  1.00  0.00    -0.317 A  
HETATM   18  C   UNL     1      -9.348   9.238  65.262  1.00  0.00    -0.269 A  
HETATM   19  C   UNL     1      -8.399   9.565  66.229  1.00  0.00    -0.117 A  
HETATM   20  C   UNL     1      -8.199  10.893  66.584  1.00  0.00    -0.145 A  
HETATM   21  C   UNL     1      -8.953  11.895  65.979  1.00  0.00    -0.066 A  
ENDBRANCH  13  16
ENDBRANCH  11  13
ENDBRANCH  10  11
ENDBRANCH   8  10
TORSDOF 4
ENDMDL
MODEL      100
REMARK 921   NORMALIZED FREE ENERGY PREDICTED BY IDOCK:   -4.33 KCAL/MOL
REMARK 922        TOTAL FREE ENERGY PREDICTED BY IDOCK:   -6.26 KCAL/MOL
REMARK 923 INTER-LIGAND FREE ENERGY PREDICTED BY IDOCK:   -5.69 KCAL/MOL
REMARK 924 INTRA-LIGAND FREE ENERGY PREDICTED BY IDOCK:   -0.57 KCAL/MOL
REMARK 927      BINDING AFFINITY PREDICTED BY RF-SCORE:    0.00 PKD
ROOT
HETATM    1  C   UNL     1      -7.209  10.235  66.086  1.00  0.00    -0.121 C  
HETATM    2  C   UNL     1      -7.325   9.906  64.594  1.00  0.00    -0.140 C  
HETATM    3  C   UNL     1      -8.246   8.689  64.540  1.00  0.00    -0.166 C  
HETATM    4  C   UNL     1      -8.644   8.445  65.998  1.00  0.00    -0.146 C  
HETATM    5  C   UNL     1      -9.913   9.232  66.356  1.00  0.00    -0.356 C  
HETATM    6  N   UNL     1      -7.447   8.927  66.695  1.00  0.00    -0.085 NA 
HETATM    7  C   UNL     1      -7.504   8.912  68.147  1.00  0.00    -0.092 C  
HETATM    8  C   UNL     1      -9.700  10.737  66.578  1.00  0.00    -0.196 C  
HETATM    9  C   UNL     1      -8.254  11.267  66.511  1.00  0.00    -0.165 C  
ENDROOT
BRANCH   8  10
HETATM   10  O   UNL     1     -10.465  11.511  65.636  1.00  0.00    -0.251 OA 
BRANCH  10  11
HETATM   11  C   UNL     1     -11.511  12.183  66.213  1.00  0.00    -0.374 C  
HETATM   12  O   UNL     1     -12.142  11.773  67.181  1.00  0.00    -0.592 OA 
BRANCH  11  13
HETATM   13  C   UNL     1     -11.721  13.540  65.525  1.00  0.00    -0.340 C  
HETATM   14  O   UNL     1     -13.127  13.823  65.451  1.00  0.00    -0.727 OA 
HETATM   15  H   UNL     1     -13.256  14.662  65.026  1.00  0.00     0.000 HD 
BRANCH  13  16
HETATM   16  C   UNL     1     -10.993  14.701  66.170  1.00  0.00    -0.329 A  
HETATM   17  C   UNL     1     -11.287  15.117  67.478  1.00  0.00    -0.325 A  
HETATM   18  C   UNL     1     -10.577  16.164  68.067  1.00  0.00    -0.304 A  
HETATM   19  C   UNL     1      -9.552  16.798  67.367  1.00  0.00    -0.236 A  
HETATM   20  C   UNL     1      -9.229  16.381  66.082  1.00  0.00    -0.365 A  
HETATM   21  C   UNL     1      -9.935  15.336  65.492  1.00  0.00    -0.383 A  
ENDBRANCH  13  16
ENDBRANCH  11  13
ENDBRANCH  10  11
ENDBRANCH   8  10
TORSDOF 4
ENDMDL
MODEL      101
REMARK 921   NORMALIZED FREE ENERGY PREDICTED BY IDOCK:   -4.31 KCAL/MOL
REMARK 922        TOTAL FREE ENERGY PREDICTED BY IDOCK:   -6.24 KCAL/MOL
REMARK 923 INTER-LIGAND FREE ENERGY PREDICTED BY IDOCK:   -5.80 KCAL/MOL
REMARK 924 INTRA-LIGAND FREE ENERGY PREDICTED BY IDOCK:   -0.44 KCAL/MOL
REMARK 927      BINDING AFFINITY PREDICTED BY RF-SCORE:    0.00 PKD
ROOT
HETATM    1  C   UNL     1      -9.355   6.656  66.733  1.00  0.00    -0.158 C  
HETATM    2  C   UNL     1     -10.834   6.308  66.935  1.00  0.00    -0.428 C  
HETATM    3  C   UNL     1     -11.050   6.408  68.443  1.00  0.00    -0.374 C  
HETATM    4  C   UNL     1      -9.698   6.867  68.993  1.00  0.00    -0.150 C  
HETATM    5  C   UNL     1      -9.617   8.401  69.031  1.00  0.00    -0.160 C  
HETATM    6  N   UNL     1      -8.783   6.263  68.019  1.00  0.00    -0.115 NA 
HETATM    7  C   UNL     1      -7.372   6.563  68.196  1.00  0.00    -0.090 C  
HETATM    8  C   UNL     1      -9.384   9.069  67.668  1.00  0.00    -0.136 C  
HETATM    9  C   UNL     1      -9.169   8.147  66.452  1.00  0.00    -0.250 C  
ENDROOT
BRANCH   8  10
HETATM   10  O   UNL     1     -10.475   9.946  67.330  1.00  0.00    -0.231 OA 
BRANCH  10  11
HETATM   11  C   UNL     1     -10.403  11.163  67.956  1.00  0.00    -0.185 C  
HETATM   12  O   UNL     1      -9.355  11.742  68.217  1.00  0.00    -0.184 OA 
BRANCH  11  13
HETATM   13  C   UNL     1     -11.812  11.720  68.205  1.00  0.00    -0.254 C  
HETATM   14  O   UNL     1     -12.601  10.730  68.884  1.00  0.00    -0.735 OA 
HETATM   15  H   UNL     1     -13.472  11.075  69.038  1.00  0.00     0.000 HD 
BRANCH  13  16
HETATM   16  C   UNL     1     -11.856  13.027  68.969  1.00  0.00    -0.362 A  
HETATM   17  C   UNL     1     -11.691  14.262  68.323  1.00  0.00    -0.377 A  
HETATM   18  C   UNL     1     -11.775  15.457  69.040  1.00  0.00    -0.380 A  
HETATM   19  C   UNL     1     -12.044  15.436  70.408  1.00  0.00    -0.408 A  
HETATM   20  C   UNL     1     -12.237  14.224  71.059  1.00  0.00    -0.428 A  
HETATM   21  C   UNL     1     -12.155  13.031  70.345  1.00  0.00    -0.391 A  
ENDBRANCH  13  16
ENDBRANCH  11  13
ENDBRANCH  10  11
ENDBRANCH   8  10
TORSDOF 4
ENDMDL
MODEL      102
REMARK 921   NORMALIZED FREE ENERGY PREDICTED BY IDOCK:   -4.31 KCAL/MOL
REMARK 922        TOTAL FREE ENERGY PREDICTED BY IDOCK:   -6.24 KCAL/MOL
REMARK 923 INTER-LIGAND FREE ENERGY PREDICTED BY IDOCK:   -6.27 KCAL/MOL
REMARK 924 INTRA-LIGAND FREE ENERGY PREDICTED BY IDOCK:    0.03 KCAL/MOL
REMARK 927      BINDING AFFINITY PREDICTED BY RF-SCORE:    0.00 PKD
ROOT
HETATM    1  C   UNL     1      -8.972  16.112  67.688  1.00  0.00    -0.191 C  
HETATM    2  C   UNL     1      -9.020  16.337  69.203  1.00  0.00    -0.219 C  
HETATM    3  C   UNL     1     -10.508  16.460  69.526  1.00  0.00    -0.301 C  
HETATM    4  C   UNL     1     -11.210  16.234  68.185  1.00  0.00    -0.298 C  
HETATM    5  C   UNL     1     -11.509  14.742  67.971  1.00  0.00    -0.351 C  
HETATM    6  N   UNL     1     -10.207  16.763  67.255  1.00  0.00    -0.286 NA 
HETATM    7  C   UNL     1     -10.519  16.638  65.841  1.00  0.00    -0.313 C  
HETATM    8  C   UNL     1     -10.294  13.890  67.575  1.00  0.00    -0.245 C  
HETATM    9  C   UNL     1      -8.957  14.621  67.348  1.00  0.00    -0.202 C  
ENDROOT
BRANCH   8  10
HETATM   10  O   UNL     1     -10.042  12.865  68.554  1.00  0.00    -0.233 OA 
BRANCH  10  11
HETATM   11  C   UNL     1      -9.511  11.722  68.015  1.00  0.00    -0.188 C  
HETATM   12  O   UNL     1      -8.343  11.375  68.151  1.00  0.00    -0.135 OA 
BRANCH  11  13
HETATM   13  C   UNL     1     -10.600  10.916  67.293  1.00  0.00    -0.251 C  
HETATM   14  O   UNL     1     -11.805  10.939  68.074  1.00  0.00    -0.681 OA 
HETATM   15  H   UNL     1     -12.478  10.440  67.628  1.00  0.00     0.000 HD 
BRANCH  13  16
HETATM   16  C   UNL     1     -10.895  11.366  65.877  1.00  0.00    -0.292 A  
HETATM   17  C   UNL     1     -10.135  10.913  64.788  1.00  0.00    -0.383 A  
HETATM   18  C   UNL     1     -10.450  11.309  63.487  1.00  0.00    -0.457 A  
HETATM   19  C   UNL     1     -11.538  12.148  63.254  1.00  0.00    -0.418 A  
HETATM   20  C   UNL     1     -12.318  12.585  64.317  1.00  0.00    -0.541 A  
HETATM   21  C   UNL     1     -12.007  12.190  65.616  1.00  0.00    -0.280 A  
ENDBRANCH  13  16
ENDBRANCH  11  13
ENDBRANCH  10  11
ENDBRANCH   8  10
TORSDOF 4
ENDMDL
MODEL      103
REMARK 921   NORMALIZED FREE ENERGY PREDICTED BY IDOCK:   -4.28 KCAL/MOL
REMARK 922        TOTAL FREE ENERGY PREDICTED BY IDOCK:   -6.21 KCAL/MOL
REMARK 923 INTER-LIGAND FREE ENERGY PREDICTED BY IDOCK:   -5.84 KCAL/MOL
REMARK 924 INTRA-LIGAND FREE ENERGY PREDICTED BY IDOCK:   -0.37 KCAL/MOL
REMARK 927      BINDING AFFINITY PREDICTED BY RF-SCORE:    0.00 PKD
ROOT
HETATM    1  C   UNL     1      -9.562   8.838  66.085  1.00  0.00    -0.253 C  
HETATM    2  C   UNL     1     -10.595   8.029  66.877  1.00  0.00    -0.324 C  
HETATM    3  C   UNL     1     -10.330   8.393  68.336  1.00  0.00    -0.239 C  
HETATM    4  C   UNL     1      -9.208   9.432  68.274  1.00  0.00    -0.130 C  
HETATM    5  C   UNL     1      -9.785  10.851  68.157  1.00  0.00    -0.174 C  
HETATM    6  N   UNL     1      -8.494   8.995  67.071  1.00  0.00    -0.119 NA 
HETATM    7  C   UNL     1      -7.374   9.824  66.656  1.00  0.00    -0.094 C  
HETATM    8  C   UNL     1     -10.317  11.218  66.763  1.00  0.00    -0.238 C  
HETATM    9  C   UNL     1     -10.134  10.183  65.637  1.00  0.00    -0.324 C  
ENDROOT
BRANCH   8  10
HETATM   10  O   UNL     1     -11.722  11.528  66.813  1.00  0.00    -0.510 OA 
BRANCH  10  11
HETATM   11  C   UNL     1     -12.010  12.799  66.387  1.00  0.00    -0.375 C  
HETATM   12  O   UNL     1     -12.939  13.080  65.639  1.00  0.00    -0.402 OA 
BRANCH  11  13
HETATM   13  C   UNL     1     -11.057  13.811  67.041  1.00  0.00    -0.302 C  
HETATM   14  O   UNL     1     -10.917  14.954  66.183  1.00  0.00    -0.324 OA 
HETATM   15  H   UNL     1     -10.328  15.580  66.587  1.00  0.00     0.000 HD 
BRANCH  13  16
HETATM   16  C   UNL     1     -11.456  14.256  68.432  1.00  0.00    -0.331 A  
HETATM   17  C   UNL     1     -11.230  15.568  68.878  1.00  0.00    -0.306 A  
HETATM   18  C   UNL     1     -11.642  15.968  70.149  1.00  0.00    -0.324 A  
HETATM   19  C   UNL     1     -12.302  15.070  70.987  1.00  0.00    -0.394 A  
HETATM   20  C   UNL     1     -12.559  13.776  70.553  1.00  0.00    -0.361 A  
HETATM   21  C   UNL     1     -12.150  13.374  69.284  1.00  0.00    -0.312 A  
ENDBRANCH  13  16
ENDBRANCH  11  13
ENDBRANCH  10  11
ENDBRANCH   8  10
TORSDOF 4
ENDMDL
MODEL      104
REMARK 921   NORMALIZED FREE ENERGY PREDICTED BY IDOCK:   -4.27 KCAL/MOL
REMARK 922        TOTAL FREE ENERGY PREDICTED BY IDOCK:   -6.19 KCAL/MOL
REMARK 923 INTER-LIGAND FREE ENERGY PREDICTED BY IDOCK:   -5.51 KCAL/MOL
REMARK 924 INTRA-LIGAND FREE ENERGY PREDICTED BY IDOCK:   -0.68 KCAL/MOL
REMARK 927      BINDING AFFINITY PREDICTED BY RF-SCORE:    0.00 PKD
ROOT
HETATM    1  C   UNL     1      -8.185   9.414  65.357  1.00  0.00    -0.125 C  
HETATM    2  C   UNL     1      -8.774   8.000  65.383  1.00  0.00    -0.101 C  
HETATM    3  C   UNL     1      -8.255   7.390  66.683  1.00  0.00    -0.125 C  
HETATM    4  C   UNL     1      -7.456   8.517  67.342  1.00  0.00    -0.093 C  
HETATM    5  C   UNL     1      -8.359   9.367  68.249  1.00  0.00    -0.119 C  
HETATM    6  N   UNL     1      -6.975   9.242  66.161  1.00  0.00    -0.085 NA 
HETATM    7  C   UNL     1      -6.217  10.454  66.420  1.00  0.00    -0.087 C  
HETATM    8  C   UNL     1      -9.285  10.342  67.508  1.00  0.00    -0.145 C  
HETATM    9  C   UNL     1      -9.147  10.429  65.976  1.00  0.00    -0.187 C  
ENDROOT
BRANCH   8  10
HETATM   10  O   UNL     1     -10.668  10.047  67.779  1.00  0.00    -0.243 OA 
BRANCH  10  11
HETATM   11  C   UNL     1     -11.386  11.144  68.180  1.00  0.00    -0.309 C  
HETATM   12  O   UNL     1     -12.185  11.741  67.468  1.00  0.00    -0.526 OA 
BRANCH  11  13
HETATM   13  C   UNL     1     -11.100  11.460  69.655  1.00  0.00    -0.174 C  
HETATM   14  O   UNL     1     -11.598  12.771  69.965  1.00  0.00    -0.495 OA 
HETATM   15  H   UNL     1     -11.421  12.967  70.877  1.00  0.00     0.000 HD 
BRANCH  13  16
HETATM   16  C   UNL     1     -11.653  10.453  70.642  1.00  0.00    -0.440 A  
HETATM   17  C   UNL     1     -13.007  10.451  71.010  1.00  0.00    -0.490 A  
HETATM   18  C   UNL     1     -13.503   9.488  71.891  1.00  0.00    -0.502 A  
HETATM   19  C   UNL     1     -12.659   8.503  72.401  1.00  0.00    -0.409 A  
HETATM   20  C   UNL     1     -11.321   8.474  72.026  1.00  0.00    -0.425 A  
HETATM   21  C   UNL     1     -10.824   9.432  71.147  1.00  0.00    -0.427 A  
ENDBRANCH  13  16
ENDBRANCH  11  13
ENDBRANCH  10  11
ENDBRANCH   8  10
TORSDOF 4
ENDMDL
MODEL      105
REMARK 921   NORMALIZED FREE ENERGY PREDICTED BY IDOCK:   -4.26 KCAL/MOL
REMARK 922        TOTAL FREE ENERGY PREDICTED BY IDOCK:   -6.18 KCAL/MOL
REMARK 923 INTER-LIGAND FREE ENERGY PREDICTED BY IDOCK:   -5.56 KCAL/MOL
REMARK 924 INTRA-LIGAND FREE ENERGY PREDICTED BY IDOCK:   -0.62 KCAL/MOL
REMARK 927      BINDING AFFINITY PREDICTED BY RF-SCORE:    0.00 PKD
ROOT
HETATM    1  C   UNL     1      -9.792  10.846  68.291  1.00  0.00    -0.170 C  
HETATM    2  C   UNL     1      -8.535  11.723  68.272  1.00  0.00    -0.161 C  
HETATM    3  C   UNL     1      -7.733  11.218  67.075  1.00  0.00    -0.147 C  
HETATM    4  C   UNL     1      -8.613  10.132  66.454  1.00  0.00    -0.130 C  
HETATM    5  C   UNL     1      -9.562  10.731  65.405  1.00  0.00    -0.272 C  
HETATM    6  N   UNL     1      -9.309   9.628  67.643  1.00  0.00    -0.127 NA 
HETATM    7  C   UNL     1     -10.312   8.602  67.409  1.00  0.00    -0.284 C  
HETATM    8  C   UNL     1     -10.764  11.495  65.982  1.00  0.00    -0.281 C  
HETATM    9  C   UNL     1     -10.936  11.497  67.513  1.00  0.00    -0.308 C  
ENDROOT
BRANCH   8  10
HETATM   10  O   UNL     1     -10.746  12.874  65.569  1.00  0.00    -0.272 OA 
BRANCH  10  11
HETATM   11  C   UNL     1     -11.985  13.459  65.586  1.00  0.00    -0.401 C  
HETATM   12  O   UNL     1     -12.948  13.049  64.949  1.00  0.00    -0.739 OA 
BRANCH  11  13
HETATM   13  C   UNL     1     -12.006  14.638  66.570  1.00  0.00    -0.268 C  
HETATM   14  O   UNL     1     -12.551  14.201  67.824  1.00  0.00    -0.459 OA 
HETATM   15  H   UNL     1     -12.564  14.930  68.432  1.00  0.00     0.000 HD 
BRANCH  13  16
HETATM   16  C   UNL     1     -10.664  15.305  66.795  1.00  0.00    -0.313 A  
HETATM   17  C   UNL     1      -9.918  15.079  67.963  1.00  0.00    -0.219 A  
HETATM   18  C   UNL     1      -8.666  15.671  68.132  1.00  0.00    -0.168 A  
HETATM   19  C   UNL     1      -8.134  16.483  67.131  1.00  0.00    -0.213 A  
HETATM   20  C   UNL     1      -8.846  16.695  65.958  1.00  0.00    -0.242 A  
HETATM   21  C   UNL     1     -10.095  16.104  65.786  1.00  0.00    -0.390 A  
ENDBRANCH  13  16
ENDBRANCH  11  13
ENDBRANCH  10  11
ENDBRANCH   8  10
TORSDOF 4
ENDMDL
MODEL      106
REMARK 921   NORMALIZED FREE ENERGY PREDICTED BY IDOCK:   -4.25 KCAL/MOL
REMARK 922        TOTAL FREE ENERGY PREDICTED BY IDOCK:   -6.16 KCAL/MOL
REMARK 923 INTER-LIGAND FREE ENERGY PREDICTED BY IDOCK:   -5.79 KCAL/MOL
REMARK 924 INTRA-LIGAND FREE ENERGY PREDICTED BY IDOCK:   -0.37 KCAL/MOL
REMARK 927      BINDING AFFINITY PREDICTED BY RF-SCORE:    0.00 PKD
ROOT
HETATM    1  C   UNL     1     -10.527  11.023  66.871  1.00  0.00    -0.246 C  
HETATM    2  C   UNL     1     -10.009   9.714  66.264  1.00  0.00    -0.335 C  
HETATM    3  C   UNL     1      -8.637   9.510  66.903  1.00  0.00    -0.132 C  
HETATM    4  C   UNL     1      -8.492  10.681  67.879  1.00  0.00    -0.120 C  
HETATM    5  C   UNL     1      -9.050  10.312  69.261  1.00  0.00    -0.206 C  
HETATM    6  N   UNL     1      -9.278  11.711  67.192  1.00  0.00    -0.173 NA 
HETATM    7  C   UNL     1      -9.421  12.977  67.892  1.00  0.00    -0.219 C  
HETATM    8  C   UNL     1     -10.583  10.311  69.359  1.00  0.00    -0.237 C  
HETATM    9  C   UNL     1     -11.375  10.760  68.116  1.00  0.00    -0.377 C  
ENDROOT
BRANCH   8  10
HETATM   10  O   UNL     1     -11.077   9.005  69.711  1.00  0.00    -0.206 OA 
BRANCH  10  11
HETATM   11  C   UNL     1     -11.819   9.001  70.864  1.00  0.00    -0.253 C  
HETATM   12  O   UNL     1     -12.129  10.010  71.486  1.00  0.00    -0.381 OA 
BRANCH  11  13
HETATM   13  C   UNL     1     -12.262   7.571  71.209  1.00  0.00    -0.329 C  
HETATM   14  O   UNL     1     -12.209   6.759  70.025  1.00  0.00    -0.641 OA 
HETATM   15  H   UNL     1     -12.483   5.875  70.238  1.00  0.00     0.000 HD 
BRANCH  13  16
HETATM   16  C   UNL     1     -11.476   6.911  72.323  1.00  0.00    -0.313 A  
HETATM   17  C   UNL     1     -10.675   7.658  73.200  1.00  0.00    -0.445 A  
HETATM   18  C   UNL     1      -9.992   7.034  74.245  1.00  0.00    -0.235 A  
HETATM   19  C   UNL     1     -10.112   5.659  74.439  1.00  0.00    -0.287 A  
HETATM   20  C   UNL     1     -10.922   4.908  73.596  1.00  0.00    -0.387 A  
HETATM   21  C   UNL     1     -11.606   5.528  72.554  1.00  0.00    -0.272 A  
ENDBRANCH  13  16
ENDBRANCH  11  13
ENDBRANCH  10  11
ENDBRANCH   8  10
TORSDOF 4
ENDMDL
MODEL      107
REMARK 921   NORMALIZED FREE ENERGY PREDICTED BY IDOCK:   -4.25 KCAL/MOL
REMARK 922        TOTAL FREE ENERGY PREDICTED BY IDOCK:   -6.16 KCAL/MOL
REMARK 923 INTER-LIGAND FREE ENERGY PREDICTED BY IDOCK:   -5.46 KCAL/MOL
REMARK 924 INTRA-LIGAND FREE ENERGY PREDICTED BY IDOCK:   -0.71 KCAL/MOL
REMARK 927      BINDING AFFINITY PREDICTED BY RF-SCORE:    0.00 PKD
ROOT
HETATM    1  C   UNL     1      -7.225  19.357  66.244  1.00  0.00    -0.254 C  
HETATM    2  C   UNL     1      -5.808  19.309  66.825  1.00  0.00    -0.169 C  
HETATM    3  C   UNL     1      -5.999  19.520  68.325  1.00  0.00    -0.241 C  
HETATM    4  C   UNL     1      -7.516  19.612  68.508  1.00  0.00    -0.334 C  
HETATM    5  C   UNL     1      -8.121  18.222  68.755  1.00  0.00    -0.260 C  
HETATM    6  N   UNL     1      -7.914  20.197  67.223  1.00  0.00    -0.315 NA 
HETATM    7  C   UNL     1      -9.343  20.362  67.012  1.00  0.00    -0.377 C  
HETATM    8  C   UNL     1      -8.240  17.337  67.505  1.00  0.00    -0.195 C  
HETATM    9  C   UNL     1      -7.837  17.959  66.154  1.00  0.00    -0.257 C  
ENDROOT
BRANCH   8  10
HETATM   10  O   UNL     1      -7.466  16.132  67.650  1.00  0.00    -0.128 OA 
BRANCH  10  11
HETATM   11  C   UNL     1      -8.044  15.217  68.491  1.00  0.00    -0.145 C  
HETATM   12  O   UNL     1      -7.496  14.753  69.485  1.00  0.00    -0.166 OA 
BRANCH  11  13
HETATM   13  C   UNL     1      -9.486  14.925  68.053  1.00  0.00    -0.198 C  
HETATM   14  O   UNL     1      -9.510  13.722  67.269  1.00  0.00    -0.221 OA 
HETATM   15  H   UNL     1     -10.402  13.541  66.998  1.00  0.00     0.000 HD 
BRANCH  13  16
HETATM   16  C   UNL     1     -10.488  14.823  69.185  1.00  0.00    -0.243 A  
HETATM   17  C   UNL     1     -10.710  15.890  70.069  1.00  0.00    -0.343 A  
HETATM   18  C   UNL     1     -11.667  15.789  71.079  1.00  0.00    -0.462 A  
HETATM   19  C   UNL     1     -12.429  14.629  71.210  1.00  0.00    -0.408 A  
HETATM   20  C   UNL     1     -12.242  13.573  70.327  1.00  0.00    -0.417 A  
HETATM   21  C   UNL     1     -11.289  13.672  69.317  1.00  0.00    -0.323 A  
ENDBRANCH  13  16
ENDBRANCH  11  13
ENDBRANCH  10  11
ENDBRANCH   8  10
TORSDOF 4
ENDMDL
MODEL      108
REMARK 921   NORMALIZED FREE ENERGY PREDICTED BY IDOCK:   -4.23 KCAL/MOL
REMARK 922        TOTAL FREE ENERGY PREDICTED BY IDOCK:   -6.13 KCAL/MOL
REMARK 923 INTER-LIGAND FREE ENERGY PREDICTED BY IDOCK:   -5.75 KCAL/MOL
REMARK 924 INTRA-LIGAND FREE ENERGY PREDICTED BY IDOCK:   -0.39 KCAL/MOL
REMARK 927      BINDING AFFINITY PREDICTED BY RF-SCORE:    0.00 PKD
ROOT
HETATM    1  C   UNL     1     -11.017   6.932  69.662  1.00  0.00    -0.259 C  
HETATM    2  C   UNL     1     -11.558   7.259  71.058  1.00  0.00    -0.329 C  
HETATM    3  C   UNL     1     -10.325   7.256  71.959  1.00  0.00    -0.217 C  
HETATM    4  C   UNL     1      -9.157   6.991  71.007  1.00  0.00    -0.151 C  
HETATM    5  C   UNL     1      -8.593   8.309  70.454  1.00  0.00    -0.134 C  
HETATM    6  N   UNL     1      -9.813   6.168  69.986  1.00  0.00    -0.167 NA 
HETATM    7  C   UNL     1      -8.991   5.782  68.850  1.00  0.00    -0.113 C  
HETATM    8  C   UNL     1      -9.446   8.967  69.359  1.00  0.00    -0.161 C  
HETATM    9  C   UNL     1     -10.697   8.205  68.878  1.00  0.00    -0.090 C  
ENDROOT
BRANCH   8  10
HETATM   10  O   UNL     1      -9.893  10.273  69.768  1.00  0.00    -0.224 OA 
BRANCH  10  11
HETATM   11  C   UNL     1      -9.811  11.209  68.770  1.00  0.00    -0.192 C  
HETATM   12  O   UNL     1      -8.820  11.383  68.070  1.00  0.00    -0.143 OA 
BRANCH  11  13
HETATM   13  C   UNL     1     -11.151  11.941  68.612  1.00  0.00    -0.246 C  
HETATM   14  O   UNL     1     -11.988  11.208  67.704  1.00  0.00    -0.613 OA 
HETATM   15  H   UNL     1     -12.817  11.661  67.606  1.00  0.00     0.000 HD 
BRANCH  13  16
HETATM   16  C   UNL     1     -11.895  12.198  69.906  1.00  0.00    -0.392 A  
HETATM   17  C   UNL     1     -12.127  13.500  70.375  1.00  0.00    -0.415 A  
HETATM   18  C   UNL     1     -12.850  13.715  71.550  1.00  0.00    -0.445 A  
HETATM   19  C   UNL     1     -13.367  12.634  72.262  1.00  0.00    -0.527 A  
HETATM   20  C   UNL     1     -13.171  11.339  71.798  1.00  0.00    -0.480 A  
HETATM   21  C   UNL     1     -12.451  11.122  70.626  1.00  0.00    -0.448 A  
ENDBRANCH  13  16
ENDBRANCH  11  13
ENDBRANCH  10  11
ENDBRANCH   8  10
TORSDOF 4
ENDMDL
MODEL      109
REMARK 921   NORMALIZED FREE ENERGY PREDICTED BY IDOCK:   -4.22 KCAL/MOL
REMARK 922        TOTAL FREE ENERGY PREDICTED BY IDOCK:   -6.13 KCAL/MOL
REMARK 923 INTER-LIGAND FREE ENERGY PREDICTED BY IDOCK:   -5.97 KCAL/MOL
REMARK 924 INTRA-LIGAND FREE ENERGY PREDICTED BY IDOCK:   -0.16 KCAL/MOL
REMARK 927      BINDING AFFINITY PREDICTED BY RF-SCORE:    0.00 PKD
ROOT
HETATM    1  C   UNL     1     -10.546  12.915  64.054  1.00  0.00    -0.389 C  
HETATM    2  C   UNL     1     -11.975  12.983  63.503  1.00  0.00    -0.615 C  
HETATM    3  C   UNL     1     -12.831  12.306  64.570  1.00  0.00    -0.228 C  
HETATM    4  C   UNL     1     -11.844  11.954  65.686  1.00  0.00    -0.043 C  
HETATM    5  C   UNL     1     -11.726  13.107  66.693  1.00  0.00    -0.427 C  
HETATM    6  N   UNL     1     -10.619  11.733  64.911  1.00  0.00    -0.282 NA 
HETATM    7  C   UNL     1      -9.420  11.442  65.681  1.00  0.00    -0.230 C  
HETATM    8  C   UNL     1     -10.888  14.301  66.213  1.00  0.00    -0.310 C  
HETATM    9  C   UNL     1     -10.194  14.177  64.842  1.00  0.00    -0.371 C  
ENDROOT
BRANCH   8  10
HETATM   10  O   UNL     1     -11.680  15.503  66.165  1.00  0.00     0.081 OA 
BRANCH  10  11
HETATM   11  C   UNL     1     -11.031  16.555  65.573  1.00  0.00    -0.092 C  
HETATM   12  O   UNL     1     -11.063  16.794  64.371  1.00  0.00    -1.072 OA 
BRANCH  11  13
HETATM   13  C   UNL     1     -10.334  17.418  66.634  1.00  0.00    -0.306 C  
HETATM   14  O   UNL     1     -10.880  17.115  67.927  1.00  0.00    -0.363 OA 
HETATM   15  H   UNL     1     -10.449  17.649  68.583  1.00  0.00     0.000 HD 
BRANCH  13  16
HETATM   16  C   UNL     1      -8.825  17.292  66.669  1.00  0.00    -0.280 A  
HETATM   17  C   UNL     1      -7.997  18.174  65.958  1.00  0.00    -0.150 A  
HETATM   18  C   UNL     1      -6.608  18.065  66.037  1.00  0.00    -0.310 A  
HETATM   19  C   UNL     1      -6.026  17.085  66.841  1.00  0.00    -0.226 A  
HETATM   20  C   UNL     1      -6.830  16.221  67.573  1.00  0.00    -0.189 A  
HETATM   21  C   UNL     1      -8.217  16.329  67.497  1.00  0.00    -0.165 A  
ENDBRANCH  13  16
ENDBRANCH  11  13
ENDBRANCH  10  11
ENDBRANCH   8  10
TORSDOF 4
ENDMDL
MODEL      110
REMARK 921   NORMALIZED FREE ENERGY PREDICTED BY IDOCK:   -4.22 KCAL/MOL
REMARK 922        TOTAL FREE ENERGY PREDICTED BY IDOCK:   -6.13 KCAL/MOL
REMARK 923 INTER-LIGAND FREE ENERGY PREDICTED BY IDOCK:   -5.61 KCAL/MOL
REMARK 924 INTRA-LIGAND FREE ENERGY PREDICTED BY IDOCK:   -0.52 KCAL/MOL
REMARK 927      BINDING AFFINITY PREDICTED BY RF-SCORE:    0.00 PKD
ROOT
HETATM    1  C   UNL     1      -8.718  19.565  68.121  1.00  0.00    -0.324 C  
HETATM    2  C   UNL     1     -10.134  20.133  68.263  1.00  0.00    -0.471 C  
HETATM    3  C   UNL     1     -10.866  19.657  67.011  1.00  0.00    -0.518 C  
HETATM    4  C   UNL     1      -9.839  18.798  66.271  1.00  0.00    -0.353 C  
HETATM    5  C   UNL     1      -9.925  17.333  66.724  1.00  0.00    -0.301 C  
HETATM    6  N   UNL     1      -8.590  19.455  66.669  1.00  0.00    -0.313 NA 
HETATM    7  C   UNL     1      -7.363  18.839  66.192  1.00  0.00    -0.262 C  
HETATM    8  C   UNL     1      -9.301  17.044  68.098  1.00  0.00    -0.254 C  
HETATM    9  C   UNL     1      -8.591  18.208  68.814  1.00  0.00    -0.222 C  
ENDROOT
BRANCH   8  10
HETATM   10  O   UNL     1     -10.288  16.537  69.016  1.00  0.00    -0.257 OA 
BRANCH  10  11
HETATM   11  C   UNL     1      -9.920  15.356  69.606  1.00  0.00    -0.264 C  
HETATM   12  O   UNL     1     -10.294  14.996  70.716  1.00  0.00     0.047 OA 
BRANCH  11  13
HETATM   13  C   UNL     1      -9.046  14.531  68.650  1.00  0.00    -0.187 C  
HETATM   14  O   UNL     1      -7.941  13.973  69.379  1.00  0.00    -0.338 OA 
HETATM   15  H   UNL     1      -7.401  13.463  68.788  1.00  0.00     0.000 HD 
BRANCH  13  16
HETATM   16  C   UNL     1      -9.776  13.434  67.903  1.00  0.00    -0.226 A  
HETATM   17  C   UNL     1     -11.160  13.246  68.043  1.00  0.00    -0.282 A  
HETATM   18  C   UNL     1     -11.820  12.256  67.314  1.00  0.00    -0.330 A  
HETATM   19  C   UNL     1     -11.111  11.452  66.422  1.00  0.00    -0.301 A  
HETATM   20  C   UNL     1      -9.746  11.643  66.251  1.00  0.00    -0.241 A  
HETATM   21  C   UNL     1      -9.086  12.631  66.976  1.00  0.00    -0.215 A  
ENDBRANCH  13  16
ENDBRANCH  11  13
ENDBRANCH  10  11
ENDBRANCH   8  10
TORSDOF 4
ENDMDL
MODEL      111
REMARK 921   NORMALIZED FREE ENERGY PREDICTED BY IDOCK:   -4.22 KCAL/MOL
REMARK 922        TOTAL FREE ENERGY PREDICTED BY IDOCK:   -6.13 KCAL/MOL
REMARK 923 INTER-LIGAND FREE ENERGY PREDICTED BY IDOCK:   -5.46 KCAL/MOL
REMARK 924 INTRA-LIGAND FREE ENERGY PREDICTED BY IDOCK:   -0.67 KCAL/MOL
REMARK 927      BINDING AFFINITY PREDICTED BY RF-SCORE:    0.00 PKD
ROOT
HETATM    1  C   UNL     1      -9.001   8.474  66.104  1.00  0.00    -0.179 C  
HETATM    2  C   UNL     1      -7.974   8.228  67.214  1.00  0.00    -0.105 C  
HETATM    3  C   UNL     1      -6.948   9.346  67.042  1.00  0.00    -0.085 C  
HETATM    4  C   UNL     1      -7.491  10.190  65.887  1.00  0.00    -0.125 C  
HETATM    5  C   UNL     1      -8.420  11.296  66.409  1.00  0.00    -0.169 C  
HETATM    6  N   UNL     1      -8.191   9.167  65.103  1.00  0.00    -0.137 NA 
HETATM    7  C   UNL     1      -8.911   9.641  63.932  1.00  0.00    -0.218 C  
HETATM    8  C   UNL     1      -9.819  10.819  66.831  1.00  0.00    -0.187 C  
HETATM    9  C   UNL     1     -10.162   9.335  66.601  1.00  0.00    -0.323 C  
ENDROOT
BRANCH   8  10
HETATM   10  O   UNL     1     -10.056  11.085  68.226  1.00  0.00    -0.166 OA 
BRANCH  10  11
HETATM   11  C   UNL     1     -11.261  11.696  68.461  1.00  0.00    -0.256 C  
HETATM   12  O   UNL     1     -12.291  11.097  68.745  1.00  0.00    -0.539 OA 
BRANCH  11  13
HETATM   13  C   UNL     1     -11.108  13.222  68.396  1.00  0.00    -0.270 C  
HETATM   14  O   UNL     1      -9.811  13.591  68.891  1.00  0.00    -0.413 OA 
HETATM   15  H   UNL     1      -9.716  14.535  68.851  1.00  0.00     0.000 HD 
BRANCH  13  16
HETATM   16  C   UNL     1     -11.329  13.828  67.026  1.00  0.00    -0.345 A  
HETATM   17  C   UNL     1     -12.391  13.421  66.205  1.00  0.00    -0.440 A  
HETATM   18  C   UNL     1     -12.600  14.021  64.962  1.00  0.00    -0.416 A  
HETATM   19  C   UNL     1     -11.763  15.048  64.530  1.00  0.00    -0.372 A  
HETATM   20  C   UNL     1     -10.723  15.483  65.341  1.00  0.00    -0.422 A  
HETATM   21  C   UNL     1     -10.513  14.887  66.582  1.00  0.00    -0.292 A  
ENDBRANCH  13  16
ENDBRANCH  11  13
ENDBRANCH  10  11
ENDBRANCH   8  10
TORSDOF 4
ENDMDL
MODEL      112
REMARK 921   NORMALIZED FREE ENERGY PREDICTED BY IDOCK:   -4.20 KCAL/MOL
REMARK 922        TOTAL FREE ENERGY PREDICTED BY IDOCK:   -6.11 KCAL/MOL
REMARK 923 INTER-LIGAND FREE ENERGY PREDICTED BY IDOCK:   -5.67 KCAL/MOL
REMARK 924 INTRA-LIGAND FREE ENERGY PREDICTED BY IDOCK:   -0.44 KCAL/MOL
REMARK 927      BINDING AFFINITY PREDICTED BY RF-SCORE:    0.00 PKD
ROOT
HETATM    1  C   UNL     1     -10.858  11.268  66.137  1.00  0.00    -0.222 C  
HETATM    2  C   UNL     1     -10.157   9.906  66.142  1.00  0.00    -0.315 C  
HETATM    3  C   UNL     1      -8.741  10.204  66.629  1.00  0.00    -0.134 C  
HETATM    4  C   UNL     1      -8.748  11.704  66.930  1.00  0.00    -0.185 C  
HETATM    5  C   UNL     1      -9.167  11.967  68.384  1.00  0.00    -0.173 C  
HETATM    6  N   UNL     1      -9.729  12.178  65.949  1.00  0.00    -0.243 NA 
HETATM    7  C   UNL     1     -10.050  13.595  66.000  1.00  0.00    -0.312 C  
HETATM    8  C   UNL     1     -10.672  11.819  68.659  1.00  0.00    -0.220 C  
HETATM    9  C   UNL     1     -11.588  11.522  67.456  1.00  0.00    -0.322 C  
ENDROOT
BRANCH   8  10
HETATM   10  O   UNL     1     -10.920  10.785  69.630  1.00  0.00    -0.243 OA 
BRANCH  10  11
HETATM   11  C   UNL     1     -11.889  11.120  70.539  1.00  0.00    -0.351 C  
HETATM   12  O   UNL     1     -12.366  12.243  70.655  1.00  0.00    -0.354 OA 
BRANCH  11  13
HETATM   13  C   UNL     1     -12.336   9.878  71.325  1.00  0.00    -0.381 C  
HETATM   14  O   UNL     1     -13.603   9.429  70.822  1.00  0.00    -0.591 OA 
HETATM   15  H   UNL     1     -13.880   8.661  71.308  1.00  0.00     0.000 HD 
BRANCH  13  16
HETATM   16  C   UNL     1     -11.345   8.733  71.326  1.00  0.00    -0.357 A  
HETATM   17  C   UNL     1     -10.277   8.685  72.235  1.00  0.00    -0.372 A  
HETATM   18  C   UNL     1      -9.399   7.600  72.245  1.00  0.00    -0.199 A  
HETATM   19  C   UNL     1      -9.587   6.539  71.360  1.00  0.00    -0.174 A  
HETATM   20  C   UNL     1     -10.655   6.556  70.472  1.00  0.00    -0.282 A  
HETATM   21  C   UNL     1     -11.532   7.637  70.461  1.00  0.00    -0.236 A  
ENDBRANCH  13  16
ENDBRANCH  11  13
ENDBRANCH  10  11
ENDBRANCH   8  10
TORSDOF 4
ENDMDL
MODEL      113
REMARK 921   NORMALIZED FREE ENERGY PREDICTED BY IDOCK:   -4.18 KCAL/MOL
REMARK 922        TOTAL FREE ENERGY PREDICTED BY IDOCK:   -6.07 KCAL/MOL
REMARK 923 INTER-LIGAND FREE ENERGY PREDICTED BY IDOCK:   -5.26 KCAL/MOL
REMARK 924 INTRA-LIGAND FREE ENERGY PREDICTED BY IDOCK:   -0.81 KCAL/MOL
REMARK 927      BINDING AFFINITY PREDICTED BY RF-SCORE:    0.00 PKD
ROOT
HETATM    1  C   UNL     1     -10.425   7.856  67.311  1.00  0.00    -0.320 C  
HETATM    2  C   UNL     1     -11.098   6.483  67.217  1.00  0.00    -0.429 C  
HETATM    3  C   UNL     1      -9.943   5.499  67.044  1.00  0.00    -0.198 C  
HETATM    4  C   UNL     1      -8.686   6.369  67.116  1.00  0.00    -0.110 C  
HETATM    5  C   UNL     1      -8.193   6.497  68.565  1.00  0.00    -0.121 C  
HETATM    6  N   UNL     1      -9.190   7.629  66.561  1.00  0.00    -0.168 NA 
HETATM    7  C   UNL     1      -8.253   8.740  66.544  1.00  0.00    -0.111 C  
HETATM    8  C   UNL     1      -9.010   7.458  69.442  1.00  0.00    -0.139 C  
HETATM    9  C   UNL     1     -10.151   8.242  68.765  1.00  0.00    -0.212 C  
ENDROOT
BRANCH   8  10
HETATM   10  O   UNL     1      -9.595   6.765  70.560  1.00  0.00    -0.169 OA 
BRANCH  10  11
HETATM   11  C   UNL     1      -9.391   7.402  71.757  1.00  0.00    -0.145 C  
HETATM   12  O   UNL     1      -8.443   8.143  71.989  1.00  0.00    -0.127 OA 
BRANCH  11  13
HETATM   13  C   UNL     1     -10.552   7.115  72.720  1.00  0.00    -0.268 C  
HETATM   14  O   UNL     1     -10.192   7.548  74.041  1.00  0.00    -0.383 OA 
HETATM   15  H   UNL     1     -10.910   7.370  74.636  1.00  0.00     0.000 HD 
BRANCH  13  16
HETATM   16  C   UNL     1     -11.879   7.728  72.320  1.00  0.00    -0.378 A  
HETATM   17  C   UNL     1     -12.029   9.114  72.158  1.00  0.00    -0.364 A  
HETATM   18  C   UNL     1     -13.250   9.653  71.750  1.00  0.00    -0.520 A  
HETATM   19  C   UNL     1     -14.332   8.816  71.482  1.00  0.00    -0.342 A  
HETATM   20  C   UNL     1     -14.193   7.440  71.611  1.00  0.00    -0.583 A  
HETATM   21  C   UNL     1     -12.976   6.899  72.016  1.00  0.00    -0.178 A  
ENDBRANCH  13  16
ENDBRANCH  11  13
ENDBRANCH  10  11
ENDBRANCH   8  10
TORSDOF 4
ENDMDL
MODEL      114
REMARK 921   NORMALIZED FREE ENERGY PREDICTED BY IDOCK:   -4.12 KCAL/MOL
REMARK 922        TOTAL FREE ENERGY PREDICTED BY IDOCK:   -6.00 KCAL/MOL
REMARK 923 INTER-LIGAND FREE ENERGY PREDICTED BY IDOCK:   -5.40 KCAL/MOL
REMARK 924 INTRA-LIGAND FREE ENERGY PREDICTED BY IDOCK:   -0.61 KCAL/MOL
REMARK 927      BINDING AFFINITY PREDICTED BY RF-SCORE:    0.00 PKD
ROOT
HETATM    1  C   UNL     1      -8.460  19.624  66.120  1.00  0.00    -0.334 C  
HETATM    2  C   UNL     1      -6.958  19.880  65.953  1.00  0.00    -0.306 C  
HETATM    3  C   UNL     1      -6.463  20.193  67.363  1.00  0.00    -0.246 C  
HETATM    4  C   UNL     1      -7.701  20.032  68.248  1.00  0.00    -0.212 C  
HETATM    5  C   UNL     1      -7.828  18.586  68.750  1.00  0.00    -0.301 C  
HETATM    6  N   UNL     1      -8.762  20.416  67.311  1.00  0.00    -0.352 NA 
HETATM    7  C   UNL     1     -10.124  20.307  67.808  1.00  0.00    -0.364 C  
HETATM    8  C   UNL     1      -8.340  17.583  67.706  1.00  0.00    -0.220 C  
HETATM    9  C   UNL     1      -8.750  18.137  66.328  1.00  0.00    -0.195 C  
ENDROOT
BRANCH   8  10
HETATM   10  O   UNL     1      -7.365  16.551  67.461  1.00  0.00    -0.127 OA 
BRANCH  10  11
HETATM   11  C   UNL     1      -7.720  15.337  67.988  1.00  0.00    -0.126 C  
HETATM   12  O   UNL     1      -7.778  15.098  69.188  1.00  0.00    -0.165 OA 
BRANCH  11  13
HETATM   13  C   UNL     1      -8.104  14.360  66.867  1.00  0.00     0.054 C  
HETATM   14  O   UNL     1      -7.429  13.109  67.075  1.00  0.00    -0.373 OA 
HETATM   15  H   UNL     1      -7.666  12.505  66.382  1.00  0.00     0.000 HD 
BRANCH  13  16
HETATM   16  C   UNL     1      -9.592  14.122  66.709  1.00  0.00    -0.290 A  
HETATM   17  C   UNL     1     -10.375  13.639  67.769  1.00  0.00    -0.241 A  
HETATM   18  C   UNL     1     -11.751  13.465  67.614  1.00  0.00    -0.397 A  
HETATM   19  C   UNL     1     -12.367  13.789  66.406  1.00  0.00    -0.460 A  
HETATM   20  C   UNL     1     -11.612  14.294  65.355  1.00  0.00    -0.346 A  
HETATM   21  C   UNL     1     -10.238  14.470  65.508  1.00  0.00    -0.394 A  
ENDBRANCH  13  16
ENDBRANCH  11  13
ENDBRANCH  10  11
ENDBRANCH   8  10
TORSDOF 4
ENDMDL
MODEL      115
REMARK 921   NORMALIZED FREE ENERGY PREDICTED BY IDOCK:   -4.12 KCAL/MOL
REMARK 922        TOTAL FREE ENERGY PREDICTED BY IDOCK:   -6.00 KCAL/MOL
REMARK 923 INTER-LIGAND FREE ENERGY PREDICTED BY IDOCK:   -5.56 KCAL/MOL
REMARK 924 INTRA-LIGAND FREE ENERGY PREDICTED BY IDOCK:   -0.44 KCAL/MOL
REMARK 927      BINDING AFFINITY PREDICTED BY RF-SCORE:    0.00 PKD
ROOT
HETATM    1  C   UNL     1      -9.186  15.440  68.387  1.00  0.00    -0.192 C  
HETATM    2  C   UNL     1      -9.905  15.875  69.669  1.00  0.00    -0.238 C  
HETATM    3  C   UNL     1     -11.364  16.045  69.254  1.00  0.00    -0.356 C  
HETATM    4  C   UNL     1     -11.392  15.635  67.779  1.00  0.00    -0.261 C  
HETATM    5  C   UNL     1     -11.659  14.129  67.637  1.00  0.00    -0.394 C  
HETATM    6  N   UNL     1     -10.043  16.027  67.358  1.00  0.00    -0.253 NA 
HETATM    7  C   UNL     1      -9.684  15.707  65.986  1.00  0.00    -0.346 C  
HETATM    8  C   UNL     1     -10.456  13.227  67.952  1.00  0.00    -0.240 C  
HETATM    9  C   UNL     1      -9.117  13.917  68.278  1.00  0.00    -0.191 C  
ENDROOT
BRANCH   8  10
HETATM   10  O   UNL     1     -10.745  12.348  69.055  1.00  0.00    -0.192 OA 
BRANCH  10  11
HETATM   11  C   UNL     1     -11.053  11.072  68.662  1.00  0.00    -0.240 C  
HETATM   12  O   UNL     1     -12.077  10.765  68.062  1.00  0.00    -0.474 OA 
BRANCH  11  13
HETATM   13  C   UNL     1      -9.906  10.114  69.011  1.00  0.00    -0.205 C  
HETATM   14  O   UNL     1      -9.089  10.704  70.035  1.00  0.00    -0.286 OA 
HETATM   15  H   UNL     1      -8.379  10.111  70.250  1.00  0.00     0.000 HD 
BRANCH  13  16
HETATM   16  C   UNL     1     -10.339   8.725  69.434  1.00  0.00    -0.217 A  
HETATM   17  C   UNL     1      -9.969   7.585  68.704  1.00  0.00    -0.178 A  
HETATM   18  C   UNL     1     -10.346   6.312  69.134  1.00  0.00    -0.262 A  
HETATM   19  C   UNL     1     -11.081   6.158  70.309  1.00  0.00    -0.436 A  
HETATM   20  C   UNL     1     -11.433   7.273  71.058  1.00  0.00    -0.316 A  
HETATM   21  C   UNL     1     -11.058   8.545  70.632  1.00  0.00    -0.280 A  
ENDBRANCH  13  16
ENDBRANCH  11  13
ENDBRANCH  10  11
ENDBRANCH   8  10
TORSDOF 4
ENDMDL
MODEL      116
REMARK 921   NORMALIZED FREE ENERGY PREDICTED BY IDOCK:   -4.12 KCAL/MOL
REMARK 922        TOTAL FREE ENERGY PREDICTED BY IDOCK:   -6.00 KCAL/MOL
REMARK 923 INTER-LIGAND FREE ENERGY PREDICTED BY IDOCK:   -5.61 KCAL/MOL
REMARK 924 INTRA-LIGAND FREE ENERGY PREDICTED BY IDOCK:   -0.39 KCAL/MOL
REMARK 927      BINDING AFFINITY PREDICTED BY RF-SCORE:    0.00 PKD
ROOT
HETATM    1  C   UNL     1     -12.046  14.264  67.168  1.00  0.00    -0.377 C  
HETATM    2  C   UNL     1     -11.115  15.190  66.377  1.00  0.00    -0.312 C  
HETATM    3  C   UNL     1      -9.861  15.302  67.239  1.00  0.00    -0.220 C  
HETATM    4  C   UNL     1     -10.133  14.383  68.432  1.00  0.00    -0.244 C  
HETATM    5  C   UNL     1      -9.651  12.954  68.141  1.00  0.00    -0.223 C  
HETATM    6  N   UNL     1     -11.591  14.493  68.538  1.00  0.00    -0.297 NA 
HETATM    7  C   UNL     1     -12.222  13.667  69.555  1.00  0.00    -0.264 C  
HETATM    8  C   UNL     1     -10.560  12.145  67.203  1.00  0.00    -0.226 C  
HETATM    9  C   UNL     1     -11.873  12.806  66.741  1.00  0.00    -0.452 C  
ENDROOT
BRANCH   8  10
HETATM   10  O   UNL     1      -9.854  11.756  66.010  1.00  0.00    -0.220 OA 
BRANCH  10  11
HETATM   11  C   UNL     1      -9.096  10.626  66.175  1.00  0.00    -0.170 C  
HETATM   12  O   UNL     1      -7.926  10.629  66.539  1.00  0.00    -0.126 OA 
BRANCH  11  13
HETATM   13  C   UNL     1      -9.944   9.372  65.916  1.00  0.00    -0.256 C  
HETATM   14  O   UNL     1      -9.351   8.609  64.853  1.00  0.00    -0.389 OA 
HETATM   15  H   UNL     1      -9.875   7.833  64.693  1.00  0.00     0.000 HD 
BRANCH  13  16
HETATM   16  C   UNL     1     -10.162   8.487  67.126  1.00  0.00    -0.355 A  
HETATM   17  C   UNL     1      -9.883   8.938  68.426  1.00  0.00    -0.191 A  
HETATM   18  C   UNL     1     -10.129   8.121  69.529  1.00  0.00    -0.193 A  
HETATM   19  C   UNL     1     -10.674   6.849  69.353  1.00  0.00    -0.275 A  
HETATM   20  C   UNL     1     -10.981   6.397  68.076  1.00  0.00    -0.400 A  
HETATM   21  C   UNL     1     -10.738   7.211  66.973  1.00  0.00    -0.420 A  
ENDBRANCH  13  16
ENDBRANCH  11  13
ENDBRANCH  10  11
ENDBRANCH   8  10
TORSDOF 4
ENDMDL
MODEL      117
REMARK 921   NORMALIZED FREE ENERGY PREDICTED BY IDOCK:   -4.12 KCAL/MOL
REMARK 922        TOTAL FREE ENERGY PREDICTED BY IDOCK:   -6.00 KCAL/MOL
REMARK 923 INTER-LIGAND FREE ENERGY PREDICTED BY IDOCK:   -5.51 KCAL/MOL
REMARK 924 INTRA-LIGAND FREE ENERGY PREDICTED BY IDOCK:   -0.49 KCAL/MOL
REMARK 927      BINDING AFFINITY PREDICTED BY RF-SCORE:    0.00 PKD
ROOT
HETATM    1  C   UNL     1      -9.435   7.686  68.589  1.00  0.00    -0.151 C  
HETATM    2  C   UNL     1      -7.980   8.154  68.472  1.00  0.00    -0.126 C  
HETATM    3  C   UNL     1      -7.733   8.272  66.970  1.00  0.00    -0.096 C  
HETATM    4  C   UNL     1      -9.081   7.926  66.333  1.00  0.00    -0.179 C  
HETATM    5  C   UNL     1      -9.944   9.185  66.162  1.00  0.00    -0.338 C  
HETATM    6  N   UNL     1      -9.619   6.984  67.319  1.00  0.00    -0.135 NA 
HETATM    7  C   UNL     1     -10.962   6.490  67.065  1.00  0.00    -0.396 C  
HETATM    8  C   UNL     1     -10.593   9.703  67.454  1.00  0.00    -0.268 C  
HETATM    9  C   UNL     1     -10.390   8.870  68.734  1.00  0.00    -0.232 C  
ENDROOT
BRANCH   8  10
HETATM   10  O   UNL     1     -10.146  11.038  67.756  1.00  0.00    -0.173 OA 
BRANCH  10  11
HETATM   11  C   UNL     1     -10.815  12.004  67.050  1.00  0.00    -0.253 C  
HETATM   12  O   UNL     1     -12.035  12.115  67.022  1.00  0.00    -0.593 OA 
BRANCH  11  13
HETATM   13  C   UNL     1      -9.818  12.958  66.375  1.00  0.00    -0.268 C  
HETATM   14  O   UNL     1      -9.880  12.779  64.951  1.00  0.00    -0.485 OA 
HETATM   15  H   UNL     1      -9.264  13.369  64.534  1.00  0.00     0.000 HD 
BRANCH  13  16
HETATM   16  C   UNL     1     -10.002  14.421  66.720  1.00  0.00    -0.265 A  
HETATM   17  C   UNL     1     -10.155  15.397  65.723  1.00  0.00    -0.391 A  
HETATM   18  C   UNL     1     -10.363  16.735  66.063  1.00  0.00    -0.346 A  
HETATM   19  C   UNL     1     -10.441  17.113  67.403  1.00  0.00    -0.334 A  
HETATM   20  C   UNL     1     -10.319  16.156  68.402  1.00  0.00    -0.257 A  
HETATM   21  C   UNL     1     -10.112  14.821  68.065  1.00  0.00    -0.218 A  
ENDBRANCH  13  16
ENDBRANCH  11  13
ENDBRANCH  10  11
ENDBRANCH   8  10
TORSDOF 4
ENDMDL
MODEL      118
REMARK 921   NORMALIZED FREE ENERGY PREDICTED BY IDOCK:   -4.06 KCAL/MOL
REMARK 922        TOTAL FREE ENERGY PREDICTED BY IDOCK:   -5.93 KCAL/MOL
REMARK 923 INTER-LIGAND FREE ENERGY PREDICTED BY IDOCK:   -5.52 KCAL/MOL
REMARK 924 INTRA-LIGAND FREE ENERGY PREDICTED BY IDOCK:   -0.41 KCAL/MOL
REMARK 927      BINDING AFFINITY PREDICTED BY RF-SCORE:    0.00 PKD
ROOT
HETATM    1  C   UNL     1     -10.772   8.054  69.505  1.00  0.00    -0.181 C  
HETATM    2  C   UNL     1     -11.471   8.699  70.707  1.00  0.00    -0.293 C  
HETATM    3  C   UNL     1     -10.337   9.056  71.665  1.00  0.00    -0.420 C  
HETATM    4  C   UNL     1      -9.064   8.649  70.919  1.00  0.00    -0.187 C  
HETATM    5  C   UNL     1      -8.537   9.811  70.064  1.00  0.00    -0.229 C  
HETATM    6  N   UNL     1      -9.559   7.521  70.123  1.00  0.00    -0.168 NA 
HETATM    7  C   UNL     1      -8.604   6.916  69.210  1.00  0.00    -0.132 C  
HETATM    8  C   UNL     1      -9.318  10.063  68.766  1.00  0.00    -0.162 C  
HETATM    9  C   UNL     1     -10.460   9.088  68.423  1.00  0.00    -0.234 C  
ENDROOT
BRANCH   8  10
HETATM   10  O   UNL     1      -9.889  11.385  68.755  1.00  0.00    -0.205 OA 
BRANCH  10  11
HETATM   11  C   UNL     1      -9.311  12.216  67.831  1.00  0.00    -0.192 C  
HETATM   12  O   UNL     1      -8.158  12.104  67.432  1.00  0.00    -0.153 OA 
BRANCH  11  13
HETATM   13  C   UNL     1     -10.333  13.243  67.322  1.00  0.00    -0.247 C  
HETATM   14  O   UNL     1      -9.720  14.541  67.281  1.00  0.00    -0.225 OA 
HETATM   15  H   UNL     1     -10.352  15.176  66.966  1.00  0.00     0.000 HD 
BRANCH  13  16
HETATM   16  C   UNL     1     -10.947  12.919  65.976  1.00  0.00    -0.301 A  
HETATM   17  C   UNL     1     -12.334  12.973  65.769  1.00  0.00    -0.477 A  
HETATM   18  C   UNL     1     -12.875  12.709  64.510  1.00  0.00    -0.356 A  
HETATM   19  C   UNL     1     -12.039  12.407  63.436  1.00  0.00    -0.620 A  
HETATM   20  C   UNL     1     -10.662  12.377  63.617  1.00  0.00    -0.497 A  
HETATM   21  C   UNL     1     -10.119  12.640  64.872  1.00  0.00    -0.244 A  
ENDBRANCH  13  16
ENDBRANCH  11  13
ENDBRANCH  10  11
ENDBRANCH   8  10
TORSDOF 4
ENDMDL
MODEL      119
REMARK 921   NORMALIZED FREE ENERGY PREDICTED BY IDOCK:   -4.05 KCAL/MOL
REMARK 922        TOTAL FREE ENERGY PREDICTED BY IDOCK:   -5.92 KCAL/MOL
REMARK 923 INTER-LIGAND FREE ENERGY PREDICTED BY IDOCK:   -5.80 KCAL/MOL
REMARK 924 INTRA-LIGAND FREE ENERGY PREDICTED BY IDOCK:   -0.12 KCAL/MOL
REMARK 927      BINDING AFFINITY PREDICTED BY RF-SCORE:    0.00 PKD
ROOT
HETATM    1  C   UNL     1      -9.776  13.298  64.992  1.00  0.00     0.094 C  
HETATM    2  C   UNL     1     -10.172  14.742  65.321  1.00  0.00    -0.415 C  
HETATM    3  C   UNL     1     -11.543  14.921  64.674  1.00  0.00    -0.395 C  
HETATM    4  C   UNL     1     -11.866  13.551  64.075  1.00  0.00    -0.427 C  
HETATM    5  C   UNL     1     -12.603  12.669  65.094  1.00  0.00    -0.459 C  
HETATM    6  N   UNL     1     -10.520  13.066  63.755  1.00  0.00    -0.292 NA 
HETATM    7  C   UNL     1     -10.437  11.717  63.217  1.00  0.00    -0.388 C  
HETATM    8  C   UNL     1     -11.713  12.072  66.194  1.00  0.00    -0.241 C  
HETATM    9  C   UNL     1     -10.198  12.339  66.105  1.00  0.00    -0.263 C  
ENDROOT
BRANCH   8  10
HETATM   10  O   UNL     1     -12.133  12.518  67.497  1.00  0.00    -0.453 OA 
BRANCH  10  11
HETATM   11  C   UNL     1     -11.154  12.402  68.449  1.00  0.00    -0.250 C  
HETATM   12  O   UNL     1     -10.289  13.246  68.653  1.00  0.00    -0.239 OA 
BRANCH  11  13
HETATM   13  C   UNL     1     -11.348  11.114  69.262  1.00  0.00    -0.281 C  
HETATM   14  O   UNL     1     -12.695  10.645  69.094  1.00  0.00    -0.685 OA 
HETATM   15  H   UNL     1     -12.816   9.849  69.596  1.00  0.00     0.000 HD 
BRANCH  13  16
HETATM   16  C   UNL     1     -10.371  10.002  68.939  1.00  0.00    -0.217 A  
HETATM   17  C   UNL     1      -9.165   9.857  69.641  1.00  0.00    -0.246 A  
HETATM   18  C   UNL     1      -8.298   8.802  69.354  1.00  0.00    -0.117 A  
HETATM   19  C   UNL     1      -8.632   7.866  68.376  1.00  0.00    -0.128 A  
HETATM   20  C   UNL     1      -9.835   7.978  67.691  1.00  0.00    -0.214 A  
HETATM   21  C   UNL     1     -10.702   9.030  67.976  1.00  0.00    -0.184 A  
ENDBRANCH  13  16
ENDBRANCH  11  13
ENDBRANCH  10  11
ENDBRANCH   8  10
TORSDOF 4
ENDMDL
MODEL      120
REMARK 921   NORMALIZED FREE ENERGY PREDICTED BY IDOCK:   -4.05 KCAL/MOL
REMARK 922        TOTAL FREE ENERGY PREDICTED BY IDOCK:   -5.91 KCAL/MOL
REMARK 923 INTER-LIGAND FREE ENERGY PREDICTED BY IDOCK:   -5.60 KCAL/MOL
REMARK 924 INTRA-LIGAND FREE ENERGY PREDICTED BY IDOCK:   -0.31 KCAL/MOL
REMARK 927      BINDING AFFINITY PREDICTED BY RF-SCORE:    0.00 PKD
ROOT
HETATM    1  C   UNL     1      -9.466  12.766  67.575  1.00  0.00    -0.187 C  
HETATM    2  C   UNL     1     -10.303  13.825  68.302  1.00  0.00    -0.247 C  
HETATM    3  C   UNL     1     -11.736  13.558  67.849  1.00  0.00    -0.392 C  
HETATM    4  C   UNL     1     -11.630  12.327  66.946  1.00  0.00    -0.361 C  
HETATM    5  C   UNL     1     -11.781  11.036  67.763  1.00  0.00    -0.172 C  
HETATM    6  N   UNL     1     -10.284  12.507  66.392  1.00  0.00    -0.240 NA 
HETATM    7  C   UNL     1      -9.806  11.448  65.518  1.00  0.00    -0.231 C  
HETATM    8  C   UNL     1     -10.545  10.643  68.586  1.00  0.00    -0.203 C  
HETATM    9  C   UNL     1      -9.284  11.515  68.434  1.00  0.00    -0.190 C  
ENDROOT
BRANCH   8  10
HETATM   10  O   UNL     1     -10.852  10.606  69.993  1.00  0.00    -0.274 OA 
BRANCH  10  11
HETATM   11  C   UNL     1     -10.404   9.469  70.613  1.00  0.00    -0.302 C  
HETATM   12  O   UNL     1      -9.267   9.026  70.500  1.00  0.00    -0.182 OA 
BRANCH  11  13
HETATM   13  C   UNL     1     -11.499   8.888  71.519  1.00  0.00    -0.321 C  
HETATM   14  O   UNL     1     -12.705   8.719  70.758  1.00  0.00    -0.493 OA 
HETATM   15  H   UNL     1     -13.382   8.359  71.318  1.00  0.00     0.000 HD 
BRANCH  13  16
HETATM   16  C   UNL     1     -11.136   7.587  72.206  1.00  0.00    -0.319 A  
HETATM   17  C   UNL     1     -11.362   6.345  71.593  1.00  0.00    -0.339 A  
HETATM   18  C   UNL     1     -10.983   5.161  72.226  1.00  0.00    -0.209 A  
HETATM   19  C   UNL     1     -10.356   5.200  73.471  1.00  0.00    -0.253 A  
HETATM   20  C   UNL     1     -10.100   6.422  74.080  1.00  0.00    -0.328 A  
HETATM   21  C   UNL     1     -10.476   7.606  73.449  1.00  0.00    -0.361 A  
ENDBRANCH  13  16
ENDBRANCH  11  13
ENDBRANCH  10  11
ENDBRANCH   8  10
TORSDOF 4
ENDMDL
MODEL      121
REMARK 921   NORMALIZED FREE ENERGY PREDICTED BY IDOCK:   -4.02 KCAL/MOL
REMARK 922        TOTAL FREE ENERGY PREDICTED BY IDOCK:   -5.88 KCAL/MOL
REMARK 923 INTER-LIGAND FREE ENERGY PREDICTED BY IDOCK:   -5.39 KCAL/MOL
REMARK 924 INTRA-LIGAND FREE ENERGY PREDICTED BY IDOCK:   -0.49 KCAL/MOL
REMARK 927      BINDING AFFINITY PREDICTED BY RF-SCORE:    0.00 PKD
ROOT
HETATM    1  C   UNL     1      -9.112  17.965  68.414  1.00  0.00    -0.289 C  
HETATM    2  C   UNL     1     -10.559  18.076  67.923  1.00  0.00    -0.387 C  
HETATM    3  C   UNL     1     -10.456  17.994  66.402  1.00  0.00    -0.345 C  
HETATM    4  C   UNL     1      -8.965  17.778  66.130  1.00  0.00    -0.094 C  
HETATM    5  C   UNL     1      -8.626  16.280  66.108  1.00  0.00    -0.342 C  
HETATM    6  N   UNL     1      -8.372  18.489  67.267  1.00  0.00    -0.251 NA 
HETATM    7  C   UNL     1      -6.923  18.427  67.374  1.00  0.00    -0.203 C  
HETATM    8  C   UNL     1      -8.558  15.612  67.490  1.00  0.00    -0.172 C  
HETATM    9  C   UNL     1      -8.740  16.515  68.725  1.00  0.00    -0.259 C  
ENDROOT
BRANCH   8  10
HETATM   10  O   UNL     1      -9.534  14.559  67.603  1.00  0.00    -0.203 OA 
BRANCH  10  11
HETATM   11  C   UNL     1      -9.031  13.321  67.298  1.00  0.00    -0.217 C  
HETATM   12  O   UNL     1      -7.971  12.884  67.732  1.00  0.00    -0.135 OA 
BRANCH  11  13
HETATM   13  C   UNL     1     -10.016  12.548  66.410  1.00  0.00    -0.252 C  
HETATM   14  O   UNL     1      -9.803  12.912  65.037  1.00  0.00    -0.485 OA 
HETATM   15  H   UNL     1     -10.413  12.434  64.487  1.00  0.00     0.000 HD 
BRANCH  13  16
HETATM   16  C   UNL     1      -9.961  11.041  66.558  1.00  0.00    -0.253 A  
HETATM   17  C   UNL     1     -10.678  10.375  67.564  1.00  0.00    -0.339 A  
HETATM   18  C   UNL     1     -10.646   8.984  67.657  1.00  0.00    -0.298 A  
HETATM   19  C   UNL     1      -9.913   8.236  66.737  1.00  0.00    -0.355 A  
HETATM   20  C   UNL     1      -9.219   8.876  65.718  1.00  0.00    -0.283 A  
HETATM   21  C   UNL     1      -9.251  10.265  65.622  1.00  0.00    -0.225 A  
ENDBRANCH  13  16
ENDBRANCH  11  13
ENDBRANCH  10  11
ENDBRANCH   8  10
TORSDOF 4
ENDMDL
MODEL      122
REMARK 921   NORMALIZED FREE ENERGY PREDICTED BY IDOCK:   -4.01 KCAL/MOL
REMARK 922        TOTAL FREE ENERGY PREDICTED BY IDOCK:   -5.87 KCAL/MOL
REMARK 923 INTER-LIGAND FREE ENERGY PREDICTED BY IDOCK:   -5.12 KCAL/MOL
REMARK 924 INTRA-LIGAND FREE ENERGY PREDICTED BY IDOCK:   -0.75 KCAL/MOL
REMARK 927      BINDING AFFINITY PREDICTED BY RF-SCORE:    0.00 PKD
ROOT
HETATM    1  C   UNL     1      -9.741  13.922  65.503  1.00  0.00    -0.088 C  
HETATM    2  C   UNL     1      -9.331  15.080  66.419  1.00  0.00    -0.334 C  
HETATM    3  C   UNL     1     -10.651  15.689  66.884  1.00  0.00    -0.311 C  
HETATM    4  C   UNL     1     -11.726  14.800  66.254  1.00  0.00    -0.257 C  
HETATM    5  C   UNL     1     -12.082  13.632  67.186  1.00  0.00    -0.404 C  
HETATM    6  N   UNL     1     -11.047  14.375  65.026  1.00  0.00    -0.358 NA 
HETATM    7  C   UNL     1     -11.771  13.431  64.190  1.00  0.00    -0.419 C  
HETATM    8  C   UNL     1     -11.046  12.498  67.226  1.00  0.00    -0.274 C  
HETATM    9  C   UNL     1      -9.836  12.608  66.278  1.00  0.00    -0.266 C  
ENDROOT
BRANCH   8  10
HETATM   10  O   UNL     1     -10.515  12.331  68.553  1.00  0.00    -0.227 OA 
BRANCH  10  11
HETATM   11  C   UNL     1     -11.069  11.274  69.228  1.00  0.00    -0.255 C  
HETATM   12  O   UNL     1     -12.267  11.155  69.454  1.00  0.00    -0.333 OA 
BRANCH  11  13
HETATM   13  C   UNL     1      -9.990  10.240  69.581  1.00  0.00    -0.207 C  
HETATM   14  O   UNL     1     -10.409   9.490  70.732  1.00  0.00    -0.277 OA 
HETATM   15  H   UNL     1      -9.742   8.851  70.950  1.00  0.00     0.000 HD 
BRANCH  13  16
HETATM   16  C   UNL     1      -9.619   9.295  68.457  1.00  0.00    -0.155 A  
HETATM   17  C   UNL     1     -10.577   8.472  67.842  1.00  0.00    -0.219 A  
HETATM   18  C   UNL     1     -10.221   7.639  66.781  1.00  0.00    -0.333 A  
HETATM   19  C   UNL     1      -8.910   7.627  66.307  1.00  0.00    -0.182 A  
HETATM   20  C   UNL     1      -7.956   8.454  66.885  1.00  0.00    -0.099 A  
HETATM   21  C   UNL     1      -8.308   9.288  67.943  1.00  0.00    -0.116 A  
ENDBRANCH  13  16
ENDBRANCH  11  13
ENDBRANCH  10  11
ENDBRANCH   8  10
TORSDOF 4
ENDMDL
MODEL      123
REMARK 921   NORMALIZED FREE ENERGY PREDICTED BY IDOCK:   -4.00 KCAL/MOL
REMARK 922        TOTAL FREE ENERGY PREDICTED BY IDOCK:   -5.85 KCAL/MOL
REMARK 923 INTER-LIGAND FREE ENERGY PREDICTED BY IDOCK:   -5.45 KCAL/MOL
REMARK 924 INTRA-LIGAND FREE ENERGY PREDICTED BY IDOCK:   -0.39 KCAL/MOL
REMARK 927      BINDING AFFINITY PREDICTED BY RF-SCORE:    0.00 PKD
ROOT
HETATM    1  C   UNL     1      -9.757   8.047  66.336  1.00  0.00    -0.185 C  
HETATM    2  C   UNL     1     -10.618   7.381  67.415  1.00  0.00    -0.371 C  
HETATM    3  C   UNL     1      -9.677   7.208  68.605  1.00  0.00    -0.141 C  
HETATM    4  C   UNL     1      -8.362   7.844  68.149  1.00  0.00    -0.124 C  
HETATM    5  C   UNL     1      -8.328   9.338  68.501  1.00  0.00    -0.119 C  
HETATM    6  N   UNL     1      -8.418   7.589  66.706  1.00  0.00    -0.121 NA 
HETATM    7  C   UNL     1      -7.328   8.139  65.917  1.00  0.00    -0.076 C  
HETATM    8  C   UNL     1      -9.176  10.237  67.589  1.00  0.00    -0.144 C  
HETATM    9  C   UNL     1      -9.879   9.570  66.390  1.00  0.00    -0.320 C  
ENDROOT
BRANCH   8  10
HETATM   10  O   UNL     1     -10.200  10.915  68.340  1.00  0.00    -0.165 OA 
BRANCH  10  11
HETATM   11  C   UNL     1     -10.020  12.273  68.394  1.00  0.00    -0.209 C  
HETATM   12  O   UNL     1      -8.924  12.820  68.437  1.00  0.00    -0.184 OA 
BRANCH  11  13
HETATM   13  C   UNL     1     -11.372  12.995  68.313  1.00  0.00    -0.288 C  
HETATM   14  O   UNL     1     -12.226  12.302  67.389  1.00  0.00    -0.478 OA 
HETATM   15  H   UNL     1     -13.063  12.749  67.339  1.00  0.00     0.000 HD 
BRANCH  13  16
HETATM   16  C   UNL     1     -12.083  13.171  69.639  1.00  0.00    -0.317 A  
HETATM   17  C   UNL     1     -12.339  12.082  70.486  1.00  0.00    -0.369 A  
HETATM   18  C   UNL     1     -12.959  12.272  71.721  1.00  0.00    -0.431 A  
HETATM   19  C   UNL     1     -13.314  13.554  72.137  1.00  0.00    -0.593 A  
HETATM   20  C   UNL     1     -13.043  14.647  71.324  1.00  0.00    -0.424 A  
HETATM   21  C   UNL     1     -12.424  14.460  70.091  1.00  0.00    -0.395 A  
ENDBRANCH  13  16
ENDBRANCH  11  13
ENDBRANCH  10  11
ENDBRANCH   8  10
TORSDOF 4
ENDMDL
MODEL      124
REMARK 921   NORMALIZED FREE ENERGY PREDICTED BY IDOCK:   -3.97 KCAL/MOL
REMARK 922        TOTAL FREE ENERGY PREDICTED BY IDOCK:   -5.82 KCAL/MOL
REMARK 923 INTER-LIGAND FREE ENERGY PREDICTED BY IDOCK:   -5.08 KCAL/MOL
REMARK 924 INTRA-LIGAND FREE ENERGY PREDICTED BY IDOCK:   -0.74 KCAL/MOL
REMARK 927      BINDING AFFINITY PREDICTED BY RF-SCORE:    0.00 PKD
ROOT
HETATM    1  C   UNL     1      -8.166   5.587  67.379  1.00  0.00    -0.101 C  
HETATM    2  C   UNL     1      -8.406   6.963  66.749  1.00  0.00    -0.116 C  
HETATM    3  C   UNL     1      -9.926   7.102  66.698  1.00  0.00    -0.234 C  
HETATM    4  C   UNL     1     -10.449   5.825  67.359  1.00  0.00    -0.254 C  
HETATM    5  C   UNL     1     -10.609   6.022  68.874  1.00  0.00    -0.356 C  
HETATM    6  N   UNL     1      -9.388   4.877  67.007  1.00  0.00    -0.123 NA 
HETATM    7  C   UNL     1      -9.524   3.535  67.550  1.00  0.00    -0.186 C  
HETATM    8  C   UNL     1      -9.295   5.997  69.671  1.00  0.00    -0.144 C  
HETATM    9  C   UNL     1      -8.000   5.691  68.895  1.00  0.00    -0.097 C  
ENDROOT
BRANCH   8  10
HETATM   10  O   UNL     1      -9.081   7.247  70.352  1.00  0.00    -0.154 OA 
BRANCH  10  11
HETATM   11  C   UNL     1      -9.344   7.181  71.696  1.00  0.00    -0.152 C  
HETATM   12  O   UNL     1      -8.989   6.260  72.422  1.00  0.00    -0.139 OA 
BRANCH  11  13
HETATM   13  C   UNL     1     -10.068   8.453  72.162  1.00  0.00    -0.306 C  
HETATM   14  O   UNL     1      -9.523   9.589  71.473  1.00  0.00    -0.279 OA 
HETATM   15  H   UNL     1      -9.971  10.375  71.761  1.00  0.00     0.000 HD 
BRANCH  13  16
HETATM   16  C   UNL     1     -11.574   8.425  72.000  1.00  0.00    -0.418 A  
HETATM   17  C   UNL     1     -12.284   7.216  71.935  1.00  0.00    -0.358 A  
HETATM   18  C   UNL     1     -13.675   7.214  71.827  1.00  0.00    -0.361 A  
HETATM   19  C   UNL     1     -14.379   8.418  71.800  1.00  0.00    -0.558 A  
HETATM   20  C   UNL     1     -13.694   9.623  71.890  1.00  0.00    -0.376 A  
HETATM   21  C   UNL     1     -12.306   9.628  72.000  1.00  0.00    -0.376 A  
ENDBRANCH  13  16
ENDBRANCH  11  13
ENDBRANCH  10  11
ENDBRANCH   8  10
TORSDOF 4
ENDMDL
MODEL      125
REMARK 921   NORMALIZED FREE ENERGY PREDICTED BY IDOCK:   -3.97 KCAL/MOL
REMARK 922        TOTAL FREE ENERGY PREDICTED BY IDOCK:   -5.81 KCAL/MOL
REMARK 923 INTER-LIGAND FREE ENERGY PREDICTED BY IDOCK:   -5.35 KCAL/MOL
REMARK 924 INTRA-LIGAND FREE ENERGY PREDICTED BY IDOCK:   -0.46 KCAL/MOL
REMARK 927      BINDING AFFINITY PREDICTED BY RF-SCORE:    0.00 PKD
ROOT
HETATM    1  C   UNL     1      -9.510   8.217  66.424  1.00  0.00    -0.221 C  
HETATM    2  C   UNL     1      -8.228   7.598  66.992  1.00  0.00    -0.117 C  
HETATM    3  C   UNL     1      -7.454   8.779  67.571  1.00  0.00    -0.089 C  
HETATM    4  C   UNL     1      -8.373   9.983  67.352  1.00  0.00    -0.118 C  
HETATM    5  C   UNL     1      -9.315  10.176  68.550  1.00  0.00    -0.151 C  
HETATM    6  N   UNL     1      -9.070   9.579  66.127  1.00  0.00    -0.156 NA 
HETATM    7  C   UNL     1     -10.105  10.484  65.653  1.00  0.00    -0.268 C  
HETATM    8  C   UNL     1     -10.487   9.185  68.616  1.00  0.00    -0.207 C  
HETATM    9  C   UNL     1     -10.643   8.190  67.451  1.00  0.00    -0.325 C  
ENDROOT
BRANCH   8  10
HETATM   10  O   UNL     1     -10.434   8.401  69.822  1.00  0.00    -0.214 OA 
BRANCH  10  11
HETATM   11  C   UNL     1     -11.323   8.818  70.778  1.00  0.00    -0.272 C  
HETATM   12  O   UNL     1     -11.468   9.986  71.120  1.00  0.00    -0.357 OA 
BRANCH  11  13
HETATM   13  C   UNL     1     -12.152   7.632  71.291  1.00  0.00    -0.314 C  
HETATM   14  O   UNL     1     -12.486   6.774  70.188  1.00  0.00    -0.572 OA 
HETATM   15  H   UNL     1     -12.999   6.041  70.505  1.00  0.00     0.000 HD 
BRANCH  13  16
HETATM   16  C   UNL     1     -11.498   6.825  72.393  1.00  0.00    -0.302 A  
HETATM   17  C   UNL     1     -11.771   5.458  72.564  1.00  0.00    -0.176 A  
HETATM   18  C   UNL     1     -11.126   4.724  73.560  1.00  0.00    -0.412 A  
HETATM   19  C   UNL     1     -10.188   5.339  74.388  1.00  0.00    -0.299 A  
HETATM   20  C   UNL     1      -9.886   6.684  74.216  1.00  0.00    -0.353 A  
HETATM   21  C   UNL     1     -10.527   7.418  73.221  1.00  0.00    -0.424 A  
ENDBRANCH  13  16
ENDBRANCH  11  13
ENDBRANCH  10  11
ENDBRANCH   8  10
TORSDOF 4
ENDMDL
MODEL      126
REMARK 921   NORMALIZED FREE ENERGY PREDICTED BY IDOCK:   -3.96 KCAL/MOL
REMARK 922        TOTAL FREE ENERGY PREDICTED BY IDOCK:   -5.81 KCAL/MOL
REMARK 923 INTER-LIGAND FREE ENERGY PREDICTED BY IDOCK:   -5.37 KCAL/MOL
REMARK 924 INTRA-LIGAND FREE ENERGY PREDICTED BY IDOCK:   -0.44 KCAL/MOL
REMARK 927      BINDING AFFINITY PREDICTED BY RF-SCORE:    0.00 PKD
ROOT
HETATM    1  C   UNL     1      -9.410   7.434  68.516  1.00  0.00    -0.141 C  
HETATM    2  C   UNL     1      -7.989   7.967  68.732  1.00  0.00    -0.124 C  
HETATM    3  C   UNL     1      -7.490   8.312  67.331  1.00  0.00    -0.094 C  
HETATM    4  C   UNL     1      -8.681   8.014  66.417  1.00  0.00    -0.151 C  
HETATM    5  C   UNL     1      -9.576   9.253  66.267  1.00  0.00    -0.313 C  
HETATM    6  N   UNL     1      -9.325   6.920  67.150  1.00  0.00    -0.136 NA 
HETATM    7  C   UNL     1     -10.570   6.420  66.589  1.00  0.00    -0.183 C  
HETATM    8  C   UNL     1     -10.473   9.553  67.477  1.00  0.00    -0.275 C  
HETATM    9  C   UNL     1     -10.447   8.550  68.647  1.00  0.00    -0.200 C  
ENDROOT
BRANCH   8  10
HETATM   10  O   UNL     1     -10.169  10.844  68.037  1.00  0.00    -0.170 OA 
BRANCH  10  11
HETATM   11  C   UNL     1     -11.069  11.814  67.678  1.00  0.00    -0.252 C  
HETATM   12  O   UNL     1     -12.112  11.594  67.072  1.00  0.00    -0.547 OA 
BRANCH  11  13
HETATM   13  C   UNL     1     -10.621  13.183  68.209  1.00  0.00    -0.248 C  
HETATM   14  O   UNL     1     -10.525  14.109  67.115  1.00  0.00    -0.267 OA 
HETATM   15  H   UNL     1     -10.248  14.956  67.444  1.00  0.00     0.000 HD 
BRANCH  13  16
HETATM   16  C   UNL     1     -11.497  13.763  69.300  1.00  0.00    -0.344 A  
HETATM   17  C   UNL     1     -11.799  15.132  69.351  1.00  0.00    -0.357 A  
HETATM   18  C   UNL     1     -12.640  15.639  70.342  1.00  0.00    -0.376 A  
HETATM   19  C   UNL     1     -13.207  14.783  71.285  1.00  0.00    -0.447 A  
HETATM   20  C   UNL     1     -12.942  13.420  71.234  1.00  0.00    -0.368 A  
HETATM   21  C   UNL     1     -12.103  12.912  70.245  1.00  0.00    -0.377 A  
ENDBRANCH  13  16
ENDBRANCH  11  13
ENDBRANCH  10  11
ENDBRANCH   8  10
TORSDOF 4
ENDMDL
MODEL      127
REMARK 921   NORMALIZED FREE ENERGY PREDICTED BY IDOCK:   -3.96 KCAL/MOL
REMARK 922        TOTAL FREE ENERGY PREDICTED BY IDOCK:   -5.80 KCAL/MOL
REMARK 923 INTER-LIGAND FREE ENERGY PREDICTED BY IDOCK:   -5.28 KCAL/MOL
REMARK 924 INTRA-LIGAND FREE ENERGY PREDICTED BY IDOCK:   -0.52 KCAL/MOL
REMARK 927      BINDING AFFINITY PREDICTED BY RF-SCORE:    0.00 PKD
ROOT
HETATM    1  C   UNL     1      -9.245  17.289  68.744  1.00  0.00    -0.238 C  
HETATM    2  C   UNL     1     -10.438  17.157  67.792  1.00  0.00    -0.362 C  
HETATM    3  C   UNL     1      -9.930  17.702  66.459  1.00  0.00    -0.332 C  
HETATM    4  C   UNL     1      -8.463  18.049  66.723  1.00  0.00    -0.257 C  
HETATM    5  C   UNL     1      -7.556  16.844  66.432  1.00  0.00    -0.339 C  
HETATM    6  N   UNL     1      -8.515  18.405  68.145  1.00  0.00    -0.277 NA 
HETATM    7  C   UNL     1      -7.242  18.730  68.769  1.00  0.00    -0.308 C  
HETATM    8  C   UNL     1      -7.577  15.746  67.506  1.00  0.00    -0.168 C  
HETATM    9  C   UNL     1      -8.413  16.007  68.773  1.00  0.00    -0.228 C  
ENDROOT
BRANCH   8  10
HETATM   10  O   UNL     1      -8.040  14.497  66.958  1.00  0.00    -0.191 OA 
BRANCH  10  11
HETATM   11  C   UNL     1      -7.536  13.402  67.610  1.00  0.00    -0.178 C  
HETATM   12  O   UNL     1      -6.403  13.337  68.072  1.00  0.00    -0.096 OA 
BRANCH  11  13
HETATM   13  C   UNL     1      -8.613  12.315  67.740  1.00  0.00    -0.170 C  
HETATM   14  O   UNL     1      -9.635  12.765  68.643  1.00  0.00    -0.383 OA 
HETATM   15  H   UNL     1     -10.301  12.093  68.724  1.00  0.00     0.000 HD 
BRANCH  13  16
HETATM   16  C   UNL     1      -9.237  11.875  66.432  1.00  0.00    -0.218 A  
HETATM   17  C   UNL     1      -8.645  10.886  65.631  1.00  0.00    -0.163 A  
HETATM   18  C   UNL     1      -9.258  10.467  64.450  1.00  0.00    -0.291 A  
HETATM   19  C   UNL     1     -10.480  11.015  64.061  1.00  0.00    -0.433 A  
HETATM   20  C   UNL     1     -11.094  11.975  64.856  1.00  0.00    -0.368 A  
HETATM   21  C   UNL     1     -10.485  12.394  66.036  1.00  0.00    -0.281 A  
ENDBRANCH  13  16
ENDBRANCH  11  13
ENDBRANCH  10  11
ENDBRANCH   8  10
TORSDOF 4
ENDMDL
MODEL      128
REMARK 921   NORMALIZED FREE ENERGY PREDICTED BY IDOCK:   -3.93 KCAL/MOL
REMARK 922        TOTAL FREE ENERGY PREDICTED BY IDOCK:   -5.77 KCAL/MOL
REMARK 923 INTER-LIGAND FREE ENERGY PREDICTED BY IDOCK:   -5.20 KCAL/MOL
REMARK 924 INTRA-LIGAND FREE ENERGY PREDICTED BY IDOCK:   -0.58 KCAL/MOL
REMARK 927      BINDING AFFINITY PREDICTED BY RF-SCORE:    0.00 PKD
ROOT
HETATM    1  C   UNL     1      -6.753   9.088  66.164  1.00  0.00    -0.070 C  
HETATM    2  C   UNL     1      -7.089   9.249  64.678  1.00  0.00    -0.096 C  
HETATM    3  C   UNL     1      -8.245   8.281  64.438  1.00  0.00    -0.130 C  
HETATM    4  C   UNL     1      -8.532   7.680  65.816  1.00  0.00    -0.144 C  
HETATM    5  C   UNL     1      -9.565   8.526  66.576  1.00  0.00    -0.303 C  
HETATM    6  N   UNL     1      -7.196   7.718  66.418  1.00  0.00    -0.074 NA 
HETATM    7  C   UNL     1      -7.104   7.276  67.800  1.00  0.00    -0.089 C  
HETATM    8  C   UNL     1      -9.019   9.834  67.167  1.00  0.00    -0.135 C  
HETATM    9  C   UNL     1      -7.509  10.106  67.018  1.00  0.00    -0.092 C  
ENDROOT
BRANCH   8  10
HETATM   10  O   UNL     1      -9.698  10.975  66.610  1.00  0.00    -0.188 OA 
BRANCH  10  11
HETATM   11  C   UNL     1     -10.756  11.399  67.373  1.00  0.00    -0.232 C  
HETATM   12  O   UNL     1     -11.904  11.503  66.958  1.00  0.00    -0.568 OA 
BRANCH  11  13
HETATM   13  C   UNL     1     -10.307  11.643  68.821  1.00  0.00    -0.195 C  
HETATM   14  O   UNL     1     -10.409  13.044  69.120  1.00  0.00    -0.434 OA 
HETATM   15  H   UNL     1     -10.132  13.195  70.015  1.00  0.00     0.000 HD 
BRANCH  13  16
HETATM   16  C   UNL     1     -11.053  10.837  69.864  1.00  0.00    -0.339 A  
HETATM   17  C   UNL     1     -12.254  11.297  70.428  1.00  0.00    -0.453 A  
HETATM   18  C   UNL     1     -12.945  10.520  71.358  1.00  0.00    -0.542 A  
HETATM   19  C   UNL     1     -12.458   9.267  71.726  1.00  0.00    -0.458 A  
HETATM   20  C   UNL     1     -11.285   8.784  71.158  1.00  0.00    -0.339 A  
HETATM   21  C   UNL     1     -10.594   9.557  70.228  1.00  0.00    -0.317 A  
ENDBRANCH  13  16
ENDBRANCH  11  13
ENDBRANCH  10  11
ENDBRANCH   8  10
TORSDOF 4
ENDMDL
MODEL      129
REMARK 921   NORMALIZED FREE ENERGY PREDICTED BY IDOCK:   -3.92 KCAL/MOL
REMARK 922        TOTAL FREE ENERGY PREDICTED BY IDOCK:   -5.76 KCAL/MOL
REMARK 923 INTER-LIGAND FREE ENERGY PREDICTED BY IDOCK:   -5.02 KCAL/MOL
REMARK 924 INTRA-LIGAND FREE ENERGY PREDICTED BY IDOCK:   -0.74 KCAL/MOL
REMARK 927      BINDING AFFINITY PREDICTED BY RF-SCORE:    0.00 PKD
ROOT
HETATM    1  C   UNL     1      -8.013   9.553  66.606  1.00  0.00    -0.108 C  
HETATM    2  C   UNL     1      -9.265   9.436  65.730  1.00  0.00    -0.276 C  
HETATM    3  C   UNL     1     -10.409   9.232  66.719  1.00  0.00    -0.296 C  
HETATM    4  C   UNL     1      -9.743   9.309  68.095  1.00  0.00    -0.150 C  
HETATM    5  C   UNL     1      -9.723  10.756  68.611  1.00  0.00    -0.187 C  
HETATM    6  N   UNL     1      -8.409   8.786  67.786  1.00  0.00    -0.117 NA 
HETATM    7  C   UNL     1      -7.453   8.783  68.881  1.00  0.00    -0.083 C  
HETATM    8  C   UNL     1      -8.669  11.660  67.956  1.00  0.00    -0.157 C  
HETATM    9  C   UNL     1      -7.705  11.012  66.944  1.00  0.00    -0.140 C  
ENDROOT
BRANCH   8  10
HETATM   10  O   UNL     1      -9.289  12.770  67.280  1.00  0.00    -0.187 OA 
BRANCH  10  11
HETATM   11  C   UNL     1     -10.020  13.572  68.117  1.00  0.00    -0.240 C  
HETATM   12  O   UNL     1      -9.531  14.300  68.974  1.00  0.00    -0.121 OA 
BRANCH  11  13
HETATM   13  C   UNL     1     -11.514  13.482  67.774  1.00  0.00    -0.315 C  
HETATM   14  O   UNL     1     -12.208  14.585  68.379  1.00  0.00    -0.579 OA 
HETATM   15  H   UNL     1     -13.132  14.529  68.167  1.00  0.00     0.000 HD 
BRANCH  13  16
HETATM   16  C   UNL     1     -11.826  13.428  66.292  1.00  0.00    -0.438 A  
HETATM   17  C   UNL     1     -12.244  12.240  65.672  1.00  0.00    -0.203 A  
HETATM   18  C   UNL     1     -12.565  12.222  64.315  1.00  0.00    -0.470 A  
HETATM   19  C   UNL     1     -12.491  13.393  63.561  1.00  0.00    -0.287 A  
HETATM   20  C   UNL     1     -12.106  14.583  64.164  1.00  0.00    -0.377 A  
HETATM   21  C   UNL     1     -11.786  14.604  65.519  1.00  0.00    -0.292 A  
ENDBRANCH  13  16
ENDBRANCH  11  13
ENDBRANCH  10  11
ENDBRANCH   8  10
TORSDOF 4
ENDMDL
MODEL      130
REMARK 921   NORMALIZED FREE ENERGY PREDICTED BY IDOCK:   -3.91 KCAL/MOL
REMARK 922        TOTAL FREE ENERGY PREDICTED BY IDOCK:   -5.75 KCAL/MOL
REMARK 923 INTER-LIGAND FREE ENERGY PREDICTED BY IDOCK:   -5.45 KCAL/MOL
REMARK 924 INTRA-LIGAND FREE ENERGY PREDICTED BY IDOCK:   -0.30 KCAL/MOL
REMARK 927      BINDING AFFINITY PREDICTED BY RF-SCORE:    0.00 PKD
ROOT
HETATM    1  C   UNL     1      -9.563  12.873  68.181  1.00  0.00    -0.223 C  
HETATM    2  C   UNL     1      -8.607  12.205  67.187  1.00  0.00    -0.185 C  
HETATM    3  C   UNL     1      -9.485  11.847  65.990  1.00  0.00    -0.241 C  
HETATM    4  C   UNL     1     -10.868  12.392  66.354  1.00  0.00    -0.258 C  
HETATM    5  C   UNL     1     -11.026  13.843  65.876  1.00  0.00    -0.284 C  
HETATM    6  N   UNL     1     -10.840  12.263  67.815  1.00  0.00    -0.213 NA 
HETATM    7  C   UNL     1     -12.003  12.771  68.523  1.00  0.00    -0.225 C  
HETATM    8  C   UNL     1     -10.295  14.889  66.732  1.00  0.00    -0.269 C  
HETATM    9  C   UNL     1      -9.578  14.391  68.002  1.00  0.00    -0.216 C  
ENDROOT
BRANCH   8  10
HETATM   10  O   UNL     1      -9.312  15.596  65.955  1.00  0.00    -0.335 OA 
BRANCH  10  11
HETATM   11  C   UNL     1      -9.277  16.940  66.222  1.00  0.00    -0.267 C  
HETATM   12  O   UNL     1     -10.166  17.726  65.917  1.00  0.00    -0.523 OA 
BRANCH  11  13
HETATM   13  C   UNL     1      -8.012  17.294  67.018  1.00  0.00    -0.214 C  
HETATM   14  O   UNL     1      -7.057  16.229  66.890  1.00  0.00    -0.212 OA 
HETATM   15  H   UNL     1      -6.275  16.448  67.382  1.00  0.00     0.000 HD 
BRANCH  13  16
HETATM   16  C   UNL     1      -7.368  18.612  66.642  1.00  0.00    -0.249 A  
HETATM   17  C   UNL     1      -6.723  18.789  65.408  1.00  0.00    -0.251 A  
HETATM   18  C   UNL     1      -6.172  20.024  65.064  1.00  0.00    -0.308 A  
HETATM   19  C   UNL     1      -6.273  21.105  65.939  1.00  0.00    -0.240 A  
HETATM   20  C   UNL     1      -6.932  20.955  67.153  1.00  0.00    -0.426 A  
HETATM   21  C   UNL     1      -7.484  19.724  67.498  1.00  0.00    -0.306 A  
ENDBRANCH  13  16
ENDBRANCH  11  13
ENDBRANCH  10  11
ENDBRANCH   8  10
TORSDOF 4
ENDMDL
MODEL      131
REMARK 921   NORMALIZED FREE ENERGY PREDICTED BY IDOCK:   -3.91 KCAL/MOL
REMARK 922        TOTAL FREE ENERGY PREDICTED BY IDOCK:   -5.74 KCAL/MOL
REMARK 923 INTER-LIGAND FREE ENERGY PREDICTED BY IDOCK:   -4.95 KCAL/MOL
REMARK 924 INTRA-LIGAND FREE ENERGY PREDICTED BY IDOCK:   -0.79 KCAL/MOL
REMARK 927      BINDING AFFINITY PREDICTED BY RF-SCORE:    0.00 PKD
ROOT
HETATM    1  C   UNL     1      -9.278   6.154  66.164  1.00  0.00    -0.131 C  
HETATM    2  C   UNL     1     -10.573   5.623  66.788  1.00  0.00    -0.372 C  
HETATM    3  C   UNL     1     -10.184   5.241  68.214  1.00  0.00    -0.200 C  
HETATM    4  C   UNL     1      -8.711   5.638  68.328  1.00  0.00    -0.106 C  
HETATM    5  C   UNL     1      -8.572   7.088  68.815  1.00  0.00    -0.125 C  
HETATM    6  N   UNL     1      -8.265   5.446  66.945  1.00  0.00    -0.105 NA 
HETATM    7  C   UNL     1      -6.886   5.810  66.661  1.00  0.00    -0.059 C  
HETATM    8  C   UNL     1      -8.865   8.157  67.751  1.00  0.00    -0.130 C  
HETATM    9  C   UNL     1      -9.167   7.671  66.320  1.00  0.00    -0.204 C  
ENDROOT
BRANCH   8  10
HETATM   10  O   UNL     1      -9.973   8.988  68.145  1.00  0.00    -0.161 OA 
BRANCH  10  11
HETATM   11  C   UNL     1      -9.597  10.063  68.908  1.00  0.00    -0.181 C  
HETATM   12  O   UNL     1      -8.573  10.711  68.727  1.00  0.00    -0.135 OA 
BRANCH  11  13
HETATM   13  C   UNL     1     -10.674  10.376  69.957  1.00  0.00    -0.265 C  
HETATM   14  O   UNL     1     -11.952  10.480  69.310  1.00  0.00    -0.487 OA 
HETATM   15  H   UNL     1     -12.617  10.674  69.958  1.00  0.00     0.000 HD 
BRANCH  13  16
HETATM   16  C   UNL     1     -10.755   9.388  71.103  1.00  0.00    -0.417 A  
HETATM   17  C   UNL     1     -11.985   8.877  71.546  1.00  0.00    -0.401 A  
HETATM   18  C   UNL     1     -12.033   7.937  72.577  1.00  0.00    -0.349 A  
HETATM   19  C   UNL     1     -10.855   7.482  73.167  1.00  0.00    -0.448 A  
HETATM   20  C   UNL     1      -9.628   7.957  72.722  1.00  0.00    -0.311 A  
HETATM   21  C   UNL     1      -9.576   8.893  71.693  1.00  0.00    -0.363 A  
ENDBRANCH  13  16
ENDBRANCH  11  13
ENDBRANCH  10  11
ENDBRANCH   8  10
TORSDOF 4
ENDMDL
MODEL      132
REMARK 921   NORMALIZED FREE ENERGY PREDICTED BY IDOCK:   -3.90 KCAL/MOL
REMARK 922        TOTAL FREE ENERGY PREDICTED BY IDOCK:   -5.73 KCAL/MOL
REMARK 923 INTER-LIGAND FREE ENERGY PREDICTED BY IDOCK:   -5.20 KCAL/MOL
REMARK 924 INTRA-LIGAND FREE ENERGY PREDICTED BY IDOCK:   -0.53 KCAL/MOL
REMARK 927      BINDING AFFINITY PREDICTED BY RF-SCORE:    0.00 PKD
ROOT
HETATM    1  C   UNL     1      -9.572   6.045  68.911  1.00  0.00    -0.126 C  
HETATM    2  C   UNL     1      -8.113   6.327  69.286  1.00  0.00    -0.110 C  
HETATM    3  C   UNL     1      -7.501   6.927  68.023  1.00  0.00    -0.099 C  
HETATM    4  C   UNL     1      -8.665   7.006  67.033  1.00  0.00    -0.123 C  
HETATM    5  C   UNL     1      -9.400   8.349  67.162  1.00  0.00    -0.192 C  
HETATM    6  N   UNL     1      -9.472   5.860  67.464  1.00  0.00    -0.110 NA 
HETATM    7  C   UNL     1     -10.734   5.669  66.768  1.00  0.00    -0.284 C  
HETATM    8  C   UNL     1     -10.322   8.466  68.385  1.00  0.00    -0.200 C  
HETATM    9  C   UNL     1     -10.478   7.221  69.279  1.00  0.00    -0.221 C  
ENDROOT
BRANCH   8  10
HETATM   10  O   UNL     1      -9.901   9.540  69.247  1.00  0.00    -0.167 OA 
BRANCH  10  11
HETATM   11  C   UNL     1     -10.894   9.983  70.082  1.00  0.00    -0.311 C  
HETATM   12  O   UNL     1     -10.846   9.915  71.304  1.00  0.00    -0.289 OA 
BRANCH  11  13
HETATM   13  C   UNL     1     -12.021  10.639  69.270  1.00  0.00    -0.197 C  
HETATM   14  O   UNL     1     -13.286  10.321  69.872  1.00  0.00    -0.483 OA 
HETATM   15  H   UNL     1     -13.983  10.727  69.371  1.00  0.00     0.000 HD 
BRANCH  13  16
HETATM   16  C   UNL     1     -11.894  12.138  69.097  1.00  0.00    -0.361 A  
HETATM   17  C   UNL     1     -11.623  12.713  67.846  1.00  0.00    -0.401 A  
HETATM   18  C   UNL     1     -11.550  14.099  67.701  1.00  0.00    -0.394 A  
HETATM   19  C   UNL     1     -11.765  14.931  68.798  1.00  0.00    -0.353 A  
HETATM   20  C   UNL     1     -12.062  14.380  70.039  1.00  0.00    -0.401 A  
HETATM   21  C   UNL     1     -12.137  12.997  70.186  1.00  0.00    -0.377 A  
ENDBRANCH  13  16
ENDBRANCH  11  13
ENDBRANCH  10  11
ENDBRANCH   8  10
TORSDOF 4
ENDMDL
MODEL      133
REMARK 921   NORMALIZED FREE ENERGY PREDICTED BY IDOCK:   -3.88 KCAL/MOL
REMARK 922        TOTAL FREE ENERGY PREDICTED BY IDOCK:   -5.71 KCAL/MOL
REMARK 923 INTER-LIGAND FREE ENERGY PREDICTED BY IDOCK:   -5.06 KCAL/MOL
REMARK 924 INTRA-LIGAND FREE ENERGY PREDICTED BY IDOCK:   -0.65 KCAL/MOL
REMARK 927      BINDING AFFINITY PREDICTED BY RF-SCORE:    0.00 PKD
ROOT
HETATM    1  C   UNL     1      -8.935  16.051  67.736  1.00  0.00    -0.188 C  
HETATM    2  C   UNL     1      -8.964  15.532  69.177  1.00  0.00    -0.256 C  
HETATM    3  C   UNL     1     -10.412  15.717  69.623  1.00  0.00    -0.283 C  
HETATM    4  C   UNL     1     -11.126  16.269  68.387  1.00  0.00    -0.362 C  
HETATM    5  C   UNL     1     -11.672  15.126  67.518  1.00  0.00    -0.214 C  
HETATM    6  N   UNL     1     -10.036  17.013  67.748  1.00  0.00    -0.271 NA 
HETATM    7  C   UNL     1     -10.346  17.628  66.468  1.00  0.00    -0.337 C  
HETATM    8  C   UNL     1     -10.616  14.388  66.682  1.00  0.00    -0.282 C  
HETATM    9  C   UNL     1      -9.170  14.920  66.734  1.00  0.00    -0.281 C  
ENDROOT
BRANCH   8  10
HETATM   10  O   UNL     1     -10.554  12.996  67.042  1.00  0.00    -0.254 OA 
BRANCH  10  11
HETATM   11  C   UNL     1     -10.637  12.155  65.963  1.00  0.00    -0.257 C  
HETATM   12  O   UNL     1     -11.404  12.318  65.021  1.00  0.00    -0.312 OA 
BRANCH  11  13
HETATM   13  C   UNL     1      -9.588  11.039  66.073  1.00  0.00    -0.215 C  
HETATM   14  O   UNL     1      -8.320  11.533  65.612  1.00  0.00    -0.375 OA 
HETATM   15  H   UNL     1      -7.671  10.843  65.680  1.00  0.00     0.000 HD 
BRANCH  13  16
HETATM   16  C   UNL     1      -9.436  10.439  67.455  1.00  0.00    -0.167 A  
HETATM   17  C   UNL     1     -10.355   9.503  67.955  1.00  0.00    -0.260 A  
HETATM   18  C   UNL     1     -10.174   8.933  69.216  1.00  0.00    -0.214 A  
HETATM   19  C   UNL     1      -9.063   9.274  69.987  1.00  0.00    -0.229 A  
HETATM   20  C   UNL     1      -8.129  10.177  69.496  1.00  0.00    -0.176 A  
HETATM   21  C   UNL     1      -8.307  10.747  68.238  1.00  0.00    -0.125 A  
ENDBRANCH  13  16
ENDBRANCH  11  13
ENDBRANCH  10  11
ENDBRANCH   8  10
TORSDOF 4
ENDMDL
MODEL      134
REMARK 921   NORMALIZED FREE ENERGY PREDICTED BY IDOCK:   -3.85 KCAL/MOL
REMARK 922        TOTAL FREE ENERGY PREDICTED BY IDOCK:   -5.67 KCAL/MOL
REMARK 923 INTER-LIGAND FREE ENERGY PREDICTED BY IDOCK:   -5.25 KCAL/MOL
REMARK 924 INTRA-LIGAND FREE ENERGY PREDICTED BY IDOCK:   -0.41 KCAL/MOL
REMARK 927      BINDING AFFINITY PREDICTED BY RF-SCORE:    0.00 PKD
ROOT
HETATM    1  C   UNL     1      -8.598   6.815  67.930  1.00  0.00    -0.122 C  
HETATM    2  C   UNL     1      -9.747   6.304  67.054  1.00  0.00    -0.173 C  
HETATM    3  C   UNL     1     -10.981   6.394  67.949  1.00  0.00    -0.416 C  
HETATM    4  C   UNL     1     -10.465   7.010  69.251  1.00  0.00    -0.210 C  
HETATM    5  C   UNL     1     -10.547   8.543  69.200  1.00  0.00    -0.188 C  
HETATM    6  N   UNL     1      -9.090   6.502  69.271  1.00  0.00    -0.137 NA 
HETATM    7  C   UNL     1      -8.254   6.962  70.368  1.00  0.00    -0.124 C  
HETATM    8  C   UNL     1      -9.460   9.219  68.352  1.00  0.00    -0.138 C  
HETATM    9  C   UNL     1      -8.375   8.315  67.734  1.00  0.00    -0.128 C  
ENDROOT
BRANCH   8  10
HETATM   10  O   UNL     1     -10.042   9.963  67.265  1.00  0.00    -0.188 OA 
BRANCH  10  11
HETATM   11  C   UNL     1      -9.234  10.972  66.808  1.00  0.00    -0.161 C  
HETATM   12  O   UNL     1      -8.486  11.631  67.521  1.00  0.00    -0.140 OA 
BRANCH  11  13
HETATM   13  C   UNL     1      -9.348  11.099  65.282  1.00  0.00    -0.219 C  
HETATM   14  O   UNL     1      -9.682   9.818  64.723  1.00  0.00    -0.389 OA 
HETATM   15  H   UNL     1      -9.753   9.896  63.780  1.00  0.00     0.000 HD 
BRANCH  13  16
HETATM   16  C   UNL     1     -10.332  12.144  64.800  1.00  0.00    -0.320 A  
HETATM   17  C   UNL     1     -11.254  11.870  63.777  1.00  0.00    -0.519 A  
HETATM   18  C   UNL     1     -12.178  12.835  63.376  1.00  0.00    -0.594 A  
HETATM   19  C   UNL     1     -12.207  14.081  64.001  1.00  0.00    -0.395 A  
HETATM   20  C   UNL     1     -11.321  14.360  65.033  1.00  0.00    -0.373 A  
HETATM   21  C   UNL     1     -10.398  13.398  65.437  1.00  0.00    -0.321 A  
ENDBRANCH  13  16
ENDBRANCH  11  13
ENDBRANCH  10  11
ENDBRANCH   8  10
TORSDOF 4
ENDMDL
MODEL      135
REMARK 921   NORMALIZED FREE ENERGY PREDICTED BY IDOCK:   -3.84 KCAL/MOL
REMARK 922        TOTAL FREE ENERGY PREDICTED BY IDOCK:   -5.66 KCAL/MOL
REMARK 923 INTER-LIGAND FREE ENERGY PREDICTED BY IDOCK:   -4.79 KCAL/MOL
REMARK 924 INTRA-LIGAND FREE ENERGY PREDICTED BY IDOCK:   -0.87 KCAL/MOL
REMARK 927      BINDING AFFINITY PREDICTED BY RF-SCORE:    0.00 PKD
ROOT
HETATM    1  C   UNL     1      -7.196   8.827  69.401  1.00  0.00    -0.061 C  
HETATM    2  C   UNL     1      -6.645   9.993  70.228  1.00  0.00    -0.127 C  
HETATM    3  C   UNL     1      -6.694  11.192  69.284  1.00  0.00    -0.103 C  
HETATM    4  C   UNL     1      -7.327  10.644  68.003  1.00  0.00    -0.088 C  
HETATM    5  C   UNL     1      -8.857  10.779  68.050  1.00  0.00    -0.132 C  
HETATM    6  N   UNL     1      -6.867   9.252  68.041  1.00  0.00    -0.068 NA 
HETATM    7  C   UNL     1      -7.356   8.388  66.979  1.00  0.00    -0.084 C  
HETATM    8  C   UNL     1      -9.569   9.752  68.942  1.00  0.00    -0.167 C  
HETATM    9  C   UNL     1      -8.702   8.664  69.605  1.00  0.00    -0.132 C  
ENDROOT
BRANCH   8  10
HETATM   10  O   UNL     1     -10.292  10.404  70.003  1.00  0.00    -0.235 OA 
BRANCH  10  11
HETATM   11  C   UNL     1     -11.651  10.377  69.826  1.00  0.00    -0.269 C  
HETATM   12  O   UNL     1     -12.219  10.737  68.801  1.00  0.00    -0.460 OA 
BRANCH  11  13
HETATM   13  C   UNL     1     -12.338   9.765  71.055  1.00  0.00    -0.332 C  
HETATM   14  O   UNL     1     -13.752   9.679  70.816  1.00  0.00    -0.567 OA 
HETATM   15  H   UNL     1     -14.177   9.300  71.576  1.00  0.00     0.000 HD 
BRANCH  13  16
HETATM   16  C   UNL     1     -11.804   8.412  71.477  1.00  0.00    -0.345 A  
HETATM   17  C   UNL     1     -11.891   7.292  70.636  1.00  0.00    -0.290 A  
HETATM   18  C   UNL     1     -11.356   6.064  71.029  1.00  0.00    -0.299 A  
HETATM   19  C   UNL     1     -10.710   5.942  72.258  1.00  0.00    -0.279 A  
HETATM   20  C   UNL     1     -10.590   7.046  73.092  1.00  0.00    -0.350 A  
HETATM   21  C   UNL     1     -11.122   8.273  72.702  1.00  0.00    -0.400 A  
ENDBRANCH  13  16
ENDBRANCH  11  13
ENDBRANCH  10  11
ENDBRANCH   8  10
TORSDOF 4
ENDMDL
MODEL      136
REMARK 921   NORMALIZED FREE ENERGY PREDICTED BY IDOCK:   -3.84 KCAL/MOL
REMARK 922        TOTAL FREE ENERGY PREDICTED BY IDOCK:   -5.66 KCAL/MOL
REMARK 923 INTER-LIGAND FREE ENERGY PREDICTED BY IDOCK:   -5.08 KCAL/MOL
REMARK 924 INTRA-LIGAND FREE ENERGY PREDICTED BY IDOCK:   -0.58 KCAL/MOL
REMARK 927      BINDING AFFINITY PREDICTED BY RF-SCORE:    0.00 PKD
ROOT
HETATM    1  C   UNL     1      -9.037   6.244  68.058  1.00  0.00    -0.112 C  
HETATM    2  C   UNL     1      -7.523   6.475  68.075  1.00  0.00    -0.095 C  
HETATM    3  C   UNL     1      -7.134   6.592  66.604  1.00  0.00    -0.068 C  
HETATM    4  C   UNL     1      -8.461   6.483  65.848  1.00  0.00    -0.147 C  
HETATM    5  C   UNL     1      -9.096   7.869  65.659  1.00  0.00    -0.018 C  
HETATM    6  N   UNL     1      -9.223   5.615  66.751  1.00  0.00    -0.125 NA 
HETATM    7  C   UNL     1     -10.601   5.351  66.372  1.00  0.00    -0.260 C  
HETATM    8  C   UNL     1      -9.762   8.451  66.916  1.00  0.00    -0.227 C  
HETATM    9  C   UNL     1      -9.802   7.563  68.174  1.00  0.00    -0.179 C  
ENDROOT
BRANCH   8  10
HETATM   10  O   UNL     1      -9.136   9.688  67.305  1.00  0.00    -0.133 OA 
BRANCH  10  11
HETATM   11  C   UNL     1      -9.894  10.425  68.178  1.00  0.00    -0.151 C  
HETATM   12  O   UNL     1      -9.486  10.854  69.250  1.00  0.00    -0.148 OA 
BRANCH  11  13
HETATM   13  C   UNL     1     -11.284  10.694  67.583  1.00  0.00    -0.290 C  
HETATM   14  O   UNL     1     -12.234  10.855  68.648  1.00  0.00    -0.785 OA 
HETATM   15  H   UNL     1     -13.093  11.021  68.280  1.00  0.00     0.000 HD 
BRANCH  13  16
HETATM   16  C   UNL     1     -11.358  11.880  66.643  1.00  0.00    -0.400 A  
HETATM   17  C   UNL     1     -11.076  11.751  65.274  1.00  0.00    -0.333 A  
HETATM   18  C   UNL     1     -11.189  12.848  64.419  1.00  0.00    -0.389 A  
HETATM   19  C   UNL     1     -11.602  14.084  64.915  1.00  0.00    -0.369 A  
HETATM   20  C   UNL     1     -11.911  14.223  66.262  1.00  0.00    -0.428 A  
HETATM   21  C   UNL     1     -11.801  13.129  67.117  1.00  0.00    -0.424 A  
ENDBRANCH  13  16
ENDBRANCH  11  13
ENDBRANCH  10  11
ENDBRANCH   8  10
TORSDOF 4
ENDMDL
MODEL      137
REMARK 921   NORMALIZED FREE ENERGY PREDICTED BY IDOCK:   -3.83 KCAL/MOL
REMARK 922        TOTAL FREE ENERGY PREDICTED BY IDOCK:   -5.65 KCAL/MOL
REMARK 923 INTER-LIGAND FREE ENERGY PREDICTED BY IDOCK:   -4.59 KCAL/MOL
REMARK 924 INTRA-LIGAND FREE ENERGY PREDICTED BY IDOCK:   -1.06 KCAL/MOL
REMARK 927      BINDING AFFINITY PREDICTED BY RF-SCORE:    0.00 PKD
ROOT
HETATM    1  C   UNL     1      -9.326   6.780  67.556  1.00  0.00    -0.124 C  
HETATM    2  C   UNL     1      -9.192   5.653  68.586  1.00  0.00    -0.134 C  
HETATM    3  C   UNL     1      -8.248   6.213  69.647  1.00  0.00    -0.116 C  
HETATM    4  C   UNL     1      -7.957   7.643  69.186  1.00  0.00    -0.120 C  
HETATM    5  C   UNL     1      -8.987   8.624  69.766  1.00  0.00    -0.145 C  
HETATM    6  N   UNL     1      -8.059   7.489  67.731  1.00  0.00    -0.117 NA 
HETATM    7  C   UNL     1      -7.907   8.704  66.947  1.00  0.00    -0.091 C  
HETATM    8  C   UNL     1     -10.363   8.593  69.084  1.00  0.00    -0.217 C  
HETATM    9  C   UNL     1     -10.530   7.671  67.861  1.00  0.00    -0.270 C  
ENDROOT
BRANCH   8  10
HETATM   10  O   UNL     1     -11.394   8.225  70.019  1.00  0.00    -0.154 OA 
BRANCH  10  11
HETATM   11  C   UNL     1     -11.638   9.190  70.961  1.00  0.00    -0.306 C  
HETATM   12  O   UNL     1     -11.664  10.392  70.724  1.00  0.00    -0.321 OA 
BRANCH  11  13
HETATM   13  C   UNL     1     -11.947   8.545  72.320  1.00  0.00    -0.385 C  
HETATM   14  O   UNL     1     -13.260   7.963  72.281  1.00  0.00    -0.502 OA 
HETATM   15  H   UNL     1     -13.451   7.564  73.122  1.00  0.00     0.000 HD 
BRANCH  13  16
HETATM   16  C   UNL     1     -10.939   7.513  72.781  1.00  0.00    -0.410 A  
HETATM   17  C   UNL     1      -9.695   7.887  73.312  1.00  0.00    -0.352 A  
HETATM   18  C   UNL     1      -8.797   6.921  73.768  1.00  0.00    -0.179 A  
HETATM   19  C   UNL     1      -9.135   5.570  73.717  1.00  0.00    -0.123 A  
HETATM   20  C   UNL     1     -10.373   5.183  73.220  1.00  0.00    -0.241 A  
HETATM   21  C   UNL     1     -11.272   6.145  72.765  1.00  0.00    -0.278 A  
ENDBRANCH  13  16
ENDBRANCH  11  13
ENDBRANCH  10  11
ENDBRANCH   8  10
TORSDOF 4
ENDMDL
MODEL      138
REMARK 921   NORMALIZED FREE ENERGY PREDICTED BY IDOCK:   -3.82 KCAL/MOL
REMARK 922        TOTAL FREE ENERGY PREDICTED BY IDOCK:   -5.63 KCAL/MOL
REMARK 923 INTER-LIGAND FREE ENERGY PREDICTED BY IDOCK:   -4.93 KCAL/MOL
REMARK 924 INTRA-LIGAND FREE ENERGY PREDICTED BY IDOCK:   -0.70 KCAL/MOL
REMARK 927      BINDING AFFINITY PREDICTED BY RF-SCORE:    0.00 PKD
ROOT
HETATM    1  C   UNL     1      -6.926   8.347  66.878  1.00  0.00    -0.074 C  
HETATM    2  C   UNL     1      -6.242   9.694  66.616  1.00  0.00    -0.065 C  
HETATM    3  C   UNL     1      -7.071  10.337  65.507  1.00  0.00    -0.142 C  
HETATM    4  C   UNL     1      -8.208   9.344  65.255  1.00  0.00    -0.132 C  
HETATM    5  C   UNL     1      -9.411   9.651  66.159  1.00  0.00    -0.274 C  
HETATM    6  N   UNL     1      -7.546   8.077  65.582  1.00  0.00    -0.081 NA 
HETATM    7  C   UNL     1      -8.378   6.886  65.521  1.00  0.00    -0.137 C  
HETATM    8  C   UNL     1      -9.246   9.218  67.624  1.00  0.00    -0.124 C  
HETATM    9  C   UNL     1      -7.960   8.458  67.999  1.00  0.00    -0.119 C  
ENDROOT
BRANCH   8  10
HETATM   10  O   UNL     1      -9.326  10.352  68.508  1.00  0.00    -0.147 OA 
BRANCH  10  11
HETATM   11  C   UNL     1     -10.335  10.247  69.430  1.00  0.00    -0.235 C  
HETATM   12  O   UNL     1     -10.164   9.943  70.605  1.00  0.00    -0.266 OA 
BRANCH  11  13
HETATM   13  C   UNL     1     -11.678  10.639  68.799  1.00  0.00    -0.188 C  
HETATM   14  O   UNL     1     -12.732  10.418  69.749  1.00  0.00    -0.563 OA 
HETATM   15  H   UNL     1     -13.563  10.660  69.358  1.00  0.00     0.000 HD 
BRANCH  13  16
HETATM   16  C   UNL     1     -11.747  12.058  68.274  1.00  0.00    -0.396 A  
HETATM   17  C   UNL     1     -11.691  13.165  69.136  1.00  0.00    -0.376 A  
HETATM   18  C   UNL     1     -11.715  14.464  68.628  1.00  0.00    -0.367 A  
HETATM   19  C   UNL     1     -11.777  14.677  67.251  1.00  0.00    -0.406 A  
HETATM   20  C   UNL     1     -11.805  13.595  66.382  1.00  0.00    -0.433 A  
HETATM   21  C   UNL     1     -11.780  12.297  66.886  1.00  0.00    -0.404 A  
ENDBRANCH  13  16
ENDBRANCH  11  13
ENDBRANCH  10  11
ENDBRANCH   8  10
TORSDOF 4
ENDMDL
MODEL      139
REMARK 921   NORMALIZED FREE ENERGY PREDICTED BY IDOCK:   -3.80 KCAL/MOL
REMARK 922        TOTAL FREE ENERGY PREDICTED BY IDOCK:   -5.60 KCAL/MOL
REMARK 923 INTER-LIGAND FREE ENERGY PREDICTED BY IDOCK:   -5.52 KCAL/MOL
REMARK 924 INTRA-LIGAND FREE ENERGY PREDICTED BY IDOCK:   -0.08 KCAL/MOL
REMARK 927      BINDING AFFINITY PREDICTED BY RF-SCORE:    0.00 PKD
ROOT
HETATM    1  C   UNL     1     -10.892  10.162  67.954  1.00  0.00    -0.284 C  
HETATM    2  C   UNL     1     -10.269   9.164  66.971  1.00  0.00    -0.333 C  
HETATM    3  C   UNL     1      -8.840   9.663  66.771  1.00  0.00    -0.148 C  
HETATM    4  C   UNL     1      -8.723  10.872  67.702  1.00  0.00    -0.127 C  
HETATM    5  C   UNL     1      -8.244  10.443  69.097  1.00  0.00    -0.157 C  
HETATM    6  N   UNL     1     -10.104  11.365  67.689  1.00  0.00    -0.178 NA 
HETATM    7  C   UNL     1     -10.385  12.501  68.552  1.00  0.00    -0.222 C  
HETATM    8  C   UNL     1      -9.315   9.770  69.968  1.00  0.00    -0.235 C  
HETATM    9  C   UNL     1     -10.744   9.683  69.399  1.00  0.00    -0.248 C  
ENDROOT
BRANCH   8  10
HETATM   10  O   UNL     1      -8.928   8.426  70.314  1.00  0.00    -0.141 OA 
BRANCH  10  11
HETATM   11  C   UNL     1      -9.250   8.087  71.602  1.00  0.00    -0.150 C  
HETATM   12  O   UNL     1      -8.762   8.613  72.595  1.00  0.00    -0.380 OA 
BRANCH  11  13
HETATM   13  C   UNL     1     -10.355   7.020  71.614  1.00  0.00    -0.198 C  
HETATM   14  O   UNL     1     -10.084   6.066  72.653  1.00  0.00    -0.175 OA 
HETATM   15  H   UNL     1     -10.767   5.407  72.660  1.00  0.00     0.000 HD 
BRANCH  13  16
HETATM   16  C   UNL     1     -11.762   7.560  71.764  1.00  0.00    -0.317 A  
HETATM   17  C   UNL     1     -12.887   6.748  71.551  1.00  0.00    -0.312 A  
HETATM   18  C   UNL     1     -14.174   7.255  71.734  1.00  0.00    -0.526 A  
HETATM   19  C   UNL     1     -14.356   8.573  72.150  1.00  0.00    -0.529 A  
HETATM   20  C   UNL     1     -13.254   9.383  72.392  1.00  0.00    -0.483 A  
HETATM   21  C   UNL     1     -11.968   8.879  72.211  1.00  0.00    -0.380 A  
ENDBRANCH  13  16
ENDBRANCH  11  13
ENDBRANCH  10  11
ENDBRANCH   8  10
TORSDOF 4
ENDMDL
MODEL      140
REMARK 921   NORMALIZED FREE ENERGY PREDICTED BY IDOCK:   -3.79 KCAL/MOL
REMARK 922        TOTAL FREE ENERGY PREDICTED BY IDOCK:   -5.60 KCAL/MOL
REMARK 923 INTER-LIGAND FREE ENERGY PREDICTED BY IDOCK:   -5.82 KCAL/MOL
REMARK 924 INTRA-LIGAND FREE ENERGY PREDICTED BY IDOCK:    0.22 KCAL/MOL
REMARK 927      BINDING AFFINITY PREDICTED BY RF-SCORE:    0.00 PKD
ROOT
HETATM    1  C   UNL     1     -12.125  13.924  64.506  1.00  0.00    -0.443 C  
HETATM    2  C   UNL     1     -12.974  13.948  65.782  1.00  0.00    -0.325 C  
HETATM    3  C   UNL     1     -12.248  13.010  66.744  1.00  0.00    -0.261 C  
HETATM    4  C   UNL     1     -11.002  12.564  65.976  1.00  0.00    -0.283 C  
HETATM    5  C   UNL     1      -9.831  13.525  66.230  1.00  0.00    -0.306 C  
HETATM    6  N   UNL     1     -11.497  12.606  64.596  1.00  0.00    -0.316 NA 
HETATM    7  C   UNL     1     -10.526  12.302  63.559  1.00  0.00    -0.424 C  
HETATM    8  C   UNL     1      -9.918  14.862  65.479  1.00  0.00    -0.358 C  
HETATM    9  C   UNL     1     -11.094  15.053  64.503  1.00  0.00    -0.248 C  
ENDROOT
BRANCH   8  10
HETATM   10  O   UNL     1      -9.964  15.968  66.399  1.00  0.00    -0.262 OA 
BRANCH  10  11
HETATM   11  C   UNL     1      -9.472  15.660  67.641  1.00  0.00    -0.211 C  
HETATM   12  O   UNL     1     -10.079  15.001  68.477  1.00  0.00    -0.214 OA 
BRANCH  11  13
HETATM   13  C   UNL     1      -8.037  16.186  67.793  1.00  0.00    -0.146 C  
HETATM   14  O   UNL     1      -7.114  15.192  67.322  1.00  0.00    -0.195 OA 
HETATM   15  H   UNL     1      -6.227  15.518  67.416  1.00  0.00     0.000 HD 
BRANCH  13  16
HETATM   16  C   UNL     1      -7.767  17.509  67.106  1.00  0.00    -0.228 A  
HETATM   17  C   UNL     1      -6.801  17.627  66.094  1.00  0.00    -0.328 A  
HETATM   18  C   UNL     1      -6.596  18.846  65.446  1.00  0.00    -0.288 A  
HETATM   19  C   UNL     1      -7.364  19.958  65.786  1.00  0.00    -0.337 A  
HETATM   20  C   UNL     1      -8.343  19.853  66.766  1.00  0.00    -0.364 A  
HETATM   21  C   UNL     1      -8.550  18.637  67.413  1.00  0.00    -0.281 A  
ENDBRANCH  13  16
ENDBRANCH  11  13
ENDBRANCH  10  11
ENDBRANCH   8  10
TORSDOF 4
ENDMDL
MODEL      141
REMARK 921   NORMALIZED FREE ENERGY PREDICTED BY IDOCK:   -3.77 KCAL/MOL
REMARK 922        TOTAL FREE ENERGY PREDICTED BY IDOCK:   -5.57 KCAL/MOL
REMARK 923 INTER-LIGAND FREE ENERGY PREDICTED BY IDOCK:   -5.40 KCAL/MOL
REMARK 924 INTRA-LIGAND FREE ENERGY PREDICTED BY IDOCK:   -0.16 KCAL/MOL
REMARK 927      BINDING AFFINITY PREDICTED BY RF-SCORE:    0.00 PKD
ROOT
HETATM    1  C   UNL     1     -10.662   7.902  69.718  1.00  0.00    -0.233 C  
HETATM    2  C   UNL     1     -11.121   8.274  71.132  1.00  0.00    -0.289 C  
HETATM    3  C   UNL     1      -9.854   8.760  71.832  1.00  0.00    -0.395 C  
HETATM    4  C   UNL     1      -8.771   8.692  70.752  1.00  0.00    -0.173 C  
HETATM    5  C   UNL     1      -8.694  10.013  69.973  1.00  0.00    -0.118 C  
HETATM    6  N   UNL     1      -9.257   7.569  69.944  1.00  0.00    -0.148 NA 
HETATM    7  C   UNL     1      -8.486   7.260  68.751  1.00  0.00    -0.129 C  
HETATM    8  C   UNL     1      -9.820  10.225  68.949  1.00  0.00    -0.195 C  
HETATM    9  C   UNL     1     -10.828   9.076  68.753  1.00  0.00    -0.067 C  
ENDROOT
BRANCH   8  10
HETATM   10  O   UNL     1     -10.592  11.399  69.267  1.00  0.00    -0.193 OA 
BRANCH  10  11
HETATM   11  C   UNL     1     -10.313  12.465  68.452  1.00  0.00    -0.229 C  
HETATM   12  O   UNL     1      -9.187  12.766  68.074  1.00  0.00    -0.196 OA 
BRANCH  11  13
HETATM   13  C   UNL     1     -11.611  13.166  68.026  1.00  0.00    -0.334 C  
HETATM   14  O   UNL     1     -12.135  13.911  69.136  1.00  0.00    -0.345 OA 
HETATM   15  H   UNL     1     -12.938  14.345  68.872  1.00  0.00     0.000 HD 
BRANCH  13  16
HETATM   16  C   UNL     1     -11.483  14.066  66.814  1.00  0.00    -0.379 A  
HETATM   17  C   UNL     1     -10.686  15.220  66.838  1.00  0.00    -0.313 A  
HETATM   18  C   UNL     1     -10.550  16.014  65.698  1.00  0.00    -0.392 A  
HETATM   19  C   UNL     1     -11.193  15.656  64.514  1.00  0.00    -0.337 A  
HETATM   20  C   UNL     1     -11.964  14.502  64.465  1.00  0.00    -0.482 A  
HETATM   21  C   UNL     1     -12.100  13.708  65.600  1.00  0.00    -0.457 A  
ENDBRANCH  13  16
ENDBRANCH  11  13
ENDBRANCH  10  11
ENDBRANCH   8  10
TORSDOF 4
ENDMDL
MODEL      142
REMARK 921   NORMALIZED FREE ENERGY PREDICTED BY IDOCK:   -3.76 KCAL/MOL
REMARK 922        TOTAL FREE ENERGY PREDICTED BY IDOCK:   -5.55 KCAL/MOL
REMARK 923 INTER-LIGAND FREE ENERGY PREDICTED BY IDOCK:   -4.78 KCAL/MOL
REMARK 924 INTRA-LIGAND FREE ENERGY PREDICTED BY IDOCK:   -0.78 KCAL/MOL
REMARK 927      BINDING AFFINITY PREDICTED BY RF-SCORE:    0.00 PKD
ROOT
HETATM    1  C   UNL     1     -10.656   9.802  67.791  1.00  0.00    -0.266 C  
HETATM    2  C   UNL     1     -10.591   8.354  67.294  1.00  0.00    -0.328 C  
HETATM    3  C   UNL     1      -9.393   8.326  66.348  1.00  0.00    -0.274 C  
HETATM    4  C   UNL     1      -8.817   9.742  66.418  1.00  0.00    -0.146 C  
HETATM    5  C   UNL     1      -7.770   9.850  67.537  1.00  0.00    -0.091 C  
HETATM    6  N   UNL     1     -10.031  10.521  66.682  1.00  0.00    -0.203 NA 
HETATM    7  C   UNL     1      -9.843  11.948  66.886  1.00  0.00    -0.202 C  
HETATM    8  C   UNL     1      -8.349   9.925  68.958  1.00  0.00    -0.130 C  
HETATM    9  C   UNL     1      -9.883   9.976  69.098  1.00  0.00    -0.213 C  
ENDROOT
BRANCH   8  10
HETATM   10  O   UNL     1      -7.900   8.815  69.757  1.00  0.00    -0.084 OA 
BRANCH  10  11
HETATM   11  C   UNL     1      -7.469   9.186  71.004  1.00  0.00    -0.097 C  
HETATM   12  O   UNL     1      -6.758  10.160  71.224  1.00  0.00    -0.308 OA 
BRANCH  11  13
HETATM   13  C   UNL     1      -8.067   8.261  72.074  1.00  0.00    -0.141 C  
HETATM   14  O   UNL     1      -7.990   8.904  73.355  1.00  0.00    -0.372 OA 
HETATM   15  H   UNL     1      -8.360   8.332  74.017  1.00  0.00     0.000 HD 
BRANCH  13  16
HETATM   16  C   UNL     1      -9.489   7.811  71.807  1.00  0.00    -0.191 A  
HETATM   17  C   UNL     1     -10.588   8.623  72.127  1.00  0.00    -0.411 A  
HETATM   18  C   UNL     1     -11.888   8.206  71.836  1.00  0.00    -0.366 A  
HETATM   19  C   UNL     1     -12.107   6.983  71.204  1.00  0.00    -0.412 A  
HETATM   20  C   UNL     1     -11.029   6.179  70.856  1.00  0.00    -0.359 A  
HETATM   21  C   UNL     1      -9.731   6.593  71.144  1.00  0.00    -0.184 A  
ENDBRANCH  13  16
ENDBRANCH  11  13
ENDBRANCH  10  11
ENDBRANCH   8  10
TORSDOF 4
ENDMDL
MODEL      143
REMARK 921   NORMALIZED FREE ENERGY PREDICTED BY IDOCK:   -3.73 KCAL/MOL
REMARK 922        TOTAL FREE ENERGY PREDICTED BY IDOCK:   -5.53 KCAL/MOL
REMARK 923 INTER-LIGAND FREE ENERGY PREDICTED BY IDOCK:   -4.45 KCAL/MOL
REMARK 924 INTRA-LIGAND FREE ENERGY PREDICTED BY IDOCK:   -1.07 KCAL/MOL
REMARK 927      BINDING AFFINITY PREDICTED BY RF-SCORE:    0.00 PKD
ROOT
HETATM    1  C   UNL     1      -8.954  11.283  67.211  1.00  0.00    -0.149 C  
HETATM    2  C   UNL     1      -9.237  11.532  68.696  1.00  0.00    -0.136 C  
HETATM    3  C   UNL     1     -10.637  10.966  68.921  1.00  0.00    -0.241 C  
HETATM    4  C   UNL     1     -11.033  10.376  67.566  1.00  0.00    -0.295 C  
HETATM    5  C   UNL     1     -10.594   8.908  67.460  1.00  0.00    -0.307 C  
HETATM    6  N   UNL     1     -10.306  11.265  66.654  1.00  0.00    -0.229 NA 
HETATM    7  C   UNL     1     -10.397  10.944  65.239  1.00  0.00    -0.268 C  
HETATM    8  C   UNL     1      -9.093   8.699  67.207  1.00  0.00    -0.133 C  
HETATM    9  C   UNL     1      -8.226   9.955  66.998  1.00  0.00    -0.117 C  
ENDROOT
BRANCH   8  10
HETATM   10  O   UNL     1      -8.488   7.956  68.282  1.00  0.00    -0.123 OA 
BRANCH  10  11
HETATM   11  C   UNL     1      -8.813   6.624  68.268  1.00  0.00    -0.124 C  
HETATM   12  O   UNL     1      -8.778   5.918  67.268  1.00  0.00    -0.110 OA 
BRANCH  11  13
HETATM   13  C   UNL     1      -9.147   6.141  69.687  1.00  0.00    -0.137 C  
HETATM   14  O   UNL     1      -7.930   5.978  70.432  1.00  0.00    -0.103 OA 
HETATM   15  H   UNL     1      -8.136   5.679  71.309  1.00  0.00     0.000 HD 
BRANCH  13  16
HETATM   16  C   UNL     1     -10.106   7.028  70.454  1.00  0.00    -0.198 A  
HETATM   17  C   UNL     1     -11.487   6.777  70.470  1.00  0.00    -0.413 A  
HETATM   18  C   UNL     1     -12.348   7.582  71.216  1.00  0.00    -0.356 A  
HETATM   19  C   UNL     1     -11.840   8.639  71.971  1.00  0.00    -0.443 A  
HETATM   20  C   UNL     1     -10.474   8.885  71.989  1.00  0.00    -0.383 A  
HETATM   21  C   UNL     1      -9.612   8.082  71.247  1.00  0.00    -0.191 A  
ENDBRANCH  13  16
ENDBRANCH  11  13
ENDBRANCH  10  11
ENDBRANCH   8  10
TORSDOF 4
ENDMDL
MODEL      144
REMARK 921   NORMALIZED FREE ENERGY PREDICTED BY IDOCK:   -3.73 KCAL/MOL
REMARK 922        TOTAL FREE ENERGY PREDICTED BY IDOCK:   -5.53 KCAL/MOL
REMARK 923 INTER-LIGAND FREE ENERGY PREDICTED BY IDOCK:   -5.26 KCAL/MOL
REMARK 924 INTRA-LIGAND FREE ENERGY PREDICTED BY IDOCK:   -0.27 KCAL/MOL
REMARK 927      BINDING AFFINITY PREDICTED BY RF-SCORE:    0.00 PKD
ROOT
HETATM    1  C   UNL     1      -9.953   4.911  68.478  1.00  0.00    -0.115 C  
HETATM    2  C   UNL     1      -8.965   3.822  68.908  1.00  0.00    -0.178 C  
HETATM    3  C   UNL     1      -7.620   4.538  69.002  1.00  0.00    -0.056 C  
HETATM    4  C   UNL     1      -7.942   5.999  68.681  1.00  0.00    -0.104 C  
HETATM    5  C   UNL     1      -8.300   6.772  69.960  1.00  0.00    -0.135 C  
HETATM    6  N   UNL     1      -9.075   5.838  67.765  1.00  0.00    -0.107 NA 
HETATM    7  C   UNL     1      -9.702   7.065  67.302  1.00  0.00    -0.149 C  
HETATM    8  C   UNL     1      -9.707   6.495  70.509  1.00  0.00    -0.172 C  
HETATM    9  C   UNL     1     -10.620   5.565  69.688  1.00  0.00    -0.375 C  
ENDROOT
BRANCH   8  10
HETATM   10  O   UNL     1      -9.643   5.940  71.836  1.00  0.00    -0.152 OA 
BRANCH  10  11
HETATM   11  C   UNL     1     -10.788   6.142  72.562  1.00  0.00    -0.240 C  
HETATM   12  O   UNL     1     -11.637   5.281  72.761  1.00  0.00    -0.284 OA 
BRANCH  11  13
HETATM   13  C   UNL     1     -10.807   7.562  73.146  1.00  0.00    -0.395 C  
HETATM   14  O   UNL     1      -9.458   8.010  73.350  1.00  0.00    -0.279 OA 
HETATM   15  H   UNL     1      -9.471   8.888  73.711  1.00  0.00     0.000 HD 
BRANCH  13  16
HETATM   16  C   UNL     1     -11.570   8.580  72.322  1.00  0.00    -0.444 A  
HETATM   17  C   UNL     1     -10.913   9.454  71.442  1.00  0.00    -0.443 A  
HETATM   18  C   UNL     1     -11.639  10.356  70.664  1.00  0.00    -0.440 A  
HETATM   19  C   UNL     1     -13.030  10.386  70.739  1.00  0.00    -0.422 A  
HETATM   20  C   UNL     1     -13.699   9.510  71.584  1.00  0.00    -0.365 A  
HETATM   21  C   UNL     1     -12.977   8.607  72.361  1.00  0.00    -0.403 A  
ENDBRANCH  13  16
ENDBRANCH  11  13
ENDBRANCH  10  11
ENDBRANCH   8  10
TORSDOF 4
ENDMDL
MODEL      145
REMARK 921   NORMALIZED FREE ENERGY PREDICTED BY IDOCK:   -3.72 KCAL/MOL
REMARK 922        TOTAL FREE ENERGY PREDICTED BY IDOCK:   -5.51 KCAL/MOL
REMARK 923 INTER-LIGAND FREE ENERGY PREDICTED BY IDOCK:   -5.19 KCAL/MOL
REMARK 924 INTRA-LIGAND FREE ENERGY PREDICTED BY IDOCK:   -0.32 KCAL/MOL
REMARK 927      BINDING AFFINITY PREDICTED BY RF-SCORE:    0.00 PKD
ROOT
HETATM    1  C   UNL     1      -8.268   5.917  66.719  1.00  0.00    -0.105 C  
HETATM    2  C   UNL     1      -9.108   5.272  65.611  1.00  0.00    -0.158 C  
HETATM    3  C   UNL     1     -10.510   5.162  66.206  1.00  0.00    -0.341 C  
HETATM    4  C   UNL     1     -10.391   5.809  67.588  1.00  0.00    -0.217 C  
HETATM    5  C   UNL     1     -10.679   7.316  67.511  1.00  0.00    -0.326 C  
HETATM    6  N   UNL     1      -8.995   5.502  67.918  1.00  0.00    -0.109 NA 
HETATM    7  C   UNL     1      -8.500   6.046  69.171  1.00  0.00    -0.114 C  
HETATM    8  C   UNL     1      -9.540   8.163  66.923  1.00  0.00    -0.208 C  
HETATM    9  C   UNL     1      -8.226   7.438  66.570  1.00  0.00    -0.120 C  
ENDROOT
BRANCH   8  10
HETATM   10  O   UNL     1      -9.967   8.845  65.730  1.00  0.00    -0.188 OA 
BRANCH  10  11
HETATM   11  C   UNL     1      -9.071   9.789  65.297  1.00  0.00    -0.211 C  
HETATM   12  O   UNL     1      -8.288   9.620  64.370  1.00  0.00    -0.145 OA 
BRANCH  11  13
HETATM   13  C   UNL     1      -9.248  11.095  66.085  1.00  0.00    -0.198 C  
HETATM   14  O   UNL     1      -8.048  11.877  65.983  1.00  0.00    -0.364 OA 
HETATM   15  H   UNL     1      -8.158  12.685  66.471  1.00  0.00     0.000 HD 
BRANCH  13  16
HETATM   16  C   UNL     1     -10.444  11.929  65.677  1.00  0.00    -0.302 A  
HETATM   17  C   UNL     1     -11.319  12.475  66.630  1.00  0.00    -0.389 A  
HETATM   18  C   UNL     1     -12.392  13.275  66.234  1.00  0.00    -0.382 A  
HETATM   19  C   UNL     1     -12.597  13.555  64.884  1.00  0.00    -0.392 A  
HETATM   20  C   UNL     1     -11.725  13.045  63.929  1.00  0.00    -0.531 A  
HETATM   21  C   UNL     1     -10.653  12.249  64.322  1.00  0.00    -0.387 A  
ENDBRANCH  13  16
ENDBRANCH  11  13
ENDBRANCH  10  11
ENDBRANCH   8  10
TORSDOF 4
ENDMDL
MODEL      146
REMARK 921   NORMALIZED FREE ENERGY PREDICTED BY IDOCK:   -3.70 KCAL/MOL
REMARK 922        TOTAL FREE ENERGY PREDICTED BY IDOCK:   -5.49 KCAL/MOL
REMARK 923 INTER-LIGAND FREE ENERGY PREDICTED BY IDOCK:   -5.45 KCAL/MOL
REMARK 924 INTRA-LIGAND FREE ENERGY PREDICTED BY IDOCK:   -0.04 KCAL/MOL
REMARK 927      BINDING AFFINITY PREDICTED BY RF-SCORE:    0.00 PKD
ROOT
HETATM    1  C   UNL     1      -8.731  10.095  68.242  1.00  0.00    -0.120 C  
HETATM    2  C   UNL     1      -7.563   9.130  68.013  1.00  0.00    -0.085 C  
HETATM    3  C   UNL     1      -8.203   7.744  68.012  1.00  0.00    -0.123 C  
HETATM    4  C   UNL     1      -9.700   8.014  68.176  1.00  0.00    -0.160 C  
HETATM    5  C   UNL     1     -10.376   8.189  66.808  1.00  0.00    -0.361 C  
HETATM    6  N   UNL     1      -9.673   9.246  68.970  1.00  0.00    -0.159 NA 
HETATM    7  C   UNL     1     -10.964   9.848  69.261  1.00  0.00    -0.211 C  
HETATM    8  C   UNL     1     -10.120   9.543  66.129  1.00  0.00    -0.256 C  
HETATM    9  C   UNL     1      -9.310  10.590  66.916  1.00  0.00    -0.181 C  
ENDROOT
BRANCH   8  10
HETATM   10  O   UNL     1      -9.450   9.369  64.867  1.00  0.00    -0.229 OA 
BRANCH  10  11
HETATM   11  C   UNL     1      -8.709  10.460  64.494  1.00  0.00    -0.194 C  
HETATM   12  O   UNL     1      -7.588  10.709  64.922  1.00  0.00    -0.056 OA 
BRANCH  11  13
HETATM   13  C   UNL     1      -9.450  11.266  63.417  1.00  0.00    -0.293 C  
HETATM   14  O   UNL     1     -10.091  10.362  62.503  1.00  0.00    -0.728 OA 
HETATM   15  H   UNL     1     -10.549  10.861  61.838  1.00  0.00     0.000 HD 
BRANCH  13  16
HETATM   16  C   UNL     1     -10.459  12.264  63.948  1.00  0.00    -0.458 A  
HETATM   17  C   UNL     1     -11.839  12.016  63.887  1.00  0.00    -0.543 A  
HETATM   18  C   UNL     1     -12.749  12.931  64.419  1.00  0.00    -0.322 A  
HETATM   19  C   UNL     1     -12.294  14.096  65.035  1.00  0.00    -0.452 A  
HETATM   20  C   UNL     1     -10.931  14.344  65.129  1.00  0.00    -0.380 A  
HETATM   21  C   UNL     1     -10.020  13.432  64.600  1.00  0.00    -0.132 A  
ENDBRANCH  13  16
ENDBRANCH  11  13
ENDBRANCH  10  11
ENDBRANCH   8  10
TORSDOF 4
ENDMDL
MODEL      147
REMARK 921   NORMALIZED FREE ENERGY PREDICTED BY IDOCK:   -3.70 KCAL/MOL
REMARK 922        TOTAL FREE ENERGY PREDICTED BY IDOCK:   -5.49 KCAL/MOL
REMARK 923 INTER-LIGAND FREE ENERGY PREDICTED BY IDOCK:   -5.03 KCAL/MOL
REMARK 924 INTRA-LIGAND FREE ENERGY PREDICTED BY IDOCK:   -0.45 KCAL/MOL
REMARK 927      BINDING AFFINITY PREDICTED BY RF-SCORE:    0.00 PKD
ROOT
HETATM    1  C   UNL     1      -9.347  10.715  66.318  1.00  0.00    -0.171 C  
HETATM    2  C   UNL     1      -9.327  10.956  64.804  1.00  0.00    -0.259 C  
HETATM    3  C   UNL     1     -10.682  11.589  64.498  1.00  0.00    -0.390 C  
HETATM    4  C   UNL     1     -11.358  11.725  65.864  1.00  0.00    -0.263 C  
HETATM    5  C   UNL     1     -11.016  13.075  66.511  1.00  0.00    -0.307 C  
HETATM    6  N   UNL     1     -10.780  10.579  66.574  1.00  0.00    -0.169 NA 
HETATM    7  C   UNL     1     -11.156  10.436  67.971  1.00  0.00    -0.298 C  
HETATM    8  C   UNL     1      -9.603  13.166  67.107  1.00  0.00    -0.235 C  
HETATM    9  C   UNL     1      -8.735  11.893  67.076  1.00  0.00    -0.181 C  
ENDROOT
BRANCH   8  10
HETATM   10  O   UNL     1      -8.837  14.201  66.463  1.00  0.00    -0.173 OA 
BRANCH  10  11
HETATM   11  C   UNL     1      -8.147  14.991  67.345  1.00  0.00    -0.193 C  
HETATM   12  O   UNL     1      -6.960  14.847  67.615  1.00  0.00    -0.158 OA 
BRANCH  11  13
HETATM   13  C   UNL     1      -9.050  16.113  67.876  1.00  0.00    -0.192 C  
HETATM   14  O   UNL     1      -9.254  15.932  69.286  1.00  0.00    -0.238 OA 
HETATM   15  H   UNL     1      -9.813  16.626  69.615  1.00  0.00     0.000 HD 
BRANCH  13  16
HETATM   16  C   UNL     1      -8.551  17.517  67.604  1.00  0.00    -0.219 A  
HETATM   17  C   UNL     1      -8.008  17.876  66.361  1.00  0.00    -0.302 A  
HETATM   18  C   UNL     1      -7.591  19.186  66.119  1.00  0.00    -0.299 A  
HETATM   19  C   UNL     1      -7.727  20.159  67.107  1.00  0.00    -0.343 A  
HETATM   20  C   UNL     1      -8.287  19.828  68.334  1.00  0.00    -0.291 A  
HETATM   21  C   UNL     1      -8.705  18.523  68.578  1.00  0.00    -0.352 A  
ENDBRANCH  13  16
ENDBRANCH  11  13
ENDBRANCH  10  11
ENDBRANCH   8  10
TORSDOF 4
ENDMDL
MODEL      148
REMARK 921   NORMALIZED FREE ENERGY PREDICTED BY IDOCK:   -3.70 KCAL/MOL
REMARK 922        TOTAL FREE ENERGY PREDICTED BY IDOCK:   -5.48 KCAL/MOL
REMARK 923 INTER-LIGAND FREE ENERGY PREDICTED BY IDOCK:   -4.79 KCAL/MOL
REMARK 924 INTRA-LIGAND FREE ENERGY PREDICTED BY IDOCK:   -0.69 KCAL/MOL
REMARK 927      BINDING AFFINITY PREDICTED BY RF-SCORE:    0.00 PKD
ROOT
HETATM    1  C   UNL     1     -10.358  10.066  66.179  1.00  0.00    -0.155 C  
HETATM    2  C   UNL     1      -9.373   8.893  66.172  1.00  0.00    -0.301 C  
HETATM    3  C   UNL     1      -8.016   9.529  66.466  1.00  0.00    -0.112 C  
HETATM    4  C   UNL     1      -8.328  11.011  66.683  1.00  0.00    -0.155 C  
HETATM    5  C   UNL     1      -8.638  11.293  68.161  1.00  0.00    -0.150 C  
HETATM    6  N   UNL     1      -9.490  11.181  65.805  1.00  0.00    -0.213 NA 
HETATM    7  C   UNL     1     -10.114  12.494  65.817  1.00  0.00    -0.262 C  
HETATM    8  C   UNL     1     -10.032  10.845  68.625  1.00  0.00    -0.189 C  
HETATM    9  C   UNL     1     -10.981  10.261  67.562  1.00  0.00    -0.344 C  
ENDROOT
BRANCH   8  10
HETATM   10  O   UNL     1      -9.936   9.863  69.674  1.00  0.00    -0.204 OA 
BRANCH  10  11
HETATM   11  C   UNL     1     -11.041   9.829  70.484  1.00  0.00    -0.321 C  
HETATM   12  O   UNL     1     -11.729  10.807  70.751  1.00  0.00    -0.328 OA 
BRANCH  11  13
HETATM   13  C   UNL     1     -11.328   8.389  70.935  1.00  0.00    -0.268 C  
HETATM   14  O   UNL     1     -12.731   8.119  70.795  1.00  0.00    -0.500 OA 
HETATM   15  H   UNL     1     -12.909   7.228  71.074  1.00  0.00     0.000 HD 
BRANCH  13  16
HETATM   16  C   UNL     1     -10.523   7.324  70.221  1.00  0.00    -0.231 A  
HETATM   17  C   UNL     1      -9.211   7.010  70.609  1.00  0.00    -0.158 A  
HETATM   18  C   UNL     1      -8.502   5.997  69.962  1.00  0.00    -0.131 A  
HETATM   19  C   UNL     1      -9.098   5.270  68.932  1.00  0.00    -0.136 A  
HETATM   20  C   UNL     1     -10.405   5.549  68.553  1.00  0.00    -0.247 A  
HETATM   21  C   UNL     1     -11.116   6.559  69.198  1.00  0.00    -0.387 A  
ENDBRANCH  13  16
ENDBRANCH  11  13
ENDBRANCH  10  11
ENDBRANCH   8  10
TORSDOF 4
ENDMDL
MODEL      149
REMARK 921   NORMALIZED FREE ENERGY PREDICTED BY IDOCK:   -3.69 KCAL/MOL
REMARK 922        TOTAL FREE ENERGY PREDICTED BY IDOCK:   -5.47 KCAL/MOL
REMARK 923 INTER-LIGAND FREE ENERGY PREDICTED BY IDOCK:   -5.06 KCAL/MOL
REMARK 924 INTRA-LIGAND FREE ENERGY PREDICTED BY IDOCK:   -0.40 KCAL/MOL
REMARK 927      BINDING AFFINITY PREDICTED BY RF-SCORE:    0.00 PKD
ROOT
HETATM    1  C   UNL     1     -10.624   5.602  68.153  1.00  0.00    -0.183 C  
HETATM    2  C   UNL     1     -11.596   6.408  69.021  1.00  0.00    -0.021 C  
HETATM    3  C   UNL     1     -10.698   7.268  69.907  1.00  0.00    -0.257 C  
HETATM    4  C   UNL     1      -9.277   6.942  69.442  1.00  0.00    -0.147 C  
HETATM    5  C   UNL     1      -8.844   7.884  68.307  1.00  0.00    -0.129 C  
HETATM    6  N   UNL     1      -9.440   5.551  69.009  1.00  0.00    -0.124 NA 
HETATM    7  C   UNL     1      -8.268   4.922  68.422  1.00  0.00    -0.084 C  
HETATM    8  C   UNL     1      -9.457   7.565  66.935  1.00  0.00    -0.171 C  
HETATM    9  C   UNL     1     -10.344   6.310  66.827  1.00  0.00    -0.285 C  
ENDROOT
BRANCH   8  10
HETATM   10  O   UNL     1     -10.247   8.668  66.453  1.00  0.00    -0.282 OA 
BRANCH  10  11
HETATM   11  C   UNL     1      -9.507   9.611  65.788  1.00  0.00    -0.246 C  
HETATM   12  O   UNL     1      -8.927   9.408  64.728  1.00  0.00    -0.201 OA 
BRANCH  11  13
HETATM   13  C   UNL     1      -9.580  10.961  66.517  1.00  0.00    -0.194 C  
HETATM   14  O   UNL     1      -8.329  11.650  66.368  1.00  0.00    -0.273 OA 
HETATM   15  H   UNL     1      -8.374  12.484  66.820  1.00  0.00     0.000 HD 
BRANCH  13  16
HETATM   16  C   UNL     1     -10.719  11.860  66.083  1.00  0.00    -0.318 A  
HETATM   17  C   UNL     1     -11.313  12.773  66.969  1.00  0.00    -0.364 A  
HETATM   18  C   UNL     1     -12.334  13.621  66.537  1.00  0.00    -0.412 A  
HETATM   19  C   UNL     1     -12.763  13.582  65.211  1.00  0.00    -0.481 A  
HETATM   20  C   UNL     1     -12.168  12.704  64.314  1.00  0.00    -0.524 A  
HETATM   21  C   UNL     1     -11.148  11.858  64.742  1.00  0.00    -0.367 A  
ENDBRANCH  13  16
ENDBRANCH  11  13
ENDBRANCH  10  11
ENDBRANCH   8  10
TORSDOF 4
ENDMDL
MODEL      150
REMARK 921   NORMALIZED FREE ENERGY PREDICTED BY IDOCK:   -3.67 KCAL/MOL
REMARK 922        TOTAL FREE ENERGY PREDICTED BY IDOCK:   -5.45 KCAL/MOL
REMARK 923 INTER-LIGAND FREE ENERGY PREDICTED BY IDOCK:   -4.88 KCAL/MOL
REMARK 924 INTRA-LIGAND FREE ENERGY PREDICTED BY IDOCK:   -0.57 KCAL/MOL
REMARK 927      BINDING AFFINITY PREDICTED BY RF-SCORE:    0.00 PKD
ROOT
HETATM    1  C   UNL     1     -10.915   8.916  71.892  1.00  0.00    -0.369 C  
HETATM    2  C   UNL     1      -9.771   8.147  72.561  1.00  0.00    -0.357 C  
HETATM    3  C   UNL     1     -10.305   6.727  72.724  1.00  0.00    -0.233 C  
HETATM    4  C   UNL     1     -11.693   6.764  72.080  1.00  0.00    -0.306 C  
HETATM    5  C   UNL     1     -11.609   6.425  70.584  1.00  0.00    -0.412 C  
HETATM    6  N   UNL     1     -12.080   8.154  72.338  1.00  0.00    -0.359 NA 
HETATM    7  C   UNL     1     -13.356   8.576  71.783  1.00  0.00    -0.367 C  
HETATM    8  C   UNL     1     -11.073   7.557  69.694  1.00  0.00    -0.085 C  
HETATM    9  C   UNL     1     -10.773   8.910  70.369  1.00  0.00    -0.261 C  
ENDROOT
BRANCH   8  10
HETATM   10  O   UNL     1      -9.865   7.157  69.021  1.00  0.00    -0.152 OA 
BRANCH  10  11
HETATM   11  C   UNL     1     -10.014   7.051  67.663  1.00  0.00    -0.154 C  
HETATM   12  O   UNL     1      -9.693   7.924  66.865  1.00  0.00    -0.183 OA 
BRANCH  11  13
HETATM   13  C   UNL     1     -10.560   5.664  67.292  1.00  0.00    -0.254 C  
HETATM   14  O   UNL     1     -11.227   5.741  66.022  1.00  0.00    -0.677 OA 
HETATM   15  H   UNL     1     -11.565   4.884  65.793  1.00  0.00     0.000 HD 
BRANCH  13  16
HETATM   16  C   UNL     1      -9.526   4.557  67.265  1.00  0.00    -0.184 A  
HETATM   17  C   UNL     1      -8.436   4.591  66.381  1.00  0.00    -0.112 A  
HETATM   18  C   UNL     1      -7.474   3.581  66.401  1.00  0.00    -0.077 A  
HETATM   19  C   UNL     1      -7.576   2.533  67.315  1.00  0.00    -0.061 A  
HETATM   20  C   UNL     1      -8.633   2.498  68.215  1.00  0.00    -0.109 A  
HETATM   21  C   UNL     1      -9.594   3.506  68.199  1.00  0.00    -0.164 A  
ENDBRANCH  13  16
ENDBRANCH  11  13
ENDBRANCH  10  11
ENDBRANCH   8  10
TORSDOF 4
ENDMDL
MODEL      151
REMARK 921   NORMALIZED FREE ENERGY PREDICTED BY IDOCK:   -3.67 KCAL/MOL
REMARK 922        TOTAL FREE ENERGY PREDICTED BY IDOCK:   -5.45 KCAL/MOL
REMARK 923 INTER-LIGAND FREE ENERGY PREDICTED BY IDOCK:   -4.77 KCAL/MOL
REMARK 924 INTRA-LIGAND FREE ENERGY PREDICTED BY IDOCK:   -0.68 KCAL/MOL
REMARK 927      BINDING AFFINITY PREDICTED BY RF-SCORE:    0.00 PKD
ROOT
HETATM    1  C   UNL     1     -12.465  14.032  65.636  1.00  0.00    -0.504 C  
HETATM    2  C   UNL     1     -12.764  12.757  64.840  1.00  0.00    -0.479 C  
HETATM    3  C   UNL     1     -11.455  12.437  64.122  1.00  0.00    -0.448 C  
HETATM    4  C   UNL     1     -10.480  13.513  64.605  1.00  0.00    -0.421 C  
HETATM    5  C   UNL     1      -9.748  13.056  65.876  1.00  0.00    -0.187 C  
HETATM    6  N   UNL     1     -11.399  14.633  64.837  1.00  0.00    -0.385 NA 
HETATM    7  C   UNL     1     -10.807  15.841  65.389  1.00  0.00    -0.364 C  
HETATM    8  C   UNL     1     -10.586  13.117  67.162  1.00  0.00    -0.257 C  
HETATM    9  C   UNL     1     -12.006  13.705  67.057  1.00  0.00    -0.448 C  
ENDROOT
BRANCH   8  10
HETATM   10  O   UNL     1     -10.724  11.811  67.750  1.00  0.00    -0.193 OA 
BRANCH  10  11
HETATM   11  C   UNL     1      -9.531  11.270  68.152  1.00  0.00    -0.184 C  
HETATM   12  O   UNL     1      -8.749  11.821  68.917  1.00  0.00    -0.030 OA 
BRANCH  11  13
HETATM   13  C   UNL     1      -9.361   9.858  67.571  1.00  0.00    -0.140 C  
HETATM   14  O   UNL     1     -10.310   9.664  66.511  1.00  0.00    -0.239 OA 
HETATM   15  H   UNL     1     -10.205   8.791  66.152  1.00  0.00     0.000 HD 
BRANCH  13  16
HETATM   16  C   UNL     1      -7.965   9.534  67.079  1.00  0.00    -0.109 A  
HETATM   17  C   UNL     1      -7.192   8.526  67.674  1.00  0.00    -0.084 A  
HETATM   18  C   UNL     1      -5.925   8.216  67.179  1.00  0.00    -0.050 A  
HETATM   19  C   UNL     1      -5.419   8.896  66.072  1.00  0.00    -0.037 A  
HETATM   20  C   UNL     1      -6.181   9.879  65.454  1.00  0.00    -0.087 A  
HETATM   21  C   UNL     1      -7.447  10.188  65.945  1.00  0.00    -0.125 A  
ENDBRANCH  13  16
ENDBRANCH  11  13
ENDBRANCH  10  11
ENDBRANCH   8  10
TORSDOF 4
ENDMDL
MODEL      152
REMARK 921   NORMALIZED FREE ENERGY PREDICTED BY IDOCK:   -3.67 KCAL/MOL
REMARK 922        TOTAL FREE ENERGY PREDICTED BY IDOCK:   -5.44 KCAL/MOL
REMARK 923 INTER-LIGAND FREE ENERGY PREDICTED BY IDOCK:   -4.69 KCAL/MOL
REMARK 924 INTRA-LIGAND FREE ENERGY PREDICTED BY IDOCK:   -0.75 KCAL/MOL
REMARK 927      BINDING AFFINITY PREDICTED BY RF-SCORE:    0.00 PKD
ROOT
HETATM    1  C   UNL     1     -11.783  12.100  67.906  1.00  0.00    -0.336 C  
HETATM    2  C   UNL     1     -11.465  11.750  66.448  1.00  0.00    -0.309 C  
HETATM    3  C   UNL     1     -10.370  12.735  66.046  1.00  0.00    -0.291 C  
HETATM    4  C   UNL     1     -10.092  13.538  67.319  1.00  0.00    -0.235 C  
HETATM    5  C   UNL     1      -9.000  12.863  68.162  1.00  0.00    -0.202 C  
HETATM    6  N   UNL     1     -11.413  13.513  67.955  1.00  0.00    -0.288 NA 
HETATM    7  C   UNL     1     -11.504  14.141  69.263  1.00  0.00    -0.292 C  
HETATM    8  C   UNL     1      -9.461  11.624  68.944  1.00  0.00     0.028 C  
HETATM    9  C   UNL     1     -10.955  11.254  68.874  1.00  0.00    -0.274 C  
ENDROOT
BRANCH   8  10
HETATM   10  O   UNL     1      -8.728  10.454  68.534  1.00  0.00    -0.123 OA 
BRANCH  10  11
HETATM   11  C   UNL     1      -7.954   9.924  69.534  1.00  0.00    -0.148 C  
HETATM   12  O   UNL     1      -7.224  10.586  70.262  1.00  0.00    -0.226 OA 
BRANCH  11  13
HETATM   13  C   UNL     1      -8.194   8.412  69.652  1.00  0.00    -0.117 C  
HETATM   14  O   UNL     1      -6.990   7.774  70.104  1.00  0.00    -0.049 OA 
HETATM   15  H   UNL     1      -7.138   6.839  70.177  1.00  0.00     0.000 HD 
BRANCH  13  16
HETATM   16  C   UNL     1      -9.353   8.018  70.545  1.00  0.00    -0.155 A  
HETATM   17  C   UNL     1      -9.595   8.669  71.764  1.00  0.00    -0.360 A  
HETATM   18  C   UNL     1     -10.692   8.317  72.552  1.00  0.00    -0.411 A  
HETATM   19  C   UNL     1     -11.572   7.323  72.125  1.00  0.00    -0.324 A  
HETATM   20  C   UNL     1     -11.363   6.688  70.907  1.00  0.00    -0.377 A  
HETATM   21  C   UNL     1     -10.270   7.038  70.119  1.00  0.00    -0.206 A  
ENDBRANCH  13  16
ENDBRANCH  11  13
ENDBRANCH  10  11
ENDBRANCH   8  10
TORSDOF 4
ENDMDL
MODEL      153
REMARK 921   NORMALIZED FREE ENERGY PREDICTED BY IDOCK:   -3.66 KCAL/MOL
REMARK 922        TOTAL FREE ENERGY PREDICTED BY IDOCK:   -5.43 KCAL/MOL
REMARK 923 INTER-LIGAND FREE ENERGY PREDICTED BY IDOCK:   -4.87 KCAL/MOL
REMARK 924 INTRA-LIGAND FREE ENERGY PREDICTED BY IDOCK:   -0.56 KCAL/MOL
REMARK 927      BINDING AFFINITY PREDICTED BY RF-SCORE:    0.00 PKD
ROOT
HETATM    1  C   UNL     1     -12.132  13.984  67.121  1.00  0.00    -0.401 C  
HETATM    2  C   UNL     1     -12.759  14.210  65.741  1.00  0.00    -0.443 C  
HETATM    3  C   UNL     1     -11.608  14.715  64.874  1.00  0.00    -0.405 C  
HETATM    4  C   UNL     1     -10.390  14.684  65.799  1.00  0.00    -0.332 C  
HETATM    5  C   UNL     1      -9.681  13.323  65.722  1.00  0.00    -0.149 C  
HETATM    6  N   UNL     1     -11.022  14.936  67.097  1.00  0.00    -0.315 NA 
HETATM    7  C   UNL     1     -10.142  14.903  68.254  1.00  0.00    -0.221 C  
HETATM    8  C   UNL     1     -10.387  12.185  66.475  1.00  0.00    -0.213 C  
HETATM    9  C   UNL     1     -11.649  12.543  67.283  1.00  0.00    -0.434 C  
ENDROOT
BRANCH   8  10
HETATM   10  O   UNL     1     -10.763  11.126  65.574  1.00  0.00    -0.251 OA 
BRANCH  10  11
HETATM   11  C   UNL     1      -9.995  10.000  65.715  1.00  0.00    -0.276 C  
HETATM   12  O   UNL     1      -9.372   9.472  64.800  1.00  0.00    -0.245 OA 
BRANCH  11  13
HETATM   13  C   UNL     1      -9.968   9.551  67.183  1.00  0.00    -0.204 C  
HETATM   14  O   UNL     1     -10.928   8.501  67.377  1.00  0.00    -0.470 OA 
HETATM   15  H   UNL     1     -10.912   8.223  68.285  1.00  0.00     0.000 HD 
BRANCH  13  16
HETATM   16  C   UNL     1      -8.611   9.109  67.691  1.00  0.00    -0.117 A  
HETATM   17  C   UNL     1      -7.562  10.023  67.875  1.00  0.00    -0.089 A  
HETATM   18  C   UNL     1      -6.332   9.601  68.382  1.00  0.00    -0.051 A  
HETATM   19  C   UNL     1      -6.139   8.265  68.731  1.00  0.00    -0.044 A  
HETATM   20  C   UNL     1      -7.175   7.352  68.581  1.00  0.00    -0.090 A  
HETATM   21  C   UNL     1      -8.403   7.771  68.077  1.00  0.00    -0.124 A  
ENDBRANCH  13  16
ENDBRANCH  11  13
ENDBRANCH  10  11
ENDBRANCH   8  10
TORSDOF 4
ENDMDL
MODEL      154
REMARK 921   NORMALIZED FREE ENERGY PREDICTED BY IDOCK:   -3.65 KCAL/MOL
REMARK 922        TOTAL FREE ENERGY PREDICTED BY IDOCK:   -5.42 KCAL/MOL
REMARK 923 INTER-LIGAND FREE ENERGY PREDICTED BY IDOCK:   -4.89 KCAL/MOL
REMARK 924 INTRA-LIGAND FREE ENERGY PREDICTED BY IDOCK:   -0.53 KCAL/MOL
REMARK 927      BINDING AFFINITY PREDICTED BY RF-SCORE:    0.00 PKD
ROOT
HETATM    1  C   UNL     1     -10.556   5.947  68.919  1.00  0.00    -0.288 C  
HETATM    2  C   UNL     1     -11.612   6.534  69.862  1.00  0.00    -0.433 C  
HETATM    3  C   UNL     1     -10.859   7.582  70.678  1.00  0.00    -0.251 C  
HETATM    4  C   UNL     1      -9.440   7.567  70.103  1.00  0.00    -0.161 C  
HETATM    5  C   UNL     1      -9.312   8.563  68.941  1.00  0.00    -0.146 C  
HETATM    6  N   UNL     1      -9.328   6.167  69.681  1.00  0.00    -0.145 NA 
HETATM    7  C   UNL     1      -8.095   5.800  69.003  1.00  0.00    -0.101 C  
HETATM    8  C   UNL     1      -9.943   8.099  67.620  1.00  0.00    -0.185 C  
HETATM    9  C   UNL     1     -10.540   6.679  67.577  1.00  0.00    -0.347 C  
ENDROOT
BRANCH   8  10
HETATM   10  O   UNL     1     -10.988   8.997  67.204  1.00  0.00    -0.119 OA 
BRANCH  10  11
HETATM   11  C   UNL     1     -10.517  10.125  66.583  1.00  0.00    -0.185 C  
HETATM   12  O   UNL     1      -9.565  10.138  65.811  1.00  0.00    -0.195 OA 
BRANCH  11  13
HETATM   13  C   UNL     1     -11.395  11.335  66.933  1.00  0.00    -0.155 C  
HETATM   14  O   UNL     1     -12.188  11.027  68.090  1.00  0.00    -0.765 OA 
HETATM   15  H   UNL     1     -12.731  11.775  68.306  1.00  0.00     0.000 HD 
BRANCH  13  16
HETATM   16  C   UNL     1     -10.639  12.629  67.155  1.00  0.00    -0.252 A  
HETATM   17  C   UNL     1     -11.058  13.834  66.570  1.00  0.00    -0.309 A  
HETATM   18  C   UNL     1     -10.370  15.022  66.820  1.00  0.00    -0.270 A  
HETATM   19  C   UNL     1      -9.267  15.028  67.673  1.00  0.00    -0.182 A  
HETATM   20  C   UNL     1      -8.856  13.849  68.283  1.00  0.00    -0.185 A  
HETATM   21  C   UNL     1      -9.541  12.662  68.035  1.00  0.00    -0.213 A  
ENDBRANCH  13  16
ENDBRANCH  11  13
ENDBRANCH  10  11
ENDBRANCH   8  10
TORSDOF 4
ENDMDL
MODEL      155
REMARK 921   NORMALIZED FREE ENERGY PREDICTED BY IDOCK:   -3.62 KCAL/MOL
REMARK 922        TOTAL FREE ENERGY PREDICTED BY IDOCK:   -5.39 KCAL/MOL
REMARK 923 INTER-LIGAND FREE ENERGY PREDICTED BY IDOCK:   -4.69 KCAL/MOL
REMARK 924 INTRA-LIGAND FREE ENERGY PREDICTED BY IDOCK:   -0.70 KCAL/MOL
REMARK 927      BINDING AFFINITY PREDICTED BY RF-SCORE:    0.00 PKD
ROOT
HETATM    1  C   UNL     1     -11.053  10.340  66.830  1.00  0.00     0.033 C  
HETATM    2  C   UNL     1     -10.994  10.099  68.343  1.00  0.00    -0.293 C  
HETATM    3  C   UNL     1      -9.503  10.000  68.658  1.00  0.00    -0.156 C  
HETATM    4  C   UNL     1      -8.811  10.254  67.317  1.00  0.00    -0.132 C  
HETATM    5  C   UNL     1      -8.540  11.753  67.118  1.00  0.00    -0.168 C  
HETATM    6  N   UNL     1      -9.808   9.716  66.386  1.00  0.00    -0.225 NA 
HETATM    7  C   UNL     1      -9.504   9.861  64.971  1.00  0.00    -0.280 C  
HETATM    8  C   UNL     1      -9.772  12.587  66.735  1.00  0.00    -0.234 C  
HETATM    9  C   UNL     1     -11.097  11.833  66.507  1.00  0.00    -0.364 C  
ENDROOT
BRANCH   8  10
HETATM   10  O   UNL     1     -10.039  13.596  67.726  1.00  0.00    -0.233 OA 
BRANCH  10  11
HETATM   11  C   UNL     1     -10.631  14.719  67.207  1.00  0.00    -0.273 C  
HETATM   12  O   UNL     1     -11.694  15.182  67.605  1.00  0.00    -0.329 OA 
BRANCH  11  13
HETATM   13  C   UNL     1      -9.739  15.341  66.124  1.00  0.00    -0.314 C  
HETATM   14  O   UNL     1     -10.555  16.085  65.206  1.00  0.00    -0.407 OA 
HETATM   15  H   UNL     1     -10.003  16.470  64.536  1.00  0.00     0.000 HD 
BRANCH  13  16
HETATM   16  C   UNL     1      -8.620  16.218  66.646  1.00  0.00    -0.302 A  
HETATM   17  C   UNL     1      -7.327  15.713  66.855  1.00  0.00    -0.127 A  
HETATM   18  C   UNL     1      -6.300  16.548  67.298  1.00  0.00    -0.213 A  
HETATM   19  C   UNL     1      -6.545  17.903  67.520  1.00  0.00    -0.183 A  
HETATM   20  C   UNL     1      -7.811  18.426  67.292  1.00  0.00    -0.234 A  
HETATM   21  C   UNL     1      -8.837  17.595  66.849  1.00  0.00    -0.260 A  
ENDBRANCH  13  16
ENDBRANCH  11  13
ENDBRANCH  10  11
ENDBRANCH   8  10
TORSDOF 4
ENDMDL
MODEL      156
REMARK 921   NORMALIZED FREE ENERGY PREDICTED BY IDOCK:   -3.61 KCAL/MOL
REMARK 922        TOTAL FREE ENERGY PREDICTED BY IDOCK:   -5.38 KCAL/MOL
REMARK 923 INTER-LIGAND FREE ENERGY PREDICTED BY IDOCK:   -4.72 KCAL/MOL
REMARK 924 INTRA-LIGAND FREE ENERGY PREDICTED BY IDOCK:   -0.66 KCAL/MOL
REMARK 927      BINDING AFFINITY PREDICTED BY RF-SCORE:    0.00 PKD
ROOT
HETATM    1  C   UNL     1     -10.265   7.629  67.007  1.00  0.00    -0.300 C  
HETATM    2  C   UNL     1     -11.155   6.401  67.231  1.00  0.00    -0.416 C  
HETATM    3  C   UNL     1     -10.260   5.406  67.966  1.00  0.00    -0.221 C  
HETATM    4  C   UNL     1      -8.941   6.156  68.168  1.00  0.00    -0.114 C  
HETATM    5  C   UNL     1      -8.951   6.931  69.493  1.00  0.00    -0.143 C  
HETATM    6  N   UNL     1      -8.934   7.026  66.987  1.00  0.00    -0.121 NA 
HETATM    7  C   UNL     1      -7.824   7.959  66.888  1.00  0.00    -0.104 C  
HETATM    8  C   UNL     1      -9.781   8.224  69.479  1.00  0.00    -0.174 C  
HETATM    9  C   UNL     1     -10.421   8.642  68.141  1.00  0.00    -0.241 C  
ENDROOT
BRANCH   8  10
HETATM   10  O   UNL     1     -10.848   8.164  70.444  1.00  0.00    -0.231 OA 
BRANCH  10  11
HETATM   11  C   UNL     1     -10.412   8.274  71.738  1.00  0.00    -0.259 C  
HETATM   12  O   UNL     1      -9.522   9.033  72.102  1.00  0.00    -0.340 OA 
BRANCH  11  13
HETATM   13  C   UNL     1     -11.247   7.375  72.662  1.00  0.00    -0.332 C  
HETATM   14  O   UNL     1     -12.576   7.251  72.130  1.00  0.00    -0.469 OA 
HETATM   15  H   UNL     1     -13.092   6.696  72.701  1.00  0.00     0.000 HD 
BRANCH  13  16
HETATM   16  C   UNL     1     -10.663   6.001  72.915  1.00  0.00    -0.277 A  
HETATM   17  C   UNL     1     -11.480   4.866  73.040  1.00  0.00    -0.327 A  
HETATM   18  C   UNL     1     -10.919   3.604  73.232  1.00  0.00    -0.276 A  
HETATM   19  C   UNL     1      -9.534   3.453  73.284  1.00  0.00    -0.131 A  
HETATM   20  C   UNL     1      -8.709   4.560  73.135  1.00  0.00    -0.108 A  
HETATM   21  C   UNL     1      -9.267   5.821  72.941  1.00  0.00    -0.134 A  
ENDBRANCH  13  16
ENDBRANCH  11  13
ENDBRANCH  10  11
ENDBRANCH   8  10
TORSDOF 4
ENDMDL
MODEL      157
REMARK 921   NORMALIZED FREE ENERGY PREDICTED BY IDOCK:   -3.61 KCAL/MOL
REMARK 922        TOTAL FREE ENERGY PREDICTED BY IDOCK:   -5.37 KCAL/MOL
REMARK 923 INTER-LIGAND FREE ENERGY PREDICTED BY IDOCK:   -4.60 KCAL/MOL
REMARK 924 INTRA-LIGAND FREE ENERGY PREDICTED BY IDOCK:   -0.77 KCAL/MOL
REMARK 927      BINDING AFFINITY PREDICTED BY RF-SCORE:    0.00 PKD
ROOT
HETATM    1  C   UNL     1      -7.866   5.485  67.000  1.00  0.00    -0.101 C  
HETATM    2  C   UNL     1      -8.997   5.566  65.970  1.00  0.00    -0.154 C  
HETATM    3  C   UNL     1     -10.005   4.512  66.422  1.00  0.00    -0.267 C  
HETATM    4  C   UNL     1      -9.412   3.945  67.714  1.00  0.00    -0.179 C  
HETATM    5  C   UNL     1      -9.894   4.746  68.933  1.00  0.00    -0.230 C  
HETATM    6  N   UNL     1      -7.978   4.098  67.450  1.00  0.00    -0.091 NA 
HETATM    7  C   UNL     1      -7.085   3.716  68.531  1.00  0.00    -0.051 C  
HETATM    8  C   UNL     1      -9.213   6.110  69.119  1.00  0.00    -0.127 C  
HETATM    9  C   UNL     1      -8.081   6.479  68.141  1.00  0.00    -0.113 C  
ENDROOT
BRANCH   8  10
HETATM   10  O   UNL     1     -10.175   7.180  69.057  1.00  0.00    -0.178 OA 
BRANCH  10  11
HETATM   11  C   UNL     1     -10.126   8.014  70.143  1.00  0.00    -0.194 C  
HETATM   12  O   UNL     1      -9.300   8.908  70.287  1.00  0.00    -0.163 OA 
BRANCH  11  13
HETATM   13  C   UNL     1     -11.292   7.717  71.098  1.00  0.00    -0.269 C  
HETATM   14  O   UNL     1     -12.396   7.186  70.349  1.00  0.00    -0.589 OA 
HETATM   15  H   UNL     1     -13.116   7.002  70.939  1.00  0.00     0.000 HD 
BRANCH  13  16
HETATM   16  C   UNL     1     -10.954   6.790  72.247  1.00  0.00    -0.276 A  
HETATM   17  C   UNL     1     -10.148   7.209  73.317  1.00  0.00    -0.318 A  
HETATM   18  C   UNL     1      -9.883   6.352  74.386  1.00  0.00    -0.338 A  
HETATM   19  C   UNL     1     -10.434   5.071  74.411  1.00  0.00    -0.313 A  
HETATM   20  C   UNL     1     -11.257   4.650  73.374  1.00  0.00    -0.423 A  
HETATM   21  C   UNL     1     -11.524   5.504  72.307  1.00  0.00    -0.221 A  
ENDBRANCH  13  16
ENDBRANCH  11  13
ENDBRANCH  10  11
ENDBRANCH   8  10
TORSDOF 4
ENDMDL
MODEL      158
REMARK 921   NORMALIZED FREE ENERGY PREDICTED BY IDOCK:   -3.60 KCAL/MOL
REMARK 922        TOTAL FREE ENERGY PREDICTED BY IDOCK:   -5.36 KCAL/MOL
REMARK 923 INTER-LIGAND FREE ENERGY PREDICTED BY IDOCK:   -5.13 KCAL/MOL
REMARK 924 INTRA-LIGAND FREE ENERGY PREDICTED BY IDOCK:   -0.24 KCAL/MOL
REMARK 927      BINDING AFFINITY PREDICTED BY RF-SCORE:    0.00 PKD
ROOT
HETATM    1  C   UNL     1      -8.800   9.077  70.474  1.00  0.00    -0.208 C  
HETATM    2  C   UNL     1      -7.942   7.859  70.115  1.00  0.00    -0.107 C  
HETATM    3  C   UNL     1      -8.937   6.831  69.581  1.00  0.00    -0.143 C  
HETATM    4  C   UNL     1     -10.286   7.553  69.612  1.00  0.00    -0.205 C  
HETATM    5  C   UNL     1     -10.537   8.295  68.291  1.00  0.00    -0.157 C  
HETATM    6  N   UNL     1     -10.092   8.452  70.754  1.00  0.00    -0.190 NA 
HETATM    7  C   UNL     1     -11.183   9.370  71.038  1.00  0.00    -0.342 C  
HETATM    8  C   UNL     1      -9.747   9.602  68.123  1.00  0.00    -0.146 C  
HETATM    9  C   UNL     1      -8.878  10.064  69.309  1.00  0.00    -0.184 C  
ENDROOT
BRANCH   8  10
HETATM   10  O   UNL     1      -8.876   9.534  66.978  1.00  0.00    -0.127 OA 
BRANCH  10  11
HETATM   11  C   UNL     1      -8.535  10.768  66.486  1.00  0.00    -0.147 C  
HETATM   12  O   UNL     1      -7.689  11.498  66.987  1.00  0.00    -0.144 OA 
BRANCH  11  13
HETATM   13  C   UNL     1      -9.304  11.057  65.189  1.00  0.00    -0.220 C  
HETATM   14  O   UNL     1      -9.753   9.818  64.617  1.00  0.00    -0.409 OA 
HETATM   15  H   UNL     1     -10.228   9.997  63.814  1.00  0.00     0.000 HD 
BRANCH  13  16
HETATM   16  C   UNL     1     -10.472  12.009  65.338  1.00  0.00    -0.313 A  
HETATM   17  C   UNL     1     -10.682  12.736  66.520  1.00  0.00    -0.277 A  
HETATM   18  C   UNL     1     -11.741  13.639  66.621  1.00  0.00    -0.420 A  
HETATM   19  C   UNL     1     -12.596  13.841  65.538  1.00  0.00    -0.551 A  
HETATM   20  C   UNL     1     -12.387  13.151  64.351  1.00  0.00    -0.426 A  
HETATM   21  C   UNL     1     -11.330  12.250  64.247  1.00  0.00    -0.415 A  
ENDBRANCH  13  16
ENDBRANCH  11  13
ENDBRANCH  10  11
ENDBRANCH   8  10
TORSDOF 4
ENDMDL
MODEL      159
REMARK 921   NORMALIZED FREE ENERGY PREDICTED BY IDOCK:   -3.60 KCAL/MOL
REMARK 922        TOTAL FREE ENERGY PREDICTED BY IDOCK:   -5.36 KCAL/MOL
REMARK 923 INTER-LIGAND FREE ENERGY PREDICTED BY IDOCK:   -4.65 KCAL/MOL
REMARK 924 INTRA-LIGAND FREE ENERGY PREDICTED BY IDOCK:   -0.71 KCAL/MOL
REMARK 927      BINDING AFFINITY PREDICTED BY RF-SCORE:    0.00 PKD
ROOT
HETATM    1  C   UNL     1      -8.696   6.425  68.794  1.00  0.00    -0.122 C  
HETATM    2  C   UNL     1      -8.943   7.291  67.554  1.00  0.00    -0.122 C  
HETATM    3  C   UNL     1     -10.455   7.245  67.348  1.00  0.00    -0.359 C  
HETATM    4  C   UNL     1     -10.976   6.409  68.519  1.00  0.00    -0.319 C  
HETATM    5  C   UNL     1     -11.296   7.301  69.727  1.00  0.00    -0.098 C  
HETATM    6  N   UNL     1      -9.838   5.512  68.746  1.00  0.00    -0.142 NA 
HETATM    7  C   UNL     1      -9.958   4.598  69.870  1.00  0.00    -0.226 C  
HETATM    8  C   UNL     1     -10.068   7.790  70.512  1.00  0.00    -0.192 C  
HETATM    9  C   UNL     1      -8.688   7.268  70.069  1.00  0.00    -0.141 C  
ENDROOT
BRANCH   8  10
HETATM   10  O   UNL     1      -9.988   9.227  70.501  1.00  0.00    -0.211 OA 
BRANCH  10  11
HETATM   11  C   UNL     1     -11.179   9.838  70.794  1.00  0.00    -0.348 C  
HETATM   12  O   UNL     1     -11.872   9.563  71.767  1.00  0.00    -0.377 OA 
BRANCH  11  13
HETATM   13  C   UNL     1     -11.472  10.954  69.781  1.00  0.00    -0.313 C  
HETATM   14  O   UNL     1     -11.327  12.230  70.424  1.00  0.00    -0.417 OA 
HETATM   15  H   UNL     1     -11.508  12.920  69.798  1.00  0.00     0.000 HD 
BRANCH  13  16
HETATM   16  C   UNL     1     -10.629  10.912  68.523  1.00  0.00    -0.219 A  
HETATM   17  C   UNL     1     -11.189  10.611  67.272  1.00  0.00    -0.237 A  
HETATM   18  C   UNL     1     -10.401  10.617  66.120  1.00  0.00    -0.291 A  
HETATM   19  C   UNL     1      -9.047  10.941  66.198  1.00  0.00    -0.201 A  
HETATM   20  C   UNL     1      -8.482  11.268  67.424  1.00  0.00    -0.137 A  
HETATM   21  C   UNL     1      -9.266  11.264  68.575  1.00  0.00    -0.181 A  
ENDBRANCH  13  16
ENDBRANCH  11  13
ENDBRANCH  10  11
ENDBRANCH   8  10
TORSDOF 4
ENDMDL
MODEL      160
REMARK 921   NORMALIZED FREE ENERGY PREDICTED BY IDOCK:   -3.60 KCAL/MOL
REMARK 922        TOTAL FREE ENERGY PREDICTED BY IDOCK:   -5.36 KCAL/MOL
REMARK 923 INTER-LIGAND FREE ENERGY PREDICTED BY IDOCK:   -4.93 KCAL/MOL
REMARK 924 INTRA-LIGAND FREE ENERGY PREDICTED BY IDOCK:   -0.43 KCAL/MOL
REMARK 927      BINDING AFFINITY PREDICTED BY RF-SCORE:    0.00 PKD
ROOT
HETATM    1  C   UNL     1     -10.397   8.184  71.960  1.00  0.00    -0.254 C  
HETATM    2  C   UNL     1      -8.927   8.607  71.871  1.00  0.00    -0.301 C  
HETATM    3  C   UNL     1      -8.500   8.219  70.457  1.00  0.00    -0.129 C  
HETATM    4  C   UNL     1      -9.771   7.659  69.814  1.00  0.00    -0.171 C  
HETATM    5  C   UNL     1     -10.573   8.775  69.129  1.00  0.00    -0.200 C  
HETATM    6  N   UNL     1     -10.448   7.094  70.986  1.00  0.00    -0.215 NA 
HETATM    7  C   UNL     1     -11.764   6.524  70.751  1.00  0.00    -0.366 C  
HETATM    8  C   UNL     1     -11.357   9.686  70.084  1.00  0.00    -0.227 C  
HETATM    9  C   UNL     1     -11.331   9.335  71.584  1.00  0.00    -0.467 C  
ENDROOT
BRANCH   8  10
HETATM   10  O   UNL     1     -10.914  11.052  69.975  1.00  0.00    -0.216 OA 
BRANCH  10  11
HETATM   11  C   UNL     1     -11.502  11.729  68.938  1.00  0.00    -0.297 C  
HETATM   12  O   UNL     1     -12.398  11.272  68.238  1.00  0.00    -0.542 OA 
BRANCH  11  13
HETATM   13  C   UNL     1     -10.934  13.152  68.838  1.00  0.00    -0.230 C  
HETATM   14  O   UNL     1     -11.155  13.840  70.080  1.00  0.00    -0.472 OA 
HETATM   15  H   UNL     1     -10.804  14.720  70.018  1.00  0.00     0.000 HD 
BRANCH  13  16
HETATM   16  C   UNL     1      -9.469  13.229  68.460  1.00  0.00    -0.113 A  
HETATM   17  C   UNL     1      -8.859  12.238  67.676  1.00  0.00    -0.175 A  
HETATM   18  C   UNL     1      -7.518  12.349  67.306  1.00  0.00    -0.135 A  
HETATM   19  C   UNL     1      -6.773  13.461  67.696  1.00  0.00    -0.174 A  
HETATM   20  C   UNL     1      -7.368  14.465  68.449  1.00  0.00    -0.117 A  
HETATM   21  C   UNL     1      -8.706  14.357  68.819  1.00  0.00    -0.129 A  
ENDBRANCH  13  16
ENDBRANCH  11  13
ENDBRANCH  10  11
ENDBRANCH   8  10
TORSDOF 4
ENDMDL
MODEL      161
REMARK 921   NORMALIZED FREE ENERGY PREDICTED BY IDOCK:   -3.59 KCAL/MOL
REMARK 922        TOTAL FREE ENERGY PREDICTED BY IDOCK:   -5.35 KCAL/MOL
REMARK 923 INTER-LIGAND FREE ENERGY PREDICTED BY IDOCK:   -4.65 KCAL/MOL
REMARK 924 INTRA-LIGAND FREE ENERGY PREDICTED BY IDOCK:   -0.70 KCAL/MOL
REMARK 927      BINDING AFFINITY PREDICTED BY RF-SCORE:    0.00 PKD
ROOT
HETATM    1  C   UNL     1      -8.551   8.143  65.912  1.00  0.00    -0.151 C  
HETATM    2  C   UNL     1      -8.256   7.035  66.929  1.00  0.00    -0.117 C  
HETATM    3  C   UNL     1      -7.361   7.700  67.972  1.00  0.00    -0.099 C  
HETATM    4  C   UNL     1      -7.258   9.157  67.516  1.00  0.00    -0.080 C  
HETATM    5  C   UNL     1      -8.385  10.001  68.129  1.00  0.00    -0.113 C  
HETATM    6  N   UNL     1      -7.376   9.000  66.063  1.00  0.00    -0.093 NA 
HETATM    7  C   UNL     1      -7.393  10.230  65.287  1.00  0.00    -0.139 C  
HETATM    8  C   UNL     1      -9.764   9.807  67.480  1.00  0.00    -0.157 C  
HETATM    9  C   UNL     1      -9.847   8.879  66.253  1.00  0.00    -0.355 C  
ENDROOT
BRANCH   8  10
HETATM   10  O   UNL     1     -10.719   9.311  68.437  1.00  0.00    -0.211 OA 
BRANCH  10  11
HETATM   11  C   UNL     1     -11.502  10.296  68.979  1.00  0.00    -0.137 C  
HETATM   12  O   UNL     1     -11.978  11.227  68.340  1.00  0.00    -0.555 OA 
BRANCH  11  13
HETATM   13  C   UNL     1     -11.754  10.019  70.469  1.00  0.00    -0.318 C  
HETATM   14  O   UNL     1     -13.149   9.746  70.671  1.00  0.00    -0.571 OA 
HETATM   15  H   UNL     1     -13.305   9.574  71.592  1.00  0.00     0.000 HD 
BRANCH  13  16
HETATM   16  C   UNL     1     -10.919   8.903  71.061  1.00  0.00    -0.341 A  
HETATM   17  C   UNL     1     -11.363   7.572  71.058  1.00  0.00    -0.292 A  
HETATM   18  C   UNL     1     -10.559   6.553  71.572  1.00  0.00    -0.265 A  
HETATM   19  C   UNL     1      -9.294   6.847  72.080  1.00  0.00    -0.146 A  
HETATM   20  C   UNL     1      -8.828   8.155  72.066  1.00  0.00    -0.233 A  
HETATM   21  C   UNL     1      -9.627   9.173  71.552  1.00  0.00    -0.278 A  
ENDBRANCH  13  16
ENDBRANCH  11  13
ENDBRANCH  10  11
ENDBRANCH   8  10
TORSDOF 4
ENDMDL
MODEL      162
REMARK 921   NORMALIZED FREE ENERGY PREDICTED BY IDOCK:   -3.59 KCAL/MOL
REMARK 922        TOTAL FREE ENERGY PREDICTED BY IDOCK:   -5.35 KCAL/MOL
REMARK 923 INTER-LIGAND FREE ENERGY PREDICTED BY IDOCK:   -4.78 KCAL/MOL
REMARK 924 INTRA-LIGAND FREE ENERGY PREDICTED BY IDOCK:   -0.57 KCAL/MOL
REMARK 927      BINDING AFFINITY PREDICTED BY RF-SCORE:    0.00 PKD
ROOT
HETATM    1  C   UNL     1      -8.810  10.943  66.956  1.00  0.00    -0.140 C  
HETATM    2  C   UNL     1     -10.135  11.303  66.275  1.00  0.00    -0.271 C  
HETATM    3  C   UNL     1     -10.238  10.334  65.100  1.00  0.00    -0.295 C  
HETATM    4  C   UNL     1      -8.998   9.446  65.226  1.00  0.00    -0.204 C  
HETATM    5  C   UNL     1      -9.293   8.218  66.101  1.00  0.00    -0.254 C  
HETATM    6  N   UNL     1      -8.050  10.381  65.841  1.00  0.00    -0.144 NA 
HETATM    7  C   UNL     1      -6.746   9.837  66.181  1.00  0.00    -0.085 C  
HETATM    8  C   UNL     1      -9.350   8.498  67.610  1.00  0.00    -0.137 C  
HETATM    9  C   UNL     1      -9.020   9.928  68.080  1.00  0.00    -0.121 C  
ENDROOT
BRANCH   8  10
HETATM   10  O   UNL     1     -10.647   8.179  68.146  1.00  0.00    -0.190 OA 
BRANCH  10  11
HETATM   11  C   UNL     1     -10.611   7.191  69.095  1.00  0.00    -0.214 C  
HETATM   12  O   UNL     1      -9.988   6.143  68.974  1.00  0.00    -0.141 OA 
BRANCH  11  13
HETATM   13  C   UNL     1     -11.391   7.623  70.346  1.00  0.00    -0.219 C  
HETATM   14  O   UNL     1     -12.630   6.899  70.406  1.00  0.00    -0.593 OA 
HETATM   15  H   UNL     1     -13.113   7.166  71.179  1.00  0.00     0.000 HD 
BRANCH  13  16
HETATM   16  C   UNL     1     -10.640   7.468  71.652  1.00  0.00    -0.232 A  
HETATM   17  C   UNL     1      -9.569   8.310  71.988  1.00  0.00    -0.316 A  
HETATM   18  C   UNL     1      -8.917   8.176  73.214  1.00  0.00    -0.332 A  
HETATM   19  C   UNL     1      -9.336   7.212  74.130  1.00  0.00    -0.282 A  
HETATM   20  C   UNL     1     -10.412   6.387  73.825  1.00  0.00    -0.319 A  
HETATM   21  C   UNL     1     -11.065   6.520  72.603  1.00  0.00    -0.291 A  
ENDBRANCH  13  16
ENDBRANCH  11  13
ENDBRANCH  10  11
ENDBRANCH   8  10
TORSDOF 4
ENDMDL
MODEL      163
REMARK 921   NORMALIZED FREE ENERGY PREDICTED BY IDOCK:   -3.59 KCAL/MOL
REMARK 922        TOTAL FREE ENERGY PREDICTED BY IDOCK:   -5.35 KCAL/MOL
REMARK 923 INTER-LIGAND FREE ENERGY PREDICTED BY IDOCK:   -4.61 KCAL/MOL
REMARK 924 INTRA-LIGAND FREE ENERGY PREDICTED BY IDOCK:   -0.74 KCAL/MOL
REMARK 927      BINDING AFFINITY PREDICTED BY RF-SCORE:    0.00 PKD
ROOT
HETATM    1  C   UNL     1     -10.448  16.887  68.270  1.00  0.00    -0.352 C  
HETATM    2  C   UNL     1     -10.876  15.817  67.259  1.00  0.00    -0.298 C  
HETATM    3  C   UNL     1     -10.530  16.414  65.898  1.00  0.00    -0.350 C  
HETATM    4  C   UNL     1      -9.869  17.755  66.224  1.00  0.00    -0.294 C  
HETATM    5  C   UNL     1      -8.352  17.589  66.396  1.00  0.00    -0.297 C  
HETATM    6  N   UNL     1     -10.558  18.106  67.470  1.00  0.00    -0.413 NA 
HETATM    7  C   UNL     1     -10.115  19.327  68.124  1.00  0.00    -0.412 C  
HETATM    8  C   UNL     1      -7.918  16.955  67.726  1.00  0.00    -0.180 C  
HETATM    9  C   UNL     1      -9.019  16.648  68.760  1.00  0.00    -0.253 C  
ENDROOT
BRANCH   8  10
HETATM   10  O   UNL     1      -7.209  15.722  67.504  1.00  0.00    -0.148 OA 
BRANCH  10  11
HETATM   11  C   UNL     1      -6.241  15.478  68.443  1.00  0.00    -0.104 C  
HETATM   12  O   UNL     1      -5.390  16.293  68.782  1.00  0.00    -0.103 OA 
BRANCH  11  13
HETATM   13  C   UNL     1      -6.429  14.082  69.055  1.00  0.00    -0.101 C  
HETATM   14  O   UNL     1      -7.125  14.201  70.305  1.00  0.00    -0.383 OA 
HETATM   15  H   UNL     1      -7.241  13.338  70.683  1.00  0.00     0.000 HD 
BRANCH  13  16
HETATM   16  C   UNL     1      -7.138  13.085  68.163  1.00  0.00    -0.107 A  
HETATM   17  C   UNL     1      -6.426  12.175  67.365  1.00  0.00    -0.149 A  
HETATM   18  C   UNL     1      -7.099  11.238  66.581  1.00  0.00    -0.127 A  
HETATM   19  C   UNL     1      -8.492  11.183  66.596  1.00  0.00    -0.164 A  
HETATM   20  C   UNL     1      -9.213  12.057  67.400  1.00  0.00    -0.180 A  
HETATM   21  C   UNL     1      -8.543  12.993  68.184  1.00  0.00    -0.188 A  
ENDBRANCH  13  16
ENDBRANCH  11  13
ENDBRANCH  10  11
ENDBRANCH   8  10
TORSDOF 4
ENDMDL
MODEL      164
REMARK 921   NORMALIZED FREE ENERGY PREDICTED BY IDOCK:   -3.56 KCAL/MOL
REMARK 922        TOTAL FREE ENERGY PREDICTED BY IDOCK:   -5.32 KCAL/MOL
REMARK 923 INTER-LIGAND FREE ENERGY PREDICTED BY IDOCK:   -5.22 KCAL/MOL
REMARK 924 INTRA-LIGAND FREE ENERGY PREDICTED BY IDOCK:   -0.10 KCAL/MOL
REMARK 927      BINDING AFFINITY PREDICTED BY RF-SCORE:    0.00 PKD
ROOT
HETATM    1  C   UNL     1     -10.253  12.319  66.349  1.00  0.00    -0.225 C  
HETATM    2  C   UNL     1      -9.038  12.977  67.013  1.00  0.00    -0.230 C  
HETATM    3  C   UNL     1      -9.585  14.262  67.629  1.00  0.00    -0.219 C  
HETATM    4  C   UNL     1     -11.085  14.221  67.331  1.00  0.00    -0.304 C  
HETATM    5  C   UNL     1     -11.846  13.507  68.458  1.00  0.00    -0.398 C  
HETATM    6  N   UNL     1     -11.095  13.480  66.065  1.00  0.00    -0.292 NA 
HETATM    7  C   UNL     1     -12.405  13.184  65.508  1.00  0.00    -0.474 C  
HETATM    8  C   UNL     1     -11.718  11.976  68.455  1.00  0.00    -0.332 C  
HETATM    9  C   UNL     1     -10.936  11.331  67.295  1.00  0.00    -0.342 C  
ENDROOT
BRANCH   8  10
HETATM   10  O   UNL     1     -11.109  11.507  69.672  1.00  0.00    -0.226 OA 
BRANCH  10  11
HETATM   11  C   UNL     1     -11.899  10.628  70.367  1.00  0.00    -0.349 C  
HETATM   12  O   UNL     1     -13.124  10.660  70.372  1.00  0.00    -0.260 OA 
BRANCH  11  13
HETATM   13  C   UNL     1     -11.034   9.568  71.064  1.00  0.00    -0.353 C  
HETATM   14  O   UNL     1     -11.860   8.458  71.448  1.00  0.00    -0.280 OA 
HETATM   15  H   UNL     1     -11.325   7.802  71.878  1.00  0.00     0.000 HD 
BRANCH  13  16
HETATM   16  C   UNL     1      -9.852   9.075  70.254  1.00  0.00    -0.227 A  
HETATM   17  C   UNL     1      -8.920   9.965  69.697  1.00  0.00    -0.232 A  
HETATM   18  C   UNL     1      -7.817   9.488  68.989  1.00  0.00    -0.077 A  
HETATM   19  C   UNL     1      -7.619   8.116  68.841  1.00  0.00    -0.098 A  
HETATM   20  C   UNL     1      -8.516   7.220  69.408  1.00  0.00    -0.133 A  
HETATM   21  C   UNL     1      -9.617   7.694  70.117  1.00  0.00    -0.168 A  
ENDBRANCH  13  16
ENDBRANCH  11  13
ENDBRANCH  10  11
ENDBRANCH   8  10
TORSDOF 4
ENDMDL
MODEL      165
REMARK 921   NORMALIZED FREE ENERGY PREDICTED BY IDOCK:   -3.56 KCAL/MOL
REMARK 922        TOTAL FREE ENERGY PREDICTED BY IDOCK:   -5.31 KCAL/MOL
REMARK 923 INTER-LIGAND FREE ENERGY PREDICTED BY IDOCK:   -4.93 KCAL/MOL
REMARK 924 INTRA-LIGAND FREE ENERGY PREDICTED BY IDOCK:   -0.38 KCAL/MOL
REMARK 927      BINDING AFFINITY PREDICTED BY RF-SCORE:    0.00 PKD
ROOT
HETATM    1  C   UNL     1     -10.512  13.137  67.327  1.00  0.00    -0.243 C  
HETATM    2  C   UNL     1     -10.157  12.565  65.951  1.00  0.00    -0.270 C  
HETATM    3  C   UNL     1     -10.487  13.688  64.970  1.00  0.00    -0.406 C  
HETATM    4  C   UNL     1     -10.947  14.847  65.857  1.00  0.00    -0.338 C  
HETATM    5  C   UNL     1      -9.756  15.726  66.268  1.00  0.00    -0.328 C  
HETATM    6  N   UNL     1     -11.542  14.116  66.981  1.00  0.00    -0.362 NA 
HETATM    7  C   UNL     1     -12.032  14.927  68.083  1.00  0.00    -0.202 C  
HETATM    8  C   UNL     1      -8.861  15.130  67.365  1.00  0.00    -0.186 C  
HETATM    9  C   UNL     1      -9.297  13.790  67.987  1.00  0.00    -0.199 C  
ENDROOT
BRANCH   8  10
HETATM   10  O   UNL     1      -7.515  14.944  66.889  1.00  0.00    -0.043 OA 
BRANCH  10  11
HETATM   11  C   UNL     1      -6.590  15.680  67.583  1.00  0.00    -0.172 C  
HETATM   12  O   UNL     1      -5.380  15.497  67.523  1.00  0.00    -0.286 OA 
BRANCH  11  13
HETATM   13  C   UNL     1      -7.282  16.802  68.371  1.00  0.00    -0.191 C  
HETATM   14  O   UNL     1      -6.633  16.959  69.642  1.00  0.00    -0.234 OA 
HETATM   15  H   UNL     1      -7.061  17.653  70.129  1.00  0.00     0.000 HD 
BRANCH  13  16
HETATM   16  C   UNL     1      -7.348  18.136  67.657  1.00  0.00    -0.214 A  
HETATM   17  C   UNL     1      -8.515  18.916  67.664  1.00  0.00    -0.304 A  
HETATM   18  C   UNL     1      -8.542  20.161  67.034  1.00  0.00    -0.408 A  
HETATM   19  C   UNL     1      -7.399  20.653  66.404  1.00  0.00    -0.169 A  
HETATM   20  C   UNL     1      -6.228  19.906  66.411  1.00  0.00    -0.186 A  
HETATM   21  C   UNL     1      -6.198  18.664  67.040  1.00  0.00    -0.193 A  
ENDBRANCH  13  16
ENDBRANCH  11  13
ENDBRANCH  10  11
ENDBRANCH   8  10
TORSDOF 4
ENDMDL
MODEL      166
REMARK 921   NORMALIZED FREE ENERGY PREDICTED BY IDOCK:   -3.54 KCAL/MOL
REMARK 922        TOTAL FREE ENERGY PREDICTED BY IDOCK:   -5.28 KCAL/MOL
REMARK 923 INTER-LIGAND FREE ENERGY PREDICTED BY IDOCK:   -4.77 KCAL/MOL
REMARK 924 INTRA-LIGAND FREE ENERGY PREDICTED BY IDOCK:   -0.51 KCAL/MOL
REMARK 927      BINDING AFFINITY PREDICTED BY RF-SCORE:    0.00 PKD
ROOT
HETATM    1  C   UNL     1      -7.040   9.967  65.439  1.00  0.00    -0.138 C  
HETATM    2  C   UNL     1      -8.348  10.540  64.882  1.00  0.00    -0.135 C  
HETATM    3  C   UNL     1      -9.096   9.328  64.334  1.00  0.00    -0.111 C  
HETATM    4  C   UNL     1      -8.196   8.138  64.671  1.00  0.00    -0.125 C  
HETATM    5  C   UNL     1      -8.541   7.567  66.055  1.00  0.00    -0.164 C  
HETATM    6  N   UNL     1      -6.873   8.769  64.619  1.00  0.00    -0.073 NA 
HETATM    7  C   UNL     1      -5.746   7.921  64.971  1.00  0.00    -0.037 C  
HETATM    8  C   UNL     1      -8.032   8.397  67.242  1.00  0.00    -0.105 C  
HETATM    9  C   UNL     1      -7.169   9.634  66.926  1.00  0.00    -0.090 C  
ENDROOT
BRANCH   8  10
HETATM   10  O   UNL     1      -9.126   8.857  68.058  1.00  0.00    -0.139 OA 
BRANCH  10  11
HETATM   11  C   UNL     1      -9.121   8.322  69.319  1.00  0.00    -0.151 C  
HETATM   12  O   UNL     1      -8.924   7.138  69.564  1.00  0.00    -0.140 OA 
BRANCH  11  13
HETATM   13  C   UNL     1      -9.317   9.426  70.369  1.00  0.00    -0.268 C  
HETATM   14  O   UNL     1      -8.934  10.691  69.805  1.00  0.00    -0.392 OA 
HETATM   15  H   UNL     1      -9.055  11.373  70.454  1.00  0.00     0.000 HD 
BRANCH  13  16
HETATM   16  C   UNL     1     -10.715   9.520  70.944  1.00  0.00    -0.403 A  
HETATM   17  C   UNL     1     -11.643  10.461  70.471  1.00  0.00    -0.433 A  
HETATM   18  C   UNL     1     -12.938  10.503  70.986  1.00  0.00    -0.475 A  
HETATM   19  C   UNL     1     -13.332   9.594  71.968  1.00  0.00    -0.547 A  
HETATM   20  C   UNL     1     -12.436   8.639  72.429  1.00  0.00    -0.428 A  
HETATM   21  C   UNL     1     -11.142   8.594  71.914  1.00  0.00    -0.416 A  
ENDBRANCH  13  16
ENDBRANCH  11  13
ENDBRANCH  10  11
ENDBRANCH   8  10
TORSDOF 4
ENDMDL
MODEL      167
REMARK 921   NORMALIZED FREE ENERGY PREDICTED BY IDOCK:   -3.53 KCAL/MOL
REMARK 922        TOTAL FREE ENERGY PREDICTED BY IDOCK:   -5.28 KCAL/MOL
REMARK 923 INTER-LIGAND FREE ENERGY PREDICTED BY IDOCK:   -4.79 KCAL/MOL
REMARK 924 INTRA-LIGAND FREE ENERGY PREDICTED BY IDOCK:   -0.49 KCAL/MOL
REMARK 927      BINDING AFFINITY PREDICTED BY RF-SCORE:    0.00 PKD
ROOT
HETATM    1  C   UNL     1     -10.504  14.160  65.030  1.00  0.00    -0.425 C  
HETATM    2  C   UNL     1     -10.166  15.315  65.979  1.00  0.00    -0.335 C  
HETATM    3  C   UNL     1     -11.178  15.187  67.115  1.00  0.00    -0.320 C  
HETATM    4  C   UNL     1     -11.983  13.932  66.771  1.00  0.00    -0.438 C  
HETATM    5  C   UNL     1     -11.332  12.682  67.380  1.00  0.00    -0.367 C  
HETATM    6  N   UNL     1     -11.926  13.961  65.306  1.00  0.00    -0.355 NA 
HETATM    7  C   UNL     1     -12.546  12.839  64.620  1.00  0.00    -0.419 C  
HETATM    8  C   UNL     1     -10.080  12.182  66.644  1.00  0.00    -0.199 C  
HETATM    9  C   UNL     1      -9.675  12.916  65.351  1.00  0.00    -0.043 C  
ENDROOT
BRANCH   8  10
HETATM   10  O   UNL     1      -8.928  12.208  67.508  1.00  0.00    -0.165 OA 
BRANCH  10  11
HETATM   11  C   UNL     1      -7.999  11.249  67.200  1.00  0.00    -0.151 C  
HETATM   12  O   UNL     1      -6.883  11.490  66.756  1.00  0.00    -0.138 OA 
BRANCH  11  13
HETATM   13  C   UNL     1      -8.530   9.854  67.562  1.00  0.00    -0.115 C  
HETATM   14  O   UNL     1      -7.511   8.876  67.302  1.00  0.00    -0.084 OA 
HETATM   15  H   UNL     1      -7.840   8.014  67.526  1.00  0.00     0.000 HD 
BRANCH  13  16
HETATM   16  C   UNL     1      -9.032   9.712  68.984  1.00  0.00    -0.148 A  
HETATM   17  C   UNL     1     -10.390   9.862  69.303  1.00  0.00    -0.235 A  
HETATM   18  C   UNL     1     -10.836   9.687  70.614  1.00  0.00    -0.386 A  
HETATM   19  C   UNL     1      -9.936   9.341  71.621  1.00  0.00    -0.198 A  
HETATM   20  C   UNL     1      -8.592   9.162  71.318  1.00  0.00    -0.133 A  
HETATM   21  C   UNL     1      -8.145   9.335  70.011  1.00  0.00    -0.140 A  
ENDBRANCH  13  16
ENDBRANCH  11  13
ENDBRANCH  10  11
ENDBRANCH   8  10
TORSDOF 4
ENDMDL
MODEL      168
REMARK 921   NORMALIZED FREE ENERGY PREDICTED BY IDOCK:   -3.53 KCAL/MOL
REMARK 922        TOTAL FREE ENERGY PREDICTED BY IDOCK:   -5.27 KCAL/MOL
REMARK 923 INTER-LIGAND FREE ENERGY PREDICTED BY IDOCK:   -4.98 KCAL/MOL
REMARK 924 INTRA-LIGAND FREE ENERGY PREDICTED BY IDOCK:   -0.29 KCAL/MOL
REMARK 927      BINDING AFFINITY PREDICTED BY RF-SCORE:    0.00 PKD
ROOT
HETATM    1  C   UNL     1      -9.489  12.050  68.237  1.00  0.00    -0.199 C  
HETATM    2  C   UNL     1     -10.979  12.407  68.185  1.00  0.00    -0.263 C  
HETATM    3  C   UNL     1     -11.512  11.653  66.969  1.00  0.00    -0.336 C  
HETATM    4  C   UNL     1     -10.307  10.868  66.447  1.00  0.00    -0.251 C  
HETATM    5  C   UNL     1     -10.228   9.485  67.110  1.00  0.00    -0.305 C  
HETATM    6  N   UNL     1      -9.208  11.760  66.832  1.00  0.00    -0.183 NA 
HETATM    7  C   UNL     1      -7.866  11.280  66.548  1.00  0.00    -0.133 C  
HETATM    8  C   UNL     1      -9.705   9.491  68.555  1.00  0.00    -0.151 C  
HETATM    9  C   UNL     1      -9.239  10.839  69.137  1.00  0.00    -0.131 C  
ENDROOT
BRANCH   8  10
HETATM   10  O   UNL     1     -10.694   8.971  69.464  1.00  0.00    -0.229 OA 
BRANCH  10  11
HETATM   11  C   UNL     1     -10.178   8.084  70.373  1.00  0.00    -0.201 C  
HETATM   12  O   UNL     1      -9.054   8.166  70.852  1.00  0.00    -0.143 OA 
BRANCH  11  13
HETATM   13  C   UNL     1     -11.233   7.035  70.753  1.00  0.00    -0.285 C  
HETATM   14  O   UNL     1     -12.223   6.958  69.715  1.00  0.00    -0.542 OA 
HETATM   15  H   UNL     1     -12.875   6.309  69.950  1.00  0.00     0.000 HD 
BRANCH  13  16
HETATM   16  C   UNL     1     -10.684   5.654  71.045  1.00  0.00    -0.304 A  
HETATM   17  C   UNL     1     -10.115   4.861  70.036  1.00  0.00    -0.337 A  
HETATM   18  C   UNL     1      -9.579   3.608  70.335  1.00  0.00    -0.254 A  
HETATM   19  C   UNL     1      -9.585   3.137  71.647  1.00  0.00    -0.227 A  
HETATM   20  C   UNL     1     -10.119   3.920  72.662  1.00  0.00    -0.228 A  
HETATM   21  C   UNL     1     -10.654   5.171  72.367  1.00  0.00    -0.278 A  
ENDBRANCH  13  16
ENDBRANCH  11  13
ENDBRANCH  10  11
ENDBRANCH   8  10
TORSDOF 4
ENDMDL
MODEL      169
REMARK 921   NORMALIZED FREE ENERGY PREDICTED BY IDOCK:   -3.50 KCAL/MOL
REMARK 922        TOTAL FREE ENERGY PREDICTED BY IDOCK:   -5.24 KCAL/MOL
REMARK 923 INTER-LIGAND FREE ENERGY PREDICTED BY IDOCK:   -4.53 KCAL/MOL
REMARK 924 INTRA-LIGAND FREE ENERGY PREDICTED BY IDOCK:   -0.71 KCAL/MOL
REMARK 927      BINDING AFFINITY PREDICTED BY RF-SCORE:    0.00 PKD
ROOT
HETATM    1  C   UNL     1      -8.527   9.914  67.390  1.00  0.00    -0.118 C  
HETATM    2  C   UNL     1      -9.189   8.817  66.549  1.00  0.00    -0.228 C  
HETATM    3  C   UNL     1      -8.554   7.519  67.042  1.00  0.00    -0.122 C  
HETATM    4  C   UNL     1      -7.621   7.956  68.174  1.00  0.00    -0.116 C  
HETATM    5  C   UNL     1      -8.360   7.958  69.521  1.00  0.00    -0.131 C  
HETATM    6  N   UNL     1      -7.243   9.297  67.718  1.00  0.00    -0.082 NA 
HETATM    7  C   UNL     1      -6.391  10.061  68.616  1.00  0.00    -0.048 C  
HETATM    8  C   UNL     1      -9.311   9.145  69.733  1.00  0.00    -0.182 C  
HETATM    9  C   UNL     1      -9.350  10.229  68.639  1.00  0.00    -0.162 C  
ENDROOT
BRANCH   8  10
HETATM   10  O   UNL     1     -10.667   8.695  69.914  1.00  0.00    -0.227 OA 
BRANCH  10  11
HETATM   11  C   UNL     1     -10.934   8.285  71.194  1.00  0.00    -0.245 C  
HETATM   12  O   UNL     1     -10.530   8.859  72.199  1.00  0.00    -0.336 OA 
BRANCH  11  13
HETATM   13  C   UNL     1     -11.865   7.064  71.181  1.00  0.00    -0.338 C  
HETATM   14  O   UNL     1     -12.377   6.871  69.853  1.00  0.00    -0.535 OA 
HETATM   15  H   UNL     1     -12.954   6.117  69.845  1.00  0.00     0.000 HD 
BRANCH  13  16
HETATM   16  C   UNL     1     -11.241   5.779  71.684  1.00  0.00    -0.258 A  
HETATM   17  C   UNL     1     -10.229   5.123  70.965  1.00  0.00    -0.295 A  
HETATM   18  C   UNL     1      -9.640   3.962  71.467  1.00  0.00    -0.236 A  
HETATM   19  C   UNL     1     -10.038   3.450  72.701  1.00  0.00    -0.233 A  
HETATM   20  C   UNL     1     -11.018   4.101  73.439  1.00  0.00    -0.350 A  
HETATM   21  C   UNL     1     -11.607   5.261  72.941  1.00  0.00    -0.292 A  
ENDBRANCH  13  16
ENDBRANCH  11  13
ENDBRANCH  10  11
ENDBRANCH   8  10
TORSDOF 4
ENDMDL
MODEL      170
REMARK 921   NORMALIZED FREE ENERGY PREDICTED BY IDOCK:   -3.50 KCAL/MOL
REMARK 922        TOTAL FREE ENERGY PREDICTED BY IDOCK:   -5.24 KCAL/MOL
REMARK 923 INTER-LIGAND FREE ENERGY PREDICTED BY IDOCK:   -4.78 KCAL/MOL
REMARK 924 INTRA-LIGAND FREE ENERGY PREDICTED BY IDOCK:   -0.46 KCAL/MOL
REMARK 927      BINDING AFFINITY PREDICTED BY RF-SCORE:    0.00 PKD
ROOT
HETATM    1  C   UNL     1     -10.239  13.380  65.996  1.00  0.00    -0.300 C  
HETATM    2  C   UNL     1      -9.600  13.929  67.277  1.00  0.00    -0.243 C  
HETATM    3  C   UNL     1     -10.681  13.773  68.343  1.00  0.00    -0.266 C  
HETATM    4  C   UNL     1     -11.841  13.089  67.615  1.00  0.00    -0.351 C  
HETATM    5  C   UNL     1     -11.713  11.561  67.702  1.00  0.00    -0.283 C  
HETATM    6  N   UNL     1     -11.659  13.609  66.256  1.00  0.00    -0.334 NA 
HETATM    7  C   UNL     1     -12.572  13.096  65.248  1.00  0.00    -0.472 C  
HETATM    8  C   UNL     1     -10.656  10.947  66.773  1.00  0.00    -0.259 C  
HETATM    9  C   UNL     1      -9.920  11.896  65.808  1.00  0.00    -0.264 C  
ENDROOT
BRANCH   8  10
HETATM   10  O   UNL     1      -9.640  10.260  67.528  1.00  0.00    -0.154 OA 
BRANCH  10  11
HETATM   11  C   UNL     1      -9.690   8.898  67.387  1.00  0.00    -0.176 C  
HETATM   12  O   UNL     1     -10.465   8.312  66.640  1.00  0.00    -0.305 OA 
BRANCH  11  13
HETATM   13  C   UNL     1      -8.594   8.233  68.231  1.00  0.00    -0.133 C  
HETATM   14  O   UNL     1      -7.927   9.233  69.017  1.00  0.00    -0.093 OA 
HETATM   15  H   UNL     1      -7.249   8.821  69.539  1.00  0.00     0.000 HD 
BRANCH  13  16
HETATM   16  C   UNL     1      -9.072   7.108  69.126  1.00  0.00    -0.137 A  
HETATM   17  C   UNL     1      -9.778   7.362  70.312  1.00  0.00    -0.172 A  
HETATM   18  C   UNL     1     -10.244   6.310  71.101  1.00  0.00    -0.238 A  
HETATM   19  C   UNL     1     -10.028   4.990  70.709  1.00  0.00    -0.291 A  
HETATM   20  C   UNL     1      -9.355   4.720  69.524  1.00  0.00    -0.198 A  
HETATM   21  C   UNL     1      -8.890   5.768  68.734  1.00  0.00    -0.110 A  
ENDBRANCH  13  16
ENDBRANCH  11  13
ENDBRANCH  10  11
ENDBRANCH   8  10
TORSDOF 4
ENDMDL
MODEL      171
REMARK 921   NORMALIZED FREE ENERGY PREDICTED BY IDOCK:   -3.50 KCAL/MOL
REMARK 922        TOTAL FREE ENERGY PREDICTED BY IDOCK:   -5.24 KCAL/MOL
REMARK 923 INTER-LIGAND FREE ENERGY PREDICTED BY IDOCK:   -4.49 KCAL/MOL
REMARK 924 INTRA-LIGAND FREE ENERGY PREDICTED BY IDOCK:   -0.75 KCAL/MOL
REMARK 927      BINDING AFFINITY PREDICTED BY RF-SCORE:    0.00 PKD
ROOT
HETATM    1  C   UNL     1      -8.819  17.675  66.613  1.00  0.00    -0.263 C  
HETATM    2  C   UNL     1      -8.682  18.222  68.039  1.00  0.00    -0.287 C  
HETATM    3  C   UNL     1      -9.879  17.643  68.789  1.00  0.00    -0.334 C  
HETATM    4  C   UNL     1     -10.583  16.755  67.760  1.00  0.00    -0.341 C  
HETATM    5  C   UNL     1     -10.025  15.324  67.802  1.00  0.00    -0.224 C  
HETATM    6  N   UNL     1     -10.263  17.465  66.518  1.00  0.00    -0.323 NA 
HETATM    7  C   UNL     1     -10.726  16.842  65.288  1.00  0.00    -0.134 C  
HETATM    8  C   UNL     1      -8.650  15.147  67.140  1.00  0.00    -0.223 C  
HETATM    9  C   UNL     1      -8.035  16.374  66.440  1.00  0.00    -0.329 C  
ENDROOT
BRANCH   8  10
HETATM   10  O   UNL     1      -7.674  14.686  68.093  1.00  0.00    -0.110 OA 
BRANCH  10  11
HETATM   11  C   UNL     1      -6.821  13.744  67.580  1.00  0.00    -0.175 C  
HETATM   12  O   UNL     1      -5.600  13.835  67.606  1.00  0.00    -0.289 OA 
BRANCH  11  13
HETATM   13  C   UNL     1      -7.613  12.540  67.047  1.00  0.00    -0.015 C  
HETATM   14  O   UNL     1      -6.782  11.785  66.152  1.00  0.00    -0.338 OA 
HETATM   15  H   UNL     1      -7.271  11.040  65.822  1.00  0.00     0.000 HD 
BRANCH  13  16
HETATM   16  C   UNL     1      -8.183  11.629  68.114  1.00  0.00    -0.151 A  
HETATM   17  C   UNL     1      -9.561  11.380  68.208  1.00  0.00    -0.192 A  
HETATM   18  C   UNL     1     -10.062  10.505  69.173  1.00  0.00    -0.240 A  
HETATM   19  C   UNL     1      -9.192   9.852  70.046  1.00  0.00    -0.224 A  
HETATM   20  C   UNL     1      -7.823  10.065  69.950  1.00  0.00    -0.185 A  
HETATM   21  C   UNL     1      -7.321  10.937  68.987  1.00  0.00    -0.113 A  
ENDBRANCH  13  16
ENDBRANCH  11  13
ENDBRANCH  10  11
ENDBRANCH   8  10
TORSDOF 4
ENDMDL
MODEL      172
REMARK 921   NORMALIZED FREE ENERGY PREDICTED BY IDOCK:   -3.49 KCAL/MOL
REMARK 922        TOTAL FREE ENERGY PREDICTED BY IDOCK:   -5.22 KCAL/MOL
REMARK 923 INTER-LIGAND FREE ENERGY PREDICTED BY IDOCK:   -4.81 KCAL/MOL
REMARK 924 INTRA-LIGAND FREE ENERGY PREDICTED BY IDOCK:   -0.41 KCAL/MOL
REMARK 927      BINDING AFFINITY PREDICTED BY RF-SCORE:    0.00 PKD
ROOT
HETATM    1  C   UNL     1      -8.970  16.058  67.182  1.00  0.00    -0.202 C  
HETATM    2  C   UNL     1      -8.461  15.988  68.625  1.00  0.00    -0.208 C  
HETATM    3  C   UNL     1      -9.714  16.153  69.483  1.00  0.00    -0.179 C  
HETATM    4  C   UNL     1     -10.860  16.243  68.473  1.00  0.00    -0.330 C  
HETATM    5  C   UNL     1     -11.416  14.847  68.154  1.00  0.00    -0.348 C  
HETATM    6  N   UNL     1     -10.177  16.869  67.336  1.00  0.00    -0.291 NA 
HETATM    7  C   UNL     1     -10.972  17.045  66.131  1.00  0.00     0.176 C  
HETATM    8  C   UNL     1     -10.542  14.003  67.214  1.00  0.00    -0.273 C  
HETATM    9  C   UNL     1      -9.278  14.665  66.632  1.00  0.00    -0.291 C  
ENDROOT
BRANCH   8  10
HETATM   10  O   UNL     1     -10.110  12.791  67.861  1.00  0.00    -0.218 OA 
BRANCH  10  11
HETATM   11  C   UNL     1     -11.128  11.898  68.071  1.00  0.00    -0.240 C  
HETATM   12  O   UNL     1     -11.855  11.463  67.185  1.00  0.00    -0.566 OA 
BRANCH  11  13
HETATM   13  C   UNL     1     -11.170  11.471  69.545  1.00  0.00    -0.236 C  
HETATM   14  O   UNL     1     -12.537  11.316  69.957  1.00  0.00    -0.210 OA 
HETATM   15  H   UNL     1     -12.563  11.053  70.868  1.00  0.00     0.000 HD 
BRANCH  13  16
HETATM   16  C   UNL     1     -10.389  10.214  69.868  1.00  0.00    -0.308 A  
HETATM   17  C   UNL     1     -10.710   9.413  70.975  1.00  0.00    -0.407 A  
HETATM   18  C   UNL     1     -10.003   8.238  71.231  1.00  0.00    -0.243 A  
HETATM   19  C   UNL     1      -8.978   7.836  70.376  1.00  0.00    -0.147 A  
HETATM   20  C   UNL     1      -8.665   8.602  69.261  1.00  0.00    -0.133 A  
HETATM   21  C   UNL     1      -9.370   9.774  69.002  1.00  0.00    -0.161 A  
ENDBRANCH  13  16
ENDBRANCH  11  13
ENDBRANCH  10  11
ENDBRANCH   8  10
TORSDOF 4
ENDMDL
MODEL      173
REMARK 921   NORMALIZED FREE ENERGY PREDICTED BY IDOCK:   -3.48 KCAL/MOL
REMARK 922        TOTAL FREE ENERGY PREDICTED BY IDOCK:   -5.21 KCAL/MOL
REMARK 923 INTER-LIGAND FREE ENERGY PREDICTED BY IDOCK:   -4.71 KCAL/MOL
REMARK 924 INTRA-LIGAND FREE ENERGY PREDICTED BY IDOCK:   -0.49 KCAL/MOL
REMARK 927      BINDING AFFINITY PREDICTED BY RF-SCORE:    0.00 PKD
ROOT
HETATM    1  C   UNL     1     -10.697  12.593  68.605  1.00  0.00    -0.242 C  
HETATM    2  C   UNL     1     -11.842  12.358  67.614  1.00  0.00    -0.363 C  
HETATM    3  C   UNL     1     -11.180  12.415  66.240  1.00  0.00    -0.361 C  
HETATM    4  C   UNL     1      -9.693  12.616  66.540  1.00  0.00    -0.256 C  
HETATM    5  C   UNL     1      -8.979  11.264  66.687  1.00  0.00    -0.180 C  
HETATM    6  N   UNL     1      -9.764  13.374  67.794  1.00  0.00    -0.210 NA 
HETATM    7  C   UNL     1      -8.492  13.685  68.425  1.00  0.00    -0.147 C  
HETATM    8  C   UNL     1      -9.235  10.539  68.017  1.00  0.00    -0.142 C  
HETATM    9  C   UNL     1     -10.086  11.272  69.072  1.00  0.00    -0.147 C  
ENDROOT
BRANCH   8  10
HETATM   10  O   UNL     1      -9.864   9.263  67.796  1.00  0.00    -0.158 OA 
BRANCH  10  11
HETATM   11  C   UNL     1      -9.561   8.337  68.760  1.00  0.00    -0.150 C  
HETATM   12  O   UNL     1      -8.442   8.180  69.234  1.00  0.00    -0.131 OA 
BRANCH  11  13
HETATM   13  C   UNL     1     -10.828   7.594  69.206  1.00  0.00    -0.099 C  
HETATM   14  O   UNL     1     -11.189   6.628  68.206  1.00  0.00    -0.511 OA 
HETATM   15  H   UNL     1     -11.973   6.169  68.481  1.00  0.00     0.000 HD 
BRANCH  13  16
HETATM   16  C   UNL     1     -10.732   6.923  70.560  1.00  0.00    -0.267 A  
HETATM   17  C   UNL     1     -10.757   7.665  71.751  1.00  0.00    -0.252 A  
HETATM   18  C   UNL     1     -10.707   7.023  72.989  1.00  0.00    -0.337 A  
HETATM   19  C   UNL     1     -10.651   5.632  73.056  1.00  0.00    -0.275 A  
HETATM   20  C   UNL     1     -10.654   4.880  71.888  1.00  0.00    -0.186 A  
HETATM   21  C   UNL     1     -10.704   5.518  70.651  1.00  0.00    -0.303 A  
ENDBRANCH  13  16
ENDBRANCH  11  13
ENDBRANCH  10  11
ENDBRANCH   8  10
TORSDOF 4
ENDMDL
MODEL      174
REMARK 921   NORMALIZED FREE ENERGY PREDICTED BY IDOCK:   -3.47 KCAL/MOL
REMARK 922        TOTAL FREE ENERGY PREDICTED BY IDOCK:   -5.20 KCAL/MOL
REMARK 923 INTER-LIGAND FREE ENERGY PREDICTED BY IDOCK:   -4.58 KCAL/MOL
REMARK 924 INTRA-LIGAND FREE ENERGY PREDICTED BY IDOCK:   -0.62 KCAL/MOL
REMARK 927      BINDING AFFINITY PREDICTED BY RF-SCORE:    0.00 PKD
ROOT
HETATM    1  C   UNL     1     -10.848  11.189  65.901  1.00  0.00    -0.157 C  
HETATM    2  C   UNL     1     -10.983  10.264  67.116  1.00  0.00    -0.233 C  
HETATM    3  C   UNL     1      -9.780   9.329  67.022  1.00  0.00    -0.241 C  
HETATM    4  C   UNL     1      -9.007   9.822  65.797  1.00  0.00    -0.160 C  
HETATM    5  C   UNL     1      -7.981  10.894  66.195  1.00  0.00    -0.155 C  
HETATM    6  N   UNL     1     -10.100  10.345  64.972  1.00  0.00    -0.323 NA 
HETATM    7  C   UNL     1      -9.712  10.978  63.723  1.00  0.00    -0.309 C  
HETATM    8  C   UNL     1      -8.576  12.281  66.484  1.00  0.00    -0.038 C  
HETATM    9  C   UNL     1     -10.088  12.467  66.257  1.00  0.00    -0.257 C  
ENDROOT
BRANCH   8  10
HETATM   10  O   UNL     1      -8.311  12.684  67.840  1.00  0.00    -0.149 OA 
BRANCH  10  11
HETATM   11  C   UNL     1      -7.595  13.850  67.928  1.00  0.00    -0.156 C  
HETATM   12  O   UNL     1      -6.601  14.099  67.256  1.00  0.00    -0.274 OA 
BRANCH  11  13
HETATM   13  C   UNL     1      -8.262  14.814  68.920  1.00  0.00    -0.165 C  
HETATM   14  O   UNL     1      -7.424  14.958  70.078  1.00  0.00    -0.351 OA 
HETATM   15  H   UNL     1      -7.836  15.554  70.691  1.00  0.00     0.000 HD 
BRANCH  13  16
HETATM   16  C   UNL     1      -8.601  16.178  68.356  1.00  0.00    -0.189 A  
HETATM   17  C   UNL     1      -7.822  17.308  68.648  1.00  0.00    -0.272 A  
HETATM   18  C   UNL     1      -8.129  18.548  68.085  1.00  0.00    -0.310 A  
HETATM   19  C   UNL     1      -9.205  18.673  67.208  1.00  0.00    -0.297 A  
HETATM   20  C   UNL     1      -9.970  17.559  66.886  1.00  0.00    -0.313 A  
HETATM   21  C   UNL     1      -9.665  16.320  67.445  1.00  0.00    -0.234 A  
ENDBRANCH  13  16
ENDBRANCH  11  13
ENDBRANCH  10  11
ENDBRANCH   8  10
TORSDOF 4
ENDMDL
MODEL      175
REMARK 921   NORMALIZED FREE ENERGY PREDICTED BY IDOCK:   -3.45 KCAL/MOL
REMARK 922        TOTAL FREE ENERGY PREDICTED BY IDOCK:   -5.17 KCAL/MOL
REMARK 923 INTER-LIGAND FREE ENERGY PREDICTED BY IDOCK:   -5.44 KCAL/MOL
REMARK 924 INTRA-LIGAND FREE ENERGY PREDICTED BY IDOCK:    0.27 KCAL/MOL
REMARK 927      BINDING AFFINITY PREDICTED BY RF-SCORE:    0.00 PKD
ROOT
HETATM    1  C   UNL     1      -8.846  19.174  66.289  1.00  0.00    -0.299 C  
HETATM    2  C   UNL     1      -7.524  18.597  65.771  1.00  0.00    -0.139 C  
HETATM    3  C   UNL     1      -6.605  18.586  66.990  1.00  0.00    -0.203 C  
HETATM    4  C   UNL     1      -7.483  19.098  68.135  1.00  0.00    -0.282 C  
HETATM    5  C   UNL     1      -8.207  17.934  68.829  1.00  0.00    -0.231 C  
HETATM    6  N   UNL     1      -8.388  19.994  67.409  1.00  0.00    -0.324 NA 
HETATM    7  C   UNL     1      -9.437  20.619  68.199  1.00  0.00     0.132 C  
HETATM    8  C   UNL     1      -9.404  17.364  68.053  1.00  0.00    -0.276 C  
HETATM    9  C   UNL     1      -9.798  18.065  66.738  1.00  0.00    -0.335 C  
ENDROOT
BRANCH   8  10
HETATM   10  O   UNL     1      -9.198  15.976  67.733  1.00  0.00    -0.203 OA 
BRANCH  10  11
HETATM   11  C   UNL     1      -9.644  15.124  68.710  1.00  0.00    -0.219 C  
HETATM   12  O   UNL     1      -9.042  14.900  69.754  1.00  0.00     0.013 OA 
BRANCH  11  13
HETATM   13  C   UNL     1     -11.026  14.564  68.342  1.00  0.00    -0.245 C  
HETATM   14  O   UNL     1     -12.024  15.570  68.578  1.00  0.00    -0.516 OA 
HETATM   15  H   UNL     1     -12.878  15.223  68.350  1.00  0.00     0.000 HD 
BRANCH  13  16
HETATM   16  C   UNL     1     -11.145  14.041  66.925  1.00  0.00    -0.310 A  
HETATM   17  C   UNL     1     -10.126  14.237  65.981  1.00  0.00    -0.333 A  
HETATM   18  C   UNL     1     -10.239  13.712  64.693  1.00  0.00    -0.338 A  
HETATM   19  C   UNL     1     -11.363  12.969  64.335  1.00  0.00    -0.397 A  
HETATM   20  C   UNL     1     -12.370  12.742  65.265  1.00  0.00    -0.546 A  
HETATM   21  C   UNL     1     -12.258  13.264  66.552  1.00  0.00    -0.389 A  
ENDBRANCH  13  16
ENDBRANCH  11  13
ENDBRANCH  10  11
ENDBRANCH   8  10
TORSDOF 4
ENDMDL
MODEL      176
REMARK 921   NORMALIZED FREE ENERGY PREDICTED BY IDOCK:   -3.44 KCAL/MOL
REMARK 922        TOTAL FREE ENERGY PREDICTED BY IDOCK:   -5.17 KCAL/MOL
REMARK 923 INTER-LIGAND FREE ENERGY PREDICTED BY IDOCK:   -4.73 KCAL/MOL
REMARK 924 INTRA-LIGAND FREE ENERGY PREDICTED BY IDOCK:   -0.44 KCAL/MOL
REMARK 927      BINDING AFFINITY PREDICTED BY RF-SCORE:    0.00 PKD
ROOT
HETATM    1  C   UNL     1      -7.927   9.636  65.439  1.00  0.00    -0.120 C  
HETATM    2  C   UNL     1      -7.303  10.269  66.688  1.00  0.00    -0.109 C  
HETATM    3  C   UNL     1      -8.160  11.501  66.964  1.00  0.00    -0.161 C  
HETATM    4  C   UNL     1      -9.254  11.454  65.894  1.00  0.00    -0.216 C  
HETATM    5  C   UNL     1     -10.468  10.654  66.390  1.00  0.00    -0.276 C  
HETATM    6  N   UNL     1      -8.537  10.799  64.796  1.00  0.00    -0.127 NA 
HETATM    7  C   UNL     1      -9.317  10.518  63.602  1.00  0.00    -0.289 C  
HETATM    8  C   UNL     1     -10.282   9.130  66.386  1.00  0.00    -0.230 C  
HETATM    9  C   UNL     1      -8.963   8.576  65.813  1.00  0.00    -0.229 C  
ENDROOT
BRANCH   8  10
HETATM   10  O   UNL     1     -10.409   8.591  67.716  1.00  0.00    -0.218 OA 
BRANCH  10  11
HETATM   11  C   UNL     1     -10.618   7.237  67.732  1.00  0.00    -0.221 C  
HETATM   12  O   UNL     1     -11.232   6.625  66.866  1.00  0.00    -0.391 OA 
BRANCH  11  13
HETATM   13  C   UNL     1      -9.911   6.601  68.938  1.00  0.00    -0.152 C  
HETATM   14  O   UNL     1      -8.510   6.909  68.883  1.00  0.00    -0.124 OA 
HETATM   15  H   UNL     1      -8.073   6.516  69.629  1.00  0.00     0.000 HD 
BRANCH  13  16
HETATM   16  C   UNL     1     -10.474   6.995  70.288  1.00  0.00    -0.227 A  
HETATM   17  C   UNL     1      -9.656   7.522  71.300  1.00  0.00    -0.165 A  
HETATM   18  C   UNL     1     -10.201   7.916  72.522  1.00  0.00    -0.342 A  
HETATM   19  C   UNL     1     -11.573   7.807  72.745  1.00  0.00    -0.368 A  
HETATM   20  C   UNL     1     -12.402   7.313  71.746  1.00  0.00    -0.375 A  
HETATM   21  C   UNL     1     -11.860   6.921  70.524  1.00  0.00    -0.385 A  
ENDBRANCH  13  16
ENDBRANCH  11  13
ENDBRANCH  10  11
ENDBRANCH   8  10
TORSDOF 4
ENDMDL
MODEL      177
REMARK 921   NORMALIZED FREE ENERGY PREDICTED BY IDOCK:   -3.43 KCAL/MOL
REMARK 922        TOTAL FREE ENERGY PREDICTED BY IDOCK:   -5.16 KCAL/MOL
REMARK 923 INTER-LIGAND FREE ENERGY PREDICTED BY IDOCK:   -4.61 KCAL/MOL
REMARK 924 INTRA-LIGAND FREE ENERGY PREDICTED BY IDOCK:   -0.55 KCAL/MOL
REMARK 927      BINDING AFFINITY PREDICTED BY RF-SCORE:    0.00 PKD
ROOT
HETATM    1  C   UNL     1     -10.519  13.553  68.274  1.00  0.00    -0.253 C  
HETATM    2  C   UNL     1     -12.013  13.593  67.935  1.00  0.00    -0.382 C  
HETATM    3  C   UNL     1     -12.070  13.383  66.424  1.00  0.00    -0.464 C  
HETATM    4  C   UNL     1     -10.611  13.173  66.012  1.00  0.00    -0.281 C  
HETATM    5  C   UNL     1     -10.233  11.686  66.077  1.00  0.00    -0.270 C  
HETATM    6  N   UNL     1      -9.921  13.991  67.014  1.00  0.00    -0.252 NA 
HETATM    7  C   UNL     1      -8.468  13.967  66.969  1.00  0.00    -0.147 C  
HETATM    8  C   UNL     1     -10.000  11.141  67.494  1.00  0.00    -0.181 C  
HETATM    9  C   UNL     1     -10.075  12.143  68.663  1.00  0.00    -0.161 C  
ENDROOT
BRANCH   8  10
HETATM   10  O   UNL     1     -10.927  10.083  67.800  1.00  0.00    -0.283 OA 
BRANCH  10  11
HETATM   11  C   UNL     1     -10.439   9.183  68.712  1.00  0.00    -0.212 C  
HETATM   12  O   UNL     1     -10.998   8.899  69.765  1.00  0.00    -0.230 OA 
BRANCH  11  13
HETATM   13  C   UNL     1      -9.148   8.538  68.188  1.00  0.00    -0.138 C  
HETATM   14  O   UNL     1      -8.283   8.240  69.295  1.00  0.00    -0.114 OA 
HETATM   15  H   UNL     1      -7.485   7.840  68.971  1.00  0.00     0.000 HD 
BRANCH  13  16
HETATM   16  C   UNL     1      -9.352   7.296  67.344  1.00  0.00    -0.148 A  
HETATM   17  C   UNL     1     -10.585   6.627  67.308  1.00  0.00    -0.387 A  
HETATM   18  C   UNL     1     -10.763   5.508  66.493  1.00  0.00    -0.309 A  
HETATM   19  C   UNL     1      -9.719   5.054  65.688  1.00  0.00    -0.124 A  
HETATM   20  C   UNL     1      -8.501   5.721  65.691  1.00  0.00    -0.149 A  
HETATM   21  C   UNL     1      -8.321   6.838  66.502  1.00  0.00    -0.121 A  
ENDBRANCH  13  16
ENDBRANCH  11  13
ENDBRANCH  10  11
ENDBRANCH   8  10
TORSDOF 4
ENDMDL
MODEL      178
REMARK 921   NORMALIZED FREE ENERGY PREDICTED BY IDOCK:   -3.42 KCAL/MOL
REMARK 922        TOTAL FREE ENERGY PREDICTED BY IDOCK:   -5.14 KCAL/MOL
REMARK 923 INTER-LIGAND FREE ENERGY PREDICTED BY IDOCK:   -5.09 KCAL/MOL
REMARK 924 INTRA-LIGAND FREE ENERGY PREDICTED BY IDOCK:   -0.05 KCAL/MOL
REMARK 927      BINDING AFFINITY PREDICTED BY RF-SCORE:    0.00 PKD
ROOT
HETATM    1  C   UNL     1      -9.845   6.426  66.632  1.00  0.00    -0.152 C  
HETATM    2  C   UNL     1      -8.515   5.693  66.837  1.00  0.00    -0.111 C  
HETATM    3  C   UNL     1      -7.674   6.650  67.679  1.00  0.00    -0.107 C  
HETATM    4  C   UNL     1      -8.602   7.836  67.951  1.00  0.00    -0.122 C  
HETATM    5  C   UNL     1      -9.409   7.613  69.239  1.00  0.00    -0.148 C  
HETATM    6  N   UNL     1      -9.428   7.824  66.740  1.00  0.00    -0.184 NA 
HETATM    7  C   UNL     1     -10.501   8.803  66.688  1.00  0.00    -0.170 C  
HETATM    8  C   UNL     1     -10.576   6.623  69.107  1.00  0.00    -0.244 C  
HETATM    9  C   UNL     1     -10.862   6.044  67.707  1.00  0.00    -0.380 C  
ENDROOT
BRANCH   8  10
HETATM   10  O   UNL     1     -10.400   5.498  69.988  1.00  0.00    -0.239 OA 
BRANCH  10  11
HETATM   11  C   UNL     1      -9.887   5.845  71.211  1.00  0.00    -0.176 C  
HETATM   12  O   UNL     1      -8.709   6.119  71.410  1.00  0.00    -0.134 OA 
BRANCH  11  13
HETATM   13  C   UNL     1     -11.006   5.914  72.260  1.00  0.00    -0.265 C  
HETATM   14  O   UNL     1     -10.424   6.025  73.568  1.00  0.00    -0.228 OA 
HETATM   15  H   UNL     1     -11.116   6.067  74.217  1.00  0.00     0.000 HD 
BRANCH  13  16
HETATM   16  C   UNL     1     -12.012   7.026  72.047  1.00  0.00    -0.334 A  
HETATM   17  C   UNL     1     -13.361   6.754  71.768  1.00  0.00    -0.185 A  
HETATM   18  C   UNL     1     -14.279   7.793  71.616  1.00  0.00    -0.572 A  
HETATM   19  C   UNL     1     -13.868   9.118  71.758  1.00  0.00    -0.425 A  
HETATM   20  C   UNL     1     -12.544   9.405  72.061  1.00  0.00    -0.462 A  
HETATM   21  C   UNL     1     -11.625   8.370  72.215  1.00  0.00    -0.453 A  
ENDBRANCH  13  16
ENDBRANCH  11  13
ENDBRANCH  10  11
ENDBRANCH   8  10
TORSDOF 4
ENDMDL
MODEL      179
REMARK 921   NORMALIZED FREE ENERGY PREDICTED BY IDOCK:   -3.41 KCAL/MOL
REMARK 922        TOTAL FREE ENERGY PREDICTED BY IDOCK:   -5.13 KCAL/MOL
REMARK 923 INTER-LIGAND FREE ENERGY PREDICTED BY IDOCK:   -4.61 KCAL/MOL
REMARK 924 INTRA-LIGAND FREE ENERGY PREDICTED BY IDOCK:   -0.52 KCAL/MOL
REMARK 927      BINDING AFFINITY PREDICTED BY RF-SCORE:    0.00 PKD
ROOT
HETATM    1  C   UNL     1     -10.426  13.515  64.280  1.00  0.00    -0.237 C  
HETATM    2  C   UNL     1     -10.334  14.981  64.715  1.00  0.00    -0.201 C  
HETATM    3  C   UNL     1     -11.766  15.366  65.077  1.00  0.00    -0.102 C  
HETATM    4  C   UNL     1     -12.568  14.076  64.886  1.00  0.00    -0.342 C  
HETATM    5  C   UNL     1     -12.595  13.253  66.183  1.00  0.00    -0.208 C  
HETATM    6  N   UNL     1     -11.808  13.435  63.809  1.00  0.00    -0.446 NA 
HETATM    7  C   UNL     1     -12.258  12.113  63.408  1.00  0.00    -0.530 C  
HETATM    8  C   UNL     1     -11.295  12.498  66.496  1.00  0.00    -0.334 C  
HETATM    9  C   UNL     1     -10.163  12.570  65.453  1.00  0.00    -0.303 C  
ENDROOT
BRANCH   8  10
HETATM   10  O   UNL     1     -10.730  12.937  67.745  1.00  0.00    -0.218 OA 
BRANCH  10  11
HETATM   11  C   UNL     1      -9.754  12.101  68.221  1.00  0.00    -0.216 C  
HETATM   12  O   UNL     1      -9.930  10.917  68.483  1.00  0.00    -0.168 OA 
BRANCH  11  13
HETATM   13  C   UNL     1      -8.409  12.839  68.298  1.00  0.00    -0.161 C  
HETATM   14  O   UNL     1      -7.448  12.162  67.474  1.00  0.00    -0.126 OA 
HETATM   15  H   UNL     1      -6.616  12.619  67.522  1.00  0.00     0.000 HD 
BRANCH  13  16
HETATM   16  C   UNL     1      -8.464  14.307  67.927  1.00  0.00    -0.168 A  
HETATM   17  C   UNL     1      -9.425  15.169  68.479  1.00  0.00    -0.203 A  
HETATM   18  C   UNL     1      -9.432  16.526  68.154  1.00  0.00    -0.222 A  
HETATM   19  C   UNL     1      -8.470  17.045  67.289  1.00  0.00    -0.210 A  
HETATM   20  C   UNL     1      -7.496  16.212  66.755  1.00  0.00    -0.246 A  
HETATM   21  C   UNL     1      -7.485  14.857  67.078  1.00  0.00     0.033 A  
ENDBRANCH  13  16
ENDBRANCH  11  13
ENDBRANCH  10  11
ENDBRANCH   8  10
TORSDOF 4
ENDMDL
MODEL      180
REMARK 921   NORMALIZED FREE ENERGY PREDICTED BY IDOCK:   -3.40 KCAL/MOL
REMARK 922        TOTAL FREE ENERGY PREDICTED BY IDOCK:   -5.11 KCAL/MOL
REMARK 923 INTER-LIGAND FREE ENERGY PREDICTED BY IDOCK:   -4.75 KCAL/MOL
REMARK 924 INTRA-LIGAND FREE ENERGY PREDICTED BY IDOCK:   -0.36 KCAL/MOL
REMARK 927      BINDING AFFINITY PREDICTED BY RF-SCORE:    0.00 PKD
ROOT
HETATM    1  C   UNL     1     -10.809  13.329  64.105  1.00  0.00    -0.343 C  
HETATM    2  C   UNL     1     -10.441  14.475  65.054  1.00  0.00    -0.454 C  
HETATM    3  C   UNL     1     -11.406  14.326  66.228  1.00  0.00    -0.347 C  
HETATM    4  C   UNL     1     -12.216  13.070  65.901  1.00  0.00    -0.432 C  
HETATM    5  C   UNL     1     -11.532  11.817  66.469  1.00  0.00    -0.325 C  
HETATM    6  N   UNL     1     -12.217  13.116  64.435  1.00  0.00    -0.465 NA 
HETATM    7  C   UNL     1     -12.856  11.997  63.761  1.00  0.00    -0.320 C  
HETATM    8  C   UNL     1     -10.307  11.336  65.678  1.00  0.00    -0.256 C  
HETATM    9  C   UNL     1      -9.959  12.088  64.379  1.00  0.00    -0.254 C  
ENDROOT
BRANCH   8  10
HETATM   10  O   UNL     1      -9.122  11.360  66.496  1.00  0.00    -0.174 OA 
BRANCH  10  11
HETATM   11  C   UNL     1      -8.251  10.339  66.216  1.00  0.00    -0.131 C  
HETATM   12  O   UNL     1      -7.058  10.497  65.985  1.00  0.00    -0.126 OA 
BRANCH  11  13
HETATM   13  C   UNL     1      -8.967   8.984  66.313  1.00  0.00    -0.162 C  
HETATM   14  O   UNL     1      -9.179   8.464  64.991  1.00  0.00    -0.402 OA 
HETATM   15  H   UNL     1      -9.622   7.626  65.050  1.00  0.00     0.000 HD 
BRANCH  13  16
HETATM   16  C   UNL     1      -8.264   7.950  67.167  1.00  0.00    -0.118 A  
HETATM   17  C   UNL     1      -7.294   7.090  66.630  1.00  0.00    -0.080 A  
HETATM   18  C   UNL     1      -6.629   6.172  67.444  1.00  0.00    -0.052 A  
HETATM   19  C   UNL     1      -6.911   6.111  68.808  1.00  0.00    -0.066 A  
HETATM   20  C   UNL     1      -7.849   6.974  69.362  1.00  0.00    -0.113 A  
HETATM   21  C   UNL     1      -8.512   7.892  68.552  1.00  0.00    -0.128 A  
ENDBRANCH  13  16
ENDBRANCH  11  13
ENDBRANCH  10  11
ENDBRANCH   8  10
TORSDOF 4
ENDMDL
MODEL      181
REMARK 921   NORMALIZED FREE ENERGY PREDICTED BY IDOCK:   -3.39 KCAL/MOL
REMARK 922        TOTAL FREE ENERGY PREDICTED BY IDOCK:   -5.10 KCAL/MOL
REMARK 923 INTER-LIGAND FREE ENERGY PREDICTED BY IDOCK:   -4.71 KCAL/MOL
REMARK 924 INTRA-LIGAND FREE ENERGY PREDICTED BY IDOCK:   -0.38 KCAL/MOL
REMARK 927      BINDING AFFINITY PREDICTED BY RF-SCORE:    0.00 PKD
ROOT
HETATM    1  C   UNL     1      -9.875   4.730  68.223  1.00  0.00    -0.118 C  
HETATM    2  C   UNL     1      -9.165   3.950  69.335  1.00  0.00    -0.221 C  
HETATM    3  C   UNL     1      -7.818   4.650  69.496  1.00  0.00    -0.062 C  
HETATM    4  C   UNL     1      -7.875   5.820  68.511  1.00  0.00    -0.097 C  
HETATM    5  C   UNL     1      -8.462   7.070  69.182  1.00  0.00    -0.129 C  
HETATM    6  N   UNL     1      -8.741   5.261  67.468  1.00  0.00    -0.107 NA 
HETATM    7  C   UNL     1      -9.081   6.155  66.372  1.00  0.00    -0.148 C  
HETATM    8  C   UNL     1      -9.986   7.046  69.372  1.00  0.00    -0.162 C  
HETATM    9  C   UNL     1     -10.755   5.841  68.798  1.00  0.00    -0.318 C  
ENDROOT
BRANCH   8  10
HETATM   10  O   UNL     1     -10.334   7.129  70.767  1.00  0.00    -0.205 OA 
BRANCH  10  11
HETATM   11  C   UNL     1     -11.428   7.919  71.005  1.00  0.00    -0.280 C  
HETATM   12  O   UNL     1     -12.586   7.520  70.966  1.00  0.00    -0.281 OA 
BRANCH  11  13
HETATM   13  C   UNL     1     -10.989   9.336  71.399  1.00  0.00    -0.359 C  
HETATM   14  O   UNL     1      -9.601   9.317  71.769  1.00  0.00    -0.291 OA 
HETATM   15  H   UNL     1      -9.330  10.194  72.013  1.00  0.00     0.000 HD 
BRANCH  13  16
HETATM   16  C   UNL     1     -11.226  10.395  70.342  1.00  0.00    -0.399 A  
HETATM   17  C   UNL     1     -10.823  10.208  69.011  1.00  0.00    -0.257 A  
HETATM   18  C   UNL     1     -11.087  11.180  68.045  1.00  0.00    -0.334 A  
HETATM   19  C   UNL     1     -11.774  12.343  68.390  1.00  0.00    -0.386 A  
HETATM   20  C   UNL     1     -12.204  12.533  69.697  1.00  0.00    -0.167 A  
HETATM   21  C   UNL     1     -11.943  11.564  70.662  1.00  0.00    -0.391 A  
ENDBRANCH  13  16
ENDBRANCH  11  13
ENDBRANCH  10  11
ENDBRANCH   8  10
TORSDOF 4
ENDMDL
MODEL      182
REMARK 921   NORMALIZED FREE ENERGY PREDICTED BY IDOCK:   -3.38 KCAL/MOL
REMARK 922        TOTAL FREE ENERGY PREDICTED BY IDOCK:   -5.09 KCAL/MOL
REMARK 923 INTER-LIGAND FREE ENERGY PREDICTED BY IDOCK:   -4.22 KCAL/MOL
REMARK 924 INTRA-LIGAND FREE ENERGY PREDICTED BY IDOCK:   -0.88 KCAL/MOL
REMARK 927      BINDING AFFINITY PREDICTED BY RF-SCORE:    0.00 PKD
ROOT
HETATM    1  C   UNL     1      -7.992   5.018  66.872  1.00  0.00    -0.104 C  
HETATM    2  C   UNL     1      -9.069   5.845  66.162  1.00  0.00    -0.160 C  
HETATM    3  C   UNL     1     -10.321   5.660  67.015  1.00  0.00    -0.306 C  
HETATM    4  C   UNL     1      -9.860   4.793  68.189  1.00  0.00    -0.120 C  
HETATM    5  C   UNL     1      -9.353   5.666  69.346  1.00  0.00    -0.156 C  
HETATM    6  N   UNL     1      -8.800   4.005  67.550  1.00  0.00    -0.109 NA 
HETATM    7  C   UNL     1      -8.069   3.096  68.417  1.00  0.00    -0.064 C  
HETATM    8  C   UNL     1      -7.957   6.272  69.136  1.00  0.00    -0.110 C  
HETATM    9  C   UNL     1      -7.195   5.872  67.858  1.00  0.00    -0.072 C  
ENDROOT
BRANCH   8  10
HETATM   10  O   UNL     1      -8.012   7.710  69.149  1.00  0.00    -0.116 OA 
BRANCH  10  11
HETATM   11  C   UNL     1      -7.370   8.265  70.225  1.00  0.00    -0.055 C  
HETATM   12  O   UNL     1      -6.267   7.912  70.626  1.00  0.00    -0.036 OA 
BRANCH  11  13
HETATM   13  C   UNL     1      -8.192   9.430  70.796  1.00  0.00    -0.127 C  
HETATM   14  O   UNL     1      -8.312  10.459  69.801  1.00  0.00    -0.338 OA 
HETATM   15  H   UNL     1      -8.820  11.179  70.153  1.00  0.00     0.000 HD 
BRANCH  13  16
HETATM   16  C   UNL     1      -9.564   9.050  71.312  1.00  0.00    -0.361 A  
HETATM   17  C   UNL     1     -10.733   9.613  70.776  1.00  0.00    -0.401 A  
HETATM   18  C   UNL     1     -11.989   9.218  71.239  1.00  0.00    -0.414 A  
HETATM   19  C   UNL     1     -12.097   8.244  72.231  1.00  0.00    -0.439 A  
HETATM   20  C   UNL     1     -10.952   7.657  72.754  1.00  0.00    -0.432 A  
HETATM   21  C   UNL     1      -9.697   8.048  72.292  1.00  0.00    -0.294 A  
ENDBRANCH  13  16
ENDBRANCH  11  13
ENDBRANCH  10  11
ENDBRANCH   8  10
TORSDOF 4
ENDMDL
MODEL      183
REMARK 921   NORMALIZED FREE ENERGY PREDICTED BY IDOCK:   -3.38 KCAL/MOL
REMARK 922        TOTAL FREE ENERGY PREDICTED BY IDOCK:   -5.08 KCAL/MOL
REMARK 923 INTER-LIGAND FREE ENERGY PREDICTED BY IDOCK:   -4.08 KCAL/MOL
REMARK 924 INTRA-LIGAND FREE ENERGY PREDICTED BY IDOCK:   -1.01 KCAL/MOL
REMARK 927      BINDING AFFINITY PREDICTED BY RF-SCORE:    0.00 PKD
ROOT
HETATM    1  C   UNL     1     -11.363  12.273  67.886  1.00  0.00    -0.298 C  
HETATM    2  C   UNL     1     -11.337  11.744  66.448  1.00  0.00    -0.361 C  
HETATM    3  C   UNL     1     -11.380  12.997  65.577  1.00  0.00    -0.330 C  
HETATM    4  C   UNL     1     -11.363  14.157  66.575  1.00  0.00    -0.341 C  
HETATM    5  C   UNL     1      -9.922  14.582  66.893  1.00  0.00    -0.259 C  
HETATM    6  N   UNL     1     -12.055  13.550  67.716  1.00  0.00    -0.327 NA 
HETATM    7  C   UNL     1     -12.158  14.371  68.911  1.00  0.00    -0.253 C  
HETATM    8  C   UNL     1      -9.167  13.642  67.845  1.00  0.00    -0.203 C  
HETATM    9  C   UNL     1      -9.949  12.453  68.438  1.00  0.00    -0.210 C  
ENDROOT
BRANCH   8  10
HETATM   10  O   UNL     1      -8.001  13.089  67.208  1.00  0.00    -0.172 OA 
BRANCH  10  11
HETATM   11  C   UNL     1      -7.104  12.552  68.094  1.00  0.00    -0.103 C  
HETATM   12  O   UNL     1      -6.862  13.024  69.199  1.00  0.00    -0.104 OA 
BRANCH  11  13
HETATM   13  C   UNL     1      -6.517  11.247  67.536  1.00  0.00    -0.072 C  
HETATM   14  O   UNL     1      -5.587  10.701  68.484  1.00  0.00    -0.041 OA 
HETATM   15  H   UNL     1      -5.224   9.894  68.139  1.00  0.00     0.000 HD 
BRANCH  13  16
HETATM   16  C   UNL     1      -7.541  10.198  67.156  1.00  0.00    -0.092 A  
HETATM   17  C   UNL     1      -8.245   9.471  68.129  1.00  0.00    -0.114 A  
HETATM   18  C   UNL     1      -9.213   8.537  67.757  1.00  0.00    -0.146 A  
HETATM   19  C   UNL     1      -9.505   8.329  66.410  1.00  0.00    -0.287 A  
HETATM   20  C   UNL     1      -8.838   9.059  65.434  1.00  0.00    -0.237 A  
HETATM   21  C   UNL     1      -7.873   9.992  65.803  1.00  0.00    -0.128 A  
ENDBRANCH  13  16
ENDBRANCH  11  13
ENDBRANCH  10  11
ENDBRANCH   8  10
TORSDOF 4
ENDMDL
MODEL      184
REMARK 921   NORMALIZED FREE ENERGY PREDICTED BY IDOCK:   -3.36 KCAL/MOL
REMARK 922        TOTAL FREE ENERGY PREDICTED BY IDOCK:   -5.07 KCAL/MOL
REMARK 923 INTER-LIGAND FREE ENERGY PREDICTED BY IDOCK:   -4.60 KCAL/MOL
REMARK 924 INTRA-LIGAND FREE ENERGY PREDICTED BY IDOCK:   -0.46 KCAL/MOL
REMARK 927      BINDING AFFINITY PREDICTED BY RF-SCORE:    0.00 PKD
ROOT
HETATM    1  C   UNL     1      -9.653  14.848  66.066  1.00  0.00    -0.313 C  
HETATM    2  C   UNL     1      -9.127  15.378  67.405  1.00  0.00    -0.206 C  
HETATM    3  C   UNL     1     -10.382  15.744  68.193  1.00  0.00    -0.242 C  
HETATM    4  C   UNL     1     -11.540  15.339  67.278  1.00  0.00    -0.157 C  
HETATM    5  C   UNL     1     -11.956  13.883  67.535  1.00  0.00    -0.421 C  
HETATM    6  N   UNL     1     -10.934  15.544  65.958  1.00  0.00    -0.292 NA 
HETATM    7  C   UNL     1     -11.753  15.177  64.815  1.00  0.00    -0.331 C  
HETATM    8  C   UNL     1     -11.010  12.827  66.945  1.00  0.00    -0.260 C  
HETATM    9  C   UNL     1      -9.824  13.329  66.099  1.00  0.00    -0.286 C  
ENDROOT
BRANCH   8  10
HETATM   10  O   UNL     1     -10.453  11.997  67.981  1.00  0.00    -0.195 OA 
BRANCH  10  11
HETATM   11  C   UNL     1     -11.177  10.855  68.206  1.00  0.00    -0.286 C  
HETATM   12  O   UNL     1     -12.345  10.843  68.574  1.00  0.00    -0.490 OA 
BRANCH  11  13
HETATM   13  C   UNL     1     -10.341   9.615  67.857  1.00  0.00    -0.224 C  
HETATM   14  O   UNL     1     -10.038   9.626  66.453  1.00  0.00    -0.240 OA 
HETATM   15  H   UNL     1      -9.521   8.860  66.237  1.00  0.00     0.000 HD 
BRANCH  13  16
HETATM   16  C   UNL     1      -9.066   9.458  68.658  1.00  0.00    -0.132 A  
HETATM   17  C   UNL     1      -9.091   9.119  70.020  1.00  0.00    -0.207 A  
HETATM   18  C   UNL     1      -7.903   8.940  70.730  1.00  0.00    -0.135 A  
HETATM   19  C   UNL     1      -6.674   9.078  70.087  1.00  0.00    -0.047 A  
HETATM   20  C   UNL     1      -6.630   9.386  68.733  1.00  0.00    -0.052 A  
HETATM   21  C   UNL     1      -7.814   9.564  68.022  1.00  0.00    -0.087 A  
ENDBRANCH  13  16
ENDBRANCH  11  13
ENDBRANCH  10  11
ENDBRANCH   8  10
TORSDOF 4
ENDMDL
MODEL      185
REMARK 921   NORMALIZED FREE ENERGY PREDICTED BY IDOCK:   -3.34 KCAL/MOL
REMARK 922        TOTAL FREE ENERGY PREDICTED BY IDOCK:   -5.04 KCAL/MOL
REMARK 923 INTER-LIGAND FREE ENERGY PREDICTED BY IDOCK:   -4.59 KCAL/MOL
REMARK 924 INTRA-LIGAND FREE ENERGY PREDICTED BY IDOCK:   -0.45 KCAL/MOL
REMARK 927      BINDING AFFINITY PREDICTED BY RF-SCORE:    0.00 PKD
ROOT
HETATM    1  C   UNL     1     -12.515  13.503  65.492  1.00  0.00    -0.491 C  
HETATM    2  C   UNL     1     -13.092  12.436  64.555  1.00  0.00     0.014 C  
HETATM    3  C   UNL     1     -12.061  12.309  63.436  1.00  0.00    -0.615 C  
HETATM    4  C   UNL     1     -10.936  13.263  63.842  1.00  0.00    -0.195 C  
HETATM    5  C   UNL     1      -9.895  12.541  64.712  1.00  0.00    -0.084 C  
HETATM    6  N   UNL     1     -11.691  14.286  64.572  1.00  0.00    -0.416 NA 
HETATM    7  C   UNL     1     -10.906  15.347  65.182  1.00  0.00    -0.431 C  
HETATM    8  C   UNL     1     -10.327  12.296  66.166  1.00  0.00    -0.242 C  
HETATM    9  C   UNL     1     -11.686  12.870  66.610  1.00  0.00    -0.452 C  
ENDROOT
BRANCH   8  10
HETATM   10  O   UNL     1     -10.358  10.888  66.464  1.00  0.00    -0.231 OA 
BRANCH  10  11
HETATM   11  C   UNL     1      -9.453  10.519  67.425  1.00  0.00    -0.153 C  
HETATM   12  O   UNL     1      -8.348  11.032  67.563  1.00  0.00    -0.116 OA 
BRANCH  11  13
HETATM   13  C   UNL     1     -10.052   9.440  68.338  1.00  0.00    -0.185 C  
HETATM   14  O   UNL     1     -11.296   8.985  67.782  1.00  0.00    -0.293 OA 
HETATM   15  H   UNL     1     -11.667   8.317  68.347  1.00  0.00     0.000 HD 
BRANCH  13  16
HETATM   16  C   UNL     1      -9.145   8.258  68.610  1.00  0.00    -0.140 A  
HETATM   17  C   UNL     1      -8.414   8.152  69.803  1.00  0.00    -0.125 A  
HETATM   18  C   UNL     1      -7.615   7.034  70.051  1.00  0.00    -0.099 A  
HETATM   19  C   UNL     1      -7.550   5.999  69.119  1.00  0.00    -0.090 A  
HETATM   20  C   UNL     1      -8.289   6.074  67.945  1.00  0.00    -0.116 A  
HETATM   21  C   UNL     1      -9.088   7.188  67.697  1.00  0.00    -0.127 A  
ENDBRANCH  13  16
ENDBRANCH  11  13
ENDBRANCH  10  11
ENDBRANCH   8  10
TORSDOF 4
ENDMDL
MODEL      186
REMARK 921   NORMALIZED FREE ENERGY PREDICTED BY IDOCK:   -3.33 KCAL/MOL
REMARK 922        TOTAL FREE ENERGY PREDICTED BY IDOCK:   -5.03 KCAL/MOL
REMARK 923 INTER-LIGAND FREE ENERGY PREDICTED BY IDOCK:   -4.58 KCAL/MOL
REMARK 924 INTRA-LIGAND FREE ENERGY PREDICTED BY IDOCK:   -0.45 KCAL/MOL
REMARK 927      BINDING AFFINITY PREDICTED BY RF-SCORE:    0.00 PKD
ROOT
HETATM    1  C   UNL     1     -10.074   7.291  67.915  1.00  0.00    -0.177 C  
HETATM    2  C   UNL     1     -11.298   6.827  68.711  1.00  0.00    -0.102 C  
HETATM    3  C   UNL     1     -11.066   7.362  70.121  1.00  0.00    -0.265 C  
HETATM    4  C   UNL     1      -9.757   8.149  70.021  1.00  0.00    -0.172 C  
HETATM    5  C   UNL     1     -10.029   9.614  69.646  1.00  0.00    -0.239 C  
HETATM    6  N   UNL     1      -9.065   7.400  68.967  1.00  0.00    -0.134 NA 
HETATM    7  C   UNL     1      -7.777   7.929  68.548  1.00  0.00    -0.114 C  
HETATM    8  C   UNL     1     -10.382   9.848  68.170  1.00  0.00    -0.195 C  
HETATM    9  C   UNL     1     -10.335   8.631  67.226  1.00  0.00    -0.366 C  
ENDROOT
BRANCH   8  10
HETATM   10  O   UNL     1     -11.697  10.420  68.038  1.00  0.00    -0.383 OA 
BRANCH  10  11
HETATM   11  C   UNL     1     -11.806  11.661  68.608  1.00  0.00    -0.308 C  
HETATM   12  O   UNL     1     -12.138  11.857  69.772  1.00  0.00    -0.290 OA 
BRANCH  11  13
HETATM   13  C   UNL     1     -11.379  12.747  67.610  1.00  0.00    -0.310 C  
HETATM   14  O   UNL     1     -12.526  13.528  67.239  1.00  0.00    -0.283 OA 
HETATM   15  H   UNL     1     -12.262  14.199  66.621  1.00  0.00     0.000 HD 
BRANCH  13  16
HETATM   16  C   UNL     1     -10.270  13.658  68.093  1.00  0.00    -0.247 A  
HETATM   17  C   UNL     1      -8.926  13.252  68.079  1.00  0.00    -0.191 A  
HETATM   18  C   UNL     1      -7.916  14.122  68.491  1.00  0.00    -0.145 A  
HETATM   19  C   UNL     1      -8.231  15.416  68.905  1.00  0.00    -0.192 A  
HETATM   20  C   UNL     1      -9.552  15.844  68.899  1.00  0.00    -0.230 A  
HETATM   21  C   UNL     1     -10.562  14.978  68.487  1.00  0.00    -0.235 A  
ENDBRANCH  13  16
ENDBRANCH  11  13
ENDBRANCH  10  11
ENDBRANCH   8  10
TORSDOF 4
ENDMDL
MODEL      187
REMARK 921   NORMALIZED FREE ENERGY PREDICTED BY IDOCK:   -3.33 KCAL/MOL
REMARK 922        TOTAL FREE ENERGY PREDICTED BY IDOCK:   -5.03 KCAL/MOL
REMARK 923 INTER-LIGAND FREE ENERGY PREDICTED BY IDOCK:   -4.56 KCAL/MOL
REMARK 924 INTRA-LIGAND FREE ENERGY PREDICTED BY IDOCK:   -0.47 KCAL/MOL
REMARK 927      BINDING AFFINITY PREDICTED BY RF-SCORE:    0.00 PKD
ROOT
HETATM    1  C   UNL     1      -6.192  10.507  68.565  1.00  0.00    -0.046 C  
HETATM    2  C   UNL     1      -6.321  11.221  69.914  1.00  0.00    -0.142 C  
HETATM    3  C   UNL     1      -6.359  12.706  69.561  1.00  0.00    -0.111 C  
HETATM    4  C   UNL     1      -6.314  12.737  68.032  1.00  0.00    -0.099 C  
HETATM    5  C   UNL     1      -7.732  12.689  67.443  1.00  0.00    -0.161 C  
HETATM    6  N   UNL     1      -5.531  11.528  67.755  1.00  0.00    -0.046 NA 
HETATM    7  C   UNL     1      -5.347  11.194  66.352  1.00  0.00    -0.130 C  
HETATM    8  C   UNL     1      -8.401  11.307  67.480  1.00  0.00    -0.131 C  
HETATM    9  C   UNL     1      -7.562  10.126  68.005  1.00  0.00    -0.088 C  
ENDROOT
BRANCH   8  10
HETATM   10  O   UNL     1      -9.606  11.337  68.267  1.00  0.00    -0.178 OA 
BRANCH  10  11
HETATM   11  C   UNL     1     -10.745  11.211  67.515  1.00  0.00    -0.236 C  
HETATM   12  O   UNL     1     -11.488  10.237  67.549  1.00  0.00    -0.323 OA 
BRANCH  11  13
HETATM   13  C   UNL     1     -10.990  12.488  66.697  1.00  0.00    -0.266 C  
HETATM   14  O   UNL     1     -12.082  12.269  65.791  1.00  0.00    -0.587 OA 
HETATM   15  H   UNL     1     -12.233  13.058  65.285  1.00  0.00     0.000 HD 
BRANCH  13  16
HETATM   16  C   UNL     1     -11.244  13.734  67.520  1.00  0.00    -0.316 A  
HETATM   17  C   UNL     1     -11.846  13.669  68.786  1.00  0.00    -0.395 A  
HETATM   18  C   UNL     1     -12.035  14.825  69.544  1.00  0.00    -0.351 A  
HETATM   19  C   UNL     1     -11.608  16.060  69.057  1.00  0.00    -0.350 A  
HETATM   20  C   UNL     1     -10.986  16.140  67.818  1.00  0.00    -0.293 A  
HETATM   21  C   UNL     1     -10.795  14.987  67.060  1.00  0.00    -0.311 A  
ENDBRANCH  13  16
ENDBRANCH  11  13
ENDBRANCH  10  11
ENDBRANCH   8  10
TORSDOF 4
ENDMDL
MODEL      188
REMARK 921   NORMALIZED FREE ENERGY PREDICTED BY IDOCK:   -3.29 KCAL/MOL
REMARK 922        TOTAL FREE ENERGY PREDICTED BY IDOCK:   -4.97 KCAL/MOL
REMARK 923 INTER-LIGAND FREE ENERGY PREDICTED BY IDOCK:   -4.47 KCAL/MOL
REMARK 924 INTRA-LIGAND FREE ENERGY PREDICTED BY IDOCK:   -0.51 KCAL/MOL
REMARK 927      BINDING AFFINITY PREDICTED BY RF-SCORE:    0.00 PKD
ROOT
HETATM    1  C   UNL     1      -9.878   8.217  72.516  1.00  0.00    -0.293 C  
HETATM    2  C   UNL     1      -8.351   8.095  72.522  1.00  0.00    -0.230 C  
HETATM    3  C   UNL     1      -8.067   6.783  71.794  1.00  0.00    -0.102 C  
HETATM    4  C   UNL     1      -9.446   6.277  71.365  1.00  0.00    -0.156 C  
HETATM    5  C   UNL     1      -9.819   6.820  69.977  1.00  0.00    -0.179 C  
HETATM    6  N   UNL     1     -10.284   6.814  72.442  1.00  0.00    -0.179 NA 
HETATM    7  C   UNL     1     -11.713   6.580  72.316  1.00  0.00    -0.281 C  
HETATM    8  C   UNL     1     -10.259   8.292  69.957  1.00  0.00    -0.202 C  
HETATM    9  C   UNL     1     -10.366   9.021  71.310  1.00  0.00    -0.383 C  
ENDROOT
BRANCH   8  10
HETATM   10  O   UNL     1      -9.381   9.082  69.133  1.00  0.00    -0.146 OA 
BRANCH  10  11
HETATM   11  C   UNL     1      -9.977   9.532  67.985  1.00  0.00    -0.167 C  
HETATM   12  O   UNL     1     -11.020   9.079  67.527  1.00  0.00    -0.152 OA 
BRANCH  11  13
HETATM   13  C   UNL     1      -9.198  10.724  67.409  1.00  0.00    -0.147 C  
HETATM   14  O   UNL     1      -8.730  10.394  66.092  1.00  0.00    -0.144 OA 
HETATM   15  H   UNL     1      -8.248  11.131  65.737  1.00  0.00     0.000 HD 
BRANCH  13  16
HETATM   16  C   UNL     1      -9.965  12.030  67.372  1.00  0.00    -0.200 A  
HETATM   17  C   UNL     1     -10.646  12.515  68.499  1.00  0.00    -0.262 A  
HETATM   18  C   UNL     1     -11.312  13.740  68.455  1.00  0.00    -0.326 A  
HETATM   19  C   UNL     1     -11.293  14.507  67.290  1.00  0.00    -0.363 A  
HETATM   20  C   UNL     1     -10.601  14.055  66.174  1.00  0.00    -0.290 A  
HETATM   21  C   UNL     1      -9.934  12.833  66.216  1.00  0.00    -0.269 A  
ENDBRANCH  13  16
ENDBRANCH  11  13
ENDBRANCH  10  11
ENDBRANCH   8  10
TORSDOF 4
ENDMDL
MODEL      189
REMARK 921   NORMALIZED FREE ENERGY PREDICTED BY IDOCK:   -3.28 KCAL/MOL
REMARK 922        TOTAL FREE ENERGY PREDICTED BY IDOCK:   -4.97 KCAL/MOL
REMARK 923 INTER-LIGAND FREE ENERGY PREDICTED BY IDOCK:   -4.97 KCAL/MOL
REMARK 924 INTRA-LIGAND FREE ENERGY PREDICTED BY IDOCK:   -0.00 KCAL/MOL
REMARK 927      BINDING AFFINITY PREDICTED BY RF-SCORE:    0.00 PKD
ROOT
HETATM    1  C   UNL     1     -12.193  15.146  69.725  1.00  0.00    -0.289 C  
HETATM    2  C   UNL     1     -11.168  16.283  69.645  1.00  0.00    -0.311 C  
HETATM    3  C   UNL     1      -9.825  15.578  69.473  1.00  0.00    -0.284 C  
HETATM    4  C   UNL     1     -10.179  14.091  69.402  1.00  0.00     0.199 C  
HETATM    5  C   UNL     1     -10.447  13.662  67.952  1.00  0.00    -0.249 C  
HETATM    6  N   UNL     1     -11.376  14.052  70.249  1.00  0.00    -0.076 NA 
HETATM    7  C   UNL     1     -12.044  12.765  70.352  1.00  0.00    -0.302 C  
HETATM    8  C   UNL     1     -11.808  14.099  67.390  1.00  0.00    -0.413 C  
HETATM    9  C   UNL     1     -12.773  14.823  68.348  1.00  0.00     0.831 C  
ENDROOT
BRANCH   8  10
HETATM   10  O   UNL     1     -11.642  14.960  66.247  1.00  0.00    -0.328 OA 
BRANCH  10  11
HETATM   11  C   UNL     1     -10.354  14.992  65.778  1.00  0.00    -0.335 C  
HETATM   12  O   UNL     1      -9.571  14.053  65.853  1.00  0.00    -0.252 OA 
BRANCH  11  13
HETATM   13  C   UNL     1     -10.071  16.333  65.085  1.00  0.00     0.143 C  
HETATM   14  O   UNL     1     -11.208  16.706  64.290  1.00  0.00    -1.314 OA 
HETATM   15  H   UNL     1     -11.033  17.535  63.862  1.00  0.00     0.000 HD 
BRANCH  13  16
HETATM   16  C   UNL     1      -9.699  17.467  66.017  1.00  0.00    -0.160 A  
HETATM   17  C   UNL     1     -10.659  18.378  66.486  1.00  0.00    -0.344 A  
HETATM   18  C   UNL     1     -10.302  19.391  67.376  1.00  0.00    -0.559 A  
HETATM   19  C   UNL     1      -8.986  19.499  67.825  1.00  0.00    -0.375 A  
HETATM   20  C   UNL     1      -8.029  18.590  67.393  1.00  0.00    -0.246 A  
HETATM   21  C   UNL     1      -8.383  17.577  66.506  1.00  0.00    -0.304 A  
ENDBRANCH  13  16
ENDBRANCH  11  13
ENDBRANCH  10  11
ENDBRANCH   8  10
TORSDOF 4
ENDMDL
MODEL      190
REMARK 921   NORMALIZED FREE ENERGY PREDICTED BY IDOCK:   -3.27 KCAL/MOL
REMARK 922        TOTAL FREE ENERGY PREDICTED BY IDOCK:   -4.96 KCAL/MOL
REMARK 923 INTER-LIGAND FREE ENERGY PREDICTED BY IDOCK:   -4.27 KCAL/MOL
REMARK 924 INTRA-LIGAND FREE ENERGY PREDICTED BY IDOCK:   -0.69 KCAL/MOL
REMARK 927      BINDING AFFINITY PREDICTED BY RF-SCORE:    0.00 PKD
ROOT
HETATM    1  C   UNL     1      -8.439   9.853  66.998  1.00  0.00    -0.121 C  
HETATM    2  C   UNL     1      -7.372  10.484  66.097  1.00  0.00    -0.136 C  
HETATM    3  C   UNL     1      -7.971  10.426  64.694  1.00  0.00    -0.092 C  
HETATM    4  C   UNL     1      -9.364   9.826  64.897  1.00  0.00    -0.265 C  
HETATM    5  C   UNL     1     -10.401  10.928  65.157  1.00  0.00    -0.344 C  
HETATM    6  N   UNL     1      -9.127   8.966  66.061  1.00  0.00    -0.199 NA 
HETATM    7  C   UNL     1     -10.290   8.274  66.592  1.00  0.00    -0.223 C  
HETATM    8  C   UNL     1     -10.362  11.531  66.570  1.00  0.00    -0.232 C  
HETATM    9  C   UNL     1      -9.374  10.914  67.578  1.00  0.00    -0.164 C  
ENDROOT
BRANCH   8  10
HETATM   10  O   UNL     1     -10.075  12.941  66.522  1.00  0.00    -0.249 OA 
BRANCH  10  11
HETATM   11  C   UNL     1     -11.029  13.708  67.138  1.00  0.00    -0.288 C  
HETATM   12  O   UNL     1     -12.207  13.742  66.802  1.00  0.00    -0.425 OA 
BRANCH  11  13
HETATM   13  C   UNL     1     -10.425  14.445  68.343  1.00  0.00    -0.246 C  
HETATM   14  O   UNL     1     -10.722  13.715  69.544  1.00  0.00    -0.447 OA 
HETATM   15  H   UNL     1     -10.350  14.171  70.288  1.00  0.00     0.000 HD 
BRANCH  13  16
HETATM   16  C   UNL     1      -8.936  14.704  68.252  1.00  0.00    -0.184 A  
HETATM   17  C   UNL     1      -8.003  13.852  68.863  1.00  0.00     0.006 A  
HETATM   18  C   UNL     1      -6.634  14.087  68.733  1.00  0.00    -0.096 A  
HETATM   19  C   UNL     1      -6.176  15.165  67.976  1.00  0.00    -0.159 A  
HETATM   20  C   UNL     1      -7.084  16.003  67.342  1.00  0.00    -0.222 A  
HETATM   21  C   UNL     1      -8.451  15.770  67.469  1.00  0.00    -0.183 A  
ENDBRANCH  13  16
ENDBRANCH  11  13
ENDBRANCH  10  11
ENDBRANCH   8  10
TORSDOF 4
ENDMDL
MODEL      191
REMARK 921   NORMALIZED FREE ENERGY PREDICTED BY IDOCK:   -3.25 KCAL/MOL
REMARK 922        TOTAL FREE ENERGY PREDICTED BY IDOCK:   -4.93 KCAL/MOL
REMARK 923 INTER-LIGAND FREE ENERGY PREDICTED BY IDOCK:   -4.54 KCAL/MOL
REMARK 924 INTRA-LIGAND FREE ENERGY PREDICTED BY IDOCK:   -0.39 KCAL/MOL
REMARK 927      BINDING AFFINITY PREDICTED BY RF-SCORE:    0.00 PKD
ROOT
HETATM    1  C   UNL     1      -9.070   8.036  68.355  1.00  0.00    -0.136 C  
HETATM    2  C   UNL     1      -7.683   8.589  68.011  1.00  0.00    -0.103 C  
HETATM    3  C   UNL     1      -7.682   8.704  66.489  1.00  0.00    -0.095 C  
HETATM    4  C   UNL     1      -9.088   8.269  66.071  1.00  0.00    -0.176 C  
HETATM    5  C   UNL     1     -10.043   9.472  66.034  1.00  0.00    -0.319 C  
HETATM    6  N   UNL     1      -9.407   7.309  67.132  1.00  0.00    -0.136 NA 
HETATM    7  C   UNL     1     -10.741   6.732  67.093  1.00  0.00    -0.371 C  
HETATM    8  C   UNL     1     -10.513   9.966  67.411  1.00  0.00    -0.267 C  
HETATM    9  C   UNL     1     -10.061   9.162  68.646  1.00  0.00    -0.212 C  
ENDROOT
BRANCH   8  10
HETATM   10  O   UNL     1     -10.107  11.329  67.637  1.00  0.00    -0.176 OA 
BRANCH  10  11
HETATM   11  C   UNL     1     -11.105  12.237  67.394  1.00  0.00    -0.282 C  
HETATM   12  O   UNL     1     -11.802  12.239  66.386  1.00  0.00    -0.529 OA 
BRANCH  11  13
HETATM   13  C   UNL     1     -11.267  13.186  68.590  1.00  0.00    -0.276 C  
HETATM   14  O   UNL     1     -11.049  12.456  69.808  1.00  0.00    -0.470 OA 
HETATM   15  H   UNL     1     -11.149  13.043  70.548  1.00  0.00     0.000 HD 
BRANCH  13  16
HETATM   16  C   UNL     1     -10.377  14.411  68.558  1.00  0.00    -0.248 A  
HETATM   17  C   UNL     1     -10.182  15.208  69.697  1.00  0.00    -0.219 A  
HETATM   18  C   UNL     1      -9.327  16.310  69.655  1.00  0.00     0.113 A  
HETATM   19  C   UNL     1      -8.640  16.621  68.483  1.00  0.00    -0.234 A  
HETATM   20  C   UNL     1      -8.801  15.828  67.354  1.00  0.00    -0.199 A  
HETATM   21  C   UNL     1      -9.652  14.727  67.393  1.00  0.00    -0.210 A  
ENDBRANCH  13  16
ENDBRANCH  11  13
ENDBRANCH  10  11
ENDBRANCH   8  10
TORSDOF 4
ENDMDL
MODEL      192
REMARK 921   NORMALIZED FREE ENERGY PREDICTED BY IDOCK:   -3.25 KCAL/MOL
REMARK 922        TOTAL FREE ENERGY PREDICTED BY IDOCK:   -4.93 KCAL/MOL
REMARK 923 INTER-LIGAND FREE ENERGY PREDICTED BY IDOCK:   -4.56 KCAL/MOL
REMARK 924 INTRA-LIGAND FREE ENERGY PREDICTED BY IDOCK:   -0.37 KCAL/MOL
REMARK 927      BINDING AFFINITY PREDICTED BY RF-SCORE:    0.00 PKD
ROOT
HETATM    1  C   UNL     1      -9.281  15.689  68.196  1.00  0.00    -0.185 C  
HETATM    2  C   UNL     1      -9.647  15.600  69.681  1.00  0.00    -0.260 C  
HETATM    3  C   UNL     1     -11.174  15.574  69.700  1.00  0.00    -0.301 C  
HETATM    4  C   UNL     1     -11.575  15.585  68.223  1.00  0.00    -0.334 C  
HETATM    5  C   UNL     1     -11.683  14.154  67.676  1.00  0.00    -0.421 C  
HETATM    6  N   UNL     1     -10.464  16.346  67.641  1.00  0.00    -0.296 NA 
HETATM    7  C   UNL     1     -10.479  16.494  66.195  1.00  0.00    -0.294 C  
HETATM    8  C   UNL     1     -10.339  13.467  67.393  1.00  0.00    -0.237 C  
HETATM    9  C   UNL     1      -9.058  14.301  67.594  1.00  0.00    -0.192 C  
ENDROOT
BRANCH   8  10
HETATM   10  O   UNL     1     -10.186  12.281  68.194  1.00  0.00    -0.200 OA 
BRANCH  10  11
HETATM   11  C   UNL     1     -10.864  11.200  67.693  1.00  0.00    -0.247 C  
HETATM   12  O   UNL     1     -12.020  10.916  67.986  1.00  0.00    -0.586 OA 
BRANCH  11  13
HETATM   13  C   UNL     1     -10.000  10.457  66.664  1.00  0.00    -0.210 C  
HETATM   14  O   UNL     1      -9.963  11.210  65.441  1.00  0.00    -0.232 OA 
HETATM   15  H   UNL     1      -9.429  10.750  64.805  1.00  0.00     0.000 HD 
BRANCH  13  16
HETATM   16  C   UNL     1      -8.590  10.146  67.121  1.00  0.00    -0.125 A  
HETATM   17  C   UNL     1      -7.474  10.757  66.528  1.00  0.00    -0.139 A  
HETATM   18  C   UNL     1      -6.186  10.487  66.991  1.00  0.00    -0.066 A  
HETATM   19  C   UNL     1      -5.994   9.618  68.064  1.00  0.00    -0.043 A  
HETATM   20  C   UNL     1      -7.089   9.025  68.681  1.00  0.00    -0.071 A  
HETATM   21  C   UNL     1      -8.376   9.294  68.221  1.00  0.00    -0.120 A  
ENDBRANCH  13  16
ENDBRANCH  11  13
ENDBRANCH  10  11
ENDBRANCH   8  10
TORSDOF 4
ENDMDL
MODEL      193
REMARK 921   NORMALIZED FREE ENERGY PREDICTED BY IDOCK:   -3.24 KCAL/MOL
REMARK 922        TOTAL FREE ENERGY PREDICTED BY IDOCK:   -4.92 KCAL/MOL
REMARK 923 INTER-LIGAND FREE ENERGY PREDICTED BY IDOCK:   -4.46 KCAL/MOL
REMARK 924 INTRA-LIGAND FREE ENERGY PREDICTED BY IDOCK:   -0.46 KCAL/MOL
REMARK 927      BINDING AFFINITY PREDICTED BY RF-SCORE:    0.00 PKD
ROOT
HETATM    1  C   UNL     1      -6.726   8.673  69.476  1.00  0.00    -0.040 C  
HETATM    2  C   UNL     1      -6.165   8.728  68.050  1.00  0.00    -0.052 C  
HETATM    3  C   UNL     1      -7.161   7.927  67.215  1.00  0.00    -0.083 C  
HETATM    4  C   UNL     1      -8.254   7.522  68.206  1.00  0.00    -0.125 C  
HETATM    5  C   UNL     1      -9.357   8.589  68.266  1.00  0.00    -0.143 C  
HETATM    6  N   UNL     1      -7.479   7.420  69.446  1.00  0.00    -0.089 NA 
HETATM    7  C   UNL     1      -8.235   7.114  70.650  1.00  0.00    -0.117 C  
HETATM    8  C   UNL     1      -8.990   9.854  69.058  1.00  0.00    -0.160 C  
HETATM    9  C   UNL     1      -7.622   9.876  69.767  1.00  0.00    -0.151 C  
ENDROOT
BRANCH   8  10
HETATM   10  O   UNL     1      -9.035  11.021  68.215  1.00  0.00    -0.141 OA 
BRANCH  10  11
HETATM   11  C   UNL     1     -10.244  11.665  68.248  1.00  0.00    -0.199 C  
HETATM   12  O   UNL     1     -11.184  11.328  68.960  1.00  0.00    -0.214 OA 
BRANCH  11  13
HETATM   13  C   UNL     1     -10.219  12.898  67.334  1.00  0.00    -0.230 C  
HETATM   14  O   UNL     1      -8.869  13.375  67.218  1.00  0.00    -0.201 OA 
HETATM   15  H   UNL     1      -8.853  14.138  66.653  1.00  0.00     0.000 HD 
BRANCH  13  16
HETATM   16  C   UNL     1     -10.810  12.683  65.956  1.00  0.00    -0.306 A  
HETATM   17  C   UNL     1     -10.009  12.319  64.861  1.00  0.00    -0.219 A  
HETATM   18  C   UNL     1     -10.580  12.087  63.610  1.00  0.00    -0.503 A  
HETATM   19  C   UNL     1     -11.959  12.197  63.436  1.00  0.00    -0.578 A  
HETATM   20  C   UNL     1     -12.769  12.529  64.514  1.00  0.00    -0.440 A  
HETATM   21  C   UNL     1     -12.203  12.760  65.765  1.00  0.00    -0.469 A  
ENDBRANCH  13  16
ENDBRANCH  11  13
ENDBRANCH  10  11
ENDBRANCH   8  10
TORSDOF 4
ENDMDL
MODEL      194
REMARK 921   NORMALIZED FREE ENERGY PREDICTED BY IDOCK:   -3.23 KCAL/MOL
REMARK 922        TOTAL FREE ENERGY PREDICTED BY IDOCK:   -4.91 KCAL/MOL
REMARK 923 INTER-LIGAND FREE ENERGY PREDICTED BY IDOCK:   -4.19 KCAL/MOL
REMARK 924 INTRA-LIGAND FREE ENERGY PREDICTED BY IDOCK:   -0.72 KCAL/MOL
REMARK 927      BINDING AFFINITY PREDICTED BY RF-SCORE:    0.00 PKD
ROOT
HETATM    1  C   UNL     1      -9.090  17.068  68.792  1.00  0.00    -0.252 C  
HETATM    2  C   UNL     1      -9.685  17.607  67.486  1.00  0.00    -0.280 C  
HETATM    3  C   UNL     1      -8.604  17.356  66.438  1.00  0.00    -0.282 C  
HETATM    4  C   UNL     1      -7.492  16.634  67.202  1.00  0.00    -0.183 C  
HETATM    5  C   UNL     1      -7.703  15.113  67.165  1.00  0.00    -0.223 C  
HETATM    6  N   UNL     1      -7.657  17.209  68.541  1.00  0.00    -0.234 NA 
HETATM    7  C   UNL     1      -6.784  16.681  69.576  1.00  0.00    -0.189 C  
HETATM    8  C   UNL     1      -8.802  14.590  68.103  1.00  0.00    -0.177 C  
HETATM    9  C   UNL     1      -9.493  15.612  69.026  1.00  0.00    -0.243 C  
ENDROOT
BRANCH   8  10
HETATM   10  O   UNL     1      -9.847  13.936  67.359  1.00  0.00    -0.230 OA 
BRANCH  10  11
HETATM   11  C   UNL     1     -10.322  12.807  67.975  1.00  0.00    -0.229 C  
HETATM   12  O   UNL     1     -11.512  12.546  68.110  1.00  0.00    -0.273 OA 
BRANCH  11  13
HETATM   13  C   UNL     1      -9.159  11.896  68.393  1.00  0.00    -0.167 C  
HETATM   14  O   UNL     1      -9.656  10.853  69.246  1.00  0.00    -0.371 OA 
HETATM   15  H   UNL     1      -8.936  10.290  69.505  1.00  0.00     0.000 HD 
BRANCH  13  16
HETATM   16  C   UNL     1      -8.375  11.294  67.245  1.00  0.00    -0.145 A  
HETATM   17  C   UNL     1      -9.017  10.759  66.118  1.00  0.00    -0.192 A  
HETATM   18  C   UNL     1      -8.274  10.245  65.054  1.00  0.00    -0.154 A  
HETATM   19  C   UNL     1      -6.881  10.276  65.092  1.00  0.00    -0.120 A  
HETATM   20  C   UNL     1      -6.229  10.827  66.188  1.00  0.00    -0.134 A  
HETATM   21  C   UNL     1      -6.968  11.341  67.250  1.00  0.00    -0.109 A  
ENDBRANCH  13  16
ENDBRANCH  11  13
ENDBRANCH  10  11
ENDBRANCH   8  10
TORSDOF 4
ENDMDL
MODEL      195
REMARK 921   NORMALIZED FREE ENERGY PREDICTED BY IDOCK:   -3.22 KCAL/MOL
REMARK 922        TOTAL FREE ENERGY PREDICTED BY IDOCK:   -4.89 KCAL/MOL
REMARK 923 INTER-LIGAND FREE ENERGY PREDICTED BY IDOCK:   -4.96 KCAL/MOL
REMARK 924 INTRA-LIGAND FREE ENERGY PREDICTED BY IDOCK:    0.07 KCAL/MOL
REMARK 927      BINDING AFFINITY PREDICTED BY RF-SCORE:    0.00 PKD
ROOT
HETATM    1  C   UNL     1      -8.848   8.095  65.355  1.00  0.00    -0.044 C  
HETATM    2  C   UNL     1      -9.221   7.034  66.395  1.00  0.00    -0.186 C  
HETATM    3  C   UNL     1      -8.033   7.002  67.354  1.00  0.00    -0.112 C  
HETATM    4  C   UNL     1      -7.092   8.091  66.834  1.00  0.00    -0.081 C  
HETATM    5  C   UNL     1      -7.416   9.446  67.480  1.00  0.00    -0.091 C  
HETATM    6  N   UNL     1      -7.388   8.049  65.398  1.00  0.00    -0.067 NA 
HETATM    7  C   UNL     1      -6.704   9.033  64.575  1.00  0.00    -0.078 C  
HETATM    8  C   UNL     1      -8.667  10.144  66.926  1.00  0.00    -0.129 C  
HETATM    9  C   UNL     1      -9.392   9.470  65.745  1.00  0.00    -0.293 C  
ENDROOT
BRANCH   8  10
HETATM   10  O   UNL     1      -9.653  10.334  67.958  1.00  0.00    -0.144 OA 
BRANCH  10  11
HETATM   11  C   UNL     1      -9.796  11.644  68.333  1.00  0.00    -0.202 C  
HETATM   12  O   UNL     1      -8.914  12.488  68.236  1.00  0.00    -0.194 OA 
BRANCH  11  13
HETATM   13  C   UNL     1     -11.231  11.909  68.812  1.00  0.00    -0.259 C  
HETATM   14  O   UNL     1     -12.130  11.813  67.695  1.00  0.00    -0.598 OA 
HETATM   15  H   UNL     1     -13.017  11.977  67.991  1.00  0.00     0.000 HD 
BRANCH  13  16
HETATM   16  C   UNL     1     -11.706  11.010  69.934  1.00  0.00    -0.424 A  
HETATM   17  C   UNL     1     -11.100   9.770  70.189  1.00  0.00    -0.335 A  
HETATM   18  C   UNL     1     -11.527   8.975  71.254  1.00  0.00    -0.390 A  
HETATM   19  C   UNL     1     -12.552   9.415  72.090  1.00  0.00    -0.423 A  
HETATM   20  C   UNL     1     -13.145  10.651  71.869  1.00  0.00    -0.563 A  
HETATM   21  C   UNL     1     -12.720  11.447  70.808  1.00  0.00    -0.343 A  
ENDBRANCH  13  16
ENDBRANCH  11  13
ENDBRANCH  10  11
ENDBRANCH   8  10
TORSDOF 4
ENDMDL
MODEL      196
REMARK 921   NORMALIZED FREE ENERGY PREDICTED BY IDOCK:   -3.20 KCAL/MOL
REMARK 922        TOTAL FREE ENERGY PREDICTED BY IDOCK:   -4.87 KCAL/MOL
REMARK 923 INTER-LIGAND FREE ENERGY PREDICTED BY IDOCK:   -4.41 KCAL/MOL
REMARK 924 INTRA-LIGAND FREE ENERGY PREDICTED BY IDOCK:   -0.46 KCAL/MOL
REMARK 927      BINDING AFFINITY PREDICTED BY RF-SCORE:    0.00 PKD
ROOT
HETATM    1  C   UNL     1     -10.036  12.901  67.683  1.00  0.00    -0.218 C  
HETATM    2  C   UNL     1     -11.340  12.956  66.880  1.00  0.00    -0.358 C  
HETATM    3  C   UNL     1     -11.237  11.792  65.899  1.00  0.00    -0.345 C  
HETATM    4  C   UNL     1      -9.911  11.113  66.249  1.00  0.00    -0.214 C  
HETATM    5  C   UNL     1     -10.119  10.028  67.317  1.00  0.00    -0.259 C  
HETATM    6  N   UNL     1      -9.132  12.259  66.730  1.00  0.00    -0.208 NA 
HETATM    7  C   UNL     1      -7.801  11.961  67.231  1.00  0.00    -0.168 C  
HETATM    8  C   UNL     1     -10.321  10.558  68.744  1.00  0.00    -0.191 C  
HETATM    9  C   UNL     1     -10.204  12.079  68.961  1.00  0.00     0.015 C  
ENDROOT
BRANCH   8  10
HETATM   10  O   UNL     1     -11.607  10.168  69.262  1.00  0.00    -0.169 OA 
BRANCH  10  11
HETATM   11  C   UNL     1     -11.529   9.519  70.467  1.00  0.00    -0.276 C  
HETATM   12  O   UNL     1     -12.477   9.365  71.228  1.00  0.00    -0.316 OA 
BRANCH  11  13
HETATM   13  C   UNL     1     -10.117   8.954  70.680  1.00  0.00    -0.212 C  
HETATM   14  O   UNL     1      -9.753   9.093  72.062  1.00  0.00    -0.283 OA 
HETATM   15  H   UNL     1      -8.880   8.744  72.193  1.00  0.00     0.000 HD 
BRANCH  13  16
HETATM   16  C   UNL     1      -9.932   7.516  70.240  1.00  0.00    -0.192 A  
HETATM   17  C   UNL     1      -8.790   6.781  70.594  1.00  0.00    -0.151 A  
HETATM   18  C   UNL     1      -8.659   5.445  70.213  1.00  0.00    -0.126 A  
HETATM   19  C   UNL     1      -9.672   4.819  69.489  1.00  0.00    -0.271 A  
HETATM   20  C   UNL     1     -10.821   5.524  69.153  1.00  0.00    -0.182 A  
HETATM   21  C   UNL     1     -10.956   6.856  69.534  1.00  0.00    -0.289 A  
ENDBRANCH  13  16
ENDBRANCH  11  13
ENDBRANCH  10  11
ENDBRANCH   8  10
TORSDOF 4
ENDMDL
MODEL      197
REMARK 921   NORMALIZED FREE ENERGY PREDICTED BY IDOCK:   -3.20 KCAL/MOL
REMARK 922        TOTAL FREE ENERGY PREDICTED BY IDOCK:   -4.87 KCAL/MOL
REMARK 923 INTER-LIGAND FREE ENERGY PREDICTED BY IDOCK:   -4.48 KCAL/MOL
REMARK 924 INTRA-LIGAND FREE ENERGY PREDICTED BY IDOCK:   -0.40 KCAL/MOL
REMARK 927      BINDING AFFINITY PREDICTED BY RF-SCORE:    0.00 PKD
ROOT
HETATM    1  C   UNL     1     -10.039  10.357  68.952  1.00  0.00    -0.201 C  
HETATM    2  C   UNL     1     -11.464  10.852  68.688  1.00  0.00    -0.380 C  
HETATM    3  C   UNL     1     -11.472  11.228  67.208  1.00  0.00    -0.265 C  
HETATM    4  C   UNL     1     -10.071  10.862  66.713  1.00  0.00    -0.216 C  
HETATM    5  C   UNL     1     -10.030   9.409  66.214  1.00  0.00    -0.353 C  
HETATM    6  N   UNL     1      -9.283  11.079  67.930  1.00  0.00    -0.151 NA 
HETATM    7  C   UNL     1      -7.870  10.748  67.844  1.00  0.00    -0.109 C  
HETATM    8  C   UNL     1     -10.008   8.346  67.323  1.00  0.00    -0.227 C  
HETATM    9  C   UNL     1      -9.936   8.841  68.780  1.00  0.00    -0.197 C  
ENDROOT
BRANCH   8  10
HETATM   10  O   UNL     1     -11.161   7.487  67.237  1.00  0.00    -0.194 OA 
BRANCH  10  11
HETATM   11  C   UNL     1     -10.965   6.262  67.819  1.00  0.00    -0.332 C  
HETATM   12  O   UNL     1     -11.296   5.984  68.965  1.00  0.00    -0.340 OA 
BRANCH  11  13
HETATM   13  C   UNL     1     -10.351   5.282  66.808  1.00  0.00    -0.273 C  
HETATM   14  O   UNL     1     -11.109   5.320  65.589  1.00  0.00    -0.729 OA 
HETATM   15  H   UNL     1     -10.729   4.714  64.964  1.00  0.00     0.000 HD 
BRANCH  13  16
HETATM   16  C   UNL     1      -8.883   5.510  66.510  1.00  0.00    -0.121 A  
HETATM   17  C   UNL     1      -7.898   5.340  67.494  1.00  0.00    -0.096 A  
HETATM   18  C   UNL     1      -6.548   5.515  67.187  1.00  0.00    -0.057 A  
HETATM   19  C   UNL     1      -6.161   5.845  65.889  1.00  0.00    -0.037 A  
HETATM   20  C   UNL     1      -7.121   5.990  64.895  1.00  0.00    -0.060 A  
HETATM   21  C   UNL     1      -8.468   5.814  65.199  1.00  0.00    -0.138 A  
ENDBRANCH  13  16
ENDBRANCH  11  13
ENDBRANCH  10  11
ENDBRANCH   8  10
TORSDOF 4
ENDMDL
MODEL      198
REMARK 921   NORMALIZED FREE ENERGY PREDICTED BY IDOCK:   -3.20 KCAL/MOL
REMARK 922        TOTAL FREE ENERGY PREDICTED BY IDOCK:   -4.87 KCAL/MOL
REMARK 923 INTER-LIGAND FREE ENERGY PREDICTED BY IDOCK:   -4.42 KCAL/MOL
REMARK 924 INTRA-LIGAND FREE ENERGY PREDICTED BY IDOCK:   -0.45 KCAL/MOL
REMARK 927      BINDING AFFINITY PREDICTED BY RF-SCORE:    0.00 PKD
ROOT
HETATM    1  C   UNL     1      -9.262  11.745  66.383  1.00  0.00    -0.217 C  
HETATM    2  C   UNL     1      -8.153  12.608  66.995  1.00  0.00    -0.088 C  
HETATM    3  C   UNL     1      -8.894  13.668  67.806  1.00  0.00    -0.190 C  
HETATM    4  C   UNL     1     -10.372  13.302  67.655  1.00  0.00    -0.230 C  
HETATM    5  C   UNL     1     -10.810  12.330  68.761  1.00  0.00    -0.266 C  
HETATM    6  N   UNL     1     -10.371  12.696  66.319  1.00  0.00    -0.248 NA 
HETATM    7  C   UNL     1     -11.639  12.151  65.863  1.00  0.00    -0.364 C  
HETATM    8  C   UNL     1     -10.344  10.880  68.569  1.00  0.00    -0.187 C  
HETATM    9  C   UNL     1      -9.585  10.543  67.270  1.00  0.00    -0.188 C  
ENDROOT
BRANCH   8  10
HETATM   10  O   UNL     1      -9.501  10.460  69.658  1.00  0.00    -0.187 OA 
BRANCH  10  11
HETATM   11  C   UNL     1     -10.118   9.582  70.511  1.00  0.00    -0.285 C  
HETATM   12  O   UNL     1     -11.330   9.521  70.676  1.00  0.00    -0.263 OA 
BRANCH  11  13
HETATM   13  C   UNL     1      -9.083   8.651  71.159  1.00  0.00    -0.209 C  
HETATM   14  O   UNL     1      -8.921   9.009  72.541  1.00  0.00    -0.286 OA 
HETATM   15  H   UNL     1      -8.282   8.433  72.942  1.00  0.00     0.000 HD 
BRANCH  13  16
HETATM   16  C   UNL     1      -9.394   7.173  71.043  1.00  0.00    -0.158 A  
HETATM   17  C   UNL     1      -9.590   6.558  69.797  1.00  0.00    -0.161 A  
HETATM   18  C   UNL     1      -9.836   5.188  69.711  1.00  0.00    -0.283 A  
HETATM   19  C   UNL     1      -9.870   4.407  70.865  1.00  0.00    -0.266 A  
HETATM   20  C   UNL     1      -9.652   4.994  72.105  1.00  0.00    -0.191 A  
HETATM   21  C   UNL     1      -9.405   6.361  72.194  1.00  0.00    -0.149 A  
ENDBRANCH  13  16
ENDBRANCH  11  13
ENDBRANCH  10  11
ENDBRANCH   8  10
TORSDOF 4
ENDMDL
MODEL      199
REMARK 921   NORMALIZED FREE ENERGY PREDICTED BY IDOCK:   -3.20 KCAL/MOL
REMARK 922        TOTAL FREE ENERGY PREDICTED BY IDOCK:   -4.87 KCAL/MOL
REMARK 923 INTER-LIGAND FREE ENERGY PREDICTED BY IDOCK:   -4.44 KCAL/MOL
REMARK 924 INTRA-LIGAND FREE ENERGY PREDICTED BY IDOCK:   -0.43 KCAL/MOL
REMARK 927      BINDING AFFINITY PREDICTED BY RF-SCORE:    0.00 PKD
ROOT
HETATM    1  C   UNL     1     -10.935   5.317  73.023  1.00  0.00    -0.298 C  
HETATM    2  C   UNL     1     -10.441   6.341  74.051  1.00  0.00    -0.279 C  
HETATM    3  C   UNL     1      -8.927   6.379  73.858  1.00  0.00    -0.144 C  
HETATM    4  C   UNL     1      -8.666   5.422  72.692  1.00  0.00    -0.123 C  
HETATM    5  C   UNL     1      -8.728   6.168  71.350  1.00  0.00    -0.135 C  
HETATM    6  N   UNL     1      -9.759   4.462  72.872  1.00  0.00    -0.135 NA 
HETATM    7  C   UNL     1      -9.867   3.419  71.865  1.00  0.00    -0.167 C  
HETATM    8  C   UNL     1     -10.146   6.507  70.865  1.00  0.00    -0.185 C  
HETATM    9  C   UNL     1     -11.328   5.993  71.710  1.00  0.00    -0.324 C  
ENDROOT
BRANCH   8  10
HETATM   10  O   UNL     1     -10.321   7.931  70.738  1.00  0.00    -0.201 OA 
BRANCH  10  11
HETATM   11  C   UNL     1     -10.294   8.364  69.437  1.00  0.00    -0.215 C  
HETATM   12  O   UNL     1     -10.810   7.763  68.502  1.00  0.00    -0.089 OA 
BRANCH  11  13
HETATM   13  C   UNL     1      -9.602   9.731  69.343  1.00  0.00    -0.207 C  
HETATM   14  O   UNL     1      -8.260   9.552  68.866  1.00  0.00    -0.110 OA 
HETATM   15  H   UNL     1      -7.832  10.398  68.807  1.00  0.00     0.000 HD 
BRANCH  13  16
HETATM   16  C   UNL     1     -10.322  10.753  68.488  1.00  0.00    -0.202 A  
HETATM   17  C   UNL     1     -10.099  10.842  67.105  1.00  0.00    -0.235 A  
HETATM   18  C   UNL     1     -10.802  11.765  66.329  1.00  0.00    -0.325 A  
HETATM   19  C   UNL     1     -11.751  12.598  66.920  1.00  0.00    -0.453 A  
HETATM   20  C   UNL     1     -12.005  12.505  68.282  1.00  0.00    -0.274 A  
HETATM   21  C   UNL     1     -11.305  11.585  69.058  1.00  0.00    -0.339 A  
ENDBRANCH  13  16
ENDBRANCH  11  13
ENDBRANCH  10  11
ENDBRANCH   8  10
TORSDOF 4
ENDMDL
MODEL      200
REMARK 921   NORMALIZED FREE ENERGY PREDICTED BY IDOCK:   -3.13 KCAL/MOL
REMARK 922        TOTAL FREE ENERGY PREDICTED BY IDOCK:   -4.79 KCAL/MOL
REMARK 923 INTER-LIGAND FREE ENERGY PREDICTED BY IDOCK:   -3.76 KCAL/MOL
REMARK 924 INTRA-LIGAND FREE ENERGY PREDICTED BY IDOCK:   -1.03 KCAL/MOL
REMARK 927      BINDING AFFINITY PREDICTED BY RF-SCORE:    0.00 PKD
ROOT
HETATM    1  C   UNL     1      -7.037   8.914  68.760  1.00  0.00    -0.067 C  
HETATM    2  C   UNL     1      -7.432   7.532  68.228  1.00  0.00    -0.109 C  
HETATM    3  C   UNL     1      -7.143   6.578  69.384  1.00  0.00    -0.077 C  
HETATM    4  C   UNL     1      -6.662   7.486  70.518  1.00  0.00    -0.047 C  
HETATM    5  C   UNL     1      -7.845   7.963  71.374  1.00  0.00    -0.092 C  
HETATM    6  N   UNL     1      -6.026   8.566  69.757  1.00  0.00    -0.028 NA 
HETATM    7  C   UNL     1      -5.505   9.677  70.536  1.00  0.00    -0.045 C  
HETATM    8  C   UNL     1      -8.699   9.069  70.737  1.00  0.00    -0.224 C  
HETATM    9  C   UNL     1      -8.234   9.634  69.381  1.00  0.00    -0.132 C  
ENDROOT
BRANCH   8  10
HETATM   10  O   UNL     1     -10.058   8.632  70.555  1.00  0.00    -0.186 OA 
BRANCH  10  11
HETATM   11  C   UNL     1     -10.622   8.129  71.699  1.00  0.00    -0.232 C  
HETATM   12  O   UNL     1     -10.471   8.618  72.812  1.00  0.00    -0.165 OA 
BRANCH  11  13
HETATM   13  C   UNL     1     -11.518   6.926  71.369  1.00  0.00    -0.282 C  
HETATM   14  O   UNL     1     -12.617   7.363  70.553  1.00  0.00    -0.559 OA 
HETATM   15  H   UNL     1     -13.171   6.619  70.349  1.00  0.00     0.000 HD 
BRANCH  13  16
HETATM   16  C   UNL     1     -10.810   5.765  70.703  1.00  0.00    -0.337 A  
HETATM   17  C   UNL     1     -10.729   5.658  69.306  1.00  0.00    -0.350 A  
HETATM   18  C   UNL     1     -10.037   4.601  68.713  1.00  0.00    -0.085 A  
HETATM   19  C   UNL     1      -9.400   3.648  69.506  1.00  0.00    -0.247 A  
HETATM   20  C   UNL     1      -9.446   3.753  70.890  1.00  0.00    -0.236 A  
HETATM   21  C   UNL     1     -10.135   4.807  71.484  1.00  0.00    -0.260 A  
ENDBRANCH  13  16
ENDBRANCH  11  13
ENDBRANCH  10  11
ENDBRANCH   8  10
TORSDOF 4
ENDMDL
MODEL      201
REMARK 921   NORMALIZED FREE ENERGY PREDICTED BY IDOCK:   -3.11 KCAL/MOL
REMARK 922        TOTAL FREE ENERGY PREDICTED BY IDOCK:   -4.76 KCAL/MOL
REMARK 923 INTER-LIGAND FREE ENERGY PREDICTED BY IDOCK:   -4.33 KCAL/MOL
REMARK 924 INTRA-LIGAND FREE ENERGY PREDICTED BY IDOCK:   -0.43 KCAL/MOL
REMARK 927      BINDING AFFINITY PREDICTED BY RF-SCORE:    0.00 PKD
ROOT
HETATM    1  C   UNL     1      -5.624  10.174  68.631  1.00  0.00    -0.038 C  
HETATM    2  C   UNL     1      -5.546  11.477  69.434  1.00  0.00    -0.056 C  
HETATM    3  C   UNL     1      -5.700  12.582  68.391  1.00  0.00    -0.058 C  
HETATM    4  C   UNL     1      -5.919  11.835  67.073  1.00  0.00    -0.153 C  
HETATM    5  C   UNL     1      -7.415  11.575  66.835  1.00  0.00    -0.145 C  
HETATM    6  N   UNL     1      -5.150  10.611  67.318  1.00  0.00    -0.037 NA 
HETATM    7  C   UNL     1      -5.197   9.606  66.269  1.00  0.00    -0.039 C  
HETATM    8  C   UNL     1      -8.015  10.439  67.676  1.00  0.00    -0.106 C  
HETATM    9  C   UNL     1      -7.055   9.639  68.578  1.00  0.00    -0.069 C  
ENDROOT
BRANCH   8  10
HETATM   10  O   UNL     1      -9.067  10.928  68.528  1.00  0.00    -0.159 OA 
BRANCH  10  11
HETATM   11  C   UNL     1     -10.214  10.182  68.453  1.00  0.00    -0.169 C  
HETATM   12  O   UNL     1     -10.367   9.230  67.696  1.00  0.00    -0.222 OA 
BRANCH  11  13
HETATM   13  C   UNL     1     -11.233  10.660  69.497  1.00  0.00    -0.272 C  
HETATM   14  O   UNL     1     -12.459  11.015  68.836  1.00  0.00    -0.683 OA 
HETATM   15  H   UNL     1     -13.089  11.311  69.482  1.00  0.00     0.000 HD 
BRANCH  13  16
HETATM   16  C   UNL     1     -11.515   9.676  70.612  1.00  0.00    -0.376 A  
HETATM   17  C   UNL     1     -10.592   8.677  70.961  1.00  0.00    -0.278 A  
HETATM   18  C   UNL     1     -10.855   7.805  72.019  1.00  0.00    -0.295 A  
HETATM   19  C   UNL     1     -12.032   7.930  72.755  1.00  0.00    -0.223 A  
HETATM   20  C   UNL     1     -12.944   8.930  72.441  1.00  0.00    -0.467 A  
HETATM   21  C   UNL     1     -12.684   9.802  71.387  1.00  0.00    -0.483 A  
ENDBRANCH  13  16
ENDBRANCH  11  13
ENDBRANCH  10  11
ENDBRANCH   8  10
TORSDOF 4
ENDMDL
MODEL      202
REMARK 921   NORMALIZED FREE ENERGY PREDICTED BY IDOCK:   -3.09 KCAL/MOL
REMARK 922        TOTAL FREE ENERGY PREDICTED BY IDOCK:   -4.74 KCAL/MOL
REMARK 923 INTER-LIGAND FREE ENERGY PREDICTED BY IDOCK:   -4.30 KCAL/MOL
REMARK 924 INTRA-LIGAND FREE ENERGY PREDICTED BY IDOCK:   -0.44 KCAL/MOL
REMARK 927      BINDING AFFINITY PREDICTED BY RF-SCORE:    0.00 PKD
ROOT
HETATM    1  C   UNL     1      -7.822   9.690  65.366  1.00  0.00    -0.117 C  
HETATM    2  C   UNL     1      -7.353  10.596  66.509  1.00  0.00    -0.134 C  
HETATM    3  C   UNL     1      -8.422  11.681  66.604  1.00  0.00    -0.165 C  
HETATM    4  C   UNL     1      -9.462  11.287  65.552  1.00  0.00    -0.229 C  
HETATM    5  C   UNL     1     -10.527  10.362  66.158  1.00  0.00    -0.224 C  
HETATM    6  N   UNL     1      -8.612  10.620  64.560  1.00  0.00    -0.150 NA 
HETATM    7  C   UNL     1      -9.298  10.036  63.420  1.00  0.00    -0.257 C  
HETATM    8  C   UNL     1     -10.074   8.910  66.377  1.00  0.00    -0.263 C  
HETATM    9  C   UNL     1      -8.664   8.526  65.889  1.00  0.00    -0.203 C  
ENDROOT
BRANCH   8  10
HETATM   10  O   UNL     1     -10.138   8.554  67.770  1.00  0.00    -0.186 OA 
BRANCH  10  11
HETATM   11  C   UNL     1     -10.707   7.326  67.988  1.00  0.00    -0.146 C  
HETATM   12  O   UNL     1     -11.038   6.553  67.096  1.00  0.00    -0.390 OA 
BRANCH  11  13
HETATM   13  C   UNL     1     -10.794   7.036  69.493  1.00  0.00    -0.238 C  
HETATM   14  O   UNL     1     -12.132   6.630  69.822  1.00  0.00    -0.638 OA 
HETATM   15  H   UNL     1     -12.185   6.451  70.753  1.00  0.00     0.000 HD 
BRANCH  13  16
HETATM   16  C   UNL     1      -9.804   6.010  70.003  1.00  0.00    -0.215 A  
HETATM   17  C   UNL     1     -10.218   4.896  70.750  1.00  0.00    -0.276 A  
HETATM   18  C   UNL     1      -9.294   3.941  71.176  1.00  0.00    -0.216 A  
HETATM   19  C   UNL     1      -7.946   4.076  70.847  1.00  0.00    -0.059 A  
HETATM   20  C   UNL     1      -7.521   5.157  70.086  1.00  0.00    -0.063 A  
HETATM   21  C   UNL     1      -8.442   6.110  69.659  1.00  0.00    -0.127 A  
ENDBRANCH  13  16
ENDBRANCH  11  13
ENDBRANCH  10  11
ENDBRANCH   8  10
TORSDOF 4
ENDMDL
MODEL      203
REMARK 921   NORMALIZED FREE ENERGY PREDICTED BY IDOCK:   -3.09 KCAL/MOL
REMARK 922        TOTAL FREE ENERGY PREDICTED BY IDOCK:   -4.74 KCAL/MOL
REMARK 923 INTER-LIGAND FREE ENERGY PREDICTED BY IDOCK:   -4.33 KCAL/MOL
REMARK 924 INTRA-LIGAND FREE ENERGY PREDICTED BY IDOCK:   -0.41 KCAL/MOL
REMARK 927      BINDING AFFINITY PREDICTED BY RF-SCORE:    0.00 PKD
ROOT
HETATM    1  C   UNL     1      -8.926  10.655  67.474  1.00  0.00    -0.135 C  
HETATM    2  C   UNL     1     -10.307  10.617  66.810  1.00  0.00    -0.299 C  
HETATM    3  C   UNL     1     -10.034  10.153  65.382  1.00  0.00    -0.377 C  
HETATM    4  C   UNL     1      -8.526   9.896  65.344  1.00  0.00    -0.147 C  
HETATM    5  C   UNL     1      -8.210   8.446  65.741  1.00  0.00    -0.131 C  
HETATM    6  N   UNL     1      -8.054  10.881  66.323  1.00  0.00    -0.162 NA 
HETATM    7  C   UNL     1      -6.628  10.868  66.605  1.00  0.00    -0.120 C  
HETATM    8  C   UNL     1      -8.308   8.152  67.245  1.00  0.00    -0.121 C  
HETATM    9  C   UNL     1      -8.614   9.336  68.182  1.00  0.00    -0.125 C  
ENDROOT
BRANCH   8  10
HETATM   10  O   UNL     1      -9.306   7.149  67.511  1.00  0.00    -0.124 OA 
BRANCH  10  11
HETATM   11  C   UNL     1      -8.773   5.924  67.817  1.00  0.00    -0.104 C  
HETATM   12  O   UNL     1      -7.599   5.621  67.640  1.00  0.00    -0.086 OA 
BRANCH  11  13
HETATM   13  C   UNL     1      -9.833   5.030  68.478  1.00  0.00    -0.151 C  
HETATM   14  O   UNL     1      -9.302   3.706  68.642  1.00  0.00    -0.149 OA 
HETATM   15  H   UNL     1      -9.957   3.153  69.051  1.00  0.00     0.000 HD 
BRANCH  13  16
HETATM   16  C   UNL     1     -10.362   5.541  69.803  1.00  0.00    -0.366 A  
HETATM   17  C   UNL     1     -11.330   6.555  69.865  1.00  0.00    -0.469 A  
HETATM   18  C   UNL     1     -11.834   6.982  71.094  1.00  0.00    -0.380 A  
HETATM   19  C   UNL     1     -11.392   6.390  72.277  1.00  0.00    -0.330 A  
HETATM   20  C   UNL     1     -10.455   5.366  72.232  1.00  0.00    -0.272 A  
HETATM   21  C   UNL     1      -9.952   4.937  71.007  1.00  0.00    -0.282 A  
ENDBRANCH  13  16
ENDBRANCH  11  13
ENDBRANCH  10  11
ENDBRANCH   8  10
TORSDOF 4
ENDMDL
MODEL      204
REMARK 921   NORMALIZED FREE ENERGY PREDICTED BY IDOCK:   -3.08 KCAL/MOL
REMARK 922        TOTAL FREE ENERGY PREDICTED BY IDOCK:   -4.72 KCAL/MOL
REMARK 923 INTER-LIGAND FREE ENERGY PREDICTED BY IDOCK:   -4.28 KCAL/MOL
REMARK 924 INTRA-LIGAND FREE ENERGY PREDICTED BY IDOCK:   -0.44 KCAL/MOL
REMARK 927      BINDING AFFINITY PREDICTED BY RF-SCORE:    0.00 PKD
ROOT
HETATM    1  C   UNL     1     -11.200   8.876  71.128  1.00  0.00    -0.284 C  
HETATM    2  C   UNL     1      -9.859   8.923  71.867  1.00  0.00    -0.364 C  
HETATM    3  C   UNL     1      -9.905   7.734  72.823  1.00  0.00    -0.307 C  
HETATM    4  C   UNL     1     -11.240   7.051  72.521  1.00  0.00    -0.275 C  
HETATM    5  C   UNL     1     -11.076   5.995  71.417  1.00  0.00    -0.336 C  
HETATM    6  N   UNL     1     -12.051   8.201  72.107  1.00  0.00    -0.337 NA 
HETATM    7  C   UNL     1     -13.403   7.903  71.664  1.00  0.00    -0.337 C  
HETATM    8  C   UNL     1     -10.947   6.562  69.995  1.00  0.00    -0.332 C  
HETATM    9  C   UNL     1     -11.088   8.087  69.823  1.00  0.00    -0.067 C  
ENDROOT
BRANCH   8  10
HETATM   10  O   UNL     1      -9.686   6.197  69.406  1.00  0.00    -0.141 OA 
BRANCH  10  11
HETATM   11  C   UNL     1      -9.802   5.244  68.428  1.00  0.00    -0.153 C  
HETATM   12  O   UNL     1      -9.779   4.036  68.637  1.00  0.00    -0.147 OA 
BRANCH  11  13
HETATM   13  C   UNL     1     -10.043   5.905  67.063  1.00  0.00    -0.183 C  
HETATM   14  O   UNL     1      -9.313   7.140  66.999  1.00  0.00    -0.139 OA 
HETATM   15  H   UNL     1      -9.462   7.549  66.155  1.00  0.00     0.000 HD 
BRANCH  13  16
HETATM   16  C   UNL     1      -9.703   5.041  65.866  1.00  0.00    -0.182 A  
HETATM   17  C   UNL     1      -8.372   4.773  65.508  1.00  0.00    -0.120 A  
HETATM   18  C   UNL     1      -8.082   3.942  64.425  1.00  0.00    -0.090 A  
HETATM   19  C   UNL     1      -9.114   3.352  63.697  1.00  0.00    -0.094 A  
HETATM   20  C   UNL     1     -10.436   3.584  64.055  1.00  0.00    -0.250 A  
HETATM   21  C   UNL     1     -10.729   4.412  65.135  1.00  0.00    -0.144 A  
ENDBRANCH  13  16
ENDBRANCH  11  13
ENDBRANCH  10  11
ENDBRANCH   8  10
TORSDOF 4
ENDMDL
MODEL      205
REMARK 921   NORMALIZED FREE ENERGY PREDICTED BY IDOCK:   -3.08 KCAL/MOL
REMARK 922        TOTAL FREE ENERGY PREDICTED BY IDOCK:   -4.72 KCAL/MOL
REMARK 923 INTER-LIGAND FREE ENERGY PREDICTED BY IDOCK:   -4.29 KCAL/MOL
REMARK 924 INTRA-LIGAND FREE ENERGY PREDICTED BY IDOCK:   -0.44 KCAL/MOL
REMARK 927      BINDING AFFINITY PREDICTED BY RF-SCORE:    0.00 PKD
ROOT
HETATM    1  C   UNL     1      -7.270   4.304  67.796  1.00  0.00    -0.064 C  
HETATM    2  C   UNL     1      -8.282   4.816  66.765  1.00  0.00    -0.107 C  
HETATM    3  C   UNL     1      -9.550   4.012  67.039  1.00  0.00    -0.231 C  
HETATM    4  C   UNL     1      -9.198   3.140  68.246  1.00  0.00    -0.192 C  
HETATM    5  C   UNL     1      -9.528   3.868  69.558  1.00  0.00    -0.259 C  
HETATM    6  N   UNL     1      -7.759   2.947  68.037  1.00  0.00    -0.056 NA 
HETATM    7  C   UNL     1      -7.058   2.202  69.069  1.00  0.00    -0.040 C  
HETATM    8  C   UNL     1      -8.532   4.968  69.955  1.00  0.00    -0.091 C  
HETATM    9  C   UNL     1      -7.289   5.156  69.064  1.00  0.00    -0.061 C  
ENDROOT
BRANCH   8  10
HETATM   10  O   UNL     1      -9.183   6.251  70.028  1.00  0.00    -0.150 OA 
BRANCH  10  11
HETATM   11  C   UNL     1      -9.018   6.871  71.239  1.00  0.00    -0.142 C  
HETATM   12  O   UNL     1      -7.986   7.431  71.591  1.00  0.00    -0.096 OA 
BRANCH  11  13
HETATM   13  C   UNL     1     -10.326   6.829  72.044  1.00  0.00    -0.196 C  
HETATM   14  O   UNL     1     -10.021   6.833  73.447  1.00  0.00    -0.180 OA 
HETATM   15  H   UNL     1     -10.829   6.807  73.944  1.00  0.00     0.000 HD 
BRANCH  13  16
HETATM   16  C   UNL     1     -11.307   7.939  71.726  1.00  0.00    -0.309 A  
HETATM   17  C   UNL     1     -12.677   7.809  71.999  1.00  0.00    -0.285 A  
HETATM   18  C   UNL     1     -13.557   8.859  71.736  1.00  0.00    -0.461 A  
HETATM   19  C   UNL     1     -13.079  10.060  71.213  1.00  0.00    -0.493 A  
HETATM   20  C   UNL     1     -11.722  10.216  70.962  1.00  0.00    -0.470 A  
HETATM   21  C   UNL     1     -10.841   9.170  71.226  1.00  0.00    -0.402 A  
ENDBRANCH  13  16
ENDBRANCH  11  13
ENDBRANCH  10  11
ENDBRANCH   8  10
TORSDOF 4
ENDMDL
MODEL      206
REMARK 921   NORMALIZED FREE ENERGY PREDICTED BY IDOCK:   -3.07 KCAL/MOL
REMARK 922        TOTAL FREE ENERGY PREDICTED BY IDOCK:   -4.70 KCAL/MOL
REMARK 923 INTER-LIGAND FREE ENERGY PREDICTED BY IDOCK:   -4.17 KCAL/MOL
REMARK 924 INTRA-LIGAND FREE ENERGY PREDICTED BY IDOCK:   -0.53 KCAL/MOL
REMARK 927      BINDING AFFINITY PREDICTED BY RF-SCORE:    0.00 PKD
ROOT
HETATM    1  C   UNL     1      -7.964   8.895  65.278  1.00  0.00    -0.116 C  
HETATM    2  C   UNL     1      -7.813   7.392  65.019  1.00  0.00    -0.124 C  
HETATM    3  C   UNL     1      -6.598   6.980  65.847  1.00  0.00    -0.052 C  
HETATM    4  C   UNL     1      -6.176   8.261  66.571  1.00  0.00    -0.054 C  
HETATM    5  C   UNL     1      -6.895   8.385  67.923  1.00  0.00    -0.067 C  
HETATM    6  N   UNL     1      -6.590   9.277  65.599  1.00  0.00    -0.068 NA 
HETATM    7  C   UNL     1      -6.401  10.661  66.001  1.00  0.00    -0.132 C  
HETATM    8  C   UNL     1      -8.366   8.819  67.834  1.00  0.00    -0.118 C  
HETATM    9  C   UNL     1      -8.922   9.166  66.439  1.00  0.00    -0.182 C  
ENDROOT
BRANCH   8  10
HETATM   10  O   UNL     1      -9.236   7.812  68.384  1.00  0.00    -0.138 OA 
BRANCH  10  11
HETATM   11  C   UNL     1      -9.717   8.134  69.626  1.00  0.00    -0.170 C  
HETATM   12  O   UNL     1      -9.010   8.330  70.608  1.00  0.00    -0.143 OA 
BRANCH  11  13
HETATM   13  C   UNL     1     -11.244   8.287  69.585  1.00  0.00     0.095 C  
HETATM   14  O   UNL     1     -11.853   7.141  70.200  1.00  0.00    -0.535 OA 
HETATM   15  H   UNL     1     -12.798   7.236  70.175  1.00  0.00     0.000 HD 
BRANCH  13  16
HETATM   16  C   UNL     1     -11.776   9.556  70.217  1.00  0.00    -0.168 A  
HETATM   17  C   UNL     1     -11.554  10.815  69.638  1.00  0.00    -0.388 A  
HETATM   18  C   UNL     1     -12.088  11.968  70.216  1.00  0.00    -0.395 A  
HETATM   19  C   UNL     1     -12.865  11.878  71.370  1.00  0.00    -0.411 A  
HETATM   20  C   UNL     1     -13.117  10.638  71.942  1.00  0.00    -0.563 A  
HETATM   21  C   UNL     1     -12.588   9.486  71.366  1.00  0.00    -0.447 A  
ENDBRANCH  13  16
ENDBRANCH  11  13
ENDBRANCH  10  11
ENDBRANCH   8  10
TORSDOF 4
ENDMDL
MODEL      207
REMARK 921   NORMALIZED FREE ENERGY PREDICTED BY IDOCK:   -3.04 KCAL/MOL
REMARK 922        TOTAL FREE ENERGY PREDICTED BY IDOCK:   -4.67 KCAL/MOL
REMARK 923 INTER-LIGAND FREE ENERGY PREDICTED BY IDOCK:   -3.99 KCAL/MOL
REMARK 924 INTRA-LIGAND FREE ENERGY PREDICTED BY IDOCK:   -0.68 KCAL/MOL
REMARK 927      BINDING AFFINITY PREDICTED BY RF-SCORE:    0.00 PKD
ROOT
HETATM    1  C   UNL     1      -7.446   4.377  65.745  1.00  0.00    -0.081 C  
HETATM    2  C   UNL     1      -8.537   4.573  64.687  1.00  0.00    -0.139 C  
HETATM    3  C   UNL     1      -9.802   4.014  65.331  1.00  0.00    -0.192 C  
HETATM    4  C   UNL     1      -9.364   3.594  66.736  1.00  0.00    -0.190 C  
HETATM    5  C   UNL     1      -9.525   4.756  67.728  1.00  0.00    -0.180 C  
HETATM    6  N   UNL     1      -7.964   3.231  66.491  1.00  0.00    -0.080 NA 
HETATM    7  C   UNL     1      -7.191   2.841  67.659  1.00  0.00    -0.053 C  
HETATM    8  C   UNL     1      -8.448   5.847  67.625  1.00  0.00    -0.103 C  
HETATM    9  C   UNL     1      -7.297   5.617  66.627  1.00  0.00    -0.083 C  
ENDROOT
BRANCH   8  10
HETATM   10  O   UNL     1      -9.033   7.120  67.293  1.00  0.00    -0.121 OA 
BRANCH  10  11
HETATM   11  C   UNL     1      -8.900   8.052  68.289  1.00  0.00    -0.133 C  
HETATM   12  O   UNL     1      -7.824   8.470  68.700  1.00  0.00    -0.104 OA 
BRANCH  11  13
HETATM   13  C   UNL     1     -10.280   8.543  68.749  1.00  0.00    -0.200 C  
HETATM   14  O   UNL     1     -11.280   8.083  67.826  1.00  0.00    -0.381 OA 
HETATM   15  H   UNL     1     -12.133   8.387  68.110  1.00  0.00     0.000 HD 
BRANCH  13  16
HETATM   16  C   UNL     1     -10.660   8.147  70.161  1.00  0.00    -0.237 A  
HETATM   17  C   UNL     1     -10.210   8.873  71.274  1.00  0.00    -0.361 A  
HETATM   18  C   UNL     1     -10.605   8.515  72.563  1.00  0.00    -0.308 A  
HETATM   19  C   UNL     1     -11.470   7.440  72.758  1.00  0.00    -0.312 A  
HETATM   20  C   UNL     1     -11.948   6.727  71.666  1.00  0.00    -0.391 A  
HETATM   21  C   UNL     1     -11.556   7.083  70.378  1.00  0.00    -0.341 A  
ENDBRANCH  13  16
ENDBRANCH  11  13
ENDBRANCH  10  11
ENDBRANCH   8  10
TORSDOF 4
ENDMDL
MODEL      208
REMARK 921   NORMALIZED FREE ENERGY PREDICTED BY IDOCK:   -3.01 KCAL/MOL
REMARK 922        TOTAL FREE ENERGY PREDICTED BY IDOCK:   -4.63 KCAL/MOL
REMARK 923 INTER-LIGAND FREE ENERGY PREDICTED BY IDOCK:   -3.61 KCAL/MOL
REMARK 924 INTRA-LIGAND FREE ENERGY PREDICTED BY IDOCK:   -1.02 KCAL/MOL
REMARK 927      BINDING AFFINITY PREDICTED BY RF-SCORE:    0.00 PKD
ROOT
HETATM    1  C   UNL     1     -10.775   9.040  67.844  1.00  0.00    -0.138 C  
HETATM    2  C   UNL     1      -9.795   8.436  66.833  1.00  0.00    -0.313 C  
HETATM    3  C   UNL     1      -8.928   9.612  66.388  1.00  0.00    -0.179 C  
HETATM    4  C   UNL     1      -9.429  10.793  67.222  1.00  0.00    -0.159 C  
HETATM    5  C   UNL     1      -8.660  10.891  68.548  1.00  0.00    -0.152 C  
HETATM    6  N   UNL     1     -10.839  10.430  67.396  1.00  0.00    -0.289 NA 
HETATM    7  C   UNL     1     -11.631  11.322  68.228  1.00  0.00    -0.300 C  
HETATM    8  C   UNL     1      -9.069   9.859  69.610  1.00  0.00    -0.227 C  
HETATM    9  C   UNL     1     -10.244   8.920  69.273  1.00  0.00    -0.214 C  
ENDROOT
BRANCH   8  10
HETATM   10  O   UNL     1      -7.958   9.015  69.965  1.00  0.00    -0.093 OA 
BRANCH  10  11
HETATM   11  C   UNL     1      -8.138   8.357  71.153  1.00  0.00    -0.125 C  
HETATM   12  O   UNL     1      -8.691   8.844  72.133  1.00  0.00    -0.386 OA 
BRANCH  11  13
HETATM   13  C   UNL     1      -7.623   6.914  71.049  1.00  0.00    -0.087 C  
HETATM   14  O   UNL     1      -7.920   6.214  72.267  1.00  0.00    -0.104 OA 
HETATM   15  H   UNL     1      -7.601   5.322  72.202  1.00  0.00     0.000 HD 
BRANCH  13  16
HETATM   16  C   UNL     1      -8.150   6.132  69.863  1.00  0.00    -0.119 A  
HETATM   17  C   UNL     1      -7.418   6.023  68.671  1.00  0.00    -0.087 A  
HETATM   18  C   UNL     1      -7.904   5.265  67.605  1.00  0.00    -0.096 A  
HETATM   19  C   UNL     1      -9.118   4.590  67.721  1.00  0.00    -0.142 A  
HETATM   20  C   UNL     1      -9.842   4.664  68.904  1.00  0.00    -0.211 A  
HETATM   21  C   UNL     1      -9.359   5.419  69.969  1.00  0.00    -0.192 A  
ENDBRANCH  13  16
ENDBRANCH  11  13
ENDBRANCH  10  11
ENDBRANCH   8  10
TORSDOF 4
ENDMDL
MODEL      209
REMARK 921   NORMALIZED FREE ENERGY PREDICTED BY IDOCK:   -2.99 KCAL/MOL
REMARK 922        TOTAL FREE ENERGY PREDICTED BY IDOCK:   -4.61 KCAL/MOL
REMARK 923 INTER-LIGAND FREE ENERGY PREDICTED BY IDOCK:   -4.08 KCAL/MOL
REMARK 924 INTRA-LIGAND FREE ENERGY PREDICTED BY IDOCK:   -0.53 KCAL/MOL
REMARK 927      BINDING AFFINITY PREDICTED BY RF-SCORE:    0.00 PKD
ROOT
HETATM    1  C   UNL     1      -5.790   9.241  69.587  1.00  0.00    -0.033 C  
HETATM    2  C   UNL     1      -5.620  10.009  70.902  1.00  0.00    -0.082 C  
HETATM    3  C   UNL     1      -5.614  11.479  70.490  1.00  0.00    -0.149 C  
HETATM    4  C   UNL     1      -5.846  11.454  68.978  1.00  0.00    -0.048 C  
HETATM    5  C   UNL     1      -7.347  11.500  68.655  1.00  0.00    -0.106 C  
HETATM    6  N   UNL     1      -5.216  10.178  68.623  1.00  0.00    -0.039 NA 
HETATM    7  C   UNL     1      -5.314   9.783  67.228  1.00  0.00    -0.039 C  
HETATM    8  C   UNL     1      -8.096  10.178  68.876  1.00  0.00    -0.117 C  
HETATM    9  C   UNL     1      -7.264   8.952  69.299  1.00  0.00    -0.066 C  
ENDROOT
BRANCH   8  10
HETATM   10  O   UNL     1      -9.132  10.331  69.864  1.00  0.00    -0.143 OA 
BRANCH  10  11
HETATM   11  C   UNL     1     -10.364   9.924  69.422  1.00  0.00    -0.222 C  
HETATM   12  O   UNL     1     -11.291   9.611  70.159  1.00  0.00    -0.244 OA 
BRANCH  11  13
HETATM   13  C   UNL     1     -10.432   9.995  67.889  1.00  0.00    -0.231 C  
HETATM   14  O   UNL     1     -11.129   8.842  67.391  1.00  0.00    -0.422 OA 
HETATM   15  H   UNL     1     -11.171   8.886  66.443  1.00  0.00     0.000 HD 
BRANCH  13  16
HETATM   16  C   UNL     1     -11.061  11.257  67.335  1.00  0.00    -0.358 A  
HETATM   17  C   UNL     1     -11.341  12.360  68.157  1.00  0.00    -0.341 A  
HETATM   18  C   UNL     1     -11.884  13.528  67.619  1.00  0.00    -0.399 A  
HETATM   19  C   UNL     1     -12.136  13.618  66.251  1.00  0.00    -0.477 A  
HETATM   20  C   UNL     1     -11.839  12.546  65.418  1.00  0.00    -0.479 A  
HETATM   21  C   UNL     1     -11.297  11.380  65.953  1.00  0.00    -0.089 A  
ENDBRANCH  13  16
ENDBRANCH  11  13
ENDBRANCH  10  11
ENDBRANCH   8  10
TORSDOF 4
ENDMDL
MODEL      210
REMARK 921   NORMALIZED FREE ENERGY PREDICTED BY IDOCK:   -2.99 KCAL/MOL
REMARK 922        TOTAL FREE ENERGY PREDICTED BY IDOCK:   -4.61 KCAL/MOL
REMARK 923 INTER-LIGAND FREE ENERGY PREDICTED BY IDOCK:   -3.62 KCAL/MOL
REMARK 924 INTRA-LIGAND FREE ENERGY PREDICTED BY IDOCK:   -0.99 KCAL/MOL
REMARK 927      BINDING AFFINITY PREDICTED BY RF-SCORE:    0.00 PKD
ROOT
HETATM    1  C   UNL     1      -9.808  12.074  66.712  1.00  0.00    -0.204 C  
HETATM    2  C   UNL     1      -8.880  12.915  67.594  1.00  0.00    -0.187 C  
HETATM    3  C   UNL     1      -9.822  13.783  68.425  1.00  0.00    -0.227 C  
HETATM    4  C   UNL     1     -11.224  13.334  68.007  1.00  0.00    -0.276 C  
HETATM    5  C   UNL     1     -11.713  12.177  68.893  1.00  0.00    -0.381 C  
HETATM    6  N   UNL     1     -10.984  12.937  66.616  1.00  0.00    -0.271 NA 
HETATM    7  C   UNL     1     -12.121  12.372  65.907  1.00  0.00    -0.281 C  
HETATM    8  C   UNL     1     -11.088  10.811  68.573  1.00  0.00    -0.262 C  
HETATM    9  C   UNL     1     -10.132  10.731  67.368  1.00  0.00    -0.227 C  
ENDROOT
BRANCH   8  10
HETATM   10  O   UNL     1     -10.364  10.297  69.707  1.00  0.00    -0.243 OA 
BRANCH  10  11
HETATM   11  C   UNL     1     -10.096   8.956  69.613  1.00  0.00    -0.200 C  
HETATM   12  O   UNL     1     -10.883   8.126  69.174  1.00  0.00    -0.149 OA 
BRANCH  11  13
HETATM   13  C   UNL     1      -8.656   8.667  70.061  1.00  0.00    -0.132 C  
HETATM   14  O   UNL     1      -8.424   7.250  70.030  1.00  0.00    -0.136 OA 
HETATM   15  H   UNL     1      -7.534   7.071  70.307  1.00  0.00     0.000 HD 
BRANCH  13  16
HETATM   16  C   UNL     1      -7.584   9.382  69.264  1.00  0.00    -0.081 A  
HETATM   17  C   UNL     1      -6.937  10.523  69.762  1.00  0.00    -0.144 A  
HETATM   18  C   UNL     1      -5.924  11.143  69.028  1.00  0.00    -0.042 A  
HETATM   19  C   UNL     1      -5.530  10.620  67.797  1.00  0.00    -0.043 A  
HETATM   20  C   UNL     1      -6.140   9.475  67.302  1.00  0.00    -0.056 A  
HETATM   21  C   UNL     1      -7.151   8.855  68.033  1.00  0.00    -0.079 A  
ENDBRANCH  13  16
ENDBRANCH  11  13
ENDBRANCH  10  11
ENDBRANCH   8  10
TORSDOF 4
ENDMDL
MODEL      211
REMARK 921   NORMALIZED FREE ENERGY PREDICTED BY IDOCK:   -2.99 KCAL/MOL
REMARK 922        TOTAL FREE ENERGY PREDICTED BY IDOCK:   -4.60 KCAL/MOL
REMARK 923 INTER-LIGAND FREE ENERGY PREDICTED BY IDOCK:   -3.94 KCAL/MOL
REMARK 924 INTRA-LIGAND FREE ENERGY PREDICTED BY IDOCK:   -0.67 KCAL/MOL
REMARK 927      BINDING AFFINITY PREDICTED BY RF-SCORE:    0.00 PKD
ROOT
HETATM    1  C   UNL     1      -8.495   3.883  65.173  1.00  0.00    -0.112 C  
HETATM    2  C   UNL     1      -9.594   3.952  64.106  1.00  0.00    -0.165 C  
HETATM    3  C   UNL     1     -10.850   4.357  64.874  1.00  0.00    -0.085 C  
HETATM    4  C   UNL     1     -10.371   4.554  66.314  1.00  0.00    -0.191 C  
HETATM    5  C   UNL     1      -9.916   6.002  66.545  1.00  0.00    -0.189 C  
HETATM    6  N   UNL     1      -9.272   3.584  66.375  1.00  0.00    -0.161 NA 
HETATM    7  C   UNL     1      -8.517   3.550  67.617  1.00  0.00    -0.096 C  
HETATM    8  C   UNL     1      -8.542   6.350  65.952  1.00  0.00    -0.148 C  
HETATM    9  C   UNL     1      -7.747   5.211  65.286  1.00  0.00    -0.087 C  
ENDROOT
BRANCH   8  10
HETATM   10  O   UNL     1      -8.654   7.400  64.972  1.00  0.00    -0.042 OA 
BRANCH  10  11
HETATM   11  C   UNL     1      -8.081   8.578  65.376  1.00  0.00    -0.127 C  
HETATM   12  O   UNL     1      -6.991   8.659  65.928  1.00  0.00    -0.073 OA 
BRANCH  11  13
HETATM   13  C   UNL     1      -8.962   9.768  64.966  1.00  0.00    -0.207 C  
HETATM   14  O   UNL     1      -9.733   9.412  63.808  1.00  0.00    -0.342 OA 
HETATM   15  H   UNL     1     -10.277  10.147  63.555  1.00  0.00     0.000 HD 
BRANCH  13  16
HETATM   16  C   UNL     1      -9.877  10.288  66.055  1.00  0.00    -0.292 A  
HETATM   17  C   UNL     1      -9.942   9.676  67.316  1.00  0.00    -0.250 A  
HETATM   18  C   UNL     1     -10.762  10.197  68.318  1.00  0.00    -0.277 A  
HETATM   19  C   UNL     1     -11.516  11.346  68.080  1.00  0.00    -0.375 A  
HETATM   20  C   UNL     1     -11.443  11.981  66.847  1.00  0.00    -0.402 A  
HETATM   21  C   UNL     1     -10.624  11.464  65.846  1.00  0.00    -0.317 A  
ENDBRANCH  13  16
ENDBRANCH  11  13
ENDBRANCH  10  11
ENDBRANCH   8  10
TORSDOF 4
ENDMDL
MODEL      212
REMARK 921   NORMALIZED FREE ENERGY PREDICTED BY IDOCK:   -2.96 KCAL/MOL
REMARK 922        TOTAL FREE ENERGY PREDICTED BY IDOCK:   -4.57 KCAL/MOL
REMARK 923 INTER-LIGAND FREE ENERGY PREDICTED BY IDOCK:   -3.92 KCAL/MOL
REMARK 924 INTRA-LIGAND FREE ENERGY PREDICTED BY IDOCK:   -0.65 KCAL/MOL
REMARK 927      BINDING AFFINITY PREDICTED BY RF-SCORE:    0.00 PKD
ROOT
HETATM    1  C   UNL     1      -9.469  14.967  66.061  1.00  0.00    -0.302 C  
HETATM    2  C   UNL     1      -9.509  15.905  67.272  1.00  0.00    -0.217 C  
HETATM    3  C   UNL     1     -10.987  15.990  67.644  1.00  0.00    -0.284 C  
HETATM    4  C   UNL     1     -11.684  15.046  66.661  1.00  0.00    -0.139 C  
HETATM    5  C   UNL     1     -11.752  13.620  67.229  1.00  0.00    -0.416 C  
HETATM    6  N   UNL     1     -10.802  15.163  65.494  1.00  0.00    -0.343 NA 
HETATM    7  C   UNL     1     -11.131  14.318  64.358  1.00  0.00    -0.220 C  
HETATM    8  C   UNL     1     -10.431  12.839  67.175  1.00  0.00    -0.233 C  
HETATM    9  C   UNL     1      -9.231  13.518  66.487  1.00  0.00    -0.187 C  
ENDROOT
BRANCH   8  10
HETATM   10  O   UNL     1      -9.994  12.472  68.496  1.00  0.00    -0.219 OA 
BRANCH  10  11
HETATM   11  C   UNL     1      -9.719  11.135  68.623  1.00  0.00    -0.198 C  
HETATM   12  O   UNL     1     -10.543  10.244  68.450  1.00  0.00    -0.191 OA 
BRANCH  11  13
HETATM   13  C   UNL     1      -8.230  10.922  68.930  1.00  0.00    -0.141 C  
HETATM   14  O   UNL     1      -8.099  10.130  70.121  1.00  0.00    -0.307 OA 
HETATM   15  H   UNL     1      -7.178   9.999  70.311  1.00  0.00     0.000 HD 
BRANCH  13  16
HETATM   16  C   UNL     1      -7.429  10.298  67.806  1.00  0.00    -0.088 A  
HETATM   17  C   UNL     1      -6.715  11.084  66.888  1.00  0.00    -0.120 A  
HETATM   18  C   UNL     1      -5.951  10.487  65.884  1.00  0.00    -0.121 A  
HETATM   19  C   UNL     1      -5.874   9.098  65.794  1.00  0.00    -0.050 A  
HETATM   20  C   UNL     1      -6.552   8.305  66.710  1.00  0.00    -0.057 A  
HETATM   21  C   UNL     1      -7.314   8.898  67.714  1.00  0.00    -0.085 A  
ENDBRANCH  13  16
ENDBRANCH  11  13
ENDBRANCH  10  11
ENDBRANCH   8  10
TORSDOF 4
ENDMDL
MODEL      213
REMARK 921   NORMALIZED FREE ENERGY PREDICTED BY IDOCK:   -2.94 KCAL/MOL
REMARK 922        TOTAL FREE ENERGY PREDICTED BY IDOCK:   -4.55 KCAL/MOL
REMARK 923 INTER-LIGAND FREE ENERGY PREDICTED BY IDOCK:   -3.94 KCAL/MOL
REMARK 924 INTRA-LIGAND FREE ENERGY PREDICTED BY IDOCK:   -0.60 KCAL/MOL
REMARK 927      BINDING AFFINITY PREDICTED BY RF-SCORE:    0.00 PKD
ROOT
HETATM    1  C   UNL     1      -9.461  10.818  68.955  1.00  0.00    -0.166 C  
HETATM    2  C   UNL     1     -10.837  11.185  69.522  1.00  0.00    -0.241 C  
HETATM    3  C   UNL     1     -11.725  11.360  68.293  1.00  0.00    -0.359 C  
HETATM    4  C   UNL     1     -10.814  11.019  67.111  1.00  0.00    -0.282 C  
HETATM    5  C   UNL     1     -10.878   9.518  66.788  1.00  0.00    -0.031 C  
HETATM    6  N   UNL     1      -9.512  11.443  67.635  1.00  0.00    -0.160 NA 
HETATM    7  C   UNL     1      -8.365  11.192  66.777  1.00  0.00    -0.152 C  
HETATM    8  C   UNL     1     -10.101   8.615  67.757  1.00  0.00    -0.211 C  
HETATM    9  C   UNL     1      -9.283   9.302  68.868  1.00  0.00    -0.143 C  
ENDROOT
BRANCH   8  10
HETATM   10  O   UNL     1     -10.981   7.683  68.412  1.00  0.00    -0.018 OA 
BRANCH  10  11
HETATM   11  C   UNL     1     -10.932   6.424  67.873  1.00  0.00    -0.325 C  
HETATM   12  O   UNL     1     -11.406   6.123  66.783  1.00  0.00    -0.188 OA 
BRANCH  11  13
HETATM   13  C   UNL     1     -10.138   5.480  68.788  1.00  0.00    -0.191 C  
HETATM   14  O   UNL     1      -8.794   5.363  68.297  1.00  0.00    -0.105 OA 
HETATM   15  H   UNL     1      -8.303   4.780  68.863  1.00  0.00     0.000 HD 
BRANCH  13  16
HETATM   16  C   UNL     1     -10.121   5.874  70.250  1.00  0.00    -0.260 A  
HETATM   17  C   UNL     1      -8.925   6.192  70.912  1.00  0.00    -0.144 A  
HETATM   18  C   UNL     1      -8.936   6.592  72.249  1.00  0.00    -0.138 A  
HETATM   19  C   UNL     1     -10.143   6.697  72.939  1.00  0.00    -0.200 A  
HETATM   20  C   UNL     1     -11.339   6.413  72.292  1.00  0.00    -0.330 A  
HETATM   21  C   UNL     1     -11.331   6.015  70.958  1.00  0.00    -0.299 A  
ENDBRANCH  13  16
ENDBRANCH  11  13
ENDBRANCH  10  11
ENDBRANCH   8  10
TORSDOF 4
ENDMDL
MODEL      214
REMARK 921   NORMALIZED FREE ENERGY PREDICTED BY IDOCK:   -2.93 KCAL/MOL
REMARK 922        TOTAL FREE ENERGY PREDICTED BY IDOCK:   -4.54 KCAL/MOL
REMARK 923 INTER-LIGAND FREE ENERGY PREDICTED BY IDOCK:   -4.16 KCAL/MOL
REMARK 924 INTRA-LIGAND FREE ENERGY PREDICTED BY IDOCK:   -0.38 KCAL/MOL
REMARK 927      BINDING AFFINITY PREDICTED BY RF-SCORE:    0.00 PKD
ROOT
HETATM    1  C   UNL     1      -7.323   7.712  66.762  1.00  0.00    -0.089 C  
HETATM    2  C   UNL     1      -8.257   6.839  65.918  1.00  0.00    -0.132 C  
HETATM    3  C   UNL     1      -9.521   6.699  66.763  1.00  0.00    -0.194 C  
HETATM    4  C   UNL     1      -9.248   7.553  68.003  1.00  0.00    -0.137 C  
HETATM    5  C   UNL     1      -9.710   9.001  67.780  1.00  0.00    -0.190 C  
HETATM    6  N   UNL     1      -7.792   7.420  68.115  1.00  0.00    -0.120 NA 
HETATM    7  C   UNL     1      -7.160   8.185  69.178  1.00  0.00    -0.061 C  
HETATM    8  C   UNL     1      -8.783   9.845  66.892  1.00  0.00    -0.128 C  
HETATM    9  C   UNL     1      -7.474   9.192  66.408  1.00  0.00    -0.092 C  
ENDROOT
BRANCH   8  10
HETATM   10  O   UNL     1      -9.474  10.303  65.715  1.00  0.00    -0.178 OA 
BRANCH  10  11
HETATM   11  C   UNL     1      -9.881  11.609  65.801  1.00  0.00    -0.239 C  
HETATM   12  O   UNL     1     -10.643  12.146  65.006  1.00  0.00    -0.271 OA 
BRANCH  11  13
HETATM   13  C   UNL     1      -9.310  12.264  67.067  1.00  0.00    -0.205 C  
HETATM   14  O   UNL     1      -8.360  13.274  66.692  1.00  0.00    -0.415 OA 
HETATM   15  H   UNL     1      -8.007  13.679  67.475  1.00  0.00     0.000 HD 
BRANCH  13  16
HETATM   16  C   UNL     1     -10.345  12.853  68.003  1.00  0.00    -0.230 A  
HETATM   17  C   UNL     1     -10.925  14.108  67.763  1.00  0.00    -0.274 A  
HETATM   18  C   UNL     1     -11.906  14.613  68.617  1.00  0.00    -0.346 A  
HETATM   19  C   UNL     1     -12.335  13.865  69.712  1.00  0.00    -0.330 A  
HETATM   20  C   UNL     1     -11.792  12.609  69.950  1.00  0.00    -0.364 A  
HETATM   21  C   UNL     1     -10.814  12.102  69.099  1.00  0.00    -0.165 A  
ENDBRANCH  13  16
ENDBRANCH  11  13
ENDBRANCH  10  11
ENDBRANCH   8  10
TORSDOF 4
ENDMDL
MODEL      215
REMARK 921   NORMALIZED FREE ENERGY PREDICTED BY IDOCK:   -2.93 KCAL/MOL
REMARK 922        TOTAL FREE ENERGY PREDICTED BY IDOCK:   -4.53 KCAL/MOL
REMARK 923 INTER-LIGAND FREE ENERGY PREDICTED BY IDOCK:   -4.08 KCAL/MOL
REMARK 924 INTRA-LIGAND FREE ENERGY PREDICTED BY IDOCK:   -0.45 KCAL/MOL
REMARK 927      BINDING AFFINITY PREDICTED BY RF-SCORE:    0.00 PKD
ROOT
HETATM    1  C   UNL     1      -7.317   4.246  65.586  1.00  0.00    -0.077 C  
HETATM    2  C   UNL     1      -8.123   4.154  64.286  1.00  0.00    -0.091 C  
HETATM    3  C   UNL     1      -9.555   3.884  64.741  1.00  0.00    -0.177 C  
HETATM    4  C   UNL     1      -9.482   3.904  66.269  1.00  0.00    -0.188 C  
HETATM    5  C   UNL     1      -9.712   5.323  66.809  1.00  0.00    -0.174 C  
HETATM    6  N   UNL     1      -8.116   3.416  66.486  1.00  0.00    -0.090 NA 
HETATM    7  C   UNL     1      -7.664   3.374  67.867  1.00  0.00    -0.068 C  
HETATM    8  C   UNL     1      -8.516   6.275  66.655  1.00  0.00    -0.114 C  
HETATM    9  C   UNL     1      -7.214   5.691  66.075  1.00  0.00    -0.073 C  
ENDROOT
BRANCH   8  10
HETATM   10  O   UNL     1      -8.860   7.407  65.834  1.00  0.00    -0.164 OA 
BRANCH  10  11
HETATM   11  C   UNL     1      -8.809   8.599  66.510  1.00  0.00    -0.138 C  
HETATM   12  O   UNL     1      -7.790   9.067  67.003  1.00  0.00    -0.097 OA 
BRANCH  11  13
HETATM   13  C   UNL     1     -10.183   9.284  66.487  1.00  0.00    -0.246 C  
HETATM   14  O   UNL     1     -10.499   9.758  67.805  1.00  0.00    -0.213 OA 
HETATM   15  H   UNL     1     -11.349  10.182  67.791  1.00  0.00     0.000 HD 
BRANCH  13  16
HETATM   16  C   UNL     1     -10.316  10.414  65.487  1.00  0.00    -0.265 A  
HETATM   17  C   UNL     1      -9.690  10.363  64.232  1.00  0.00    -0.389 A  
HETATM   18  C   UNL     1      -9.859  11.397  63.311  1.00  0.00    -0.428 A  
HETATM   19  C   UNL     1     -10.670  12.488  63.621  1.00  0.00    -0.469 A  
HETATM   20  C   UNL     1     -11.319  12.542  64.848  1.00  0.00    -0.351 A  
HETATM   21  C   UNL     1     -11.153  11.511  65.769  1.00  0.00    -0.272 A  
ENDBRANCH  13  16
ENDBRANCH  11  13
ENDBRANCH  10  11
ENDBRANCH   8  10
TORSDOF 4
ENDMDL
MODEL      216
REMARK 921   NORMALIZED FREE ENERGY PREDICTED BY IDOCK:   -2.90 KCAL/MOL
REMARK 922        TOTAL FREE ENERGY PREDICTED BY IDOCK:   -4.50 KCAL/MOL
REMARK 923 INTER-LIGAND FREE ENERGY PREDICTED BY IDOCK:   -4.01 KCAL/MOL
REMARK 924 INTRA-LIGAND FREE ENERGY PREDICTED BY IDOCK:   -0.49 KCAL/MOL
REMARK 927      BINDING AFFINITY PREDICTED BY RF-SCORE:    0.00 PKD
ROOT
HETATM    1  C   UNL     1      -9.443   8.394  65.773  1.00  0.00    -0.018 C  
HETATM    2  C   UNL     1     -10.099   7.784  67.017  1.00  0.00    -0.343 C  
HETATM    3  C   UNL     1      -9.133   8.101  68.156  1.00  0.00    -0.134 C  
HETATM    4  C   UNL     1      -8.024   8.926  67.498  1.00  0.00    -0.101 C  
HETATM    5  C   UNL     1      -8.362  10.424  67.536  1.00  0.00    -0.114 C  
HETATM    6  N   UNL     1      -8.029   8.365  66.143  1.00  0.00    -0.097 NA 
HETATM    7  C   UNL     1      -7.119   8.982  65.192  1.00  0.00    -0.087 C  
HETATM    8  C   UNL     1      -9.418  10.874  66.515  1.00  0.00    -0.185 C  
HETATM    9  C   UNL     1      -9.943   9.818  65.524  1.00  0.00    -0.329 C  
ENDROOT
BRANCH   8  10
HETATM   10  O   UNL     1     -10.571  11.427  67.176  1.00  0.00    -0.220 OA 
BRANCH  10  11
HETATM   11  C   UNL     1     -10.948  12.646  66.674  1.00  0.00    -0.258 C  
HETATM   12  O   UNL     1     -12.095  13.076  66.702  1.00  0.00    -0.388 OA 
BRANCH  11  13
HETATM   13  C   UNL     1      -9.723  13.410  66.152  1.00  0.00    -0.250 C  
HETATM   14  O   UNL     1     -10.146  14.373  65.174  1.00  0.00    -0.433 OA 
HETATM   15  H   UNL     1      -9.389  14.846  64.851  1.00  0.00     0.000 HD 
BRANCH  13  16
HETATM   16  C   UNL     1      -8.892  14.091  67.220  1.00  0.00    -0.225 A  
HETATM   17  C   UNL     1      -9.482  14.895  68.208  1.00  0.00    -0.210 A  
HETATM   18  C   UNL     1      -8.702  15.480  69.206  1.00  0.00    -0.260 A  
HETATM   19  C   UNL     1      -7.326  15.256  69.244  1.00  0.00    -0.191 A  
HETATM   20  C   UNL     1      -6.730  14.441  68.290  1.00  0.00    -0.114 A  
HETATM   21  C   UNL     1      -7.506  13.855  67.293  1.00  0.00    -0.051 A  
ENDBRANCH  13  16
ENDBRANCH  11  13
ENDBRANCH  10  11
ENDBRANCH   8  10
TORSDOF 4
ENDMDL
MODEL      217
REMARK 921   NORMALIZED FREE ENERGY PREDICTED BY IDOCK:   -2.88 KCAL/MOL
REMARK 922        TOTAL FREE ENERGY PREDICTED BY IDOCK:   -4.48 KCAL/MOL
REMARK 923 INTER-LIGAND FREE ENERGY PREDICTED BY IDOCK:   -4.26 KCAL/MOL
REMARK 924 INTRA-LIGAND FREE ENERGY PREDICTED BY IDOCK:   -0.22 KCAL/MOL
REMARK 927      BINDING AFFINITY PREDICTED BY RF-SCORE:    0.00 PKD
ROOT
HETATM    1  C   UNL     1     -11.364  14.198  67.053  1.00  0.00    -0.332 C  
HETATM    2  C   UNL     1     -12.779  13.867  66.567  1.00  0.00    -0.074 C  
HETATM    3  C   UNL     1     -12.604  13.488  65.099  1.00  0.00    -0.485 C  
HETATM    4  C   UNL     1     -11.094  13.566  64.862  1.00  0.00    -0.346 C  
HETATM    5  C   UNL     1     -10.425  12.215  65.160  1.00  0.00    -0.317 C  
HETATM    6  N   UNL     1     -10.719  14.620  65.810  1.00  0.00    -0.301 NA 
HETATM    7  C   UNL     1      -9.299  14.915  65.909  1.00  0.00    -0.181 C  
HETATM    8  C   UNL     1     -10.259  11.892  66.652  1.00  0.00    -0.208 C  
HETATM    9  C   UNL     1     -10.686  12.972  67.665  1.00  0.00    -0.239 C  
ENDROOT
BRANCH   8  10
HETATM   10  O   UNL     1     -10.975  10.693  67.003  1.00  0.00    -0.269 OA 
BRANCH  10  11
HETATM   11  C   UNL     1     -10.214   9.559  66.897  1.00  0.00    -0.249 C  
HETATM   12  O   UNL     1     -10.668   8.421  66.920  1.00  0.00    -0.279 OA 
BRANCH  11  13
HETATM   13  C   UNL     1      -8.739   9.924  66.671  1.00  0.00    -0.128 C  
HETATM   14  O   UNL     1      -7.968   9.512  67.810  1.00  0.00    -0.098 OA 
HETATM   15  H   UNL     1      -7.056   9.738  67.670  1.00  0.00     0.000 HD 
BRANCH  13  16
HETATM   16  C   UNL     1      -8.130   9.360  65.404  1.00  0.00    -0.118 A  
HETATM   17  C   UNL     1      -8.783   9.459  64.166  1.00  0.00    -0.224 A  
HETATM   18  C   UNL     1      -8.185   8.968  63.005  1.00  0.00    -0.184 A  
HETATM   19  C   UNL     1      -6.919   8.388  63.060  1.00  0.00    -0.090 A  
HETATM   20  C   UNL     1      -6.246   8.306  64.272  1.00  0.00    -0.066 A  
HETATM   21  C   UNL     1      -6.840   8.796  65.432  1.00  0.00    -0.072 A  
ENDBRANCH  13  16
ENDBRANCH  11  13
ENDBRANCH  10  11
ENDBRANCH   8  10
TORSDOF 4
ENDMDL
MODEL      218
REMARK 921   NORMALIZED FREE ENERGY PREDICTED BY IDOCK:   -2.87 KCAL/MOL
REMARK 922        TOTAL FREE ENERGY PREDICTED BY IDOCK:   -4.46 KCAL/MOL
REMARK 923 INTER-LIGAND FREE ENERGY PREDICTED BY IDOCK:   -4.38 KCAL/MOL
REMARK 924 INTRA-LIGAND FREE ENERGY PREDICTED BY IDOCK:   -0.08 KCAL/MOL
REMARK 927      BINDING AFFINITY PREDICTED BY RF-SCORE:    0.00 PKD
ROOT
HETATM    1  C   UNL     1     -10.423   5.683  71.950  1.00  0.00    -0.225 C  
HETATM    2  C   UNL     1     -10.690   6.261  73.344  1.00  0.00    -0.281 C  
HETATM    3  C   UNL     1      -9.480   7.147  73.632  1.00  0.00    -0.265 C  
HETATM    4  C   UNL     1      -8.635   7.065  72.358  1.00  0.00    -0.120 C  
HETATM    5  C   UNL     1      -9.042   8.161  71.362  1.00  0.00    -0.194 C  
HETATM    6  N   UNL     1      -8.962   5.712  71.896  1.00  0.00    -0.139 NA 
HETATM    7  C   UNL     1      -8.373   5.309  70.630  1.00  0.00    -0.113 C  
HETATM    8  C   UNL     1     -10.354   7.896  70.610  1.00  0.00    -0.202 C  
HETATM    9  C   UNL     1     -11.056   6.547  70.860  1.00  0.00    -0.345 C  
ENDROOT
BRANCH   8  10
HETATM   10  O   UNL     1     -11.325   8.922  70.887  1.00  0.00    -0.264 OA 
BRANCH  10  11
HETATM   11  C   UNL     1     -11.442   9.841  69.877  1.00  0.00    -0.140 C  
HETATM   12  O   UNL     1     -12.160  10.834  69.930  1.00  0.00    -0.309 OA 
BRANCH  11  13
HETATM   13  C   UNL     1     -10.496   9.489  68.721  1.00  0.00    -0.219 C  
HETATM   14  O   UNL     1     -11.171   8.613  67.804  1.00  0.00    -0.384 OA 
HETATM   15  H   UNL     1     -10.586   8.396  67.089  1.00  0.00     0.000 HD 
BRANCH  13  16
HETATM   16  C   UNL     1      -9.929  10.679  67.974  1.00  0.00    -0.180 A  
HETATM   17  C   UNL     1     -10.313  10.971  66.657  1.00  0.00    -0.288 A  
HETATM   18  C   UNL     1      -9.809  12.095  66.002  1.00  0.00    -0.260 A  
HETATM   19  C   UNL     1      -8.929  12.954  66.659  1.00  0.00    -0.141 A  
HETATM   20  C   UNL     1      -8.559  12.695  67.973  1.00  0.00    -0.189 A  
HETATM   21  C   UNL     1      -9.061  11.574  68.629  1.00  0.00    -0.124 A  
ENDBRANCH  13  16
ENDBRANCH  11  13
ENDBRANCH  10  11
ENDBRANCH   8  10
TORSDOF 4
ENDMDL
MODEL      219
REMARK 921   NORMALIZED FREE ENERGY PREDICTED BY IDOCK:   -2.87 KCAL/MOL
REMARK 922        TOTAL FREE ENERGY PREDICTED BY IDOCK:   -4.46 KCAL/MOL
REMARK 923 INTER-LIGAND FREE ENERGY PREDICTED BY IDOCK:   -6.06 KCAL/MOL
REMARK 924 INTRA-LIGAND FREE ENERGY PREDICTED BY IDOCK:    1.60 KCAL/MOL
REMARK 927      BINDING AFFINITY PREDICTED BY RF-SCORE:    0.00 PKD
ROOT
HETATM    1  C   UNL     1      -9.142  12.233  66.418  1.00  0.00    -0.158 C  
HETATM    2  C   UNL     1     -10.496  11.748  65.888  1.00  0.00    -0.296 C  
HETATM    3  C   UNL     1     -10.399  10.225  65.920  1.00  0.00    -0.241 C  
HETATM    4  C   UNL     1      -9.022   9.942  66.525  1.00  0.00    -0.146 C  
HETATM    5  C   UNL     1      -9.108   9.842  68.055  1.00  0.00    -0.123 C  
HETATM    6  N   UNL     1      -8.271  11.114  66.062  1.00  0.00    -0.136 NA 
HETATM    7  C   UNL     1      -6.897  11.217  66.526  1.00  0.00    -0.126 C  
HETATM    8  C   UNL     1      -9.246  11.188  68.784  1.00  0.00    -0.145 C  
HETATM    9  C   UNL     1      -9.189  12.468  67.928  1.00  0.00    -0.200 C  
ENDROOT
BRANCH   8  10
HETATM   10  O   UNL     1     -10.475  11.247  69.531  1.00  0.00    -0.124 OA 
BRANCH  10  11
HETATM   11  C   UNL     1     -11.516  11.782  68.817  1.00  0.00    -0.291 C  
HETATM   12  O   UNL     1     -12.312  11.120  68.161  1.00  0.00    -0.469 OA 
BRANCH  11  13
HETATM   13  C   UNL     1     -11.580  13.302  69.023  1.00  0.00    -0.312 C  
HETATM   14  O   UNL     1     -12.091  13.922  67.832  1.00  0.00    -0.410 OA 
HETATM   15  H   UNL     1     -12.131  14.862  67.960  1.00  0.00     0.000 HD 
BRANCH  13  16
HETATM   16  C   UNL     1     -12.387  13.750  70.224  1.00  0.00    -0.407 A  
HETATM   17  C   UNL     1     -12.789  15.085  70.384  1.00  0.00    -0.332 A  
HETATM   18  C   UNL     1     -13.566  15.468  71.477  1.00  0.00    -0.571 A  
HETATM   19  C   UNL     1     -13.969  14.520  72.417  1.00  0.00    -0.580 A  
HETATM   20  C   UNL     1     -13.604  13.189  72.261  1.00  0.00    -0.677 A  
HETATM   21  C   UNL     1     -12.829  12.804  71.170  1.00  0.00    -0.315 A  
ENDBRANCH  13  16
ENDBRANCH  11  13
ENDBRANCH  10  11
ENDBRANCH   8  10
TORSDOF 4
ENDMDL
MODEL      220
REMARK 921   NORMALIZED FREE ENERGY PREDICTED BY IDOCK:   -2.83 KCAL/MOL
REMARK 922        TOTAL FREE ENERGY PREDICTED BY IDOCK:   -4.41 KCAL/MOL
REMARK 923 INTER-LIGAND FREE ENERGY PREDICTED BY IDOCK:   -3.87 KCAL/MOL
REMARK 924 INTRA-LIGAND FREE ENERGY PREDICTED BY IDOCK:   -0.55 KCAL/MOL
REMARK 927      BINDING AFFINITY PREDICTED BY RF-SCORE:    0.00 PKD
ROOT
HETATM    1  C   UNL     1     -10.726   8.660  68.136  1.00  0.00    -0.058 C  
HETATM    2  C   UNL     1      -9.683   8.093  67.166  1.00  0.00    -0.259 C  
HETATM    3  C   UNL     1      -8.725   9.253  66.910  1.00  0.00    -0.136 C  
HETATM    4  C   UNL     1      -9.247  10.384  67.800  1.00  0.00    -0.142 C  
HETATM    5  C   UNL     1      -8.603  10.325  69.193  1.00  0.00    -0.167 C  
HETATM    6  N   UNL     1     -10.683  10.085  67.812  1.00  0.00    -0.263 NA 
HETATM    7  C   UNL     1     -11.508  10.943  68.647  1.00  0.00    -0.311 C  
HETATM    8  C   UNL     1      -9.158   9.229  70.115  1.00  0.00    -0.222 C  
HETATM    9  C   UNL     1     -10.338   8.388  69.590  1.00  0.00    -0.218 C  
ENDROOT
BRANCH   8  10
HETATM   10  O   UNL     1      -8.126   8.298  70.491  1.00  0.00    -0.098 OA 
BRANCH  10  11
HETATM   11  C   UNL     1      -8.102   8.031  71.835  1.00  0.00    -0.121 C  
HETATM   12  O   UNL     1      -8.354   8.857  72.705  1.00  0.00    -0.392 OA 
BRANCH  11  13
HETATM   13  C   UNL     1      -7.796   6.547  72.079  1.00  0.00    -0.099 C  
HETATM   14  O   UNL     1      -6.737   6.433  73.044  1.00  0.00    -0.071 OA 
HETATM   15  H   UNL     1      -6.548   5.515  73.195  1.00  0.00     0.000 HD 
BRANCH  13  16
HETATM   16  C   UNL     1      -8.983   5.713  72.516  1.00  0.00    -0.133 A  
HETATM   17  C   UNL     1      -8.826   4.401  72.988  1.00  0.00    -0.116 A  
HETATM   18  C   UNL     1      -9.929   3.665  73.423  1.00  0.00    -0.177 A  
HETATM   19  C   UNL     1     -11.201   4.235  73.410  1.00  0.00    -0.361 A  
HETATM   20  C   UNL     1     -11.371   5.542  72.972  1.00  0.00    -0.323 A  
HETATM   21  C   UNL     1     -10.272   6.279  72.539  1.00  0.00    -0.203 A  
ENDBRANCH  13  16
ENDBRANCH  11  13
ENDBRANCH  10  11
ENDBRANCH   8  10
TORSDOF 4
ENDMDL
MODEL      221
REMARK 921   NORMALIZED FREE ENERGY PREDICTED BY IDOCK:   -2.77 KCAL/MOL
REMARK 922        TOTAL FREE ENERGY PREDICTED BY IDOCK:   -4.34 KCAL/MOL
REMARK 923 INTER-LIGAND FREE ENERGY PREDICTED BY IDOCK:   -4.06 KCAL/MOL
REMARK 924 INTRA-LIGAND FREE ENERGY PREDICTED BY IDOCK:   -0.28 KCAL/MOL
REMARK 927      BINDING AFFINITY PREDICTED BY RF-SCORE:    0.00 PKD
ROOT
HETATM    1  C   UNL     1      -7.683   8.275  66.609  1.00  0.00    -0.093 C  
HETATM    2  C   UNL     1      -9.007   8.268  65.839  1.00  0.00    -0.208 C  
HETATM    3  C   UNL     1     -10.071   8.541  66.899  1.00  0.00    -0.364 C  
HETATM    4  C   UNL     1      -9.277   8.749  68.192  1.00  0.00    -0.140 C  
HETATM    5  C   UNL     1      -8.901  10.228  68.369  1.00  0.00    -0.129 C  
HETATM    6  N   UNL     1      -8.120   7.882  67.948  1.00  0.00    -0.127 NA 
HETATM    7  C   UNL     1      -7.089   7.890  68.972  1.00  0.00    -0.070 C  
HETATM    8  C   UNL     1      -7.745  10.711  67.482  1.00  0.00    -0.101 C  
HETATM    9  C   UNL     1      -7.041   9.663  66.598  1.00  0.00    -0.086 C  
ENDROOT
BRANCH   8  10
HETATM   10  O   UNL     1      -8.175  11.767  66.603  1.00  0.00    -0.171 OA 
BRANCH  10  11
HETATM   11  C   UNL     1      -8.210  12.995  67.211  1.00  0.00    -0.172 C  
HETATM   12  O   UNL     1      -7.214  13.632  67.533  1.00  0.00    -0.165 OA 
BRANCH  11  13
HETATM   13  C   UNL     1      -9.661  13.479  67.354  1.00  0.00    -0.227 C  
HETATM   14  O   UNL     1     -10.038  13.446  68.739  1.00  0.00    -0.368 OA 
HETATM   15  H   UNL     1     -10.935  13.746  68.827  1.00  0.00     0.000 HD 
BRANCH  13  16
HETATM   16  C   UNL     1      -9.935  14.853  66.777  1.00  0.00    -0.252 A  
HETATM   17  C   UNL     1      -9.459  16.019  67.397  1.00  0.00    -0.220 A  
HETATM   18  C   UNL     1      -9.688  17.271  66.827  1.00  0.00    -0.285 A  
HETATM   19  C   UNL     1     -10.380  17.377  65.621  1.00  0.00    -0.161 A  
HETATM   20  C   UNL     1     -10.835  16.232  64.980  1.00  0.00    -0.337 A  
HETATM   21  C   UNL     1     -10.606  14.980  65.546  1.00  0.00    -0.380 A  
ENDBRANCH  13  16
ENDBRANCH  11  13
ENDBRANCH  10  11
ENDBRANCH   8  10
TORSDOF 4
ENDMDL
MODEL      222
REMARK 921   NORMALIZED FREE ENERGY PREDICTED BY IDOCK:   -2.76 KCAL/MOL
REMARK 922        TOTAL FREE ENERGY PREDICTED BY IDOCK:   -4.33 KCAL/MOL
REMARK 923 INTER-LIGAND FREE ENERGY PREDICTED BY IDOCK:   -3.68 KCAL/MOL
REMARK 924 INTRA-LIGAND FREE ENERGY PREDICTED BY IDOCK:   -0.64 KCAL/MOL
REMARK 927      BINDING AFFINITY PREDICTED BY RF-SCORE:    0.00 PKD
ROOT
HETATM    1  C   UNL     1      -5.744   9.332  69.507  1.00  0.00    -0.034 C  
HETATM    2  C   UNL     1      -5.549  10.137  70.797  1.00  0.00    -0.079 C  
HETATM    3  C   UNL     1      -5.900  11.572  70.411  1.00  0.00    -0.155 C  
HETATM    4  C   UNL     1      -6.334  11.480  68.947  1.00  0.00    -0.059 C  
HETATM    5  C   UNL     1      -7.843  11.215  68.840  1.00  0.00    -0.131 C  
HETATM    6  N   UNL     1      -5.515  10.354  68.487  1.00  0.00    -0.038 NA 
HETATM    7  C   UNL     1      -5.728   9.927  67.113  1.00  0.00    -0.046 C  
HETATM    8  C   UNL     1      -8.269   9.771  69.145  1.00  0.00    -0.130 C  
HETATM    9  C   UNL     1      -7.154   8.746  69.427  1.00  0.00    -0.057 C  
ENDROOT
BRANCH   8  10
HETATM   10  O   UNL     1      -9.164   9.724  70.272  1.00  0.00    -0.246 OA 
BRANCH  10  11
HETATM   11  C   UNL     1     -10.470   9.507  69.916  1.00  0.00    -0.240 C  
HETATM   12  O   UNL     1     -11.172  10.331  69.340  1.00  0.00    -0.231 OA 
BRANCH  11  13
HETATM   13  C   UNL     1     -10.890   8.073  70.269  1.00  0.00    -0.241 C  
HETATM   14  O   UNL     1     -12.277   8.062  70.641  1.00  0.00    -0.499 OA 
HETATM   15  H   UNL     1     -12.536   7.175  70.860  1.00  0.00     0.000 HD 
BRANCH  13  16
HETATM   16  C   UNL     1     -10.640   7.049  69.181  1.00  0.00    -0.235 A  
HETATM   17  C   UNL     1     -10.538   7.420  67.831  1.00  0.00    -0.255 A  
HETATM   18  C   UNL     1     -10.267   6.465  66.850  1.00  0.00    -0.277 A  
HETATM   19  C   UNL     1     -10.076   5.130  67.205  1.00  0.00    -0.244 A  
HETATM   20  C   UNL     1     -10.146   4.750  68.539  1.00  0.00    -0.115 A  
HETATM   21  C   UNL     1     -10.414   5.701  69.520  1.00  0.00    -0.372 A  
ENDBRANCH  13  16
ENDBRANCH  11  13
ENDBRANCH  10  11
ENDBRANCH   8  10
TORSDOF 4
ENDMDL
MODEL      223
REMARK 921   NORMALIZED FREE ENERGY PREDICTED BY IDOCK:   -2.72 KCAL/MOL
REMARK 922        TOTAL FREE ENERGY PREDICTED BY IDOCK:   -4.28 KCAL/MOL
REMARK 923 INTER-LIGAND FREE ENERGY PREDICTED BY IDOCK:   -3.92 KCAL/MOL
REMARK 924 INTRA-LIGAND FREE ENERGY PREDICTED BY IDOCK:   -0.35 KCAL/MOL
REMARK 927      BINDING AFFINITY PREDICTED BY RF-SCORE:    0.00 PKD
ROOT
HETATM    1  C   UNL     1     -10.669  14.691  66.708  1.00  0.00    -0.301 C  
HETATM    2  C   UNL     1     -10.432  14.792  68.219  1.00  0.00    -0.241 C  
HETATM    3  C   UNL     1     -11.375  13.756  68.825  1.00  0.00    -0.318 C  
HETATM    4  C   UNL     1     -12.040  13.090  67.618  1.00  0.00    -0.209 C  
HETATM    5  C   UNL     1     -11.221  11.880  67.143  1.00  0.00    -0.377 C  
HETATM    6  N   UNL     1     -12.045  14.199  66.659  1.00  0.00    -0.447 NA 
HETATM    7  C   UNL     1     -12.555  13.895  65.332  1.00  0.00    -0.507 C  
HETATM    8  C   UNL     1      -9.949  12.230  66.357  1.00  0.00    -0.228 C  
HETATM    9  C   UNL     1      -9.686  13.718  66.055  1.00  0.00    -0.255 C  
ENDROOT
BRANCH   8  10
HETATM   10  O   UNL     1      -8.775  11.733  67.027  1.00  0.00    -0.167 OA 
BRANCH  10  11
HETATM   11  C   UNL     1      -8.363  10.512  66.559  1.00  0.00    -0.141 C  
HETATM   12  O   UNL     1      -8.037  10.295  65.398  1.00  0.00    -0.138 OA 
BRANCH  11  13
HETATM   13  C   UNL     1      -8.296   9.495  67.707  1.00  0.00    -0.118 C  
HETATM   14  O   UNL     1      -8.086   8.181  67.166  1.00  0.00    -0.113 OA 
HETATM   15  H   UNL     1      -8.045   7.552  67.876  1.00  0.00     0.000 HD 
BRANCH  13  16
HETATM   16  C   UNL     1      -7.250   9.791  68.762  1.00  0.00    -0.072 A  
HETATM   17  C   UNL     1      -7.236   9.116  69.993  1.00  0.00    -0.066 A  
HETATM   18  C   UNL     1      -6.240   9.375  70.934  1.00  0.00    -0.074 A  
HETATM   19  C   UNL     1      -5.233  10.298  70.654  1.00  0.00    -0.061 A  
HETATM   20  C   UNL     1      -5.215  10.955  69.430  1.00  0.00    -0.037 A  
HETATM   21  C   UNL     1      -6.208  10.697  68.488  1.00  0.00    -0.049 A  
ENDBRANCH  13  16
ENDBRANCH  11  13
ENDBRANCH  10  11
ENDBRANCH   8  10
TORSDOF 4
ENDMDL
MODEL      224
REMARK 921   NORMALIZED FREE ENERGY PREDICTED BY IDOCK:   -2.71 KCAL/MOL
REMARK 922        TOTAL FREE ENERGY PREDICTED BY IDOCK:   -4.26 KCAL/MOL
REMARK 923 INTER-LIGAND FREE ENERGY PREDICTED BY IDOCK:   -3.72 KCAL/MOL
REMARK 924 INTRA-LIGAND FREE ENERGY PREDICTED BY IDOCK:   -0.55 KCAL/MOL
REMARK 927      BINDING AFFINITY PREDICTED BY RF-SCORE:    0.00 PKD
ROOT
HETATM    1  C   UNL     1     -11.555  12.140  67.404  1.00  0.00    -0.340 C  
HETATM    2  C   UNL     1     -11.240  11.270  66.183  1.00  0.00    -0.133 C  
HETATM    3  C   UNL     1      -9.716  11.210  66.136  1.00  0.00    -0.253 C  
HETATM    4  C   UNL     1      -9.264  11.997  67.369  1.00  0.00    -0.180 C  
HETATM    5  C   UNL     1      -9.136  11.073  68.589  1.00  0.00    -0.174 C  
HETATM    6  N   UNL     1     -10.354  12.970  67.490  1.00  0.00    -0.223 NA 
HETATM    7  C   UNL     1     -10.290  13.863  68.635  1.00  0.00    -0.237 C  
HETATM    8  C   UNL     1     -10.470  10.665  69.233  1.00  0.00    -0.227 C  
HETATM    9  C   UNL     1     -11.757  11.288  68.657  1.00  0.00    -0.391 C  
ENDROOT
BRANCH   8  10
HETATM   10  O   UNL     1     -10.650   9.238  69.189  1.00  0.00    -0.218 OA 
BRANCH  10  11
HETATM   11  C   UNL     1     -10.632   8.653  70.429  1.00  0.00    -0.220 C  
HETATM   12  O   UNL     1     -11.152   9.140  71.426  1.00  0.00    -0.289 OA 
BRANCH  11  13
HETATM   13  C   UNL     1      -9.944   7.282  70.364  1.00  0.00    -0.191 C  
HETATM   14  O   UNL     1      -9.794   6.890  68.991  1.00  0.00    -0.149 OA 
HETATM   15  H   UNL     1      -9.368   6.043  68.951  1.00  0.00     0.000 HD 
BRANCH  13  16
HETATM   16  C   UNL     1      -8.607   7.205  71.071  1.00  0.00    -0.133 A  
HETATM   17  C   UNL     1      -7.398   7.371  70.377  1.00  0.00    -0.077 A  
HETATM   18  C   UNL     1      -6.179   7.336  71.055  1.00  0.00    -0.036 A  
HETATM   19  C   UNL     1      -6.150   7.154  72.437  1.00  0.00    -0.041 A  
HETATM   20  C   UNL     1      -7.337   7.016  73.144  1.00  0.00    -0.074 A  
HETATM   21  C   UNL     1      -8.555   7.051  72.470  1.00  0.00    -0.132 A  
ENDBRANCH  13  16
ENDBRANCH  11  13
ENDBRANCH  10  11
ENDBRANCH   8  10
TORSDOF 4
ENDMDL
MODEL      225
REMARK 921   NORMALIZED FREE ENERGY PREDICTED BY IDOCK:   -2.70 KCAL/MOL
REMARK 922        TOTAL FREE ENERGY PREDICTED BY IDOCK:   -4.26 KCAL/MOL
REMARK 923 INTER-LIGAND FREE ENERGY PREDICTED BY IDOCK:   -3.54 KCAL/MOL
REMARK 924 INTRA-LIGAND FREE ENERGY PREDICTED BY IDOCK:   -0.71 KCAL/MOL
REMARK 927      BINDING AFFINITY PREDICTED BY RF-SCORE:    0.00 PKD
ROOT
HETATM    1  C   UNL     1     -10.318  11.763  68.199  1.00  0.00    -0.200 C  
HETATM    2  C   UNL     1     -11.267  10.923  67.337  1.00  0.00    -0.345 C  
HETATM    3  C   UNL     1     -10.828  11.198  65.901  1.00  0.00    -0.223 C  
HETATM    4  C   UNL     1      -9.619  12.126  66.042  1.00  0.00    -0.231 C  
HETATM    5  C   UNL     1      -8.319  11.316  66.150  1.00  0.00    -0.111 C  
HETATM    6  N   UNL     1      -9.962  12.840  67.276  1.00  0.00    -0.217 NA 
HETATM    7  C   UNL     1      -8.969  13.782  67.766  1.00  0.00    -0.194 C  
HETATM    8  C   UNL     1      -8.079  10.658  67.517  1.00  0.00    -0.111 C  
HETATM    9  C   UNL     1      -9.098  10.952  68.635  1.00  0.00    -0.175 C  
ENDROOT
BRANCH   8  10
HETATM   10  O   UNL     1      -8.006   9.226  67.395  1.00  0.00    -0.105 OA 
BRANCH  10  11
HETATM   11  C   UNL     1      -7.193   8.644  68.334  1.00  0.00    -0.085 C  
HETATM   12  O   UNL     1      -6.083   9.064  68.637  1.00  0.00    -0.044 OA 
BRANCH  11  13
HETATM   13  C   UNL     1      -7.905   7.455  68.994  1.00  0.00    -0.120 C  
HETATM   14  O   UNL     1      -8.588   7.906  70.174  1.00  0.00    -0.131 OA 
HETATM   15  H   UNL     1      -9.029   7.170  70.582  1.00  0.00     0.000 HD 
BRANCH  13  16
HETATM   16  C   UNL     1      -8.869   6.708  68.094  1.00  0.00    -0.119 A  
HETATM   17  C   UNL     1      -8.435   5.674  67.250  1.00  0.00    -0.106 A  
HETATM   18  C   UNL     1      -9.345   4.972  66.460  1.00  0.00    -0.141 A  
HETATM   19  C   UNL     1     -10.704   5.280  66.514  1.00  0.00    -0.290 A  
HETATM   20  C   UNL     1     -11.155   6.282  67.363  1.00  0.00    -0.384 A  
HETATM   21  C   UNL     1     -10.248   6.983  68.155  1.00  0.00    -0.211 A  
ENDBRANCH  13  16
ENDBRANCH  11  13
ENDBRANCH  10  11
ENDBRANCH   8  10
TORSDOF 4
ENDMDL
MODEL      226
REMARK 921   NORMALIZED FREE ENERGY PREDICTED BY IDOCK:   -2.67 KCAL/MOL
REMARK 922        TOTAL FREE ENERGY PREDICTED BY IDOCK:   -4.21 KCAL/MOL
REMARK 923 INTER-LIGAND FREE ENERGY PREDICTED BY IDOCK:   -4.10 KCAL/MOL
REMARK 924 INTRA-LIGAND FREE ENERGY PREDICTED BY IDOCK:   -0.11 KCAL/MOL
REMARK 927      BINDING AFFINITY PREDICTED BY RF-SCORE:    0.00 PKD
ROOT
HETATM    1  C   UNL     1     -10.010   4.777  67.373  1.00  0.00    -0.159 C  
HETATM    2  C   UNL     1      -9.570   3.611  68.265  1.00  0.00    -0.165 C  
HETATM    3  C   UNL     1      -8.141   3.960  68.675  1.00  0.00    -0.079 C  
HETATM    4  C   UNL     1      -7.885   5.329  68.042  1.00  0.00    -0.091 C  
HETATM    5  C   UNL     1      -8.299   6.458  68.998  1.00  0.00    -0.118 C  
HETATM    6  N   UNL     1      -8.729   5.243  66.846  1.00  0.00    -0.112 NA 
HETATM    7  C   UNL     1      -8.788   6.437  66.019  1.00  0.00    -0.150 C  
HETATM    8  C   UNL     1      -9.814   6.694  69.100  1.00  0.00    -0.148 C  
HETATM    9  C   UNL     1     -10.727   5.857  68.184  1.00  0.00    -0.329 C  
ENDROOT
BRANCH   8  10
HETATM   10  O   UNL     1     -10.279   6.485  70.446  1.00  0.00    -0.188 OA 
BRANCH  10  11
HETATM   11  C   UNL     1     -11.372   7.248  70.764  1.00  0.00    -0.285 C  
HETATM   12  O   UNL     1     -12.524   6.960  70.462  1.00  0.00    -0.270 OA 
BRANCH  11  13
HETATM   13  C   UNL     1     -10.951   8.458  71.612  1.00  0.00    -0.278 C  
HETATM   14  O   UNL     1     -11.940   8.694  72.627  1.00  0.00    -0.340 OA 
HETATM   15  H   UNL     1     -11.679   9.442  73.151  1.00  0.00     0.000 HD 
BRANCH  13  16
HETATM   16  C   UNL     1      -9.579   8.348  72.244  1.00  0.00    -0.374 A  
HETATM   17  C   UNL     1      -9.395   7.758  73.504  1.00  0.00    -0.351 A  
HETATM   18  C   UNL     1      -8.117   7.631  74.049  1.00  0.00    -0.227 A  
HETATM   19  C   UNL     1      -7.004   8.074  73.338  1.00  0.00    -0.132 A  
HETATM   20  C   UNL     1      -7.164   8.636  72.078  1.00  0.00    -0.074 A  
HETATM   21  C   UNL     1      -8.438   8.763  71.530  1.00  0.00    -0.230 A  
ENDBRANCH  13  16
ENDBRANCH  11  13
ENDBRANCH  10  11
ENDBRANCH   8  10
TORSDOF 4
ENDMDL
MODEL      227
REMARK 921   NORMALIZED FREE ENERGY PREDICTED BY IDOCK:   -2.64 KCAL/MOL
REMARK 922        TOTAL FREE ENERGY PREDICTED BY IDOCK:   -4.18 KCAL/MOL
REMARK 923 INTER-LIGAND FREE ENERGY PREDICTED BY IDOCK:   -4.48 KCAL/MOL
REMARK 924 INTRA-LIGAND FREE ENERGY PREDICTED BY IDOCK:    0.30 KCAL/MOL
REMARK 927      BINDING AFFINITY PREDICTED BY RF-SCORE:    0.00 PKD
ROOT
HETATM    1  C   UNL     1      -9.220  10.504  65.665  1.00  0.00    -0.186 C  
HETATM    2  C   UNL     1      -8.219  11.212  66.585  1.00  0.00    -0.158 C  
HETATM    3  C   UNL     1      -8.863  12.563  66.887  1.00  0.00    -0.203 C  
HETATM    4  C   UNL     1     -10.215  12.511  66.171  1.00  0.00    -0.252 C  
HETATM    5  C   UNL     1     -11.298  11.931  67.094  1.00  0.00    -0.393 C  
HETATM    6  N   UNL     1      -9.893  11.639  65.036  1.00  0.00    -0.251 NA 
HETATM    7  C   UNL     1     -10.999  11.302  64.155  1.00  0.00    -0.305 C  
HETATM    8  C   UNL     1     -11.241  10.407  67.278  1.00  0.00    -0.075 C  
HETATM    9  C   UNL     1     -10.188   9.632  66.465  1.00  0.00    -0.294 C  
ENDROOT
BRANCH   8  10
HETATM   10  O   UNL     1     -11.029  10.063  68.660  1.00  0.00    -0.227 OA 
BRANCH  10  11
HETATM   11  C   UNL     1     -10.278   8.927  68.824  1.00  0.00    -0.206 C  
HETATM   12  O   UNL     1     -10.524   7.856  68.282  1.00  0.00    -0.202 OA 
BRANCH  11  13
HETATM   13  C   UNL     1      -9.059   9.216  69.711  1.00  0.00    -0.167 C  
HETATM   14  O   UNL     1      -9.056  10.605  70.077  1.00  0.00    -0.286 OA 
HETATM   15  H   UNL     1      -8.302  10.783  70.626  1.00  0.00     0.000 HD 
BRANCH  13  16
HETATM   16  C   UNL     1      -8.955   8.355  70.953  1.00  0.00    -0.188 A  
HETATM   17  C   UNL     1      -8.082   7.258  71.016  1.00  0.00    -0.103 A  
HETATM   18  C   UNL     1      -7.973   6.502  72.184  1.00  0.00    -0.102 A  
HETATM   19  C   UNL     1      -8.718   6.843  73.312  1.00  0.00    -0.145 A  
HETATM   20  C   UNL     1      -9.566   7.942  73.277  1.00  0.00    -0.351 A  
HETATM   21  C   UNL     1      -9.677   8.699  72.113  1.00  0.00    -0.383 A  
ENDBRANCH  13  16
ENDBRANCH  11  13
ENDBRANCH  10  11
ENDBRANCH   8  10
TORSDOF 4
ENDMDL
MODEL      228
REMARK 921   NORMALIZED FREE ENERGY PREDICTED BY IDOCK:   -2.64 KCAL/MOL
REMARK 922        TOTAL FREE ENERGY PREDICTED BY IDOCK:   -4.18 KCAL/MOL
REMARK 923 INTER-LIGAND FREE ENERGY PREDICTED BY IDOCK:   -4.01 KCAL/MOL
REMARK 924 INTRA-LIGAND FREE ENERGY PREDICTED BY IDOCK:   -0.17 KCAL/MOL
REMARK 927      BINDING AFFINITY PREDICTED BY RF-SCORE:    0.00 PKD
ROOT
HETATM    1  C   UNL     1     -11.519  14.624  67.506  1.00  0.00    -0.361 C  
HETATM    2  C   UNL     1     -12.461  14.036  66.450  1.00  0.00    -0.395 C  
HETATM    3  C   UNL     1     -11.539  13.592  65.317  1.00  0.00    -0.334 C  
HETATM    4  C   UNL     1     -10.130  13.898  65.829  1.00  0.00    -0.320 C  
HETATM    5  C   UNL     1      -9.555  12.698  66.596  1.00  0.00    -0.249 C  
HETATM    6  N   UNL     1     -10.393  15.061  66.683  1.00  0.00    -0.272 NA 
HETATM    7  C   UNL     1      -9.251  15.590  67.412  1.00  0.00    -0.202 C  
HETATM    8  C   UNL     1     -10.119  12.508  68.012  1.00  0.00    -0.220 C  
HETATM    9  C   UNL     1     -11.107  13.569  68.533  1.00  0.00    -0.300 C  
ENDROOT
BRANCH   8  10
HETATM   10  O   UNL     1     -10.780  11.235  68.137  1.00  0.00    -0.184 OA 
BRANCH  10  11
HETATM   11  C   UNL     1     -10.397  10.534  69.251  1.00  0.00    -0.227 C  
HETATM   12  O   UNL     1     -11.028  10.514  70.302  1.00  0.00    -0.292 OA 
BRANCH  11  13
HETATM   13  C   UNL     1      -9.121   9.729  68.964  1.00  0.00    -0.157 C  
HETATM   14  O   UNL     1      -8.831   9.785  67.559  1.00  0.00    -0.125 OA 
HETATM   15  H   UNL     1      -8.042   9.287  67.382  1.00  0.00     0.000 HD 
BRANCH  13  16
HETATM   16  C   UNL     1      -7.905  10.154  69.760  1.00  0.00    -0.175 A  
HETATM   17  C   UNL     1      -7.393   9.362  70.799  1.00  0.00    -0.126 A  
HETATM   18  C   UNL     1      -6.247   9.754  71.493  1.00  0.00     0.148 A  
HETATM   19  C   UNL     1      -5.586  10.932  71.147  1.00  0.00     0.004 A  
HETATM   20  C   UNL     1      -6.063  11.714  70.103  1.00  0.00    -0.155 A  
HETATM   21  C   UNL     1      -7.206  11.325  69.409  1.00  0.00    -0.063 A  
ENDBRANCH  13  16
ENDBRANCH  11  13
ENDBRANCH  10  11
ENDBRANCH   8  10
TORSDOF 4
ENDMDL
MODEL      229
REMARK 921   NORMALIZED FREE ENERGY PREDICTED BY IDOCK:   -2.63 KCAL/MOL
REMARK 922        TOTAL FREE ENERGY PREDICTED BY IDOCK:   -4.17 KCAL/MOL
REMARK 923 INTER-LIGAND FREE ENERGY PREDICTED BY IDOCK:   -3.46 KCAL/MOL
REMARK 924 INTRA-LIGAND FREE ENERGY PREDICTED BY IDOCK:   -0.71 KCAL/MOL
REMARK 927      BINDING AFFINITY PREDICTED BY RF-SCORE:    0.00 PKD
ROOT
HETATM    1  C   UNL     1      -8.528   7.221  65.459  1.00  0.00    -0.111 C  
HETATM    2  C   UNL     1      -7.565   6.301  64.702  1.00  0.00    -0.098 C  
HETATM    3  C   UNL     1      -6.179   6.694  65.209  1.00  0.00    -0.038 C  
HETATM    4  C   UNL     1      -6.449   7.766  66.267  1.00  0.00    -0.046 C  
HETATM    5  C   UNL     1      -6.637   7.130  67.653  1.00  0.00    -0.056 C  
HETATM    6  N   UNL     1      -7.674   8.375  65.737  1.00  0.00    -0.091 NA 
HETATM    7  C   UNL     1      -8.274   9.417  66.554  1.00  0.00    -0.115 C  
HETATM    8  C   UNL     1      -7.998   6.451  67.872  1.00  0.00    -0.111 C  
HETATM    9  C   UNL     1      -9.037   6.560  66.740  1.00  0.00    -0.153 C  
ENDROOT
BRANCH   8  10
HETATM   10  O   UNL     1      -7.835   5.047  68.148  1.00  0.00    -0.086 OA 
BRANCH  10  11
HETATM   11  C   UNL     1      -8.022   4.731  69.468  1.00  0.00    -0.066 C  
HETATM   12  O   UNL     1      -7.185   4.915  70.344  1.00  0.00    -0.051 OA 
BRANCH  11  13
HETATM   13  C   UNL     1      -9.442   4.194  69.694  1.00  0.00    -0.189 C  
HETATM   14  O   UNL     1      -9.368   2.898  70.309  1.00  0.00    -0.134 OA 
HETATM   15  H   UNL     1     -10.246   2.566  70.449  1.00  0.00     0.000 HD 
BRANCH  13  16
HETATM   16  C   UNL     1     -10.346   5.099  70.506  1.00  0.00    -0.314 A  
HETATM   17  C   UNL     1     -10.407   5.012  71.906  1.00  0.00    -0.270 A  
HETATM   18  C   UNL     1     -11.216   5.883  72.637  1.00  0.00    -0.335 A  
HETATM   19  C   UNL     1     -11.960   6.864  71.984  1.00  0.00    -0.342 A  
HETATM   20  C   UNL     1     -11.891   6.982  70.601  1.00  0.00    -0.377 A  
HETATM   21  C   UNL     1     -11.083   6.115  69.869  1.00  0.00    -0.481 A  
ENDBRANCH  13  16
ENDBRANCH  11  13
ENDBRANCH  10  11
ENDBRANCH   8  10
TORSDOF 4
ENDMDL
MODEL      230
REMARK 921   NORMALIZED FREE ENERGY PREDICTED BY IDOCK:   -2.60 KCAL/MOL
REMARK 922        TOTAL FREE ENERGY PREDICTED BY IDOCK:   -4.13 KCAL/MOL
REMARK 923 INTER-LIGAND FREE ENERGY PREDICTED BY IDOCK:   -3.62 KCAL/MOL
REMARK 924 INTRA-LIGAND FREE ENERGY PREDICTED BY IDOCK:   -0.51 KCAL/MOL
REMARK 927      BINDING AFFINITY PREDICTED BY RF-SCORE:    0.00 PKD
ROOT
HETATM    1  C   UNL     1     -10.312   9.585  66.008  1.00  0.00    -0.060 C  
HETATM    2  C   UNL     1      -8.810   9.356  65.811  1.00  0.00    -0.204 C  
HETATM    3  C   UNL     1      -8.142  10.311  66.797  1.00  0.00    -0.121 C  
HETATM    4  C   UNL     1      -9.307  10.974  67.535  1.00  0.00    -0.159 C  
HETATM    5  C   UNL     1      -9.697  10.163  68.780  1.00  0.00    -0.174 C  
HETATM    6  N   UNL     1     -10.337  10.965  66.491  1.00  0.00    -0.240 NA 
HETATM    7  C   UNL     1     -11.644  11.471  66.878  1.00  0.00    -0.085 C  
HETATM    8  C   UNL     1     -10.498   8.884  68.493  1.00  0.00    -0.182 C  
HETATM    9  C   UNL     1     -10.894   8.608  67.030  1.00  0.00    -0.024 C  
ENDROOT
BRANCH   8  10
HETATM   10  O   UNL     1      -9.790   7.718  68.954  1.00  0.00    -0.159 OA 
BRANCH  10  11
HETATM   11  C   UNL     1     -10.591   6.830  69.623  1.00  0.00    -0.233 C  
HETATM   12  O   UNL     1     -11.029   5.795  69.134  1.00  0.00    -0.320 OA 
BRANCH  11  13
HETATM   13  C   UNL     1     -10.789   7.280  71.078  1.00  0.00    -0.239 C  
HETATM   14  O   UNL     1     -12.194   7.344  71.368  1.00  0.00    -0.311 OA 
HETATM   15  H   UNL     1     -12.317   7.622  72.268  1.00  0.00     0.000 HD 
BRANCH  13  16
HETATM   16  C   UNL     1     -10.088   6.424  72.112  1.00  0.00    -0.195 A  
HETATM   17  C   UNL     1      -8.786   5.942  71.906  1.00  0.00    -0.138 A  
HETATM   18  C   UNL     1      -8.143   5.188  72.890  1.00  0.00    -0.105 A  
HETATM   19  C   UNL     1      -8.784   4.921  74.099  1.00  0.00    -0.114 A  
HETATM   20  C   UNL     1     -10.062   5.413  74.330  1.00  0.00    -0.278 A  
HETATM   21  C   UNL     1     -10.705   6.166  73.351  1.00  0.00    -0.280 A  
ENDBRANCH  13  16
ENDBRANCH  11  13
ENDBRANCH  10  11
ENDBRANCH   8  10
TORSDOF 4
ENDMDL
MODEL      231
REMARK 921   NORMALIZED FREE ENERGY PREDICTED BY IDOCK:   -2.58 KCAL/MOL
REMARK 922        TOTAL FREE ENERGY PREDICTED BY IDOCK:   -4.11 KCAL/MOL
REMARK 923 INTER-LIGAND FREE ENERGY PREDICTED BY IDOCK:   -3.66 KCAL/MOL
REMARK 924 INTRA-LIGAND FREE ENERGY PREDICTED BY IDOCK:   -0.45 KCAL/MOL
REMARK 927      BINDING AFFINITY PREDICTED BY RF-SCORE:    0.00 PKD
ROOT
HETATM    1  C   UNL     1      -6.920   9.040  64.346  1.00  0.00    -0.089 C  
HETATM    2  C   UNL     1      -6.887   7.514  64.488  1.00  0.00    -0.051 C  
HETATM    3  C   UNL     1      -5.713   7.240  65.424  1.00  0.00    -0.036 C  
HETATM    4  C   UNL     1      -5.194   8.629  65.804  1.00  0.00    -0.034 C  
HETATM    5  C   UNL     1      -5.908   9.153  67.059  1.00  0.00    -0.045 C  
HETATM    6  N   UNL     1      -5.521   9.387  64.591  1.00  0.00    -0.054 NA 
HETATM    7  C   UNL     1      -5.225  10.810  64.628  1.00  0.00    -0.106 C  
HETATM    8  C   UNL     1      -7.339   9.660  66.824  1.00  0.00    -0.091 C  
HETATM    9  C   UNL     1      -7.859   9.673  65.373  1.00  0.00    -0.117 C  
ENDROOT
BRANCH   8  10
HETATM   10  O   UNL     1      -8.288   8.898  67.593  1.00  0.00    -0.109 OA 
BRANCH  10  11
HETATM   11  C   UNL     1      -8.942   9.646  68.537  1.00  0.00    -0.124 C  
HETATM   12  O   UNL     1      -9.563  10.673  68.292  1.00  0.00    -0.153 OA 
BRANCH  11  13
HETATM   13  C   UNL     1      -8.847   8.971  69.913  1.00  0.00    -0.158 C  
HETATM   14  O   UNL     1      -8.234   9.876  70.845  1.00  0.00    -0.363 OA 
HETATM   15  H   UNL     1      -8.175   9.459  71.696  1.00  0.00     0.000 HD 
BRANCH  13  16
HETATM   16  C   UNL     1     -10.163   8.470  70.471  1.00  0.00    -0.220 A  
HETATM   17  C   UNL     1     -10.750   7.280  70.014  1.00  0.00    -0.261 A  
HETATM   18  C   UNL     1     -11.943   6.816  70.570  1.00  0.00    -0.385 A  
HETATM   19  C   UNL     1     -12.556   7.523  71.603  1.00  0.00    -0.376 A  
HETATM   20  C   UNL     1     -11.976   8.689  72.086  1.00  0.00    -0.449 A  
HETATM   21  C   UNL     1     -10.785   9.153  71.534  1.00  0.00    -0.437 A  
ENDBRANCH  13  16
ENDBRANCH  11  13
ENDBRANCH  10  11
ENDBRANCH   8  10
TORSDOF 4
ENDMDL
MODEL      232
REMARK 921   NORMALIZED FREE ENERGY PREDICTED BY IDOCK:   -2.57 KCAL/MOL
REMARK 922        TOTAL FREE ENERGY PREDICTED BY IDOCK:   -4.09 KCAL/MOL
REMARK 923 INTER-LIGAND FREE ENERGY PREDICTED BY IDOCK:   -3.48 KCAL/MOL
REMARK 924 INTRA-LIGAND FREE ENERGY PREDICTED BY IDOCK:   -0.61 KCAL/MOL
REMARK 927      BINDING AFFINITY PREDICTED BY RF-SCORE:    0.00 PKD
ROOT
HETATM    1  C   UNL     1      -9.324   4.426  67.518  1.00  0.00    -0.154 C  
HETATM    2  C   UNL     1      -8.373   3.916  68.605  1.00  0.00    -0.091 C  
HETATM    3  C   UNL     1      -7.138   4.805  68.484  1.00  0.00    -0.057 C  
HETATM    4  C   UNL     1      -7.493   5.803  67.379  1.00  0.00    -0.081 C  
HETATM    5  C   UNL     1      -8.175   7.048  67.967  1.00  0.00    -0.119 C  
HETATM    6  N   UNL     1      -8.386   4.990  66.549  1.00  0.00    -0.108 NA 
HETATM    7  C   UNL     1      -8.990   5.663  65.410  1.00  0.00    -0.069 C  
HETATM    8  C   UNL     1      -9.643   6.847  68.374  1.00  0.00    -0.126 C  
HETATM    9  C   UNL     1     -10.284   5.480  68.070  1.00  0.00    -0.233 C  
ENDROOT
BRANCH   8  10
HETATM   10  O   UNL     1      -9.824   7.082  69.783  1.00  0.00    -0.168 OA 
BRANCH  10  11
HETATM   11  C   UNL     1      -9.802   8.412  70.116  1.00  0.00    -0.181 C  
HETATM   12  O   UNL     1      -8.867   8.963  70.685  1.00  0.00    -0.160 OA 
BRANCH  11  13
HETATM   13  C   UNL     1     -11.070   9.111  69.607  1.00  0.00    -0.087 C  
HETATM   14  O   UNL     1     -11.829   9.594  70.727  1.00  0.00    -0.283 OA 
HETATM   15  H   UNL     1     -12.613  10.027  70.413  1.00  0.00     0.000 HD 
BRANCH  13  16
HETATM   16  C   UNL     1     -10.827  10.239  68.625  1.00  0.00    -0.272 A  
HETATM   17  C   UNL     1     -10.560  11.547  69.059  1.00  0.00    -0.207 A  
HETATM   18  C   UNL     1     -10.299  12.562  68.137  1.00  0.00    -0.236 A  
HETATM   19  C   UNL     1     -10.283  12.282  66.772  1.00  0.00    -0.229 A  
HETATM   20  C   UNL     1     -10.518  10.987  66.326  1.00  0.00    -0.310 A  
HETATM   21  C   UNL     1     -10.777   9.972  67.243  1.00  0.00    -0.309 A  
ENDBRANCH  13  16
ENDBRANCH  11  13
ENDBRANCH  10  11
ENDBRANCH   8  10
TORSDOF 4
ENDMDL
MODEL      233
REMARK 921   NORMALIZED FREE ENERGY PREDICTED BY IDOCK:   -2.50 KCAL/MOL
REMARK 922        TOTAL FREE ENERGY PREDICTED BY IDOCK:   -4.00 KCAL/MOL
REMARK 923 INTER-LIGAND FREE ENERGY PREDICTED BY IDOCK:   -3.53 KCAL/MOL
REMARK 924 INTRA-LIGAND FREE ENERGY PREDICTED BY IDOCK:   -0.47 KCAL/MOL
REMARK 927      BINDING AFFINITY PREDICTED BY RF-SCORE:    0.00 PKD
ROOT
HETATM    1  C   UNL     1      -9.582   9.489  66.141  1.00  0.00    -0.239 C  
HETATM    2  C   UNL     1      -8.897   8.230  65.599  1.00  0.00    -0.172 C  
HETATM    3  C   UNL     1      -7.695   8.021  66.517  1.00  0.00    -0.093 C  
HETATM    4  C   UNL     1      -7.811   9.136  67.558  1.00  0.00    -0.100 C  
HETATM    5  C   UNL     1      -8.649   8.675  68.760  1.00  0.00    -0.130 C  
HETATM    6  N   UNL     1      -8.461  10.186  66.767  1.00  0.00    -0.126 NA 
HETATM    7  C   UNL     1      -8.801  11.406  67.481  1.00  0.00    -0.146 C  
HETATM    8  C   UNL     1     -10.165   8.634  68.513  1.00  0.00    -0.195 C  
HETATM    9  C   UNL     1     -10.676   9.136  67.149  1.00  0.00    -0.213 C  
ENDROOT
BRANCH   8  10
HETATM   10  O   UNL     1     -10.678   7.299  68.678  1.00  0.00    -0.203 OA 
BRANCH  10  11
HETATM   11  C   UNL     1     -10.822   6.934  69.991  1.00  0.00    -0.262 C  
HETATM   12  O   UNL     1     -11.087   7.716  70.897  1.00  0.00    -0.253 OA 
BRANCH  11  13
HETATM   13  C   UNL     1     -10.683   5.412  70.142  1.00  0.00    -0.225 C  
HETATM   14  O   UNL     1     -10.036   4.877  68.977  1.00  0.00    -0.181 OA 
HETATM   15  H   UNL     1      -9.950   3.936  69.070  1.00  0.00     0.000 HD 
BRANCH  13  16
HETATM   16  C   UNL     1      -9.955   4.958  71.391  1.00  0.00    -0.266 A  
HETATM   17  C   UNL     1     -10.641   4.693  72.586  1.00  0.00    -0.259 A  
HETATM   18  C   UNL     1      -9.956   4.238  73.713  1.00  0.00    -0.174 A  
HETATM   19  C   UNL     1      -8.580   4.022  73.657  1.00  0.00    -0.091 A  
HETATM   20  C   UNL     1      -7.889   4.253  72.475  1.00  0.00    -0.084 A  
HETATM   21  C   UNL     1      -8.570   4.707  71.348  1.00  0.00    -0.123 A  
ENDBRANCH  13  16
ENDBRANCH  11  13
ENDBRANCH  10  11
ENDBRANCH   8  10
TORSDOF 4
ENDMDL
MODEL      234
REMARK 921   NORMALIZED FREE ENERGY PREDICTED BY IDOCK:   -2.36 KCAL/MOL
REMARK 922        TOTAL FREE ENERGY PREDICTED BY IDOCK:   -3.83 KCAL/MOL
REMARK 923 INTER-LIGAND FREE ENERGY PREDICTED BY IDOCK:   -4.16 KCAL/MOL
REMARK 924 INTRA-LIGAND FREE ENERGY PREDICTED BY IDOCK:    0.34 KCAL/MOL
REMARK 927      BINDING AFFINITY PREDICTED BY RF-SCORE:    0.00 PKD
ROOT
HETATM    1  C   UNL     1      -7.447  10.257  65.942  1.00  0.00    -0.135 C  
HETATM    2  C   UNL     1      -8.407   9.501  65.016  1.00  0.00    -0.148 C  
HETATM    3  C   UNL     1      -8.997   8.399  65.891  1.00  0.00    -0.223 C  
HETATM    4  C   UNL     1      -8.385   8.638  67.273  1.00  0.00    -0.108 C  
HETATM    5  C   UNL     1      -9.261   9.590  68.101  1.00  0.00    -0.134 C  
HETATM    6  N   UNL     1      -7.089   9.216  66.904  1.00  0.00    -0.081 NA 
HETATM    7  C   UNL     1      -6.243   9.645  68.006  1.00  0.00    -0.056 C  
HETATM    8  C   UNL     1      -9.157  11.071  67.706  1.00  0.00    -0.147 C  
HETATM    9  C   UNL     1      -8.140  11.444  66.611  1.00  0.00    -0.155 C  
ENDROOT
BRANCH   8  10
HETATM   10  O   UNL     1     -10.432  11.580  67.274  1.00  0.00    -0.200 OA 
BRANCH  10  11
HETATM   11  C   UNL     1     -10.345  12.391  66.172  1.00  0.00    -0.247 C  
HETATM   12  O   UNL     1     -10.774  12.094  65.063  1.00  0.00    -0.277 OA 
BRANCH  11  13
HETATM   13  C   UNL     1      -9.709  13.737  66.548  1.00  0.00    -0.293 C  
HETATM   14  O   UNL     1      -9.691  14.593  65.395  1.00  0.00    -0.484 OA 
HETATM   15  H   UNL     1      -9.298  15.425  65.628  1.00  0.00     0.000 HD 
BRANCH  13  16
HETATM   16  C   UNL     1     -10.366  14.451  67.711  1.00  0.00    -0.238 A  
HETATM   17  C   UNL     1     -11.747  14.701  67.734  1.00  0.00    -0.386 A  
HETATM   18  C   UNL     1     -12.339  15.324  68.833  1.00  0.00    -0.007 A  
HETATM   19  C   UNL     1     -11.564  15.690  69.932  1.00  0.00    -0.354 A  
HETATM   20  C   UNL     1     -10.200  15.426  69.939  1.00  0.00    -0.279 A  
HETATM   21  C   UNL     1      -9.608  14.803  68.844  1.00  0.00    -0.210 A  
ENDBRANCH  13  16
ENDBRANCH  11  13
ENDBRANCH  10  11
ENDBRANCH   8  10
TORSDOF 4
ENDMDL
MODEL      235
REMARK 921   NORMALIZED FREE ENERGY PREDICTED BY IDOCK:   -2.34 KCAL/MOL
REMARK 922        TOTAL FREE ENERGY PREDICTED BY IDOCK:   -3.80 KCAL/MOL
REMARK 923 INTER-LIGAND FREE ENERGY PREDICTED BY IDOCK:   -3.43 KCAL/MOL
REMARK 924 INTRA-LIGAND FREE ENERGY PREDICTED BY IDOCK:   -0.37 KCAL/MOL
REMARK 927      BINDING AFFINITY PREDICTED BY RF-SCORE:    0.00 PKD
ROOT
HETATM    1  C   UNL     1      -9.233  10.956  68.986  1.00  0.00    -0.115 C  
HETATM    2  C   UNL     1     -10.699  11.054  69.420  1.00  0.00    -0.247 C  
HETATM    3  C   UNL     1     -11.481  10.403  68.282  1.00  0.00    -0.218 C  
HETATM    4  C   UNL     1     -10.406   9.922  67.305  1.00  0.00    -0.245 C  
HETATM    5  C   UNL     1      -9.960   8.492  67.646  1.00  0.00    -0.253 C  
HETATM    6  N   UNL     1      -9.360  10.925  67.529  1.00  0.00    -0.154 NA 
HETATM    7  C   UNL     1      -8.120  10.730  66.796  1.00  0.00    -0.137 C  
HETATM    8  C   UNL     1      -9.026   8.380  68.861  1.00  0.00    -0.146 C  
HETATM    9  C   UNL     1      -8.574   9.690  69.533  1.00  0.00    -0.177 C  
ENDROOT
BRANCH   8  10
HETATM   10  O   UNL     1      -9.620   7.571  69.894  1.00  0.00    -0.161 OA 
BRANCH  10  11
HETATM   11  C   UNL     1      -9.116   6.297  69.938  1.00  0.00    -0.144 C  
HETATM   12  O   UNL     1      -9.155   5.509  69.001  1.00  0.00    -0.112 OA 
BRANCH  11  13
HETATM   13  C   UNL     1      -8.438   6.037  71.291  1.00  0.00    -0.128 C  
HETATM   14  O   UNL     1      -8.040   7.289  71.871  1.00  0.00    -0.098 OA 
HETATM   15  H   UNL     1      -7.620   7.129  72.708  1.00  0.00     0.000 HD 
BRANCH  13  16
HETATM   16  C   UNL     1      -9.270   5.251  72.282  1.00  0.00    -0.153 A  
HETATM   17  C   UNL     1     -10.128   5.889  73.191  1.00  0.00    -0.199 A  
HETATM   18  C   UNL     1     -10.916   5.143  74.069  1.00  0.00    -0.105 A  
HETATM   19  C   UNL     1     -10.873   3.750  74.039  1.00  0.00    -0.270 A  
HETATM   20  C   UNL     1     -10.050   3.101  73.127  1.00  0.00    -0.210 A  
HETATM   21  C   UNL     1      -9.263   3.843  72.250  1.00  0.00    -0.161 A  
ENDBRANCH  13  16
ENDBRANCH  11  13
ENDBRANCH  10  11
ENDBRANCH   8  10
TORSDOF 4
ENDMDL
MODEL      236
REMARK 921   NORMALIZED FREE ENERGY PREDICTED BY IDOCK:   -2.27 KCAL/MOL
REMARK 922        TOTAL FREE ENERGY PREDICTED BY IDOCK:   -3.73 KCAL/MOL
REMARK 923 INTER-LIGAND FREE ENERGY PREDICTED BY IDOCK:   -3.42 KCAL/MOL
REMARK 924 INTRA-LIGAND FREE ENERGY PREDICTED BY IDOCK:   -0.31 KCAL/MOL
REMARK 927      BINDING AFFINITY PREDICTED BY RF-SCORE:    0.00 PKD
ROOT
HETATM    1  C   UNL     1      -8.498  11.120  66.391  1.00  0.00    -0.167 C  
HETATM    2  C   UNL     1      -9.606  10.538  65.507  1.00  0.00    -0.282 C  
HETATM    3  C   UNL     1      -8.996   9.272  64.910  1.00  0.00    -0.229 C  
HETATM    4  C   UNL     1      -7.606   9.182  65.543  1.00  0.00    -0.090 C  
HETATM    5  C   UNL     1      -7.654   8.388  66.857  1.00  0.00    -0.091 C  
HETATM    6  N   UNL     1      -7.298  10.603  65.735  1.00  0.00    -0.138 NA 
HETATM    7  C   UNL     1      -6.041  10.900  66.403  1.00  0.00    -0.131 C  
HETATM    8  C   UNL     1      -8.241   9.153  68.053  1.00  0.00    -0.112 C  
HETATM    9  C   UNL     1      -8.623  10.629  67.833  1.00  0.00    -0.124 C  
ENDROOT
BRANCH   8  10
HETATM   10  O   UNL     1      -9.417   8.495  68.558  1.00  0.00    -0.142 OA 
BRANCH  10  11
HETATM   11  C   UNL     1      -9.895   9.056  69.714  1.00  0.00    -0.180 C  
HETATM   12  O   UNL     1     -10.850   9.823  69.763  1.00  0.00    -0.231 OA 
BRANCH  11  13
HETATM   13  C   UNL     1      -9.117   8.526  70.927  1.00  0.00    -0.172 C  
HETATM   14  O   UNL     1      -9.330   9.401  72.047  1.00  0.00    -0.098 OA 
HETATM   15  H   UNL     1      -8.849   9.073  72.797  1.00  0.00     0.000 HD 
BRANCH  13  16
HETATM   16  C   UNL     1      -9.440   7.099  71.319  1.00  0.00    -0.163 A  
HETATM   17  C   UNL     1      -8.467   6.088  71.280  1.00  0.00    -0.128 A  
HETATM   18  C   UNL     1      -8.776   4.789  71.683  1.00  0.00    -0.134 A  
HETATM   19  C   UNL     1     -10.054   4.484  72.149  1.00  0.00    -0.260 A  
HETATM   20  C   UNL     1     -11.022   5.478  72.220  1.00  0.00    -0.296 A  
HETATM   21  C   UNL     1     -10.716   6.776  71.819  1.00  0.00    -0.250 A  
ENDBRANCH  13  16
ENDBRANCH  11  13
ENDBRANCH  10  11
ENDBRANCH   8  10
TORSDOF 4
ENDMDL
MODEL      237
REMARK 921   NORMALIZED FREE ENERGY PREDICTED BY IDOCK:   -2.22 KCAL/MOL
REMARK 922        TOTAL FREE ENERGY PREDICTED BY IDOCK:   -3.66 KCAL/MOL
REMARK 923 INTER-LIGAND FREE ENERGY PREDICTED BY IDOCK:   -2.79 KCAL/MOL
REMARK 924 INTRA-LIGAND FREE ENERGY PREDICTED BY IDOCK:   -0.88 KCAL/MOL
REMARK 927      BINDING AFFINITY PREDICTED BY RF-SCORE:    0.00 PKD
ROOT
HETATM    1  C   UNL     1      -7.660   8.354  69.735  1.00  0.00    -0.087 C  
HETATM    2  C   UNL     1      -8.930   8.536  70.573  1.00  0.00    -0.171 C  
HETATM    3  C   UNL     1      -9.853   9.378  69.696  1.00  0.00    -0.205 C  
HETATM    4  C   UNL     1      -9.074   9.566  68.392  1.00  0.00    -0.127 C  
HETATM    5  C   UNL     1      -9.381   8.430  67.405  1.00  0.00    -0.178 C  
HETATM    6  N   UNL     1      -7.694   9.546  68.889  1.00  0.00    -0.075 NA 
HETATM    7  C   UNL     1      -6.651   9.629  67.880  1.00  0.00    -0.062 C  
HETATM    8  C   UNL     1      -8.691   7.095  67.722  1.00  0.00    -0.125 C  
HETATM    9  C   UNL     1      -7.716   7.065  68.915  1.00  0.00    -0.110 C  
ENDROOT
BRANCH   8  10
HETATM   10  O   UNL     1      -9.661   6.057  67.958  1.00  0.00    -0.116 OA 
BRANCH  10  11
HETATM   11  C   UNL     1      -9.117   4.799  67.951  1.00  0.00    -0.116 C  
HETATM   12  O   UNL     1      -8.271   4.420  67.150  1.00  0.00    -0.101 OA 
BRANCH  11  13
HETATM   13  C   UNL     1      -9.662   3.975  69.127  1.00  0.00    -0.107 C  
HETATM   14  O   UNL     1      -9.038   2.681  69.129  1.00  0.00    -0.102 OA 
HETATM   15  H   UNL     1      -9.375   2.171  69.856  1.00  0.00     0.000 HD 
BRANCH  13  16
HETATM   16  C   UNL     1      -9.507   4.624  70.487  1.00  0.00    -0.247 A  
HETATM   17  C   UNL     1     -10.544   5.371  71.067  1.00  0.00    -0.275 A  
HETATM   18  C   UNL     1     -10.395   5.926  72.338  1.00  0.00    -0.230 A  
HETATM   19  C   UNL     1      -9.216   5.728  73.056  1.00  0.00    -0.140 A  
HETATM   20  C   UNL     1      -8.190   4.969  72.509  1.00  0.00    -0.116 A  
HETATM   21  C   UNL     1      -8.337   4.412  71.240  1.00  0.00    -0.099 A  
ENDBRANCH  13  16
ENDBRANCH  11  13
ENDBRANCH  10  11
ENDBRANCH   8  10
TORSDOF 4
ENDMDL
MODEL      238
REMARK 921   NORMALIZED FREE ENERGY PREDICTED BY IDOCK:   -2.17 KCAL/MOL
REMARK 922        TOTAL FREE ENERGY PREDICTED BY IDOCK:   -3.60 KCAL/MOL
REMARK 923 INTER-LIGAND FREE ENERGY PREDICTED BY IDOCK:   -4.24 KCAL/MOL
REMARK 924 INTRA-LIGAND FREE ENERGY PREDICTED BY IDOCK:    0.64 KCAL/MOL
REMARK 927      BINDING AFFINITY PREDICTED BY RF-SCORE:    0.00 PKD
ROOT
HETATM    1  C   UNL     1      -8.202  16.739  68.753  1.00  0.00    -0.250 C  
HETATM    2  C   UNL     1      -8.726  17.162  67.377  1.00  0.00    -0.211 C  
HETATM    3  C   UNL     1      -7.472  17.318  66.520  1.00  0.00    -0.315 C  
HETATM    4  C   UNL     1      -6.323  16.913  67.446  1.00  0.00    -0.156 C  
HETATM    5  C   UNL     1      -6.048  15.405  67.347  1.00  0.00    -0.000 C  
HETATM    6  N   UNL     1      -6.860  17.321  68.748  1.00  0.00    -0.208 NA 
HETATM    7  C   UNL     1      -6.037  17.010  69.905  1.00  0.00    -0.185 C  
HETATM    8  C   UNL     1      -7.063  14.515  68.079  1.00  0.00    -0.140 C  
HETATM    9  C   UNL     1      -8.168  15.217  68.892  1.00  0.00    -0.186 C  
ENDROOT
BRANCH   8  10
HETATM   10  O   UNL     1      -7.730  13.629  67.160  1.00  0.00    -0.113 OA 
BRANCH  10  11
HETATM   11  C   UNL     1      -8.580  12.749  67.779  1.00  0.00    -0.184 C  
HETATM   12  O   UNL     1      -9.227  13.011  68.786  1.00  0.00    -0.018 OA 
BRANCH  11  13
HETATM   13  C   UNL     1      -8.658  11.436  66.987  1.00  0.00    -0.157 C  
HETATM   14  O   UNL     1      -9.184  10.402  67.834  1.00  0.00    -0.137 OA 
HETATM   15  H   UNL     1      -9.232   9.590  67.345  1.00  0.00     0.000 HD 
BRANCH  13  16
HETATM   16  C   UNL     1      -9.462  11.510  65.705  1.00  0.00    -0.255 A  
HETATM   17  C   UNL     1     -10.432  12.503  65.503  1.00  0.00    -0.305 A  
HETATM   18  C   UNL     1     -11.133  12.578  64.298  1.00  0.00    -0.403 A  
HETATM   19  C   UNL     1     -10.861  11.674  63.272  1.00  0.00    -0.380 A  
HETATM   20  C   UNL     1      -9.884  10.701  63.445  1.00  0.00    -0.376 A  
HETATM   21  C   UNL     1      -9.183  10.626  64.646  1.00  0.00    -0.262 A  
ENDBRANCH  13  16
ENDBRANCH  11  13
ENDBRANCH  10  11
ENDBRANCH   8  10
TORSDOF 4
ENDMDL
MODEL      239
REMARK 921   NORMALIZED FREE ENERGY PREDICTED BY IDOCK:   -2.17 KCAL/MOL
REMARK 922        TOTAL FREE ENERGY PREDICTED BY IDOCK:   -3.60 KCAL/MOL
REMARK 923 INTER-LIGAND FREE ENERGY PREDICTED BY IDOCK:   -3.14 KCAL/MOL
REMARK 924 INTRA-LIGAND FREE ENERGY PREDICTED BY IDOCK:   -0.46 KCAL/MOL
REMARK 927      BINDING AFFINITY PREDICTED BY RF-SCORE:    0.00 PKD
ROOT
HETATM    1  C   UNL     1      -9.131   3.979  66.335  1.00  0.00    -0.138 C  
HETATM    2  C   UNL     1      -9.696   3.150  67.493  1.00  0.00     0.065 C  
HETATM    3  C   UNL     1      -8.718   3.379  68.643  1.00  0.00    -0.141 C  
HETATM    4  C   UNL     1      -7.697   4.373  68.084  1.00  0.00    -0.079 C  
HETATM    5  C   UNL     1      -8.145   5.819  68.344  1.00  0.00    -0.108 C  
HETATM    6  N   UNL     1      -7.707   4.010  66.663  1.00  0.00    -0.088 NA 
HETATM    7  C   UNL     1      -6.879   4.825  65.790  1.00  0.00    -0.061 C  
HETATM    8  C   UNL     1      -9.266   6.323  67.423  1.00  0.00    -0.116 C  
HETATM    9  C   UNL     1      -9.745   5.379  66.303  1.00  0.00    -0.181 C  
ENDROOT
BRANCH   8  10
HETATM   10  O   UNL     1     -10.435   6.685  68.183  1.00  0.00    -0.176 OA 
BRANCH  10  11
HETATM   11  C   UNL     1     -10.420   7.988  68.608  1.00  0.00    -0.167 C  
HETATM   12  O   UNL     1     -10.146   8.335  69.751  1.00  0.00    -0.189 OA 
BRANCH  11  13
HETATM   13  C   UNL     1     -10.717   8.936  67.437  1.00  0.00    -0.155 C  
HETATM   14  O   UNL     1     -11.500  10.044  67.910  1.00  0.00    -0.595 OA 
HETATM   15  H   UNL     1     -11.683  10.630  67.186  1.00  0.00     0.000 HD 
BRANCH  13  16
HETATM   16  C   UNL     1      -9.495   9.444  66.702  1.00  0.00    -0.230 A  
HETATM   17  C   UNL     1      -8.496  10.181  67.358  1.00  0.00    -0.122 A  
HETATM   18  C   UNL     1      -7.359  10.606  66.670  1.00  0.00    -0.129 A  
HETATM   19  C   UNL     1      -7.193  10.285  65.324  1.00  0.00    -0.134 A  
HETATM   20  C   UNL     1      -8.157   9.533  64.666  1.00  0.00    -0.136 A  
HETATM   21  C   UNL     1      -9.293   9.107  65.350  1.00  0.00    -0.258 A  
ENDBRANCH  13  16
ENDBRANCH  11  13
ENDBRANCH  10  11
ENDBRANCH   8  10
TORSDOF 4
ENDMDL
MODEL      240
REMARK 921   NORMALIZED FREE ENERGY PREDICTED BY IDOCK:   -1.96 KCAL/MOL
REMARK 922        TOTAL FREE ENERGY PREDICTED BY IDOCK:   -3.34 KCAL/MOL
REMARK 923 INTER-LIGAND FREE ENERGY PREDICTED BY IDOCK:   -2.74 KCAL/MOL
REMARK 924 INTRA-LIGAND FREE ENERGY PREDICTED BY IDOCK:   -0.61 KCAL/MOL
REMARK 927      BINDING AFFINITY PREDICTED BY RF-SCORE:    0.00 PKD
ROOT
HETATM    1  C   UNL     1      -8.498  10.331  67.036  1.00  0.00    -0.129 C  
HETATM    2  C   UNL     1      -9.953  10.170  67.490  1.00  0.00    -0.231 C  
HETATM    3  C   UNL     1     -10.508   9.051  66.614  1.00  0.00    -0.235 C  
HETATM    4  C   UNL     1      -9.317   8.604  65.763  1.00  0.00    -0.158 C  
HETATM    5  C   UNL     1      -8.530   7.489  66.468  1.00  0.00    -0.131 C  
HETATM    6  N   UNL     1      -8.570   9.861  65.654  1.00  0.00    -0.140 NA 
HETATM    7  C   UNL     1      -7.300   9.790  64.949  1.00  0.00    -0.129 C  
HETATM    8  C   UNL     1      -7.636   7.962  67.624  1.00  0.00    -0.109 C  
HETATM    9  C   UNL     1      -7.554   9.479  67.885  1.00  0.00    -0.087 C  
ENDROOT
BRANCH   8  10
HETATM   10  O   UNL     1      -8.033   7.353  68.867  1.00  0.00    -0.121 OA 
BRANCH  10  11
HETATM   11  C   UNL     1      -7.474   6.117  69.065  1.00  0.00    -0.087 C  
HETATM   12  O   UNL     1      -6.277   5.877  68.952  1.00  0.00    -0.032 OA 
BRANCH  11  13
HETATM   13  C   UNL     1      -8.543   5.113  69.519  1.00  0.00    -0.092 C  
HETATM   14  O   UNL     1      -9.803   5.789  69.652  1.00  0.00    -0.158 OA 
HETATM   15  H   UNL     1     -10.465   5.169  69.933  1.00  0.00     0.000 HD 
BRANCH  13  16
HETATM   16  C   UNL     1      -8.701   3.900  68.625  1.00  0.00    -0.133 A  
HETATM   17  C   UNL     1      -8.292   3.918  67.283  1.00  0.00    -0.099 A  
HETATM   18  C   UNL     1      -8.410   2.777  66.489  1.00  0.00    -0.093 A  
HETATM   19  C   UNL     1      -8.920   1.597  67.028  1.00  0.00    -0.132 A  
HETATM   20  C   UNL     1      -9.305   1.553  68.362  1.00  0.00    -0.233 A  
HETATM   21  C   UNL     1      -9.187   2.690  69.157  1.00  0.00    -0.209 A  
ENDBRANCH  13  16
ENDBRANCH  11  13
ENDBRANCH  10  11
ENDBRANCH   8  10
TORSDOF 4
ENDMDL
MODEL      241
REMARK 921   NORMALIZED FREE ENERGY PREDICTED BY IDOCK:   -1.45 KCAL/MOL
REMARK 922        TOTAL FREE ENERGY PREDICTED BY IDOCK:   -2.71 KCAL/MOL
REMARK 923 INTER-LIGAND FREE ENERGY PREDICTED BY IDOCK:   -2.17 KCAL/MOL
REMARK 924 INTRA-LIGAND FREE ENERGY PREDICTED BY IDOCK:   -0.55 KCAL/MOL
REMARK 927      BINDING AFFINITY PREDICTED BY RF-SCORE:    0.00 PKD
ROOT
HETATM    1  C   UNL     1     -12.266  16.447  71.458  1.00  0.00     0.085 C  
HETATM    2  C   UNL     1     -11.286  16.229  72.617  1.00  0.00     0.311 C  
HETATM    3  C   UNL     1     -11.410  14.744  72.950  1.00  0.00     0.430 C  
HETATM    4  C   UNL     1     -12.403  14.202  71.920  1.00  0.00    -0.193 C  
HETATM    5  C   UNL     1     -11.673  13.727  70.655  1.00  0.00    -0.158 C  
HETATM    6  N   UNL     1     -13.241  15.384  71.696  1.00  0.00    -0.444 NA 
HETATM    7  C   UNL     1     -14.280  15.250  70.688  1.00  0.00     0.412 C  
HETATM    8  C   UNL     1     -11.193  14.852  69.726  1.00  0.00    -0.280 C  
HETATM    9  C   UNL     1     -11.569  16.297  70.106  1.00  0.00    -0.149 C  
ENDROOT
BRANCH   8  10
HETATM   10  O   UNL     1      -9.761  14.825  69.580  1.00  0.00    -0.097 OA 
BRANCH  10  11
HETATM   11  C   UNL     1      -9.342  15.119  68.308  1.00  0.00    -0.193 C  
HETATM   12  O   UNL     1      -9.535  16.193  67.751  1.00  0.00    -0.215 OA 
BRANCH  11  13
HETATM   13  C   UNL     1      -8.539  13.946  67.725  1.00  0.00    -0.182 C  
HETATM   14  O   UNL     1      -7.314  13.798  68.460  1.00  0.00    -0.104 OA 
HETATM   15  H   UNL     1      -6.818  13.073  68.100  1.00  0.00     0.000 HD 
BRANCH  13  16
HETATM   16  C   UNL     1      -9.278  12.625  67.683  1.00  0.00    -0.191 A  
HETATM   17  C   UNL     1     -10.544  12.509  67.088  1.00  0.00    -0.247 A  
HETATM   18  C   UNL     1     -11.190  11.274  67.025  1.00  0.00    -0.324 A  
HETATM   19  C   UNL     1     -10.573  10.133  67.537  1.00  0.00    -0.327 A  
HETATM   20  C   UNL     1      -9.309  10.224  68.105  1.00  0.00    -0.144 A  
HETATM   21  C   UNL     1      -8.662  11.456  68.169  1.00  0.00    -0.154 A  
ENDBRANCH  13  16
ENDBRANCH  11  13
ENDBRANCH  10  11
ENDBRANCH   8  10
TORSDOF 4
ENDMDL
MODEL      242
REMARK 921   NORMALIZED FREE ENERGY PREDICTED BY IDOCK:   -1.28 KCAL/MOL
REMARK 922        TOTAL FREE ENERGY PREDICTED BY IDOCK:   -2.50 KCAL/MOL
REMARK 923 INTER-LIGAND FREE ENERGY PREDICTED BY IDOCK:   -2.81 KCAL/MOL
REMARK 924 INTRA-LIGAND FREE ENERGY PREDICTED BY IDOCK:    0.31 KCAL/MOL
REMARK 927      BINDING AFFINITY PREDICTED BY RF-SCORE:    0.00 PKD
ROOT
HETATM    1  C   UNL     1      -9.453  10.200  67.569  1.00  0.00    -0.152 C  
HETATM    2  C   UNL     1      -8.238   9.518  66.932  1.00  0.00    -0.113 C  
HETATM    3  C   UNL     1      -7.033  10.183  67.593  1.00  0.00    -0.085 C  
HETATM    4  C   UNL     1      -7.642  11.154  68.608  1.00  0.00    -0.127 C  
HETATM    5  C   UNL     1      -7.847  10.466  69.966  1.00  0.00     0.043 C  
HETATM    6  N   UNL     1      -8.899  11.501  67.937  1.00  0.00    -0.146 NA 
HETATM    7  C   UNL     1      -9.794  12.379  68.674  1.00  0.00    -0.077 C  
HETATM    8  C   UNL     1      -9.049   9.512  70.031  1.00  0.00    -0.227 C  
HETATM    9  C   UNL     1      -9.953   9.421  68.786  1.00  0.00    -0.191 C  
ENDROOT
BRANCH   8  10
HETATM   10  O   UNL     1      -8.627   8.169  70.330  1.00  0.00    -0.126 OA 
BRANCH  10  11
HETATM   11  C   UNL     1      -9.672   7.298  70.496  1.00  0.00    -0.176 C  
HETATM   12  O   UNL     1     -10.850   7.635  70.530  1.00  0.00    -0.232 OA 
BRANCH  11  13
HETATM   13  C   UNL     1      -9.159   5.852  70.551  1.00  0.00    -0.148 C  
HETATM   14  O   UNL     1      -7.838   5.795  69.989  1.00  0.00    -0.088 OA 
HETATM   15  H   UNL     1      -7.521   4.900  70.023  1.00  0.00     0.000 HD 
BRANCH  13  16
HETATM   16  C   UNL     1      -9.160   5.226  71.930  1.00  0.00    -0.153 A  
HETATM   17  C   UNL     1      -8.006   5.202  72.728  1.00  0.00    -0.098 A  
HETATM   18  C   UNL     1      -8.040   4.656  74.011  1.00  0.00    -0.101 A  
HETATM   19  C   UNL     1      -9.231   4.143  74.524  1.00  0.00    -0.117 A  
HETATM   20  C   UNL     1     -10.389   4.184  73.759  1.00  0.00    -0.239 A  
HETATM   21  C   UNL     1     -10.359   4.729  72.478  1.00  0.00    -0.259 A  
ENDBRANCH  13  16
ENDBRANCH  11  13
ENDBRANCH  10  11
ENDBRANCH   8  10
TORSDOF 4
ENDMDL
MODEL      243
REMARK 921   NORMALIZED FREE ENERGY PREDICTED BY IDOCK:   11.50 KCAL/MOL
REMARK 922        TOTAL FREE ENERGY PREDICTED BY IDOCK:   13.27 KCAL/MOL
REMARK 923 INTER-LIGAND FREE ENERGY PREDICTED BY IDOCK:   13.30 KCAL/MOL
REMARK 924 INTRA-LIGAND FREE ENERGY PREDICTED BY IDOCK:   -0.03 KCAL/MOL
REMARK 927      BINDING AFFINITY PREDICTED BY RF-SCORE:    0.00 PKD
ROOT
HETATM    1  C   UNL     1     -10.348  14.892  71.032  1.00  0.00     0.814 C  
HETATM    2  C   UNL     1     -11.713  15.522  70.737  1.00  0.00    -0.397 C  
HETATM    3  C   UNL     1     -12.023  15.114  69.299  1.00  0.00    -0.322 C  
HETATM    4  C   UNL     1     -10.845  14.226  68.891  1.00  0.00    -0.257 C  
HETATM    5  C   UNL     1     -11.124  12.756  69.236  1.00  0.00    -0.193 C  
HETATM    6  N   UNL     1      -9.766  14.814  69.693  1.00  0.00     0.037 NA 
HETATM    7  C   UNL     1      -8.474  14.153  69.607  1.00  0.00     0.795 C  
HETATM    8  C   UNL     1     -10.984  12.403  70.724  1.00  0.00     2.652 C  
HETATM    9  C   UNL     1     -10.499  13.514  71.675  1.00  0.00     6.458 C  
ENDROOT
BRANCH   8  10
HETATM   10  O   UNL     1     -12.230  11.919  71.259  1.00  0.00    -0.191 OA 
BRANCH  10  11
HETATM   11  C   UNL     1     -12.529  10.642  70.862  1.00  0.00    -0.397 C  
HETATM   12  O   UNL     1     -13.124  10.365  69.827  1.00  0.00    -0.015 OA 
BRANCH  11  13
HETATM   13  C   UNL     1     -11.947   9.624  71.853  1.00  0.00    -0.258 C  
HETATM   14  O   UNL     1     -12.200  10.069  73.195  1.00  0.00     1.717 OA 
HETATM   15  H   UNL     1     -11.839   9.439  73.808  1.00  0.00     0.000 HD 
BRANCH  13  16
HETATM   16  C   UNL     1     -12.446   8.205  71.678  1.00  0.00    -0.349 A  
HETATM   17  C   UNL     1     -11.571   7.108  71.712  1.00  0.00    -0.314 A  
HETATM   18  C   UNL     1     -12.057   5.806  71.588  1.00  0.00     0.387 A  
HETATM   19  C   UNL     1     -13.425   5.579  71.448  1.00  0.00     3.503 A  
HETATM   20  C   UNL     1     -14.309   6.651  71.439  1.00  0.00     0.045 A  
HETATM   21  C   UNL     1     -13.826   7.951  71.563  1.00  0.00    -0.415 A  
ENDBRANCH  13  16
ENDBRANCH  11  13
ENDBRANCH  10  11
ENDBRANCH   8  10
TORSDOF 4
ENDMDL
