MODEL        1
REMARK 921   NORMALIZED FREE ENERGY PREDICTED BY IDOCK:   -5.91 KCAL/MOL
REMARK 922        TOTAL FREE ENERGY PREDICTED BY IDOCK:  -10.24 KCAL/MOL
REMARK 923 INTER-LIGAND FREE ENERGY PREDICTED BY IDOCK:   -9.02 KCAL/MOL
REMARK 924 INTRA-LIGAND FREE ENERGY PREDICTED BY IDOCK:   -1.23 KCAL/MOL
REMARK 927      BINDING AFFINITY PREDICTED BY RF-SCORE:    0.00 PKD
ROOT
HETATM    1  C   UNL     1     -11.016  11.672  65.183  1.00  0.00    -0.326 C  
HETATM    2  C   UNL     1     -10.908  12.805  66.198  1.00  0.00    -0.279 C  
ENDROOT
BRANCH   2   3
HETATM    3  N   UNL     1     -10.012  13.924  65.820  1.00  0.00    -0.301 NA 
BRANCH   3   4
HETATM    4  C   UNL     1     -10.764  15.204  65.777  1.00  0.00    -0.351 C  
BRANCH   4   5
HETATM    5  C   UNL     1     -11.763  15.354  64.614  1.00  0.00    -0.267 C  
HETATM    6  H   UNL     1     -12.231  16.720  63.272  1.00  0.00     0.000 HD 
HETATM    7  O   UNL     1     -11.615  16.628  63.989  1.00  0.00    -1.197 OA 
ENDBRANCH   4   5
ENDBRANCH   3   4
BRANCH   3   8
HETATM    8  C   UNL     1      -8.892  14.005  66.788  1.00  0.00    -0.157 C  
BRANCH   8   9
HETATM    9  C   UNL     1      -9.277  13.788  68.268  1.00  0.00    -0.204 C  
BRANCH   9  10
HETATM   10  C   UNL     1      -9.066  15.005  69.187  1.00  0.00    -0.183 C  
BRANCH  10  11
HETATM   11  C   UNL     1     -10.370  15.713  69.601  1.00  0.00    -0.286 C  
HETATM   12  C   UNL     1     -10.513  17.086  68.941  1.00  0.00    -0.347 C  
BRANCH  11  13
HETATM   13  N   UNL     1     -11.540  14.881  69.240  1.00  0.00    -0.288 NA 
HETATM   14  H   UNL     1     -11.754  14.661  68.268  1.00  0.00     0.000 HD 
BRANCH  13  15
HETATM   15  C   UNL     1     -12.353  14.400  70.305  1.00  0.00    -0.348 A  
HETATM   16  C   UNL     1     -12.379  13.015  70.622  1.00  0.00    -0.391 A  
HETATM   17  C   UNL     1     -11.667  12.025  69.901  1.00  0.00    -0.374 A  
HETATM   18  C   UNL     1     -11.746  10.677  70.259  1.00  0.00    -0.433 A  
HETATM   19  C   UNL     1     -12.547  10.302  71.329  1.00  0.00    -0.418 A  
HETATM   20  C   UNL     1     -13.256  11.261  72.047  1.00  0.00    -0.437 A  
HETATM   21 CL   UNL     1     -12.664   8.644  71.777  1.00  0.00    -0.376 Cl 
HETATM   22  C   UNL     1     -13.177  12.601  71.719  1.00  0.00    -0.359 A  
HETATM   23  N   UNL     1     -13.869  13.456  72.483  1.00  0.00    -0.738 NA 
HETATM   24  C   UNL     1     -13.771  14.768  72.205  1.00  0.00    -0.439 A  
HETATM   25  C   UNL     1     -13.018  15.275  71.164  1.00  0.00    -0.521 A  
ENDBRANCH  13  15
ENDBRANCH  11  13
ENDBRANCH  10  11
ENDBRANCH   9  10
ENDBRANCH   8   9
ENDBRANCH   3   8
ENDBRANCH   2   3
TORSDOF 9
ENDMDL
MODEL        2
REMARK 921   NORMALIZED FREE ENERGY PREDICTED BY IDOCK:   -5.75 KCAL/MOL
REMARK 922        TOTAL FREE ENERGY PREDICTED BY IDOCK:  -10.00 KCAL/MOL
REMARK 923 INTER-LIGAND FREE ENERGY PREDICTED BY IDOCK:   -8.60 KCAL/MOL
REMARK 924 INTRA-LIGAND FREE ENERGY PREDICTED BY IDOCK:   -1.40 KCAL/MOL
REMARK 927      BINDING AFFINITY PREDICTED BY RF-SCORE:    0.00 PKD
ROOT
HETATM    1  C   UNL     1     -12.165  14.548  64.469  1.00  0.00    -0.483 C  
HETATM    2  C   UNL     1     -12.075  14.011  65.895  1.00  0.00    -0.428 C  
ENDROOT
BRANCH   2   3
HETATM    3  N   UNL     1     -10.704  13.828  66.427  1.00  0.00    -0.280 NA 
BRANCH   3   4
HETATM    4  C   UNL     1     -10.059  12.641  65.813  1.00  0.00    -0.271 C  
BRANCH   4   5
HETATM    5  C   UNL     1     -10.831  11.315  65.949  1.00  0.00    -0.202 C  
HETATM    6  H   UNL     1     -10.640   9.621  66.941  1.00  0.00     0.000 HD 
HETATM    7  O   UNL     1     -10.164  10.438  66.857  1.00  0.00    -0.209 OA 
ENDBRANCH   4   5
ENDBRANCH   3   4
BRANCH   3   8
HETATM    8  C   UNL     1      -9.909  15.053  66.167  1.00  0.00    -0.301 C  
BRANCH   8   9
HETATM    9  C   UNL     1      -9.075  15.569  67.360  1.00  0.00    -0.207 C  
BRANCH   9  10
HETATM   10  C   UNL     1      -9.496  15.029  68.739  1.00  0.00    -0.210 C  
BRANCH  10  11
HETATM   11  C   UNL     1     -10.563  15.884  69.449  1.00  0.00    -0.263 C  
HETATM   12  C   UNL     1     -10.535  17.342  68.982  1.00  0.00    -0.285 C  
BRANCH  11  13
HETATM   13  N   UNL     1     -11.912  15.326  69.203  1.00  0.00    -0.479 NA 
HETATM   14  H   UNL     1     -12.330  15.339  68.273  1.00  0.00     0.000 HD 
BRANCH  13  15
HETATM   15  C   UNL     1     -12.601  14.771  70.318  1.00  0.00    -0.315 A  
HETATM   16  C   UNL     1     -12.517  13.379  70.595  1.00  0.00    -0.385 A  
HETATM   17  C   UNL     1     -11.811  12.453  69.789  1.00  0.00    -0.387 A  
HETATM   18  C   UNL     1     -11.777  11.094  70.113  1.00  0.00    -0.439 A  
HETATM   19  C   UNL     1     -12.461  10.645  71.235  1.00  0.00    -0.410 A  
HETATM   20  C   UNL     1     -13.162  11.540  72.037  1.00  0.00    -0.443 A  
HETATM   21 CL   UNL     1     -12.439   8.972  71.643  1.00  0.00    -0.388 Cl 
HETATM   22  C   UNL     1     -13.192  12.890  71.742  1.00  0.00    -0.384 A  
HETATM   23  N   UNL     1     -13.868  13.682  72.587  1.00  0.00    -0.754 NA 
HETATM   24  C   UNL     1     -13.872  15.004  72.339  1.00  0.00    -0.493 A  
HETATM   25  C   UNL     1     -13.242  15.581  71.254  1.00  0.00    -0.588 A  
ENDBRANCH  13  15
ENDBRANCH  11  13
ENDBRANCH  10  11
ENDBRANCH   9  10
ENDBRANCH   8   9
ENDBRANCH   3   8
ENDBRANCH   2   3
TORSDOF 9
ENDMDL
MODEL        3
REMARK 921   NORMALIZED FREE ENERGY PREDICTED BY IDOCK:   -5.70 KCAL/MOL
REMARK 922        TOTAL FREE ENERGY PREDICTED BY IDOCK:   -9.93 KCAL/MOL
REMARK 923 INTER-LIGAND FREE ENERGY PREDICTED BY IDOCK:   -8.70 KCAL/MOL
REMARK 924 INTRA-LIGAND FREE ENERGY PREDICTED BY IDOCK:   -1.22 KCAL/MOL
REMARK 927      BINDING AFFINITY PREDICTED BY RF-SCORE:    0.00 PKD
ROOT
HETATM    1  C   UNL     1     -10.020  19.581  66.368  1.00  0.00    -0.532 C  
HETATM    2  C   UNL     1      -9.363  18.335  66.954  1.00  0.00    -0.286 C  
ENDROOT
BRANCH   2   3
HETATM    3  N   UNL     1     -10.207  17.117  66.984  1.00  0.00    -0.306 NA 
BRANCH   3   4
HETATM    4  C   UNL     1      -9.819  16.184  65.896  1.00  0.00    -0.353 C  
BRANCH   4   5
HETATM    5  C   UNL     1     -10.965  15.713  64.980  1.00  0.00    -0.431 C  
HETATM    6  H   UNL     1     -12.074  16.473  63.538  1.00  0.00     0.000 HD 
HETATM    7  O   UNL     1     -11.368  16.764  64.103  1.00  0.00    -1.194 OA 
ENDBRANCH   4   5
ENDBRANCH   3   4
BRANCH   3   8
HETATM    8  C   UNL     1     -10.077  16.463  68.309  1.00  0.00    -0.248 C  
BRANCH   8   9
HETATM    9  C   UNL     1     -11.363  16.431  69.163  1.00  0.00    -0.241 C  
BRANCH   9  10
HETATM   10  C   UNL     1     -11.168  16.017  70.632  1.00  0.00    -0.395 C  
BRANCH  10  11
HETATM   11  C   UNL     1     -12.165  14.949  71.122  1.00  0.00    -0.320 C  
HETATM   12  C   UNL     1     -13.340  15.568  71.885  1.00  0.00    -0.569 C  
BRANCH  11  13
HETATM   13  N   UNL     1     -12.691  14.176  69.974  1.00  0.00    -0.421 NA 
HETATM   14  H   UNL     1     -13.269  14.616  69.258  1.00  0.00     0.000 HD 
BRANCH  13  15
HETATM   15  C   UNL     1     -12.356  12.794  69.910  1.00  0.00    -0.070 A  
HETATM   16  C   UNL     1     -11.765  12.251  68.738  1.00  0.00    -0.390 A  
HETATM   17  C   UNL     1     -11.516  12.996  67.559  1.00  0.00    -0.375 A  
HETATM   18  C   UNL     1     -10.942  12.396  66.435  1.00  0.00    -0.315 A  
HETATM   19  C   UNL     1     -10.624  11.044  66.472  1.00  0.00    -0.254 A  
HETATM   20  C   UNL     1     -10.864  10.296  67.620  1.00  0.00    -0.363 A  
HETATM   21 CL   UNL     1      -9.926  10.287  65.093  1.00  0.00    -0.387 Cl 
HETATM   22  C   UNL     1     -11.416  10.876  68.747  1.00  0.00    -0.308 A  
HETATM   23  N   UNL     1     -11.584  10.086  69.817  1.00  0.00    -0.182 NA 
HETATM   24  C   UNL     1     -12.080  10.643  70.936  1.00  0.00    -0.385 A  
HETATM   25  C   UNL     1     -12.446  11.971  71.032  1.00  0.00    -0.376 A  
ENDBRANCH  13  15
ENDBRANCH  11  13
ENDBRANCH  10  11
ENDBRANCH   9  10
ENDBRANCH   8   9
ENDBRANCH   3   8
ENDBRANCH   2   3
TORSDOF 9
ENDMDL
MODEL        4
REMARK 921   NORMALIZED FREE ENERGY PREDICTED BY IDOCK:   -5.66 KCAL/MOL
REMARK 922        TOTAL FREE ENERGY PREDICTED BY IDOCK:   -9.87 KCAL/MOL
REMARK 923 INTER-LIGAND FREE ENERGY PREDICTED BY IDOCK:   -9.19 KCAL/MOL
REMARK 924 INTRA-LIGAND FREE ENERGY PREDICTED BY IDOCK:   -0.68 KCAL/MOL
REMARK 927      BINDING AFFINITY PREDICTED BY RF-SCORE:    0.00 PKD
ROOT
HETATM    1  C   UNL     1      -9.983  19.980  66.406  1.00  0.00    -0.601 C  
HETATM    2  C   UNL     1      -9.412  18.566  66.366  1.00  0.00    -0.301 C  
ENDROOT
BRANCH   2   3
HETATM    3  N   UNL     1     -10.361  17.480  66.709  1.00  0.00    -0.324 NA 
BRANCH   3   4
HETATM    4  C   UNL     1      -9.941  16.201  66.083  1.00  0.00    -0.335 C  
BRANCH   4   5
HETATM    5  C   UNL     1     -10.879  15.650  64.993  1.00  0.00    -0.450 C  
HETATM    6  H   UNL     1     -11.896  16.362  63.460  1.00  0.00     0.000 HD 
HETATM    7  O   UNL     1     -11.317  16.702  64.133  1.00  0.00    -1.141 OA 
ENDBRANCH   4   5
ENDBRANCH   3   4
BRANCH   3   8
HETATM    8  C   UNL     1     -10.438  17.344  68.184  1.00  0.00    -0.389 C  
BRANCH   8   9
HETATM    9  C   UNL     1     -11.417  16.267  68.701  1.00  0.00    -0.288 C  
BRANCH   9  10
HETATM   10  C   UNL     1     -11.317  15.954  70.204  1.00  0.00    -0.369 C  
BRANCH  10  11
HETATM   11  C   UNL     1     -12.239  14.811  70.671  1.00  0.00    -0.319 C  
HETATM   12  C   UNL     1     -13.539  15.337  71.285  1.00  0.00    -0.584 C  
BRANCH  11  13
HETATM   13  N   UNL     1     -12.568  13.923  69.533  1.00  0.00    -0.344 NA 
HETATM   14  H   UNL     1     -13.384  14.094  68.946  1.00  0.00     0.000 HD 
BRANCH  13  15
HETATM   15  C   UNL     1     -11.700  12.822  69.292  1.00  0.00    -0.319 A  
HETATM   16  C   UNL     1     -11.821  11.630  70.056  1.00  0.00    -0.435 A  
HETATM   17  C   UNL     1     -12.745  11.459  71.115  1.00  0.00    -0.479 A  
HETATM   18  C   UNL     1     -12.805  10.263  71.835  1.00  0.00    -0.528 A  
HETATM   19  C   UNL     1     -11.933   9.231  71.513  1.00  0.00    -0.368 A  
HETATM   20  C   UNL     1     -11.017   9.381  70.477  1.00  0.00    -0.332 A  
HETATM   21 CL   UNL     1     -11.986   7.754  72.396  1.00  0.00    -0.349 Cl 
HETATM   22  C   UNL     1     -10.954  10.551  69.743  1.00  0.00    -0.294 A  
HETATM   23  N   UNL     1     -10.062  10.596  68.745  1.00  0.00    -0.183 NA 
HETATM   24  C   UNL     1     -10.016  11.710  67.993  1.00  0.00    -0.188 A  
HETATM   25  C   UNL     1     -10.819  12.813  68.211  1.00  0.00    -0.270 A  
ENDBRANCH  13  15
ENDBRANCH  11  13
ENDBRANCH  10  11
ENDBRANCH   9  10
ENDBRANCH   8   9
ENDBRANCH   3   8
ENDBRANCH   2   3
TORSDOF 9
ENDMDL
MODEL        5
REMARK 921   NORMALIZED FREE ENERGY PREDICTED BY IDOCK:   -5.63 KCAL/MOL
REMARK 922        TOTAL FREE ENERGY PREDICTED BY IDOCK:   -9.82 KCAL/MOL
REMARK 923 INTER-LIGAND FREE ENERGY PREDICTED BY IDOCK:   -8.74 KCAL/MOL
REMARK 924 INTRA-LIGAND FREE ENERGY PREDICTED BY IDOCK:   -1.07 KCAL/MOL
REMARK 927      BINDING AFFINITY PREDICTED BY RF-SCORE:    0.00 PKD
ROOT
HETATM    1  C   UNL     1     -10.644  19.493  67.577  1.00  0.00    -0.599 C  
HETATM    2  C   UNL     1     -10.305  19.053  66.156  1.00  0.00    -0.468 C  
ENDROOT
BRANCH   2   3
HETATM    3  N   UNL     1      -9.172  18.105  66.030  1.00  0.00    -0.517 NA 
BRANCH   3   4
HETATM    4  C   UNL     1      -7.885  18.786  66.316  1.00  0.00    -0.272 C  
BRANCH   4   5
HETATM    5  C   UNL     1      -7.179  18.364  67.619  1.00  0.00    -0.214 C  
HETATM    6  H   UNL     1      -6.835  19.142  69.398  1.00  0.00     0.000 HD 
HETATM    7  O   UNL     1      -7.270  19.402  68.595  1.00  0.00    -0.309 OA 
ENDBRANCH   4   5
ENDBRANCH   3   4
BRANCH   3   8
HETATM    8  C   UNL     1      -9.381  16.965  66.956  1.00  0.00    -0.235 C  
BRANCH   8   9
HETATM    9  C   UNL     1      -9.575  15.589  66.281  1.00  0.00    -0.338 C  
BRANCH   9  10
HETATM   10  C   UNL     1     -11.013  15.273  65.833  1.00  0.00    -0.325 C  
BRANCH  10  11
HETATM   11  C   UNL     1     -11.720  14.209  66.695  1.00  0.00    -0.403 C  
HETATM   12  C   UNL     1     -11.840  12.868  65.967  1.00  0.00    -0.485 C  
BRANCH  11  13
HETATM   13  N   UNL     1     -10.982  14.006  67.962  1.00  0.00    -0.246 NA 
HETATM   14  H   UNL     1      -9.989  13.774  67.966  1.00  0.00     0.000 HD 
BRANCH  13  15
HETATM   15  C   UNL     1     -11.716  14.147  69.174  1.00  0.00    -0.327 A  
HETATM   16  C   UNL     1     -12.082  13.001  69.931  1.00  0.00    -0.347 A  
HETATM   17  C   UNL     1     -11.806  11.670  69.534  1.00  0.00    -0.414 A  
HETATM   18  C   UNL     1     -12.205  10.586  70.321  1.00  0.00    -0.393 A  
HETATM   19  C   UNL     1     -12.897  10.821  71.503  1.00  0.00    -0.462 A  
HETATM   20  C   UNL     1     -13.179  12.122  71.906  1.00  0.00    -0.474 A  
HETATM   21 CL   UNL     1     -13.405   9.497  72.479  1.00  0.00    -0.447 Cl 
HETATM   22  C   UNL     1     -12.777  13.207  71.150  1.00  0.00    -0.300 A  
HETATM   23  N   UNL     1     -13.066  14.424  71.630  1.00  0.00    -0.331 NA 
HETATM   24  C   UNL     1     -12.646  15.492  70.929  1.00  0.00    -0.456 A  
HETATM   25  C   UNL     1     -11.958  15.400  69.735  1.00  0.00    -0.381 A  
ENDBRANCH  13  15
ENDBRANCH  11  13
ENDBRANCH  10  11
ENDBRANCH   9  10
ENDBRANCH   8   9
ENDBRANCH   3   8
ENDBRANCH   2   3
TORSDOF 9
ENDMDL
MODEL        6
REMARK 921   NORMALIZED FREE ENERGY PREDICTED BY IDOCK:   -5.61 KCAL/MOL
REMARK 922        TOTAL FREE ENERGY PREDICTED BY IDOCK:   -9.79 KCAL/MOL
REMARK 923 INTER-LIGAND FREE ENERGY PREDICTED BY IDOCK:   -8.97 KCAL/MOL
REMARK 924 INTRA-LIGAND FREE ENERGY PREDICTED BY IDOCK:   -0.81 KCAL/MOL
REMARK 927      BINDING AFFINITY PREDICTED BY RF-SCORE:    0.00 PKD
ROOT
HETATM    1  C   UNL     1     -12.625  12.324  63.480  1.00  0.00    -0.589 C  
HETATM    2  C   UNL     1     -12.068  13.701  63.827  1.00  0.00    -0.382 C  
ENDROOT
BRANCH   2   3
HETATM    3  N   UNL     1     -11.211  13.762  65.035  1.00  0.00    -0.322 NA 
BRANCH   3   4
HETATM    4  C   UNL     1     -11.490  14.996  65.813  1.00  0.00    -0.236 C  
BRANCH   4   5
HETATM    5  C   UNL     1     -10.649  16.230  65.435  1.00  0.00    -0.352 C  
HETATM    6  H   UNL     1     -10.754  17.715  64.143  1.00  0.00     0.000 HD 
HETATM    7  O   UNL     1     -11.273  16.954  64.376  1.00  0.00    -1.159 OA 
ENDBRANCH   4   5
ENDBRANCH   3   4
BRANCH   3   8
HETATM    8  C   UNL     1     -11.444  12.554  65.863  1.00  0.00    -0.373 C  
BRANCH   8   9
HETATM    9  C   UNL     1     -10.177  11.912  66.470  1.00  0.00    -0.232 C  
BRANCH   9  10
HETATM   10  C   UNL     1     -10.199  10.376  66.563  1.00  0.00    -0.289 C  
BRANCH  10  11
HETATM   11  C   UNL     1     -10.279   9.834  68.003  1.00  0.00    -0.190 C  
HETATM   12  C   UNL     1      -9.086   8.939  68.348  1.00  0.00    -0.137 C  
BRANCH  11  13
HETATM   13  N   UNL     1     -10.335  10.955  68.968  1.00  0.00    -0.206 NA 
HETATM   14  H   UNL     1      -9.749  11.783  68.854  1.00  0.00     0.000 HD 
BRANCH  13  15
HETATM   15  C   UNL     1     -11.238  10.831  70.061  1.00  0.00    -0.291 A  
HETATM   16  C   UNL     1     -11.952  11.965  70.536  1.00  0.00    -0.360 A  
HETATM   17  C   UNL     1     -11.794  13.274  70.018  1.00  0.00    -0.365 A  
HETATM   18  C   UNL     1     -12.520  14.347  70.540  1.00  0.00    -0.416 A  
HETATM   19  C   UNL     1     -13.399  14.128  71.592  1.00  0.00    -0.364 A  
HETATM   20  C   UNL     1     -13.564  12.849  72.116  1.00  0.00    -0.589 A  
HETATM   21 CL   UNL     1     -14.293  15.442  72.254  1.00  0.00    -0.638 Cl 
HETATM   22  C   UNL     1     -12.868  11.772  71.602  1.00  0.00    -0.328 A  
HETATM   23  N   UNL     1     -13.112  10.573  72.148  1.00  0.00    -0.414 NA 
HETATM   24  C   UNL     1     -12.475   9.507  71.632  1.00  0.00    -0.391 A  
HETATM   25  C   UNL     1     -11.570   9.586  70.593  1.00  0.00    -0.350 A  
ENDBRANCH  13  15
ENDBRANCH  11  13
ENDBRANCH  10  11
ENDBRANCH   9  10
ENDBRANCH   8   9
ENDBRANCH   3   8
ENDBRANCH   2   3
TORSDOF 9
ENDMDL
MODEL        7
REMARK 921   NORMALIZED FREE ENERGY PREDICTED BY IDOCK:   -5.60 KCAL/MOL
REMARK 922        TOTAL FREE ENERGY PREDICTED BY IDOCK:   -9.77 KCAL/MOL
REMARK 923 INTER-LIGAND FREE ENERGY PREDICTED BY IDOCK:   -9.02 KCAL/MOL
REMARK 924 INTRA-LIGAND FREE ENERGY PREDICTED BY IDOCK:   -0.75 KCAL/MOL
REMARK 927      BINDING AFFINITY PREDICTED BY RF-SCORE:    0.00 PKD
ROOT
HETATM    1  C   UNL     1     -10.113  19.481  66.208  1.00  0.00    -0.560 C  
HETATM    2  C   UNL     1      -9.985  18.041  66.696  1.00  0.00    -0.362 C  
ENDROOT
BRANCH   2   3
HETATM    3  N   UNL     1      -9.552  17.054  65.679  1.00  0.00    -0.530 NA 
BRANCH   3   4
HETATM    4  C   UNL     1      -8.313  16.362  66.116  1.00  0.00    -0.256 C  
BRANCH   4   5
HETATM    5  C   UNL     1      -7.110  17.273  66.421  1.00  0.00    -0.277 C  
HETATM    6  H   UNL     1      -6.335  18.939  65.705  1.00  0.00     0.000 HD 
HETATM    7  O   UNL     1      -7.077  18.377  65.516  1.00  0.00    -0.513 OA 
ENDBRANCH   4   5
ENDBRANCH   3   4
BRANCH   3   8
HETATM    8  C   UNL     1     -10.645  16.080  65.444  1.00  0.00    -0.408 C  
BRANCH   8   9
HETATM    9  C   UNL     1     -10.771  14.958  66.498  1.00  0.00    -0.309 C  
BRANCH   9  10
HETATM   10  C   UNL     1     -11.878  13.924  66.229  1.00  0.00    -0.431 C  
BRANCH  10  11
HETATM   11  C   UNL     1     -11.638  12.557  66.899  1.00  0.00    -0.370 C  
HETATM   12  C   UNL     1     -10.802  11.625  66.019  1.00  0.00    -0.339 C  
BRANCH  11  13
HETATM   13  N   UNL     1     -10.950  12.739  68.198  1.00  0.00    -0.235 NA 
HETATM   14  H   UNL     1     -10.015  13.143  68.250  1.00  0.00     0.000 HD 
BRANCH  13  15
HETATM   15  C   UNL     1     -11.646  12.327  69.368  1.00  0.00    -0.314 A  
HETATM   16  C   UNL     1     -12.069  13.285  70.329  1.00  0.00    -0.405 A  
HETATM   17  C   UNL     1     -11.798  14.672  70.235  1.00  0.00    -0.363 A  
HETATM   18  C   UNL     1     -12.233  15.560  71.222  1.00  0.00    -0.447 A  
HETATM   19  C   UNL     1     -12.928  15.071  72.320  1.00  0.00    -0.349 A  
HETATM   20  C   UNL     1     -13.201  13.711  72.431  1.00  0.00    -0.584 A  
HETATM   21 CL   UNL     1     -13.462  16.149  73.550  1.00  0.00    -0.501 Cl 
HETATM   22  C   UNL     1     -12.793  12.819  71.456  1.00  0.00    -0.270 A  
HETATM   23  N   UNL     1     -13.125  11.533  71.631  1.00  0.00    -0.439 NA 
HETATM   24  C   UNL     1     -12.775  10.658  70.672  1.00  0.00    -0.359 A  
HETATM   25  C   UNL     1     -12.073  11.010  69.535  1.00  0.00    -0.400 A  
ENDBRANCH  13  15
ENDBRANCH  11  13
ENDBRANCH  10  11
ENDBRANCH   9  10
ENDBRANCH   8   9
ENDBRANCH   3   8
ENDBRANCH   2   3
TORSDOF 9
ENDMDL
MODEL        8
REMARK 921   NORMALIZED FREE ENERGY PREDICTED BY IDOCK:   -5.59 KCAL/MOL
REMARK 922        TOTAL FREE ENERGY PREDICTED BY IDOCK:   -9.77 KCAL/MOL
REMARK 923 INTER-LIGAND FREE ENERGY PREDICTED BY IDOCK:   -8.85 KCAL/MOL
REMARK 924 INTRA-LIGAND FREE ENERGY PREDICTED BY IDOCK:   -0.92 KCAL/MOL
REMARK 927      BINDING AFFINITY PREDICTED BY RF-SCORE:    0.00 PKD
ROOT
HETATM    1  C   UNL     1     -13.100  12.259  71.884  1.00  0.00    -0.469 C  
HETATM    2  C   UNL     1     -13.957  13.478  72.212  1.00  0.00    -0.539 C  
ENDROOT
BRANCH   2   3
HETATM    3  N   UNL     1     -13.321  14.795  71.968  1.00  0.00    -0.335 NA 
BRANCH   3   4
HETATM    4  C   UNL     1     -13.624  15.736  73.076  1.00  0.00    -0.555 C  
BRANCH   4   5
HETATM    5  C   UNL     1     -12.620  15.740  74.244  1.00  0.00    -0.584 C  
HETATM    6  H   UNL     1     -11.568  17.073  75.246  1.00  0.00     0.000 HD 
HETATM    7  O   UNL     1     -12.187  17.070  74.525  1.00  0.00    -0.612 OA 
ENDBRANCH   4   5
ENDBRANCH   3   4
BRANCH   3   8
HETATM    8  C   UNL     1     -11.856  14.612  71.820  1.00  0.00    -0.224 C  
BRANCH   8   9
HETATM    9  C   UNL     1     -11.209  15.372  70.641  1.00  0.00    -0.370 C  
BRANCH   9  10
HETATM   10  C   UNL     1     -12.137  15.637  69.441  1.00  0.00    -0.287 C  
BRANCH  10  11
HETATM   11  C   UNL     1     -11.542  15.218  68.083  1.00  0.00    -0.330 C  
HETATM   12  C   UNL     1     -10.029  14.993  68.163  1.00  0.00    -0.220 C  
BRANCH  11  13
HETATM   13  N   UNL     1     -12.189  13.976  67.603  1.00  0.00    -0.535 NA 
HETATM   14  H   UNL     1     -12.845  13.459  68.189  1.00  0.00     0.000 HD 
BRANCH  13  15
HETATM   15  C   UNL     1     -11.858  13.532  66.292  1.00  0.00    -0.392 A  
HETATM   16  C   UNL     1     -11.170  12.304  66.101  1.00  0.00    -0.372 A  
HETATM   17  C   UNL     1     -10.724  11.473  67.158  1.00  0.00    -0.294 A  
HETATM   18  C   UNL     1     -10.041  10.282  66.899  1.00  0.00    -0.274 A  
HETATM   19  C   UNL     1      -9.784   9.915  65.585  1.00  0.00    -0.279 A  
HETATM   20  C   UNL     1     -10.211  10.721  64.534  1.00  0.00    -0.428 A  
HETATM   21 CL   UNL     1      -8.935   8.456  65.249  1.00  0.00    -0.118 Cl 
HETATM   22  C   UNL     1     -10.903  11.894  64.769  1.00  0.00    -0.307 A  
HETATM   23  N   UNL     1     -11.302  12.590  63.696  1.00  0.00    -0.453 NA 
HETATM   24  C   UNL     1     -12.013  13.713  63.905  1.00  0.00    -0.408 A  
HETATM   25  C   UNL     1     -12.330  14.195  65.160  1.00  0.00    -0.460 A  
ENDBRANCH  13  15
ENDBRANCH  11  13
ENDBRANCH  10  11
ENDBRANCH   9  10
ENDBRANCH   8   9
ENDBRANCH   3   8
ENDBRANCH   2   3
TORSDOF 9
ENDMDL
MODEL        9
REMARK 921   NORMALIZED FREE ENERGY PREDICTED BY IDOCK:   -5.53 KCAL/MOL
REMARK 922        TOTAL FREE ENERGY PREDICTED BY IDOCK:   -9.67 KCAL/MOL
REMARK 923 INTER-LIGAND FREE ENERGY PREDICTED BY IDOCK:   -8.78 KCAL/MOL
REMARK 924 INTRA-LIGAND FREE ENERGY PREDICTED BY IDOCK:   -0.89 KCAL/MOL
REMARK 927      BINDING AFFINITY PREDICTED BY RF-SCORE:    0.00 PKD
ROOT
HETATM    1  C   UNL     1     -12.283  11.996  63.673  1.00  0.00    -0.642 C  
HETATM    2  C   UNL     1     -12.000  13.470  63.950  1.00  0.00    -0.440 C  
ENDROOT
BRANCH   2   3
HETATM    3  N   UNL     1     -11.290  13.761  65.218  1.00  0.00    -0.299 NA 
BRANCH   3   4
HETATM    4  C   UNL     1     -10.325  14.874  65.034  1.00  0.00    -0.370 C  
BRANCH   4   5
HETATM    5  C   UNL     1     -10.861  16.283  65.352  1.00  0.00    -0.273 C  
HETATM    6  H   UNL     1     -11.667  17.785  64.360  1.00  0.00     0.000 HD 
HETATM    7  O   UNL     1     -11.336  16.916  64.164  1.00  0.00    -1.208 OA 
ENDBRANCH   4   5
ENDBRANCH   3   4
BRANCH   3   8
HETATM    8  C   UNL     1     -12.281  14.091  66.271  1.00  0.00    -0.462 C  
BRANCH   8   9
HETATM    9  C   UNL     1     -11.863  13.728  67.713  1.00  0.00    -0.404 C  
BRANCH   9  10
HETATM   10  C   UNL     1     -10.779  12.642  67.829  1.00  0.00    -0.239 C  
BRANCH  10  11
HETATM   11  C   UNL     1     -11.314  11.266  68.271  1.00  0.00    -0.289 C  
HETATM   12  C   UNL     1     -10.977  10.167  67.259  1.00  0.00    -0.250 C  
BRANCH  11  13
HETATM   13  N   UNL     1     -10.749  10.897  69.588  1.00  0.00    -0.397 NA 
HETATM   14  H   UNL     1      -9.806  11.177  69.858  1.00  0.00     0.000 HD 
BRANCH  13  15
HETATM   15  C   UNL     1     -11.575  10.136  70.463  1.00  0.00    -0.329 A  
HETATM   16  C   UNL     1     -11.231   8.797  70.793  1.00  0.00    -0.309 A  
HETATM   17  C   UNL     1     -10.110   8.114  70.262  1.00  0.00    -0.192 A  
HETATM   18  C   UNL     1      -9.835   6.792  70.621  1.00  0.00    -0.191 A  
HETATM   19  C   UNL     1     -10.685   6.135  71.501  1.00  0.00    -0.252 A  
HETATM   20  C   UNL     1     -11.792   6.789  72.031  1.00  0.00    -0.351 A  
HETATM   21 CL   UNL     1     -10.367   4.502  71.947  1.00  0.00    -0.237 Cl 
HETATM   22  C   UNL     1     -12.071   8.103  71.701  1.00  0.00    -0.304 A  
HETATM   23  N   UNL     1     -13.141   8.662  72.282  1.00  0.00    -0.373 NA 
HETATM   24  C   UNL     1     -13.402   9.952  72.006  1.00  0.00    -0.432 A  
HETATM   25  C   UNL     1     -12.645  10.718  71.141  1.00  0.00    -0.532 A  
ENDBRANCH  13  15
ENDBRANCH  11  13
ENDBRANCH  10  11
ENDBRANCH   9  10
ENDBRANCH   8   9
ENDBRANCH   3   8
ENDBRANCH   2   3
TORSDOF 9
ENDMDL
MODEL       10
REMARK 921   NORMALIZED FREE ENERGY PREDICTED BY IDOCK:   -5.51 KCAL/MOL
REMARK 922        TOTAL FREE ENERGY PREDICTED BY IDOCK:   -9.64 KCAL/MOL
REMARK 923 INTER-LIGAND FREE ENERGY PREDICTED BY IDOCK:   -8.62 KCAL/MOL
REMARK 924 INTRA-LIGAND FREE ENERGY PREDICTED BY IDOCK:   -1.02 KCAL/MOL
REMARK 927      BINDING AFFINITY PREDICTED BY RF-SCORE:    0.00 PKD
ROOT
HETATM    1  C   UNL     1     -10.743   9.391  69.669  1.00  0.00    -0.251 C  
HETATM    2  C   UNL     1     -11.209   9.619  71.104  1.00  0.00    -0.384 C  
ENDROOT
BRANCH   2   3
HETATM    3  N   UNL     1     -12.671   9.521  71.329  1.00  0.00    -0.330 NA 
BRANCH   3   4
HETATM    4  C   UNL     1     -12.991   8.353  72.187  1.00  0.00    -0.337 C  
BRANCH   4   5
HETATM    5  C   UNL     1     -13.010   6.986  71.476  1.00  0.00    -0.359 C  
HETATM    6  H   UNL     1     -11.978   5.307  71.535  1.00  0.00     0.000 HD 
HETATM    7  O   UNL     1     -11.966   6.150  71.973  1.00  0.00    -0.324 OA 
ENDBRANCH   4   5
ENDBRANCH   3   4
BRANCH   3   8
HETATM    8  C   UNL     1     -13.157  10.778  71.949  1.00  0.00    -0.451 C  
BRANCH   8   9
HETATM    9  C   UNL     1     -12.761  12.077  71.213  1.00  0.00    -0.382 C  
BRANCH   9  10
HETATM   10  C   UNL     1     -13.268  13.379  71.857  1.00  0.00    -0.522 C  
BRANCH  10  11
HETATM   11  C   UNL     1     -12.439  14.626  71.492  1.00  0.00    -0.346 C  
HETATM   12  C   UNL     1     -11.936  15.365  72.734  1.00  0.00    -0.552 C  
BRANCH  11  13
HETATM   13  N   UNL     1     -11.278  14.241  70.657  1.00  0.00    -0.497 NA 
HETATM   14  H   UNL     1     -10.662  13.475  70.928  1.00  0.00     0.000 HD 
BRANCH  13  15
HETATM   15  C   UNL     1     -11.059  14.983  69.463  1.00  0.00    -0.277 A  
HETATM   16  C   UNL     1     -11.295  14.388  68.194  1.00  0.00    -0.317 A  
HETATM   17  C   UNL     1     -11.702  13.044  68.012  1.00  0.00    -0.397 A  
HETATM   18  C   UNL     1     -11.905  12.519  66.734  1.00  0.00    -0.416 A  
HETATM   19  C   UNL     1     -11.690  13.325  65.624  1.00  0.00    -0.356 A  
HETATM   20  C   UNL     1     -11.286  14.647  65.783  1.00  0.00    -0.340 A  
HETATM   21 CL   UNL     1     -11.925  12.691  64.041  1.00  0.00    -0.485 Cl 
HETATM   22  C   UNL     1     -11.096  15.190  67.040  1.00  0.00    -0.328 A  
HETATM   23  N   UNL     1     -10.737  16.479  67.098  1.00  0.00    -0.270 NA 
HETATM   24  C   UNL     1     -10.589  17.035  68.314  1.00  0.00    -0.372 A  
HETATM   25  C   UNL     1     -10.763  16.345  69.497  1.00  0.00    -0.325 A  
ENDBRANCH  13  15
ENDBRANCH  11  13
ENDBRANCH  10  11
ENDBRANCH   9  10
ENDBRANCH   8   9
ENDBRANCH   3   8
ENDBRANCH   2   3
TORSDOF 9
ENDMDL
MODEL       11
REMARK 921   NORMALIZED FREE ENERGY PREDICTED BY IDOCK:   -5.49 KCAL/MOL
REMARK 922        TOTAL FREE ENERGY PREDICTED BY IDOCK:   -9.60 KCAL/MOL
REMARK 923 INTER-LIGAND FREE ENERGY PREDICTED BY IDOCK:   -8.25 KCAL/MOL
REMARK 924 INTRA-LIGAND FREE ENERGY PREDICTED BY IDOCK:   -1.36 KCAL/MOL
REMARK 927      BINDING AFFINITY PREDICTED BY RF-SCORE:    0.00 PKD
ROOT
HETATM    1  C   UNL     1     -12.498  15.230  74.102  1.00  0.00    -0.739 C  
HETATM    2  C   UNL     1     -13.206  15.766  72.861  1.00  0.00    -0.545 C  
ENDROOT
BRANCH   2   3
HETATM    3  N   UNL     1     -13.708  14.742  71.914  1.00  0.00    -0.378 NA 
BRANCH   3   4
HETATM    4  C   UNL     1     -13.046  14.881  70.593  1.00  0.00    -0.315 C  
BRANCH   4   5
HETATM    5  C   UNL     1     -11.784  15.764  70.567  1.00  0.00    -0.377 C  
HETATM    6  H   UNL     1      -9.974  15.684  69.788  1.00  0.00     0.000 HD 
HETATM    7  O   UNL     1     -10.752  15.139  69.804  1.00  0.00    -0.259 OA 
ENDBRANCH   4   5
ENDBRANCH   3   4
BRANCH   3   8
HETATM    8  C   UNL     1     -13.471  13.392  72.482  1.00  0.00    -0.536 C  
BRANCH   8   9
HETATM    9  C   UNL     1     -12.806  12.378  71.526  1.00  0.00    -0.377 C  
BRANCH   9  10
HETATM   10  C   UNL     1     -13.246  10.914  71.710  1.00  0.00    -0.513 C  
BRANCH  10  11
HETATM   11  C   UNL     1     -12.105   9.891  71.551  1.00  0.00    -0.410 C  
HETATM   12  C   UNL     1     -12.432   8.557  72.228  1.00  0.00    -0.448 C  
BRANCH  11  13
HETATM   13  N   UNL     1     -11.833   9.648  70.116  1.00  0.00    -0.457 NA 
HETATM   14  H   UNL     1     -12.506   9.161  69.524  1.00  0.00     0.000 HD 
BRANCH  13  15
HETATM   15  C   UNL     1     -10.596  10.121  69.597  1.00  0.00    -0.257 A  
HETATM   16  C   UNL     1     -10.572  11.173  68.641  1.00  0.00    -0.222 A  
HETATM   17  C   UNL     1     -11.733  11.781  68.104  1.00  0.00    -0.377 A  
HETATM   18  C   UNL     1     -11.638  12.804  67.157  1.00  0.00    -0.426 A  
HETATM   19  C   UNL     1     -10.385  13.219  66.726  1.00  0.00    -0.257 A  
HETATM   20  C   UNL     1      -9.233  12.631  67.241  1.00  0.00    -0.195 A  
HETATM   21 CL   UNL     1     -10.250  14.471  65.553  1.00  0.00    -0.369 Cl 
HETATM   22  C   UNL     1      -9.307  11.630  68.191  1.00  0.00    -0.188 A  
HETATM   23  N   UNL     1      -8.147  11.143  68.651  1.00  0.00    -0.145 NA 
HETATM   24  C   UNL     1      -8.198  10.197  69.607  1.00  0.00    -0.165 A  
HETATM   25  C   UNL     1      -9.376   9.689  70.117  1.00  0.00    -0.294 A  
ENDBRANCH  13  15
ENDBRANCH  11  13
ENDBRANCH  10  11
ENDBRANCH   9  10
ENDBRANCH   8   9
ENDBRANCH   3   8
ENDBRANCH   2   3
TORSDOF 9
ENDMDL
MODEL       12
REMARK 921   NORMALIZED FREE ENERGY PREDICTED BY IDOCK:   -5.49 KCAL/MOL
REMARK 922        TOTAL FREE ENERGY PREDICTED BY IDOCK:   -9.60 KCAL/MOL
REMARK 923 INTER-LIGAND FREE ENERGY PREDICTED BY IDOCK:   -8.41 KCAL/MOL
REMARK 924 INTRA-LIGAND FREE ENERGY PREDICTED BY IDOCK:   -1.20 KCAL/MOL
REMARK 927      BINDING AFFINITY PREDICTED BY RF-SCORE:    0.00 PKD
ROOT
HETATM    1  C   UNL     1     -13.443   9.513  72.026  1.00  0.00    -0.522 C  
HETATM    2  C   UNL     1     -12.156   8.712  72.194  1.00  0.00    -0.381 C  
ENDROOT
BRANCH   2   3
HETATM    3  N   UNL     1     -11.004   9.167  71.380  1.00  0.00    -0.316 NA 
BRANCH   3   4
HETATM    4  C   UNL     1     -10.469   8.051  70.559  1.00  0.00    -0.214 C  
BRANCH   4   5
HETATM    5  C   UNL     1     -11.425   6.863  70.342  1.00  0.00    -0.338 C  
HETATM    6  H   UNL     1     -11.962   5.688  68.852  1.00  0.00     0.000 HD 
HETATM    7  O   UNL     1     -11.373   6.421  68.986  1.00  0.00    -0.355 OA 
ENDBRANCH   4   5
ENDBRANCH   3   4
BRANCH   3   8
HETATM    8  C   UNL     1     -11.429  10.297  70.518  1.00  0.00    -0.343 C  
BRANCH   8   9
HETATM    9  C   UNL     1     -10.629  10.469  69.208  1.00  0.00    -0.265 C  
BRANCH   9  10
HETATM   10  C   UNL     1     -11.462  10.864  67.976  1.00  0.00    -0.356 C  
BRANCH  10  11
HETATM   11  C   UNL     1     -11.063  12.217  67.355  1.00  0.00    -0.282 C  
HETATM   12  C   UNL     1     -10.846  12.113  65.843  1.00  0.00    -0.316 C  
BRANCH  11  13
HETATM   13  N   UNL     1     -12.109  13.230  67.623  1.00  0.00    -0.305 NA 
HETATM   14  H   UNL     1     -13.079  13.078  67.346  1.00  0.00     0.000 HD 
BRANCH  13  15
HETATM   15  C   UNL     1     -11.706  14.425  68.283  1.00  0.00    -0.341 A  
HETATM   16  C   UNL     1     -11.936  14.590  69.676  1.00  0.00    -0.375 A  
HETATM   17  C   UNL     1     -12.608  13.641  70.485  1.00  0.00    -0.337 A  
HETATM   18  C   UNL     1     -12.812  13.871  71.848  1.00  0.00    -0.411 A  
HETATM   19  C   UNL     1     -12.362  15.058  72.413  1.00  0.00    -0.351 A  
HETATM   20  C   UNL     1     -11.703  16.003  71.633  1.00  0.00    -0.583 A  
HETATM   21 CL   UNL     1     -12.614  15.362  74.088  1.00  0.00    -0.722 Cl 
HETATM   22  C   UNL     1     -11.477  15.785  70.286  1.00  0.00    -0.359 A  
HETATM   23  N   UNL     1     -10.809  16.737  69.620  1.00  0.00    -0.295 NA 
HETATM   24  C   UNL     1     -10.542  16.523  68.319  1.00  0.00    -0.326 A  
HETATM   25  C   UNL     1     -10.940  15.392  67.633  1.00  0.00    -0.315 A  
ENDBRANCH  13  15
ENDBRANCH  11  13
ENDBRANCH  10  11
ENDBRANCH   9  10
ENDBRANCH   8   9
ENDBRANCH   3   8
ENDBRANCH   2   3
TORSDOF 9
ENDMDL
MODEL       13
REMARK 921   NORMALIZED FREE ENERGY PREDICTED BY IDOCK:   -5.48 KCAL/MOL
REMARK 922        TOTAL FREE ENERGY PREDICTED BY IDOCK:   -9.60 KCAL/MOL
REMARK 923 INTER-LIGAND FREE ENERGY PREDICTED BY IDOCK:   -8.39 KCAL/MOL
REMARK 924 INTRA-LIGAND FREE ENERGY PREDICTED BY IDOCK:   -1.21 KCAL/MOL
REMARK 927      BINDING AFFINITY PREDICTED BY RF-SCORE:    0.00 PKD
ROOT
HETATM    1  C   UNL     1     -10.340  19.723  66.058  1.00  0.00    -0.612 C  
HETATM    2  C   UNL     1      -9.619  19.278  67.327  1.00  0.00    -0.320 C  
ENDROOT
BRANCH   2   3
HETATM    3  N   UNL     1      -8.692  18.131  67.172  1.00  0.00    -0.244 NA 
BRANCH   3   4
HETATM    4  C   UNL     1      -7.568  18.233  68.136  1.00  0.00    -0.269 C  
BRANCH   4   5
HETATM    5  C   UNL     1      -7.492  19.545  68.939  1.00  0.00    -0.357 C  
HETATM    6  H   UNL     1      -6.349  21.152  68.986  1.00  0.00     0.000 HD 
HETATM    7  O   UNL     1      -6.396  20.342  68.491  1.00  0.00    -0.294 OA 
ENDBRANCH   4   5
ENDBRANCH   3   4
BRANCH   3   8
HETATM    8  C   UNL     1      -9.440  16.866  67.367  1.00  0.00    -0.238 C  
BRANCH   8   9
HETATM    9  C   UNL     1      -9.510  16.354  68.822  1.00  0.00    -0.247 C  
BRANCH   9  10
HETATM   10  C   UNL     1     -10.841  16.619  69.549  1.00  0.00    -0.285 C  
BRANCH  10  11
HETATM   11  C   UNL     1     -11.348  15.427  70.384  1.00  0.00    -0.327 C  
HETATM   12  C   UNL     1     -11.862  15.865  71.758  1.00  0.00    -0.579 C  
BRANCH  11  13
HETATM   13  N   UNL     1     -12.436  14.726  69.664  1.00  0.00    -0.552 NA 
HETATM   14  H   UNL     1     -13.358  15.147  69.556  1.00  0.00     0.000 HD 
BRANCH  13  15
HETATM   15  C   UNL     1     -12.141  13.440  69.129  1.00  0.00    -0.261 A  
HETATM   16  C   UNL     1     -11.897  13.279  67.739  1.00  0.00    -0.394 A  
HETATM   17  C   UNL     1     -11.973  14.331  66.794  1.00  0.00    -0.462 A  
HETATM   18  C   UNL     1     -11.731  14.101  65.437  1.00  0.00    -0.347 A  
HETATM   19  C   UNL     1     -11.427  12.816  65.008  1.00  0.00    -0.321 A  
HETATM   20  C   UNL     1     -11.350  11.769  65.922  1.00  0.00    -0.324 A  
HETATM   21 CL   UNL     1     -11.136  12.512  63.339  1.00  0.00    -0.488 Cl 
HETATM   22  C   UNL     1     -11.569  11.980  67.270  1.00  0.00    -0.313 A  
HETATM   23  N   UNL     1     -11.445  10.920  68.080  1.00  0.00    -0.458 NA 
HETATM   24  C   UNL     1     -11.613  11.116  69.400  1.00  0.00    -0.318 A  
HETATM   25  C   UNL     1     -11.928  12.339  69.958  1.00  0.00    -0.379 A  
ENDBRANCH  13  15
ENDBRANCH  11  13
ENDBRANCH  10  11
ENDBRANCH   9  10
ENDBRANCH   8   9
ENDBRANCH   3   8
ENDBRANCH   2   3
TORSDOF 9
ENDMDL
MODEL       14
REMARK 921   NORMALIZED FREE ENERGY PREDICTED BY IDOCK:   -5.47 KCAL/MOL
REMARK 922        TOTAL FREE ENERGY PREDICTED BY IDOCK:   -9.57 KCAL/MOL
REMARK 923 INTER-LIGAND FREE ENERGY PREDICTED BY IDOCK:   -8.55 KCAL/MOL
REMARK 924 INTRA-LIGAND FREE ENERGY PREDICTED BY IDOCK:   -1.02 KCAL/MOL
REMARK 927      BINDING AFFINITY PREDICTED BY RF-SCORE:    0.00 PKD
ROOT
HETATM    1  C   UNL     1     -12.633  16.044  73.839  1.00  0.00    -0.730 C  
HETATM    2  C   UNL     1     -13.639  15.500  72.829  1.00  0.00    -0.561 C  
ENDROOT
BRANCH   2   3
HETATM    3  N   UNL     1     -13.079  15.096  71.517  1.00  0.00    -0.368 NA 
BRANCH   3   4
HETATM    4  C   UNL     1     -11.623  15.379  71.460  1.00  0.00    -0.411 C  
BRANCH   4   5
HETATM    5  C   UNL     1     -11.173  16.354  70.356  1.00  0.00    -0.238 C  
HETATM    6  H   UNL     1     -11.532  16.634  68.437  1.00  0.00     0.000 HD 
HETATM    7  O   UNL     1     -11.809  16.033  69.118  1.00  0.00    -0.356 OA 
ENDBRANCH   4   5
ENDBRANCH   3   4
BRANCH   3   8
HETATM    8  C   UNL     1     -13.345  13.654  71.293  1.00  0.00    -0.189 C  
BRANCH   8   9
HETATM    9  C   UNL     1     -12.240  12.887  70.534  1.00  0.00    -0.395 C  
BRANCH   9  10
HETATM   10  C   UNL     1     -12.305  11.354  70.653  1.00  0.00    -0.466 C  
BRANCH  10  11
HETATM   11  C   UNL     1     -11.336  10.609  69.713  1.00  0.00    -0.301 C  
HETATM   12  C   UNL     1     -10.965   9.225  70.251  1.00  0.00    -0.286 C  
BRANCH  11  13
HETATM   13  N   UNL     1     -11.942  10.458  68.371  1.00  0.00    -0.749 NA 
HETATM   14  H   UNL     1     -12.907  10.149  68.256  1.00  0.00     0.000 HD 
BRANCH  13  15
HETATM   15  C   UNL     1     -11.122  10.761  67.247  1.00  0.00    -0.270 A  
HETATM   16  C   UNL     1     -11.225  12.023  66.602  1.00  0.00    -0.380 A  
HETATM   17  C   UNL     1     -12.152  13.028  66.972  1.00  0.00    -0.330 A  
HETATM   18  C   UNL     1     -12.209  14.244  66.286  1.00  0.00    -0.433 A  
HETATM   19  C   UNL     1     -11.352  14.463  65.215  1.00  0.00    -0.346 A  
HETATM   20  C   UNL     1     -10.437  13.485  64.835  1.00  0.00    -0.417 A  
HETATM   21 CL   UNL     1     -11.416  15.951  64.352  1.00  0.00    -0.367 Cl 
HETATM   22  C   UNL     1     -10.355  12.283  65.512  1.00  0.00    -0.267 A  
HETATM   23  N   UNL     1      -9.424  11.414  65.096  1.00  0.00    -0.222 NA 
HETATM   24  C   UNL     1      -9.301  10.256  65.770  1.00  0.00    -0.186 A  
HETATM   25  C   UNL     1     -10.094   9.909  66.846  1.00  0.00    -0.285 A  
ENDBRANCH  13  15
ENDBRANCH  11  13
ENDBRANCH  10  11
ENDBRANCH   9  10
ENDBRANCH   8   9
ENDBRANCH   3   8
ENDBRANCH   2   3
TORSDOF 9
ENDMDL
MODEL       15
REMARK 921   NORMALIZED FREE ENERGY PREDICTED BY IDOCK:   -5.41 KCAL/MOL
REMARK 922        TOTAL FREE ENERGY PREDICTED BY IDOCK:   -9.48 KCAL/MOL
REMARK 923 INTER-LIGAND FREE ENERGY PREDICTED BY IDOCK:   -8.34 KCAL/MOL
REMARK 924 INTRA-LIGAND FREE ENERGY PREDICTED BY IDOCK:   -1.14 KCAL/MOL
REMARK 927      BINDING AFFINITY PREDICTED BY RF-SCORE:    0.00 PKD
ROOT
HETATM    1  C   UNL     1     -10.365   7.152  68.545  1.00  0.00    -0.203 C  
HETATM    2  C   UNL     1     -10.073   8.138  69.672  1.00  0.00    -0.199 C  
ENDROOT
BRANCH   2   3
HETATM    3  N   UNL     1     -11.083   9.203  69.872  1.00  0.00    -0.203 NA 
BRANCH   3   4
HETATM    4  C   UNL     1     -11.377   9.382  71.317  1.00  0.00    -0.366 C  
BRANCH   4   5
HETATM    5  C   UNL     1     -12.695  10.107  71.646  1.00  0.00    -0.447 C  
HETATM    6  H   UNL     1     -14.330   9.741  72.686  1.00  0.00     0.000 HD 
HETATM    7  O   UNL     1     -13.518   9.293  72.483  1.00  0.00    -0.464 OA 
ENDBRANCH   4   5
ENDBRANCH   3   4
BRANCH   3   8
HETATM    8  C   UNL     1     -10.587  10.468  69.276  1.00  0.00    -0.236 C  
BRANCH   8   9
HETATM    9  C   UNL     1     -11.483  11.078  68.176  1.00  0.00    -0.374 C  
BRANCH   9  10
HETATM   10  C   UNL     1     -10.731  11.751  67.014  1.00  0.00    -0.286 C  
BRANCH  10  11
HETATM   11  C   UNL     1     -11.341  13.092  66.563  1.00  0.00    -0.315 C  
HETATM   12  C   UNL     1     -12.169  12.945  65.284  1.00  0.00    -0.524 C  
BRANCH  11  13
HETATM   13  N   UNL     1     -12.200  13.648  67.633  1.00  0.00    -0.376 NA 
HETATM   14  H   UNL     1     -13.114  13.245  67.842  1.00  0.00     0.000 HD 
BRANCH  13  15
HETATM   15  C   UNL     1     -11.700  14.765  68.358  1.00  0.00    -0.314 A  
HETATM   16  C   UNL     1     -11.915  14.869  69.759  1.00  0.00    -0.366 A  
HETATM   17  C   UNL     1     -12.661  13.933  70.516  1.00  0.00    -0.382 A  
HETATM   18  C   UNL     1     -12.844  14.101  71.891  1.00  0.00    -0.425 A  
HETATM   19  C   UNL     1     -12.297  15.212  72.520  1.00  0.00    -0.370 A  
HETATM   20  C   UNL     1     -11.564  16.143  71.792  1.00  0.00    -0.503 A  
HETATM   21 CL   UNL     1     -12.522  15.440  74.212  1.00  0.00    -0.764 Cl 
HETATM   22  C   UNL     1     -11.358  15.985  70.434  1.00  0.00    -0.391 A  
HETATM   23  N   UNL     1     -10.615  16.915  69.819  1.00  0.00    -0.207 NA 
HETATM   24  C   UNL     1     -10.368  16.755  68.507  1.00  0.00    -0.316 A  
HETATM   25  C   UNL     1     -10.858  15.702  67.760  1.00  0.00    -0.307 A  
ENDBRANCH  13  15
ENDBRANCH  11  13
ENDBRANCH  10  11
ENDBRANCH   9  10
ENDBRANCH   8   9
ENDBRANCH   3   8
ENDBRANCH   2   3
TORSDOF 9
ENDMDL
MODEL       16
REMARK 921   NORMALIZED FREE ENERGY PREDICTED BY IDOCK:   -5.39 KCAL/MOL
REMARK 922        TOTAL FREE ENERGY PREDICTED BY IDOCK:   -9.46 KCAL/MOL
REMARK 923 INTER-LIGAND FREE ENERGY PREDICTED BY IDOCK:   -8.46 KCAL/MOL
REMARK 924 INTRA-LIGAND FREE ENERGY PREDICTED BY IDOCK:   -0.99 KCAL/MOL
REMARK 927      BINDING AFFINITY PREDICTED BY RF-SCORE:    0.00 PKD
ROOT
HETATM    1  C   UNL     1     -13.947   7.505  71.517  1.00  0.00    -0.522 C  
HETATM    2  C   UNL     1     -12.500   7.682  71.965  1.00  0.00    -0.270 C  
ENDROOT
BRANCH   2   3
HETATM    3  N   UNL     1     -12.022   9.082  72.060  1.00  0.00    -0.368 NA 
BRANCH   3   4
HETATM    4  C   UNL     1     -10.834   9.289  71.194  1.00  0.00    -0.337 C  
BRANCH   4   5
HETATM    5  C   UNL     1     -10.778   8.429  69.918  1.00  0.00    -0.227 C  
HETATM    6  H   UNL     1     -10.616   8.727  67.975  1.00  0.00     0.000 HD 
HETATM    7  O   UNL     1     -10.651   9.257  68.762  1.00  0.00    -0.217 OA 
ENDBRANCH   4   5
ENDBRANCH   3   4
BRANCH   3   8
HETATM    8  C   UNL     1     -13.121  10.001  71.675  1.00  0.00    -0.445 C  
BRANCH   8   9
HETATM    9  C   UNL     1     -12.679  11.413  71.231  1.00  0.00    -0.498 C  
BRANCH   9  10
HETATM   10  C   UNL     1     -13.411  12.578  71.922  1.00  0.00    -0.467 C  
BRANCH  10  11
HETATM   11  C   UNL     1     -12.941  13.973  71.466  1.00  0.00    -0.351 C  
HETATM   12  C   UNL     1     -12.935  14.982  72.618  1.00  0.00    -0.493 C  
BRANCH  11  13
HETATM   13  N   UNL     1     -11.579  13.891  70.891  1.00  0.00    -0.476 NA 
HETATM   14  H   UNL     1     -10.882  13.248  71.268  1.00  0.00     0.000 HD 
BRANCH  13  15
HETATM   15  C   UNL     1     -11.282  14.746  69.793  1.00  0.00    -0.273 A  
HETATM   16  C   UNL     1     -11.388  14.266  68.459  1.00  0.00    -0.309 A  
HETATM   17  C   UNL     1     -11.733  12.934  68.123  1.00  0.00    -0.395 A  
HETATM   18  C   UNL     1     -11.808  12.525  66.789  1.00  0.00    -0.416 A  
HETATM   19  C   UNL     1     -11.524  13.435  65.780  1.00  0.00    -0.320 A  
HETATM   20  C   UNL     1     -11.180  14.747  66.092  1.00  0.00    -0.337 A  
HETATM   21 CL   UNL     1     -11.602  12.945  64.131  1.00  0.00    -0.421 Cl 
HETATM   22  C   UNL     1     -11.117  15.175  67.405  1.00  0.00    -0.325 A  
HETATM   23  N   UNL     1     -10.807  16.462  67.610  1.00  0.00    -0.312 NA 
HETATM   24  C   UNL     1     -10.783  16.907  68.879  1.00  0.00    -0.321 A  
HETATM   25  C   UNL     1     -11.036  16.106  69.975  1.00  0.00    -0.364 A  
ENDBRANCH  13  15
ENDBRANCH  11  13
ENDBRANCH  10  11
ENDBRANCH   9  10
ENDBRANCH   8   9
ENDBRANCH   3   8
ENDBRANCH   2   3
TORSDOF 9
ENDMDL
MODEL       17
REMARK 921   NORMALIZED FREE ENERGY PREDICTED BY IDOCK:   -5.39 KCAL/MOL
REMARK 922        TOTAL FREE ENERGY PREDICTED BY IDOCK:   -9.45 KCAL/MOL
REMARK 923 INTER-LIGAND FREE ENERGY PREDICTED BY IDOCK:   -8.21 KCAL/MOL
REMARK 924 INTRA-LIGAND FREE ENERGY PREDICTED BY IDOCK:   -1.24 KCAL/MOL
REMARK 927      BINDING AFFINITY PREDICTED BY RF-SCORE:    0.00 PKD
ROOT
HETATM    1  C   UNL     1      -7.919  16.373  66.416  1.00  0.00    -0.329 C  
HETATM    2  C   UNL     1      -8.526  16.749  67.765  1.00  0.00    -0.193 C  
ENDROOT
BRANCH   2   3
HETATM    3  N   UNL     1      -8.968  18.157  67.901  1.00  0.00    -0.264 NA 
BRANCH   3   4
HETATM    4  C   UNL     1      -9.106  18.794  66.567  1.00  0.00    -0.323 C  
BRANCH   4   5
HETATM    5  C   UNL     1     -10.519  19.287  66.204  1.00  0.00    -0.488 C  
HETATM    6  H   UNL     1     -11.894  18.876  64.851  1.00  0.00     0.000 HD 
HETATM    7  O   UNL     1     -11.023  18.573  65.075  1.00  0.00    -0.602 OA 
ENDBRANCH   4   5
ENDBRANCH   3   4
BRANCH   3   8
HETATM    8  C   UNL     1     -10.254  18.198  68.639  1.00  0.00    -0.366 C  
BRANCH   8   9
HETATM    9  C   UNL     1     -10.952  16.834  68.831  1.00  0.00    -0.259 C  
BRANCH   9  10
HETATM   10  C   UNL     1     -11.189  16.417  70.293  1.00  0.00    -0.259 C  
BRANCH  10  11
HETATM   11  C   UNL     1     -12.131  15.208  70.456  1.00  0.00    -0.343 C  
HETATM   12  C   UNL     1     -13.343  15.538  71.331  1.00  0.00    -0.592 C  
BRANCH  11  13
HETATM   13  N   UNL     1     -12.604  14.746  69.131  1.00  0.00    -0.531 NA 
HETATM   14  H   UNL     1     -13.181  15.342  68.537  1.00  0.00     0.000 HD 
BRANCH  13  15
HETATM   15  C   UNL     1     -12.222  13.438  68.721  1.00  0.00    -0.115 A  
HETATM   16  C   UNL     1     -11.769  13.204  67.394  1.00  0.00    -0.419 A  
HETATM   17  C   UNL     1     -11.711  14.201  66.390  1.00  0.00    -0.404 A  
HETATM   18  C   UNL     1     -11.266  13.901  65.101  1.00  0.00    -0.326 A  
HETATM   19  C   UNL     1     -10.889  12.599  64.796  1.00  0.00    -0.302 A  
HETATM   20  C   UNL     1     -10.943  11.605  65.769  1.00  0.00    -0.329 A  
HETATM   21 CL   UNL     1     -10.348  12.209  63.209  1.00  0.00    -0.424 Cl 
HETATM   22  C   UNL     1     -11.364  11.888  67.055  1.00  0.00    -0.329 A  
HETATM   23  N   UNL     1     -11.355  10.876  67.934  1.00  0.00    -0.403 NA 
HETATM   24  C   UNL     1     -11.721  11.141  69.200  1.00  0.00    -0.338 A  
HETATM   25  C   UNL     1     -12.127  12.388  69.634  1.00  0.00    -0.271 A  
ENDBRANCH  13  15
ENDBRANCH  11  13
ENDBRANCH  10  11
ENDBRANCH   9  10
ENDBRANCH   8   9
ENDBRANCH   3   8
ENDBRANCH   2   3
TORSDOF 9
ENDMDL
MODEL       18
REMARK 921   NORMALIZED FREE ENERGY PREDICTED BY IDOCK:   -5.38 KCAL/MOL
REMARK 922        TOTAL FREE ENERGY PREDICTED BY IDOCK:   -9.44 KCAL/MOL
REMARK 923 INTER-LIGAND FREE ENERGY PREDICTED BY IDOCK:   -8.07 KCAL/MOL
REMARK 924 INTRA-LIGAND FREE ENERGY PREDICTED BY IDOCK:   -1.37 KCAL/MOL
REMARK 927      BINDING AFFINITY PREDICTED BY RF-SCORE:    0.00 PKD
ROOT
HETATM    1  C   UNL     1     -10.620  19.079  66.071  1.00  0.00    -0.499 C  
HETATM    2  C   UNL     1      -9.663  18.421  67.061  1.00  0.00    -0.310 C  
ENDROOT
BRANCH   2   3
HETATM    3  N   UNL     1      -9.400  16.979  66.838  1.00  0.00    -0.243 NA 
BRANCH   3   4
HETATM    4  C   UNL     1      -8.330  16.496  67.747  1.00  0.00    -0.170 C  
BRANCH   4   5
HETATM    5  C   UNL     1      -8.803  15.665  68.954  1.00  0.00    -0.222 C  
HETATM    6  H   UNL     1      -8.700  13.788  69.551  1.00  0.00     0.000 HD 
HETATM    7  O   UNL     1      -8.408  14.301  68.807  1.00  0.00    -0.148 OA 
ENDBRANCH   4   5
ENDBRANCH   3   4
BRANCH   3   8
HETATM    8  C   UNL     1     -10.653  16.214  67.046  1.00  0.00    -0.292 C  
BRANCH   8   9
HETATM    9  C   UNL     1     -10.947  15.125  65.991  1.00  0.00    -0.332 C  
BRANCH   9  10
HETATM   10  C   UNL     1     -12.147  14.214  66.304  1.00  0.00    -0.463 C  
BRANCH  10  11
HETATM   11  C   UNL     1     -11.758  12.780  66.716  1.00  0.00    -0.392 C  
HETATM   12  C   UNL     1     -10.979  12.058  65.613  1.00  0.00    -0.343 C  
BRANCH  11  13
HETATM   13  N   UNL     1     -10.936  12.808  67.947  1.00  0.00    -0.225 NA 
HETATM   14  H   UNL     1      -9.977  13.152  67.937  1.00  0.00     0.000 HD 
BRANCH  13  15
HETATM   15  C   UNL     1     -11.541  12.334  69.145  1.00  0.00    -0.318 A  
HETATM   16  C   UNL     1     -12.124  13.246  70.066  1.00  0.00    -0.385 A  
HETATM   17  C   UNL     1     -12.109  14.653  69.903  1.00  0.00    -0.385 A  
HETATM   18  C   UNL     1     -12.692  15.495  70.854  1.00  0.00    -0.525 A  
HETATM   19  C   UNL     1     -13.282  14.942  71.983  1.00  0.00    -0.350 A  
HETATM   20  C   UNL     1     -13.303  13.562  72.161  1.00  0.00    -0.593 A  
HETATM   21 CL   UNL     1     -13.996  15.964  73.169  1.00  0.00    -0.451 Cl 
HETATM   22  C   UNL     1     -12.747  12.712  71.223  1.00  0.00    -0.257 A  
HETATM   23  N   UNL     1     -12.840  11.397  71.462  1.00  0.00    -0.423 NA 
HETATM   24  C   UNL     1     -12.342  10.554  70.540  1.00  0.00    -0.343 A  
HETATM   25  C   UNL     1     -11.722  10.971  69.379  1.00  0.00    -0.394 A  
ENDBRANCH  13  15
ENDBRANCH  11  13
ENDBRANCH  10  11
ENDBRANCH   9  10
ENDBRANCH   8   9
ENDBRANCH   3   8
ENDBRANCH   2   3
TORSDOF 9
ENDMDL
MODEL       19
REMARK 921   NORMALIZED FREE ENERGY PREDICTED BY IDOCK:   -5.34 KCAL/MOL
REMARK 922        TOTAL FREE ENERGY PREDICTED BY IDOCK:   -9.38 KCAL/MOL
REMARK 923 INTER-LIGAND FREE ENERGY PREDICTED BY IDOCK:   -8.51 KCAL/MOL
REMARK 924 INTRA-LIGAND FREE ENERGY PREDICTED BY IDOCK:   -0.87 KCAL/MOL
REMARK 927      BINDING AFFINITY PREDICTED BY RF-SCORE:    0.00 PKD
ROOT
HETATM    1  C   UNL     1     -14.382   7.981  71.729  1.00  0.00    -0.583 C  
HETATM    2  C   UNL     1     -12.890   8.071  71.424  1.00  0.00    -0.269 C  
ENDROOT
BRANCH   2   3
HETATM    3  N   UNL     1     -12.260   9.387  71.680  1.00  0.00    -0.365 NA 
BRANCH   3   4
HETATM    4  C   UNL     1     -10.797   9.325  71.432  1.00  0.00    -0.364 C  
BRANCH   4   5
HETATM    5  C   UNL     1     -10.339   8.279  70.397  1.00  0.00    -0.205 C  
HETATM    6  H   UNL     1      -9.949   8.228  68.465  1.00  0.00     0.000 HD 
HETATM    7  O   UNL     1     -10.232   8.872  69.103  1.00  0.00    -0.196 OA 
ENDBRANCH   4   5
ENDBRANCH   3   4
BRANCH   3   8
HETATM    8  C   UNL     1     -12.897  10.412  70.818  1.00  0.00    -0.364 C  
BRANCH   8   9
HETATM    9  C   UNL     1     -12.062  11.690  70.579  1.00  0.00    -0.458 C  
BRANCH   9  10
HETATM   10  C   UNL     1     -11.951  12.138  69.111  1.00  0.00    -0.311 C  
BRANCH  10  11
HETATM   11  C   UNL     1     -12.020  13.665  68.914  1.00  0.00    -0.356 C  
HETATM   12  C   UNL     1     -12.299  14.402  70.226  1.00  0.00    -0.410 C  
BRANCH  11  13
HETATM   13  N   UNL     1     -10.748  14.163  68.342  1.00  0.00    -0.249 NA 
HETATM   14  H   UNL     1      -9.849  13.927  68.762  1.00  0.00     0.000 HD 
BRANCH  13  15
HETATM   15  C   UNL     1     -10.832  14.984  67.183  1.00  0.00    -0.314 A  
HETATM   16  C   UNL     1     -10.551  16.375  67.265  1.00  0.00    -0.293 A  
HETATM   17  C   UNL     1     -10.228  17.048  68.468  1.00  0.00    -0.324 A  
HETATM   18  C   UNL     1      -9.974  18.422  68.481  1.00  0.00    -0.415 A  
HETATM   19  C   UNL     1     -10.055  19.140  67.295  1.00  0.00    -0.376 A  
HETATM   20  C   UNL     1     -10.374  18.496  66.103  1.00  0.00    -0.457 A  
HETATM   21 CL   UNL     1      -9.756  20.835  67.294  1.00  0.00    -0.590 Cl 
HETATM   22  C   UNL     1     -10.612  17.135  66.068  1.00  0.00    -0.204 A  
HETATM   23  N   UNL     1     -10.883  16.595  64.872  1.00  0.00    -0.701 NA 
HETATM   24  C   UNL     1     -11.074  15.265  64.812  1.00  0.00    -0.394 A  
HETATM   25  C   UNL     1     -11.032  14.436  65.916  1.00  0.00    -0.312 A  
ENDBRANCH  13  15
ENDBRANCH  11  13
ENDBRANCH  10  11
ENDBRANCH   9  10
ENDBRANCH   8   9
ENDBRANCH   3   8
ENDBRANCH   2   3
TORSDOF 9
ENDMDL
MODEL       20
REMARK 921   NORMALIZED FREE ENERGY PREDICTED BY IDOCK:   -5.31 KCAL/MOL
REMARK 922        TOTAL FREE ENERGY PREDICTED BY IDOCK:   -9.33 KCAL/MOL
REMARK 923 INTER-LIGAND FREE ENERGY PREDICTED BY IDOCK:   -8.45 KCAL/MOL
REMARK 924 INTRA-LIGAND FREE ENERGY PREDICTED BY IDOCK:   -0.88 KCAL/MOL
REMARK 927      BINDING AFFINITY PREDICTED BY RF-SCORE:    0.00 PKD
ROOT
HETATM    1  C   UNL     1     -14.391   7.293  71.620  1.00  0.00    -0.583 C  
HETATM    2  C   UNL     1     -12.876   7.328  71.440  1.00  0.00    -0.382 C  
ENDROOT
BRANCH   2   3
HETATM    3  N   UNL     1     -12.157   8.345  72.244  1.00  0.00    -0.374 NA 
BRANCH   3   4
HETATM    4  C   UNL     1     -10.957   7.752  72.886  1.00  0.00    -0.407 C  
BRANCH   4   5
HETATM    5  C   UNL     1      -9.625   7.969  72.143  1.00  0.00    -0.215 C  
HETATM    6  H   UNL     1      -7.852   8.735  72.540  1.00  0.00     0.000 HD 
HETATM    7  O   UNL     1      -8.673   8.602  72.998  1.00  0.00    -0.380 OA 
ENDBRANCH   4   5
ENDBRANCH   3   4
BRANCH   3   8
HETATM    8  C   UNL     1     -11.779   9.482  71.370  1.00  0.00    -0.393 C  
BRANCH   8   9
HETATM    9  C   UNL     1     -12.938  10.415  70.956  1.00  0.00    -0.490 C  
BRANCH   9  10
HETATM   10  C   UNL     1     -13.149  11.643  71.860  1.00  0.00    -0.490 C  
BRANCH  10  11
HETATM   11  C   UNL     1     -13.002  12.992  71.130  1.00  0.00    -0.181 C  
HETATM   12  C   UNL     1     -13.159  14.180  72.083  1.00  0.00    -0.489 C  
BRANCH  11  13
HETATM   13  N   UNL     1     -11.680  13.075  70.470  1.00  0.00    -0.520 NA 
HETATM   14  H   UNL     1     -10.820  12.870  70.979  1.00  0.00     0.000 HD 
BRANCH  13  15
HETATM   15  C   UNL     1     -11.658  13.453  69.098  1.00  0.00    -0.315 A  
HETATM   16  C   UNL     1     -11.229  14.754  68.717  1.00  0.00    -0.286 A  
HETATM   17  C   UNL     1     -10.853  15.764  69.636  1.00  0.00    -0.300 A  
HETATM   18  C   UNL     1     -10.452  17.027  69.194  1.00  0.00    -0.323 A  
HETATM   19  C   UNL     1     -10.438  17.300  67.832  1.00  0.00    -0.382 A  
HETATM   20  C   UNL     1     -10.808  16.320  66.915  1.00  0.00    -0.151 A  
HETATM   21 CL   UNL     1      -9.957  18.854  67.271  1.00  0.00    -0.360 Cl 
HETATM   22  C   UNL     1     -11.191  15.060  67.333  1.00  0.00    -0.335 A  
HETATM   23  N   UNL     1     -11.501  14.171  66.379  1.00  0.00    -0.341 NA 
HETATM   24  C   UNL     1     -11.835  12.927  66.764  1.00  0.00    -0.385 A  
HETATM   25  C   UNL     1     -11.898  12.526  68.085  1.00  0.00    -0.371 A  
ENDBRANCH  13  15
ENDBRANCH  11  13
ENDBRANCH  10  11
ENDBRANCH   9  10
ENDBRANCH   8   9
ENDBRANCH   3   8
ENDBRANCH   2   3
TORSDOF 9
ENDMDL
MODEL       21
REMARK 921   NORMALIZED FREE ENERGY PREDICTED BY IDOCK:   -5.30 KCAL/MOL
REMARK 922        TOTAL FREE ENERGY PREDICTED BY IDOCK:   -9.32 KCAL/MOL
REMARK 923 INTER-LIGAND FREE ENERGY PREDICTED BY IDOCK:   -8.30 KCAL/MOL
REMARK 924 INTRA-LIGAND FREE ENERGY PREDICTED BY IDOCK:   -1.02 KCAL/MOL
REMARK 927      BINDING AFFINITY PREDICTED BY RF-SCORE:    0.00 PKD
ROOT
HETATM    1  C   UNL     1     -12.946  16.086  73.483  1.00  0.00    -0.694 C  
HETATM    2  C   UNL     1     -13.001  14.595  73.161  1.00  0.00    -0.500 C  
ENDROOT
BRANCH   2   3
HETATM    3  N   UNL     1     -13.429  14.249  71.785  1.00  0.00    -0.355 NA 
BRANCH   3   4
HETATM    4  C   UNL     1     -13.144  15.369  70.852  1.00  0.00    -0.468 C  
BRANCH   4   5
HETATM    5  C   UNL     1     -11.804  15.286  70.097  1.00  0.00    -0.323 C  
HETATM    6  H   UNL     1     -10.190  16.398  69.884  1.00  0.00     0.000 HD 
HETATM    7  O   UNL     1     -11.017  16.450  70.349  1.00  0.00    -0.322 OA 
ENDBRANCH   4   5
ENDBRANCH   3   4
BRANCH   3   8
HETATM    8  C   UNL     1     -12.734  13.013  71.351  1.00  0.00    -0.281 C  
BRANCH   8   9
HETATM    9  C   UNL     1     -13.292  11.698  71.937  1.00  0.00    -0.403 C  
BRANCH   9  10
HETATM   10  C   UNL     1     -12.750  10.409  71.294  1.00  0.00    -0.536 C  
BRANCH  10  11
HETATM   11  C   UNL     1     -11.611  10.643  70.282  1.00  0.00    -0.336 C  
HETATM   12  C   UNL     1     -10.420   9.714  70.533  1.00  0.00    -0.367 C  
BRANCH  11  13
HETATM   13  N   UNL     1     -12.104  10.434  68.902  1.00  0.00    -0.716 NA 
HETATM   14  H   UNL     1     -12.836   9.754  68.698  1.00  0.00     0.000 HD 
BRANCH  13  15
HETATM   15  C   UNL     1     -11.514  11.220  67.873  1.00  0.00    -0.288 A  
HETATM   16  C   UNL     1     -10.670  10.617  66.901  1.00  0.00    -0.297 A  
HETATM   17  C   UNL     1     -10.315   9.246  66.903  1.00  0.00    -0.316 A  
HETATM   18  C   UNL     1      -9.470   8.718  65.923  1.00  0.00    -0.278 A  
HETATM   19  C   UNL     1      -8.960   9.557  64.941  1.00  0.00    -0.219 A  
HETATM   20  C   UNL     1      -9.296  10.907  64.925  1.00  0.00    -0.258 A  
HETATM   21 CL   UNL     1      -7.910   8.926  63.731  1.00  0.00    -0.130 Cl 
HETATM   22  C   UNL     1     -10.144  11.443  65.876  1.00  0.00    -0.243 A  
HETATM   23  N   UNL     1     -10.435  12.747  65.765  1.00  0.00    -0.271 NA 
HETATM   24  C   UNL     1     -11.292  13.276  66.657  1.00  0.00    -0.321 A  
HETATM   25  C   UNL     1     -11.864  12.557  67.688  1.00  0.00    -0.381 A  
ENDBRANCH  13  15
ENDBRANCH  11  13
ENDBRANCH  10  11
ENDBRANCH   9  10
ENDBRANCH   8   9
ENDBRANCH   3   8
ENDBRANCH   2   3
TORSDOF 9
ENDMDL
MODEL       22
REMARK 921   NORMALIZED FREE ENERGY PREDICTED BY IDOCK:   -5.27 KCAL/MOL
REMARK 922        TOTAL FREE ENERGY PREDICTED BY IDOCK:   -9.27 KCAL/MOL
REMARK 923 INTER-LIGAND FREE ENERGY PREDICTED BY IDOCK:   -8.10 KCAL/MOL
REMARK 924 INTRA-LIGAND FREE ENERGY PREDICTED BY IDOCK:   -1.17 KCAL/MOL
REMARK 927      BINDING AFFINITY PREDICTED BY RF-SCORE:    0.00 PKD
ROOT
HETATM    1  C   UNL     1     -11.743  12.488  63.544  1.00  0.00    -0.595 C  
HETATM    2  C   UNL     1     -10.850  12.558  64.779  1.00  0.00    -0.298 C  
ENDROOT
BRANCH   2   3
HETATM    3  N   UNL     1     -11.287  13.500  65.837  1.00  0.00    -0.305 NA 
BRANCH   3   4
HETATM    4  C   UNL     1     -12.015  14.651  65.244  1.00  0.00    -0.302 C  
BRANCH   4   5
HETATM    5  C   UNL     1     -11.142  15.843  64.811  1.00  0.00    -0.384 C  
HETATM    6  H   UNL     1     -11.228  17.293  63.477  1.00  0.00     0.000 HD 
HETATM    7  O   UNL     1     -11.767  16.558  63.744  1.00  0.00    -1.086 OA 
ENDBRANCH   4   5
ENDBRANCH   3   4
BRANCH   3   8
HETATM    8  C   UNL     1     -12.143  12.780  66.811  1.00  0.00    -0.220 C  
BRANCH   8   9
HETATM    9  C   UNL     1     -11.390  12.071  67.958  1.00  0.00    -0.358 C  
BRANCH   9  10
HETATM   10  C   UNL     1     -11.710  12.587  69.372  1.00  0.00    -0.383 C  
BRANCH  10  11
HETATM   11  C   UNL     1     -11.724  14.124  69.492  1.00  0.00    -0.312 C  
HETATM   12  C   UNL     1     -12.730  14.609  70.538  1.00  0.00    -0.394 C  
BRANCH  11  13
HETATM   13  N   UNL     1     -10.376  14.620  69.853  1.00  0.00    -0.446 NA 
HETATM   14  H   UNL     1     -10.085  14.703  70.827  1.00  0.00     0.000 HD 
BRANCH  13  15
HETATM   15  C   UNL     1      -9.504  14.975  68.786  1.00  0.00    -0.210 A  
HETATM   16  C   UNL     1      -9.579  16.265  68.195  1.00  0.00    -0.219 A  
HETATM   17  C   UNL     1     -10.525  17.252  68.567  1.00  0.00    -0.375 A  
HETATM   18  C   UNL     1     -10.551  18.499  67.937  1.00  0.00    -0.385 A  
HETATM   19  C   UNL     1      -9.645  18.767  66.920  1.00  0.00    -0.309 A  
HETATM   20  C   UNL     1      -8.710  17.809  66.539  1.00  0.00    -0.281 A  
HETATM   21 CL   UNL     1      -9.670  20.294  66.125  1.00  0.00    -0.484 Cl 
HETATM   22  C   UNL     1      -8.658  16.576  67.162  1.00  0.00    -0.186 A  
HETATM   23  N   UNL     1      -7.706  15.727  66.751  1.00  0.00    -0.218 NA 
HETATM   24  C   UNL     1      -7.613  14.539  67.376  1.00  0.00    -0.184 A  
HETATM   25  C   UNL     1      -8.456  14.142  68.395  1.00  0.00    -0.170 A  
ENDBRANCH  13  15
ENDBRANCH  11  13
ENDBRANCH  10  11
ENDBRANCH   9  10
ENDBRANCH   8   9
ENDBRANCH   3   8
ENDBRANCH   2   3
TORSDOF 9
ENDMDL
MODEL       23
REMARK 921   NORMALIZED FREE ENERGY PREDICTED BY IDOCK:   -5.26 KCAL/MOL
REMARK 922        TOTAL FREE ENERGY PREDICTED BY IDOCK:   -9.25 KCAL/MOL
REMARK 923 INTER-LIGAND FREE ENERGY PREDICTED BY IDOCK:   -8.28 KCAL/MOL
REMARK 924 INTRA-LIGAND FREE ENERGY PREDICTED BY IDOCK:   -0.97 KCAL/MOL
REMARK 927      BINDING AFFINITY PREDICTED BY RF-SCORE:    0.00 PKD
ROOT
HETATM    1  C   UNL     1     -14.202   7.909  71.416  1.00  0.00    -0.467 C  
HETATM    2  C   UNL     1     -12.735   7.990  71.826  1.00  0.00    -0.329 C  
ENDROOT
BRANCH   2   3
HETATM    3  N   UNL     1     -12.183   9.358  71.973  1.00  0.00    -0.352 NA 
BRANCH   3   4
HETATM    4  C   UNL     1     -10.883   9.477  71.265  1.00  0.00    -0.343 C  
BRANCH   4   5
HETATM    5  C   UNL     1     -10.653   8.476  70.117  1.00  0.00    -0.232 C  
HETATM    6  H   UNL     1     -10.495   8.535  68.153  1.00  0.00     0.000 HD 
HETATM    7  O   UNL     1     -10.637   9.152  68.861  1.00  0.00    -0.222 OA 
ENDBRANCH   4   5
ENDBRANCH   3   4
BRANCH   3   8
HETATM    8  C   UNL     1     -13.161  10.341  71.446  1.00  0.00    -0.414 C  
BRANCH   8   9
HETATM    9  C   UNL     1     -12.560  11.679  70.961  1.00  0.00    -0.431 C  
BRANCH   9  10
HETATM   10  C   UNL     1     -13.069  12.932  71.696  1.00  0.00    -0.430 C  
BRANCH  10  11
HETATM   11  C   UNL     1     -12.930  14.235  70.886  1.00  0.00    -0.329 C  
HETATM   12  C   UNL     1     -13.192  15.476  71.744  1.00  0.00    -0.567 C  
BRANCH  11  13
HETATM   13  N   UNL     1     -11.573  14.331  70.301  1.00  0.00    -0.414 NA 
HETATM   14  H   UNL     1     -10.739  14.253  70.882  1.00  0.00     0.000 HD 
BRANCH  13  15
HETATM   15  C   UNL     1     -11.482  14.537  68.896  1.00  0.00    -0.300 A  
HETATM   16  C   UNL     1     -10.951  15.750  68.379  1.00  0.00    -0.323 A  
HETATM   17  C   UNL     1     -10.533  16.837  69.185  1.00  0.00    -0.343 A  
HETATM   18  C   UNL     1     -10.030  18.008  68.611  1.00  0.00    -0.396 A  
HETATM   19  C   UNL     1      -9.954  18.110  67.229  1.00  0.00    -0.330 A  
HETATM   20  C   UNL     1     -10.363  17.053  66.421  1.00  0.00    -0.304 A  
HETATM   21 CL   UNL     1      -9.347  19.549  66.505  1.00  0.00    -0.404 Cl 
HETATM   22  C   UNL     1     -10.847  15.881  66.971  1.00  0.00    -0.252 A  
HETATM   23  N   UNL     1     -11.190  14.906  66.118  1.00  0.00    -0.336 NA 
HETATM   24  C   UNL     1     -11.622  13.742  66.636  1.00  0.00    -0.369 A  
HETATM   25  C   UNL     1     -11.755  13.511  67.991  1.00  0.00    -0.394 A  
ENDBRANCH  13  15
ENDBRANCH  11  13
ENDBRANCH  10  11
ENDBRANCH   9  10
ENDBRANCH   8   9
ENDBRANCH   3   8
ENDBRANCH   2   3
TORSDOF 9
ENDMDL
MODEL       24
REMARK 921   NORMALIZED FREE ENERGY PREDICTED BY IDOCK:   -5.24 KCAL/MOL
REMARK 922        TOTAL FREE ENERGY PREDICTED BY IDOCK:   -9.23 KCAL/MOL
REMARK 923 INTER-LIGAND FREE ENERGY PREDICTED BY IDOCK:   -8.27 KCAL/MOL
REMARK 924 INTRA-LIGAND FREE ENERGY PREDICTED BY IDOCK:   -0.96 KCAL/MOL
REMARK 927      BINDING AFFINITY PREDICTED BY RF-SCORE:    0.00 PKD
ROOT
HETATM    1  C   UNL     1     -13.827   9.034  72.259  1.00  0.00    -0.547 C  
HETATM    2  C   UNL     1     -12.722   8.085  71.803  1.00  0.00    -0.329 C  
ENDROOT
BRANCH   2   3
HETATM    3  N   UNL     1     -11.415   8.246  72.482  1.00  0.00    -0.392 NA 
BRANCH   3   4
HETATM    4  C   UNL     1     -11.025   6.992  73.173  1.00  0.00    -0.281 C  
BRANCH   4   5
HETATM    5  C   UNL     1     -11.389   5.685  72.442  1.00  0.00    -0.270 C  
HETATM    6  H   UNL     1     -11.701   3.797  72.918  1.00  0.00     0.000 HD 
HETATM    7  O   UNL     1     -11.476   4.602  73.368  1.00  0.00    -0.328 OA 
ENDBRANCH   4   5
ENDBRANCH   3   4
BRANCH   3   8
HETATM    8  C   UNL     1     -10.390   8.638  71.484  1.00  0.00    -0.271 C  
BRANCH   8   9
HETATM    9  C   UNL     1     -10.701   9.920  70.681  1.00  0.00    -0.372 C  
BRANCH   9  10
HETATM   10  C   UNL     1     -10.902   9.716  69.169  1.00  0.00    -0.212 C  
BRANCH  10  11
HETATM   11  C   UNL     1     -10.666  10.986  68.327  1.00  0.00    -0.196 C  
HETATM   12  C   UNL     1     -10.116  10.658  66.937  1.00  0.00    -0.260 C  
BRANCH  11  13
HETATM   13  N   UNL     1     -11.929  11.743  68.180  1.00  0.00    -0.557 NA 
HETATM   14  H   UNL     1     -12.805  11.274  67.953  1.00  0.00     0.000 HD 
BRANCH  13  15
HETATM   15  C   UNL     1     -11.870  13.153  68.369  1.00  0.00    -0.351 A  
HETATM   16  C   UNL     1     -12.190  13.723  69.631  1.00  0.00    -0.359 A  
HETATM   17  C   UNL     1     -12.629  12.974  70.750  1.00  0.00    -0.321 A  
HETATM   18  C   UNL     1     -12.939  13.599  71.960  1.00  0.00    -0.427 A  
HETATM   19  C   UNL     1     -12.829  14.980  72.060  1.00  0.00    -0.333 A  
HETATM   20  C   UNL     1     -12.402  15.733  70.970  1.00  0.00    -0.465 A  
HETATM   21 CL   UNL     1     -13.216  15.769  73.541  1.00  0.00    -0.629 Cl 
HETATM   22  C   UNL     1     -12.075  15.130  69.770  1.00  0.00    -0.319 A  
HETATM   23  N   UNL     1     -11.646  15.930  68.785  1.00  0.00    -0.390 NA 
HETATM   24  C   UNL     1     -11.282  15.356  67.624  1.00  0.00    -0.311 A  
HETATM   25  C   UNL     1     -11.352  13.997  67.388  1.00  0.00    -0.350 A  
ENDBRANCH  13  15
ENDBRANCH  11  13
ENDBRANCH  10  11
ENDBRANCH   9  10
ENDBRANCH   8   9
ENDBRANCH   3   8
ENDBRANCH   2   3
TORSDOF 9
ENDMDL
MODEL       25
REMARK 921   NORMALIZED FREE ENERGY PREDICTED BY IDOCK:   -5.19 KCAL/MOL
REMARK 922        TOTAL FREE ENERGY PREDICTED BY IDOCK:   -9.15 KCAL/MOL
REMARK 923 INTER-LIGAND FREE ENERGY PREDICTED BY IDOCK:   -8.04 KCAL/MOL
REMARK 924 INTRA-LIGAND FREE ENERGY PREDICTED BY IDOCK:   -1.11 KCAL/MOL
REMARK 927      BINDING AFFINITY PREDICTED BY RF-SCORE:    0.00 PKD
ROOT
HETATM    1  C   UNL     1     -10.602   5.773  68.473  1.00  0.00    -0.299 C  
HETATM    2  C   UNL     1     -10.878   5.723  69.973  1.00  0.00    -0.333 C  
ENDROOT
BRANCH   2   3
HETATM    3  N   UNL     1     -11.318   6.998  70.589  1.00  0.00    -0.292 NA 
BRANCH   3   4
HETATM    4  C   UNL     1     -12.344   6.749  71.633  1.00  0.00    -0.362 C  
BRANCH   4   5
HETATM    5  C   UNL     1     -13.592   7.649  71.572  1.00  0.00    -0.353 C  
HETATM    6  H   UNL     1     -14.186   9.359  72.354  1.00  0.00     0.000 HD 
HETATM    7  O   UNL     1     -13.416   8.804  72.391  1.00  0.00    -0.403 OA 
ENDBRANCH   4   5
ENDBRANCH   3   4
BRANCH   3   8
HETATM    8  C   UNL     1     -10.142   7.697  71.162  1.00  0.00    -0.184 C  
BRANCH   8   9
HETATM    9  C   UNL     1      -9.631   8.909  70.352  1.00  0.00    -0.227 C  
BRANCH   9  10
HETATM   10  C   UNL     1     -10.618  10.083  70.232  1.00  0.00    -0.354 C  
BRANCH  10  11
HETATM   11  C   UNL     1     -10.795  10.610  68.794  1.00  0.00    -0.229 C  
HETATM   12  C   UNL     1     -10.885   9.474  67.773  1.00  0.00    -0.258 C  
BRANCH  11  13
HETATM   13  N   UNL     1     -12.017  11.440  68.701  1.00  0.00    -0.517 NA 
HETATM   14  H   UNL     1     -12.940  11.016  68.605  1.00  0.00     0.000 HD 
BRANCH  13  15
HETATM   15  C   UNL     1     -11.852  12.853  68.752  1.00  0.00    -0.315 A  
HETATM   16  C   UNL     1     -12.171  13.572  69.936  1.00  0.00    -0.356 A  
HETATM   17  C   UNL     1     -12.709  12.976  71.103  1.00  0.00    -0.372 A  
HETATM   18  C   UNL     1     -13.012  13.744  72.230  1.00  0.00    -0.432 A  
HETATM   19  C   UNL     1     -12.795  15.115  72.198  1.00  0.00    -0.344 A  
HETATM   20  C   UNL     1     -12.270  15.718  71.059  1.00  0.00    -0.466 A  
HETATM   21 CL   UNL     1     -13.172  16.078  73.574  1.00  0.00    -0.657 Cl 
HETATM   22  C   UNL     1     -11.949  14.973  69.940  1.00  0.00    -0.334 A  
HETATM   23  N   UNL     1     -11.421  15.632  68.901  1.00  0.00    -0.340 NA 
HETATM   24  C   UNL     1     -11.062  14.917  67.819  1.00  0.00    -0.309 A  
HETATM   25  C   UNL     1     -11.232  13.550  67.716  1.00  0.00    -0.308 A  
ENDBRANCH  13  15
ENDBRANCH  11  13
ENDBRANCH  10  11
ENDBRANCH   9  10
ENDBRANCH   8   9
ENDBRANCH   3   8
ENDBRANCH   2   3
TORSDOF 9
ENDMDL
MODEL       26
REMARK 921   NORMALIZED FREE ENERGY PREDICTED BY IDOCK:   -5.15 KCAL/MOL
REMARK 922        TOTAL FREE ENERGY PREDICTED BY IDOCK:   -9.08 KCAL/MOL
REMARK 923 INTER-LIGAND FREE ENERGY PREDICTED BY IDOCK:   -8.35 KCAL/MOL
REMARK 924 INTRA-LIGAND FREE ENERGY PREDICTED BY IDOCK:   -0.74 KCAL/MOL
REMARK 927      BINDING AFFINITY PREDICTED BY RF-SCORE:    0.00 PKD
ROOT
HETATM    1  C   UNL     1     -11.007  16.444  64.918  1.00  0.00    -0.277 C  
HETATM    2  C   UNL     1     -10.960  14.925  64.774  1.00  0.00    -0.375 C  
ENDROOT
BRANCH   2   3
HETATM    3  N   UNL     1     -12.267  14.258  64.569  1.00  0.00    -0.539 NA 
BRANCH   3   4
HETATM    4  C   UNL     1     -12.245  13.433  63.335  1.00  0.00    -0.349 C  
BRANCH   4   5
HETATM    5  C   UNL     1     -12.303  11.908  63.548  1.00  0.00    -0.490 C  
HETATM    6  H   UNL     1     -11.025  10.411  63.661  1.00  0.00     0.000 HD 
HETATM    7  O   UNL     1     -10.989  11.351  63.529  1.00  0.00    -0.398 OA 
ENDBRANCH   4   5
ENDBRANCH   3   4
BRANCH   3   8
HETATM    8  C   UNL     1     -12.584  13.424  65.754  1.00  0.00    -0.393 C  
BRANCH   8   9
HETATM    9  C   UNL     1     -11.414  13.199  66.738  1.00  0.00    -0.386 C  
BRANCH   9  10
HETATM   10  C   UNL     1     -11.826  12.881  68.186  1.00  0.00    -0.380 C  
BRANCH  10  11
HETATM   11  C   UNL     1     -11.754  11.384  68.546  1.00  0.00    -0.318 C  
HETATM   12  C   UNL     1     -10.932  10.588  67.529  1.00  0.00    -0.365 C  
BRANCH  11  13
HETATM   13  N   UNL     1     -11.158  11.210  69.890  1.00  0.00    -0.446 NA 
HETATM   14  H   UNL     1     -10.338  11.744  70.180  1.00  0.00     0.000 HD 
BRANCH  13  15
HETATM   15  C   UNL     1     -11.774  10.268  70.760  1.00  0.00    -0.360 A  
HETATM   16  C   UNL     1     -10.986   9.325  71.474  1.00  0.00    -0.446 A  
HETATM   17  C   UNL     1      -9.580   9.211  71.346  1.00  0.00    -0.316 A  
HETATM   18  C   UNL     1      -8.866   8.253  72.070  1.00  0.00    -0.256 A  
HETATM   19  C   UNL     1      -9.549   7.389  72.916  1.00  0.00    -0.176 A  
HETATM   20  C   UNL     1     -10.931   7.485  73.052  1.00  0.00    -0.443 A  
HETATM   21 CL   UNL     1      -8.687   6.196  73.807  1.00  0.00    -0.123 Cl 
HETATM   22  C   UNL     1     -11.652   8.437  72.357  1.00  0.00    -0.380 A  
HETATM   23  N   UNL     1     -12.974   8.475  72.572  1.00  0.00    -0.306 NA 
HETATM   24  C   UNL     1     -13.686   9.424  71.937  1.00  0.00    -0.368 A  
HETATM   25  C   UNL     1     -13.134  10.338  71.062  1.00  0.00    -0.458 A  
ENDBRANCH  13  15
ENDBRANCH  11  13
ENDBRANCH  10  11
ENDBRANCH   9  10
ENDBRANCH   8   9
ENDBRANCH   3   8
ENDBRANCH   2   3
TORSDOF 9
ENDMDL
MODEL       27
REMARK 921   NORMALIZED FREE ENERGY PREDICTED BY IDOCK:   -5.14 KCAL/MOL
REMARK 922        TOTAL FREE ENERGY PREDICTED BY IDOCK:   -9.07 KCAL/MOL
REMARK 923 INTER-LIGAND FREE ENERGY PREDICTED BY IDOCK:   -7.93 KCAL/MOL
REMARK 924 INTRA-LIGAND FREE ENERGY PREDICTED BY IDOCK:   -1.14 KCAL/MOL
REMARK 927      BINDING AFFINITY PREDICTED BY RF-SCORE:    0.00 PKD
ROOT
HETATM    1  C   UNL     1     -10.171   7.573  73.307  1.00  0.00    -0.398 C  
HETATM    2  C   UNL     1     -11.192   6.700  72.584  1.00  0.00    -0.249 C  
ENDROOT
BRANCH   2   3
HETATM    3  N   UNL     1     -11.798   7.293  71.368  1.00  0.00    -0.289 NA 
BRANCH   3   4
HETATM    4  C   UNL     1     -11.539   6.437  70.183  1.00  0.00    -0.381 C  
BRANCH   4   5
HETATM    5  C   UNL     1     -10.150   5.774  70.128  1.00  0.00    -0.212 C  
HETATM    6  H   UNL     1      -8.312   6.296  69.640  1.00  0.00     0.000 HD 
HETATM    7  O   UNL     1      -9.169   6.705  69.673  1.00  0.00    -0.145 OA 
ENDBRANCH   4   5
ENDBRANCH   3   4
BRANCH   3   8
HETATM    8  C   UNL     1     -13.255   7.467  71.582  1.00  0.00    -0.356 C  
BRANCH   8   9
HETATM    9  C   UNL     1     -13.765   8.924  71.522  1.00  0.00    -0.394 C  
BRANCH   9  10
HETATM   10  C   UNL     1     -12.731   9.998  71.905  1.00  0.00    -0.493 C  
BRANCH  10  11
HETATM   11  C   UNL     1     -12.869  11.313  71.113  1.00  0.00    -0.352 C  
HETATM   12  C   UNL     1     -13.328  12.473  72.001  1.00  0.00    -0.528 C  
BRANCH  11  13
HETATM   13  N   UNL     1     -11.576  11.670  70.487  1.00  0.00    -0.454 NA 
HETATM   14  H   UNL     1     -10.881  12.227  70.984  1.00  0.00     0.000 HD 
BRANCH  13  15
HETATM   15  C   UNL     1     -11.342  11.203  69.163  1.00  0.00    -0.273 A  
HETATM   16  C   UNL     1     -11.517  12.072  68.052  1.00  0.00    -0.392 A  
HETATM   17  C   UNL     1     -11.973  13.409  68.158  1.00  0.00    -0.356 A  
HETATM   18  C   UNL     1     -12.134  14.207  67.022  1.00  0.00    -0.449 A  
HETATM   19  C   UNL     1     -11.858  13.674  65.770  1.00  0.00    -0.371 A  
HETATM   20  C   UNL     1     -11.413  12.362  65.647  1.00  0.00    -0.412 A  
HETATM   21 CL   UNL     1     -12.062  14.640  64.360  1.00  0.00    -0.498 Cl 
HETATM   22  C   UNL     1     -11.230  11.562  66.760  1.00  0.00    -0.285 A  
HETATM   23  N   UNL     1     -10.770  10.322  66.549  1.00  0.00    -0.133 NA 
HETATM   24  C   UNL     1     -10.546   9.544  67.623  1.00  0.00    -0.269 A  
HETATM   25  C   UNL     1     -10.787   9.946  68.922  1.00  0.00    -0.239 A  
ENDBRANCH  13  15
ENDBRANCH  11  13
ENDBRANCH  10  11
ENDBRANCH   9  10
ENDBRANCH   8   9
ENDBRANCH   3   8
ENDBRANCH   2   3
TORSDOF 9
ENDMDL
MODEL       28
REMARK 921   NORMALIZED FREE ENERGY PREDICTED BY IDOCK:   -5.13 KCAL/MOL
REMARK 922        TOTAL FREE ENERGY PREDICTED BY IDOCK:   -9.06 KCAL/MOL
REMARK 923 INTER-LIGAND FREE ENERGY PREDICTED BY IDOCK:   -8.13 KCAL/MOL
REMARK 924 INTRA-LIGAND FREE ENERGY PREDICTED BY IDOCK:   -0.93 KCAL/MOL
REMARK 927      BINDING AFFINITY PREDICTED BY RF-SCORE:    0.00 PKD
ROOT
HETATM    1  C   UNL     1      -7.145  20.286  66.857  1.00  0.00    -0.303 C  
HETATM    2  C   UNL     1      -7.517  19.590  68.163  1.00  0.00    -0.300 C  
ENDROOT
BRANCH   2   3
HETATM    3  N   UNL     1      -8.002  18.195  68.033  1.00  0.00    -0.256 NA 
BRANCH   3   4
HETATM    4  C   UNL     1      -6.991  17.239  68.550  1.00  0.00    -0.209 C  
BRANCH   4   5
HETATM    5  C   UNL     1      -6.565  16.124  67.576  1.00  0.00    -0.171 C  
HETATM    6  H   UNL     1      -5.429  15.955  65.974  1.00  0.00     0.000 HD 
HETATM    7  O   UNL     1      -5.692  16.643  66.574  1.00  0.00    -0.333 OA 
ENDBRANCH   4   5
ENDBRANCH   3   4
BRANCH   3   8
HETATM    8  C   UNL     1      -9.284  18.052  68.765  1.00  0.00    -0.218 C  
BRANCH   8   9
HETATM    9  C   UNL     1     -10.504  17.673  67.897  1.00  0.00    -0.392 C  
BRANCH   9  10
HETATM   10  C   UNL     1     -10.523  16.222  67.386  1.00  0.00    -0.304 C  
BRANCH  10  11
HETATM   11  C   UNL     1     -11.605  15.340  68.038  1.00  0.00    -0.312 C  
HETATM   12  C   UNL     1     -12.059  14.208  67.112  1.00  0.00    -0.432 C  
BRANCH  11  13
HETATM   13  N   UNL     1     -11.095  14.755  69.299  1.00  0.00    -0.255 NA 
HETATM   14  H   UNL     1     -10.114  14.499  69.406  1.00  0.00     0.000 HD 
BRANCH  13  15
HETATM   15  C   UNL     1     -12.031  14.565  70.355  1.00  0.00    -0.318 A  
HETATM   16  C   UNL     1     -12.362  13.255  70.795  1.00  0.00    -0.425 A  
HETATM   17  C   UNL     1     -11.851  12.071  70.210  1.00  0.00    -0.356 A  
HETATM   18  C   UNL     1     -12.228  10.812  70.686  1.00  0.00    -0.474 A  
HETATM   19  C   UNL     1     -13.129  10.723  71.738  1.00  0.00    -0.468 A  
HETATM   20  C   UNL     1     -13.644  11.876  72.323  1.00  0.00    -0.109 A  
HETATM   21 CL   UNL     1     -13.612   9.180  72.329  1.00  0.00    -0.508 Cl 
HETATM   22  C   UNL     1     -13.270  13.130  71.878  1.00  0.00    -0.431 A  
HETATM   23  N   UNL     1     -13.792  14.184  72.520  1.00  0.00    -0.610 NA 
HETATM   24  C   UNL     1     -13.407  15.411  72.128  1.00  0.00    -0.444 A  
HETATM   25  C   UNL     1     -12.526  15.641  71.090  1.00  0.00    -0.505 A  
ENDBRANCH  13  15
ENDBRANCH  11  13
ENDBRANCH  10  11
ENDBRANCH   9  10
ENDBRANCH   8   9
ENDBRANCH   3   8
ENDBRANCH   2   3
TORSDOF 9
ENDMDL
MODEL       29
REMARK 921   NORMALIZED FREE ENERGY PREDICTED BY IDOCK:   -5.13 KCAL/MOL
REMARK 922        TOTAL FREE ENERGY PREDICTED BY IDOCK:   -9.06 KCAL/MOL
REMARK 923 INTER-LIGAND FREE ENERGY PREDICTED BY IDOCK:   -8.10 KCAL/MOL
REMARK 924 INTRA-LIGAND FREE ENERGY PREDICTED BY IDOCK:   -0.96 KCAL/MOL
REMARK 927      BINDING AFFINITY PREDICTED BY RF-SCORE:    0.00 PKD
ROOT
HETATM    1  C   UNL     1      -9.421  14.865  66.296  1.00  0.00    -0.339 C  
HETATM    2  C   UNL     1     -10.636  14.486  65.454  1.00  0.00    -0.370 C  
ENDROOT
BRANCH   2   3
HETATM    3  N   UNL     1     -10.913  13.034  65.342  1.00  0.00    -0.272 NA 
BRANCH   3   4
HETATM    4  C   UNL     1     -10.916  12.611  63.918  1.00  0.00    -0.424 C  
BRANCH   4   5
HETATM    5  C   UNL     1     -12.256  12.070  63.385  1.00  0.00    -0.519 C  
HETATM    6  H   UNL     1     -14.110  11.895  64.034  1.00  0.00     0.000 HD 
HETATM    7  O   UNL     1     -13.284  12.228  64.363  1.00  0.00    -0.806 OA 
ENDBRANCH   4   5
ENDBRANCH   3   4
BRANCH   3   8
HETATM    8  C   UNL     1      -9.895  12.280  66.113  1.00  0.00    -0.243 C  
BRANCH   8   9
HETATM    9  C   UNL     1     -10.165  10.766  66.263  1.00  0.00    -0.301 C  
BRANCH   9  10
HETATM   10  C   UNL     1      -9.245  10.030  67.253  1.00  0.00    -0.159 C  
BRANCH  10  11
HETATM   11  C   UNL     1      -9.952   9.564  68.540  1.00  0.00    -0.167 C  
HETATM   12  C   UNL     1      -9.231  10.051  69.800  1.00  0.00    -0.227 C  
BRANCH  11  13
HETATM   13  N   UNL     1     -11.348  10.057  68.563  1.00  0.00    -0.509 NA 
HETATM   14  H   UNL     1     -11.868  10.216  67.701  1.00  0.00     0.000 HD 
BRANCH  13  15
HETATM   15  C   UNL     1     -11.934  10.298  69.838  1.00  0.00    -0.150 A  
HETATM   16  C   UNL     1     -12.235  11.624  70.251  1.00  0.00    -0.401 A  
HETATM   17  C   UNL     1     -11.941  12.778  69.485  1.00  0.00    -0.338 A  
HETATM   18  C   UNL     1     -12.254  14.055  69.956  1.00  0.00    -0.414 A  
HETATM   19  C   UNL     1     -12.848  14.194  71.204  1.00  0.00    -0.360 A  
HETATM   20  C   UNL     1     -13.141  13.072  71.972  1.00  0.00    -0.481 A  
HETATM   21 CL   UNL     1     -13.231  15.761  71.805  1.00  0.00    -0.526 Cl 
HETATM   22  C   UNL     1     -12.855  11.799  71.515  1.00  0.00    -0.345 A  
HETATM   23  N   UNL     1     -13.199  10.776  72.309  1.00  0.00    -0.280 NA 
HETATM   24  C   UNL     1     -12.967   9.529  71.862  1.00  0.00    -0.425 A  
HETATM   25  C   UNL     1     -12.374   9.250  70.646  1.00  0.00    -0.047 A  
ENDBRANCH  13  15
ENDBRANCH  11  13
ENDBRANCH  10  11
ENDBRANCH   9  10
ENDBRANCH   8   9
ENDBRANCH   3   8
ENDBRANCH   2   3
TORSDOF 9
ENDMDL
MODEL       30
REMARK 921   NORMALIZED FREE ENERGY PREDICTED BY IDOCK:   -5.12 KCAL/MOL
REMARK 922        TOTAL FREE ENERGY PREDICTED BY IDOCK:   -9.05 KCAL/MOL
REMARK 923 INTER-LIGAND FREE ENERGY PREDICTED BY IDOCK:   -8.15 KCAL/MOL
REMARK 924 INTRA-LIGAND FREE ENERGY PREDICTED BY IDOCK:   -0.90 KCAL/MOL
REMARK 927      BINDING AFFINITY PREDICTED BY RF-SCORE:    0.00 PKD
ROOT
HETATM    1  C   UNL     1     -11.704   7.998  72.437  1.00  0.00    -0.444 C  
HETATM    2  C   UNL     1     -12.256   8.899  71.337  1.00  0.00    -0.318 C  
ENDROOT
BRANCH   2   3
HETATM    3  N   UNL     1     -11.605  10.224  71.203  1.00  0.00    -0.343 NA 
BRANCH   3   4
HETATM    4  C   UNL     1     -10.615  10.212  70.097  1.00  0.00    -0.281 C  
BRANCH   4   5
HETATM    5  C   UNL     1     -10.904   9.223  68.952  1.00  0.00    -0.099 C  
HETATM    6  H   UNL     1      -9.892   7.920  67.873  1.00  0.00     0.000 HD 
HETATM    7  O   UNL     1      -9.714   8.530  68.579  1.00  0.00    -0.157 OA 
ENDBRANCH   4   5
ENDBRANCH   3   4
BRANCH   3   8
HETATM    8  C   UNL     1     -12.642  11.258  70.971  1.00  0.00    -0.394 C  
BRANCH   8   9
HETATM    9  C   UNL     1     -12.132  12.584  70.364  1.00  0.00    -0.380 C  
BRANCH   9  10
HETATM   10  C   UNL     1     -12.852  13.852  70.857  1.00  0.00    -0.370 C  
BRANCH  10  11
HETATM   11  C   UNL     1     -12.174  15.167  70.427  1.00  0.00    -0.344 C  
HETATM   12  C   UNL     1     -11.843  16.061  71.625  1.00  0.00    -0.582 C  
BRANCH  11  13
HETATM   13  N   UNL     1     -10.927  14.879  69.682  1.00  0.00    -0.270 NA 
HETATM   14  H   UNL     1     -10.221  14.245  70.056  1.00  0.00     0.000 HD 
BRANCH  13  15
HETATM   15  C   UNL     1     -10.755  15.521  68.424  1.00  0.00    -0.263 A  
HETATM   16  C   UNL     1     -11.114  14.855  67.221  1.00  0.00    -0.336 A  
HETATM   17  C   UNL     1     -11.605  13.527  67.168  1.00  0.00    -0.393 A  
HETATM   18  C   UNL     1     -11.929  12.927  65.949  1.00  0.00    -0.504 A  
HETATM   19  C   UNL     1     -11.752  13.639  64.770  1.00  0.00    -0.377 A  
HETATM   20  C   UNL     1     -11.267  14.944  64.802  1.00  0.00    -0.393 A  
HETATM   21 CL   UNL     1     -12.136  12.911  63.258  1.00  0.00    -0.617 Cl 
HETATM   22  C   UNL     1     -10.958  15.560  66.000  1.00  0.00    -0.251 A  
HETATM   23  N   UNL     1     -10.526  16.827  65.938  1.00  0.00    -0.368 NA 
HETATM   24  C   UNL     1     -10.261  17.458  67.096  1.00  0.00    -0.323 A  
HETATM   25  C   UNL     1     -10.385  16.863  68.336  1.00  0.00    -0.338 A  
ENDBRANCH  13  15
ENDBRANCH  11  13
ENDBRANCH  10  11
ENDBRANCH   9  10
ENDBRANCH   8   9
ENDBRANCH   3   8
ENDBRANCH   2   3
TORSDOF 9
ENDMDL
MODEL       31
REMARK 921   NORMALIZED FREE ENERGY PREDICTED BY IDOCK:   -5.12 KCAL/MOL
REMARK 922        TOTAL FREE ENERGY PREDICTED BY IDOCK:   -9.05 KCAL/MOL
REMARK 923 INTER-LIGAND FREE ENERGY PREDICTED BY IDOCK:   -8.39 KCAL/MOL
REMARK 924 INTRA-LIGAND FREE ENERGY PREDICTED BY IDOCK:   -0.66 KCAL/MOL
REMARK 927      BINDING AFFINITY PREDICTED BY RF-SCORE:    0.00 PKD
ROOT
HETATM    1  C   UNL     1     -10.968  14.598  66.583  1.00  0.00    -0.323 C  
HETATM    2  C   UNL     1     -12.156  13.651  66.729  1.00  0.00    -0.399 C  
ENDROOT
BRANCH   2   3
HETATM    3  N   UNL     1     -11.913  12.247  66.324  1.00  0.00    -0.626 NA 
BRANCH   3   4
HETATM    4  C   UNL     1     -11.440  12.182  64.918  1.00  0.00    -0.325 C  
BRANCH   4   5
HETATM    5  C   UNL     1     -12.535  12.293  63.839  1.00  0.00    -0.485 C  
HETATM    6  H   UNL     1     -13.225  13.674  62.613  1.00  0.00     0.000 HD 
HETATM    7  O   UNL     1     -12.551  13.606  63.278  1.00  0.00    -0.816 OA 
ENDBRANCH   4   5
ENDBRANCH   3   4
BRANCH   3   8
HETATM    8  C   UNL     1     -10.920  11.637  67.241  1.00  0.00    -0.267 C  
BRANCH   8   9
HETATM    9  C   UNL     1     -11.507  10.733  68.348  1.00  0.00    -0.358 C  
BRANCH   9  10
HETATM   10  C   UNL     1     -11.731  11.419  69.707  1.00  0.00    -0.418 C  
BRANCH  10  11
HETATM   11  C   UNL     1     -11.934  10.439  70.879  1.00  0.00    -0.377 C  
HETATM   12  C   UNL     1     -13.169  10.790  71.713  1.00  0.00    -0.523 C  
BRANCH  11  13
HETATM   13  N   UNL     1     -12.072   9.056  70.371  1.00  0.00    -0.465 NA 
HETATM   14  H   UNL     1     -12.565   8.858  69.499  1.00  0.00     0.000 HD 
BRANCH  13  15
HETATM   15  C   UNL     1     -11.491   8.014  71.147  1.00  0.00    -0.276 A  
HETATM   16  C   UNL     1     -10.897   6.890  70.511  1.00  0.00    -0.289 A  
HETATM   17  C   UNL     1     -10.880   6.691  69.109  1.00  0.00    -0.329 A  
HETATM   18  C   UNL     1     -10.288   5.556  68.550  1.00  0.00    -0.247 A  
HETATM   19  C   UNL     1      -9.722   4.601  69.384  1.00  0.00    -0.202 A  
HETATM   20  C   UNL     1      -9.733   4.778  70.765  1.00  0.00    -0.267 A  
HETATM   21 CL   UNL     1      -8.998   3.191  68.713  1.00  0.00    -0.170 Cl 
HETATM   22  C   UNL     1     -10.298   5.903  71.335  1.00  0.00    -0.218 A  
HETATM   23  N   UNL     1     -10.236   6.004  72.670  1.00  0.00    -0.179 NA 
HETATM   24  C   UNL     1     -10.743   7.112  73.240  1.00  0.00    -0.361 A  
HETATM   25  C   UNL     1     -11.342   8.132  72.528  1.00  0.00    -0.469 A  
ENDBRANCH  13  15
ENDBRANCH  11  13
ENDBRANCH  10  11
ENDBRANCH   9  10
ENDBRANCH   8   9
ENDBRANCH   3   8
ENDBRANCH   2   3
TORSDOF 9
ENDMDL
MODEL       32
REMARK 921   NORMALIZED FREE ENERGY PREDICTED BY IDOCK:   -5.11 KCAL/MOL
REMARK 922        TOTAL FREE ENERGY PREDICTED BY IDOCK:   -9.03 KCAL/MOL
REMARK 923 INTER-LIGAND FREE ENERGY PREDICTED BY IDOCK:   -8.45 KCAL/MOL
REMARK 924 INTRA-LIGAND FREE ENERGY PREDICTED BY IDOCK:   -0.58 KCAL/MOL
REMARK 927      BINDING AFFINITY PREDICTED BY RF-SCORE:    0.00 PKD
ROOT
HETATM    1  C   UNL     1     -13.031  13.862  71.571  1.00  0.00    -0.436 C  
HETATM    2  C   UNL     1     -13.364  12.408  71.893  1.00  0.00    -0.349 C  
ENDROOT
BRANCH   2   3
HETATM    3  N   UNL     1     -12.489  11.392  71.260  1.00  0.00    -0.350 NA 
BRANCH   3   4
HETATM    4  C   UNL     1     -13.239  10.134  71.017  1.00  0.00    -0.335 C  
BRANCH   4   5
HETATM    5  C   UNL     1     -13.435   9.224  72.244  1.00  0.00    -0.482 C  
HETATM    6  H   UNL     1     -14.336   7.519  72.655  1.00  0.00     0.000 HD 
HETATM    7  O   UNL     1     -14.216   8.081  71.898  1.00  0.00    -0.396 OA 
ENDBRANCH   4   5
ENDBRANCH   3   4
BRANCH   3   8
HETATM    8  C   UNL     1     -11.945  11.935  69.992  1.00  0.00    -0.332 C  
BRANCH   8   9
HETATM    9  C   UNL     1     -11.816  10.918  68.836  1.00  0.00    -0.340 C  
BRANCH   9  10
HETATM   10  C   UNL     1     -11.341  11.504  67.495  1.00  0.00    -0.366 C  
BRANCH  10  11
HETATM   11  C   UNL     1     -10.025  10.894  66.974  1.00  0.00    -0.192 C  
HETATM   12  C   UNL     1     -10.180   9.414  66.617  1.00  0.00    -0.319 C  
BRANCH  11  13
HETATM   13  N   UNL     1      -9.558  11.632  65.779  1.00  0.00    -0.230 NA 
HETATM   14  H   UNL     1      -8.599  11.545  65.443  1.00  0.00     0.000 HD 
BRANCH  13  15
HETATM   15  C   UNL     1     -10.501  12.468  65.118  1.00  0.00    -0.293 A  
HETATM   16  C   UNL     1     -10.472  13.876  65.308  1.00  0.00    -0.386 A  
HETATM   17  C   UNL     1      -9.572  14.538  66.178  1.00  0.00    -0.325 A  
HETATM   18  C   UNL     1      -9.605  15.927  66.327  1.00  0.00    -0.345 A  
HETATM   19  C   UNL     1     -10.546  16.666  65.622  1.00  0.00    -0.270 A  
HETATM   20  C   UNL     1     -11.440  16.032  64.765  1.00  0.00    -0.201 A  
HETATM   21 CL   UNL     1     -10.607  18.377  65.802  1.00  0.00    -0.377 Cl 
HETATM   22  C   UNL     1     -11.412  14.661  64.592  1.00  0.00    -0.388 A  
HETATM   23  N   UNL     1     -12.290  14.139  63.725  1.00  0.00    -0.759 NA 
HETATM   24  C   UNL     1     -12.249  12.812  63.511  1.00  0.00    -0.525 A  
HETATM   25  C   UNL     1     -11.370  11.961  64.152  1.00  0.00    -0.455 A  
ENDBRANCH  13  15
ENDBRANCH  11  13
ENDBRANCH  10  11
ENDBRANCH   9  10
ENDBRANCH   8   9
ENDBRANCH   3   8
ENDBRANCH   2   3
TORSDOF 9
ENDMDL
MODEL       33
REMARK 921   NORMALIZED FREE ENERGY PREDICTED BY IDOCK:   -5.06 KCAL/MOL
REMARK 922        TOTAL FREE ENERGY PREDICTED BY IDOCK:   -8.95 KCAL/MOL
REMARK 923 INTER-LIGAND FREE ENERGY PREDICTED BY IDOCK:   -7.95 KCAL/MOL
REMARK 924 INTRA-LIGAND FREE ENERGY PREDICTED BY IDOCK:   -1.00 KCAL/MOL
REMARK 927      BINDING AFFINITY PREDICTED BY RF-SCORE:    0.00 PKD
ROOT
HETATM    1  C   UNL     1     -10.732  11.323  65.314  1.00  0.00    -0.302 C  
HETATM    2  C   UNL     1     -11.441  12.509  65.961  1.00  0.00    -0.377 C  
ENDROOT
BRANCH   2   3
HETATM    3  N   UNL     1     -10.594  13.697  66.227  1.00  0.00    -0.286 NA 
BRANCH   3   4
HETATM    4  C   UNL     1     -10.490  14.547  65.014  1.00  0.00    -0.429 C  
BRANCH   4   5
HETATM    5  C   UNL     1     -11.803  15.200  64.540  1.00  0.00    -0.330 C  
HETATM    6  H   UNL     1     -12.351  16.874  63.655  1.00  0.00     0.000 HD 
HETATM    7  O   UNL     1     -11.542  16.472  63.947  1.00  0.00    -1.175 OA 
ENDBRANCH   4   5
ENDBRANCH   3   4
BRANCH   3   8
HETATM    8  C   UNL     1     -11.167  14.464  67.359  1.00  0.00    -0.325 C  
BRANCH   8   9
HETATM    9  C   UNL     1     -11.929  13.626  68.410  1.00  0.00    -0.391 C  
BRANCH   9  10
HETATM   10  C   UNL     1     -11.815  14.128  69.860  1.00  0.00    -0.387 C  
BRANCH  10  11
HETATM   11  C   UNL     1     -12.260  13.100  70.918  1.00  0.00    -0.241 C  
HETATM   12  C   UNL     1     -13.338  13.663  71.848  1.00  0.00    -0.510 C  
BRANCH  11  13
HETATM   13  N   UNL     1     -12.780  11.881  70.259  1.00  0.00     0.025 NA 
HETATM   14  H   UNL     1     -13.335  11.936  69.405  1.00  0.00     0.000 HD 
BRANCH  13  15
HETATM   15  C   UNL     1     -12.476  10.630  70.865  1.00  0.00    -0.397 A  
HETATM   16  C   UNL     1     -11.252   9.969  70.574  1.00  0.00    -0.408 A  
HETATM   17  C   UNL     1     -10.292  10.451  69.651  1.00  0.00    -0.261 A  
HETATM   18  C   UNL     1      -9.113   9.745  69.402  1.00  0.00    -0.209 A  
HETATM   19  C   UNL     1      -8.888   8.542  70.060  1.00  0.00    -0.141 A  
HETATM   20  C   UNL     1      -9.822   8.051  70.967  1.00  0.00    -0.200 A  
HETATM   21 CL   UNL     1      -7.445   7.653  69.757  1.00  0.00    -0.088 Cl 
HETATM   22  C   UNL     1     -10.986   8.745  71.239  1.00  0.00    -0.275 A  
HETATM   23  N   UNL     1     -11.813   8.212  72.148  1.00  0.00    -0.336 NA 
HETATM   24  C   UNL     1     -12.930   8.894  72.457  1.00  0.00    -0.351 A  
HETATM   25  C   UNL     1     -13.279  10.095  71.872  1.00  0.00    -0.557 A  
ENDBRANCH  13  15
ENDBRANCH  11  13
ENDBRANCH  10  11
ENDBRANCH   9  10
ENDBRANCH   8   9
ENDBRANCH   3   8
ENDBRANCH   2   3
TORSDOF 9
ENDMDL
MODEL       34
REMARK 921   NORMALIZED FREE ENERGY PREDICTED BY IDOCK:   -5.05 KCAL/MOL
REMARK 922        TOTAL FREE ENERGY PREDICTED BY IDOCK:   -8.93 KCAL/MOL
REMARK 923 INTER-LIGAND FREE ENERGY PREDICTED BY IDOCK:   -7.82 KCAL/MOL
REMARK 924 INTRA-LIGAND FREE ENERGY PREDICTED BY IDOCK:   -1.11 KCAL/MOL
REMARK 927      BINDING AFFINITY PREDICTED BY RF-SCORE:    0.00 PKD
ROOT
HETATM    1  C   UNL     1     -10.228   7.756  66.912  1.00  0.00    -0.373 C  
HETATM    2  C   UNL     1      -9.897   8.373  68.268  1.00  0.00    -0.169 C  
ENDROOT
BRANCH   2   3
HETATM    3  N   UNL     1     -10.701   9.559  68.648  1.00  0.00    -0.210 NA 
BRANCH   3   4
HETATM    4  C   UNL     1     -10.643   9.782  70.115  1.00  0.00    -0.285 C  
BRANCH   4   5
HETATM    5  C   UNL     1     -11.825  10.562  70.719  1.00  0.00    -0.365 C  
HETATM    6  H   UNL     1     -13.045  10.383  72.258  1.00  0.00     0.000 HD 
HETATM    7  O   UNL     1     -12.316   9.901  71.885  1.00  0.00    -0.380 OA 
ENDBRANCH   4   5
ENDBRANCH   3   4
BRANCH   3   8
HETATM    8  C   UNL     1     -10.200  10.747  67.915  1.00  0.00    -0.176 C  
BRANCH   8   9
HETATM    9  C   UNL     1     -11.139  11.292  66.816  1.00  0.00    -0.314 C  
BRANCH   9  10
HETATM   10  C   UNL     1     -10.443  11.734  65.516  1.00  0.00    -0.311 C  
BRANCH  10  11
HETATM   11  C   UNL     1     -11.019  13.024  64.902  1.00  0.00    -0.307 C  
HETATM   12  C   UNL     1     -11.797  12.749  63.613  1.00  0.00    -0.603 C  
BRANCH  11  13
HETATM   13  N   UNL     1     -11.915  13.695  65.871  1.00  0.00    -0.381 NA 
HETATM   14  H   UNL     1     -12.855  13.345  66.055  1.00  0.00     0.000 HD 
BRANCH  13  15
HETATM   15  C   UNL     1     -11.411  14.848  66.536  1.00  0.00    -0.319 A  
HETATM   16  C   UNL     1     -11.506  14.963  67.949  1.00  0.00    -0.357 A  
HETATM   17  C   UNL     1     -12.134  14.003  68.781  1.00  0.00    -0.338 A  
HETATM   18  C   UNL     1     -12.203  14.183  70.164  1.00  0.00    -0.415 A  
HETATM   19  C   UNL     1     -11.662  15.330  70.730  1.00  0.00    -0.337 A  
HETATM   20  C   UNL     1     -11.044  16.286  69.929  1.00  0.00    -0.347 A  
HETATM   21 CL   UNL     1     -11.748  15.573  72.432  1.00  0.00    -0.538 Cl 
HETATM   22  C   UNL     1     -10.950  16.117  68.560  1.00  0.00    -0.338 A  
HETATM   23  N   UNL     1     -10.313  17.073  67.871  1.00  0.00    -0.323 NA 
HETATM   24  C   UNL     1     -10.175  16.905  66.544  1.00  0.00    -0.318 A  
HETATM   25  C   UNL     1     -10.674  15.817  65.855  1.00  0.00    -0.320 A  
ENDBRANCH  13  15
ENDBRANCH  11  13
ENDBRANCH  10  11
ENDBRANCH   9  10
ENDBRANCH   8   9
ENDBRANCH   3   8
ENDBRANCH   2   3
TORSDOF 9
ENDMDL
MODEL       35
REMARK 921   NORMALIZED FREE ENERGY PREDICTED BY IDOCK:   -5.03 KCAL/MOL
REMARK 922        TOTAL FREE ENERGY PREDICTED BY IDOCK:   -8.91 KCAL/MOL
REMARK 923 INTER-LIGAND FREE ENERGY PREDICTED BY IDOCK:   -8.17 KCAL/MOL
REMARK 924 INTRA-LIGAND FREE ENERGY PREDICTED BY IDOCK:   -0.74 KCAL/MOL
REMARK 927      BINDING AFFINITY PREDICTED BY RF-SCORE:    0.00 PKD
ROOT
HETATM    1  C   UNL     1     -10.606   6.690  69.011  1.00  0.00    -0.273 C  
HETATM    2  C   UNL     1     -10.321   7.784  70.035  1.00  0.00    -0.221 C  
ENDROOT
BRANCH   2   3
HETATM    3  N   UNL     1     -11.512   8.425  70.640  1.00  0.00    -0.253 NA 
BRANCH   3   4
HETATM    4  C   UNL     1     -11.994   7.640  71.805  1.00  0.00    -0.299 C  
BRANCH   4   5
HETATM    5  C   UNL     1     -13.384   6.995  71.648  1.00  0.00    -0.285 C  
HETATM    6  H   UNL     1     -15.232   7.597  71.317  1.00  0.00     0.000 HD 
HETATM    7  O   UNL     1     -14.375   7.995  71.415  1.00  0.00    -0.410 OA 
ENDBRANCH   4   5
ENDBRANCH   3   4
BRANCH   3   8
HETATM    8  C   UNL     1     -11.172   9.811  71.044  1.00  0.00    -0.381 C  
BRANCH   8   9
HETATM    9  C   UNL     1     -12.085  10.914  70.463  1.00  0.00    -0.464 C  
BRANCH   9  10
HETATM   10  C   UNL     1     -11.547  11.617  69.204  1.00  0.00    -0.378 C  
BRANCH  10  11
HETATM   11  C   UNL     1     -11.831  13.131  69.160  1.00  0.00    -0.314 C  
HETATM   12  C   UNL     1     -12.302  13.667  70.514  1.00  0.00    -0.425 C  
BRANCH  11  13
HETATM   13  N   UNL     1     -10.615  13.867  68.747  1.00  0.00    -0.251 NA 
HETATM   14  H   UNL     1      -9.773  13.866  69.323  1.00  0.00     0.000 HD 
BRANCH  13  15
HETATM   15  C   UNL     1     -10.667  14.574  67.513  1.00  0.00    -0.276 A  
HETATM   16  C   UNL     1     -10.492  15.984  67.484  1.00  0.00    -0.297 A  
HETATM   17  C   UNL     1     -10.310  16.782  68.640  1.00  0.00    -0.318 A  
HETATM   18  C   UNL     1     -10.154  18.167  68.542  1.00  0.00    -0.413 A  
HETATM   19  C   UNL     1     -10.195  18.771  67.292  1.00  0.00    -0.390 A  
HETATM   20  C   UNL     1     -10.377  18.003  66.146  1.00  0.00    -0.368 A  
HETATM   21 CL   UNL     1     -10.016  20.477  67.154  1.00  0.00    -0.577 Cl 
HETATM   22  C   UNL     1     -10.515  16.629  66.221  1.00  0.00    -0.268 A  
HETATM   23  N   UNL     1     -10.655  15.968  65.065  1.00  0.00    -0.606 NA 
HETATM   24  C   UNL     1     -10.748  14.627  65.116  1.00  0.00    -0.414 A  
HETATM   25  C   UNL     1     -10.732  13.903  66.292  1.00  0.00    -0.285 A  
ENDBRANCH  13  15
ENDBRANCH  11  13
ENDBRANCH  10  11
ENDBRANCH   9  10
ENDBRANCH   8   9
ENDBRANCH   3   8
ENDBRANCH   2   3
TORSDOF 9
ENDMDL
MODEL       36
REMARK 921   NORMALIZED FREE ENERGY PREDICTED BY IDOCK:   -5.03 KCAL/MOL
REMARK 922        TOTAL FREE ENERGY PREDICTED BY IDOCK:   -8.90 KCAL/MOL
REMARK 923 INTER-LIGAND FREE ENERGY PREDICTED BY IDOCK:   -7.91 KCAL/MOL
REMARK 924 INTRA-LIGAND FREE ENERGY PREDICTED BY IDOCK:   -1.00 KCAL/MOL
REMARK 927      BINDING AFFINITY PREDICTED BY RF-SCORE:    0.00 PKD
ROOT
HETATM    1  C   UNL     1     -12.145  14.001  69.190  1.00  0.00    -0.375 C  
HETATM    2  C   UNL     1     -11.732  13.721  67.748  1.00  0.00    -0.358 C  
ENDROOT
BRANCH   2   3
HETATM    3  N   UNL     1     -11.876  12.315  67.300  1.00  0.00    -0.555 NA 
BRANCH   3   4
HETATM    4  C   UNL     1     -11.623  12.202  65.841  1.00  0.00    -0.364 C  
BRANCH   4   5
HETATM    5  C   UNL     1     -12.580  12.998  64.933  1.00  0.00    -0.428 C  
HETATM    6  H   UNL     1     -13.385  12.794  63.145  1.00  0.00     0.000 HD 
HETATM    7  O   UNL     1     -12.795  12.304  63.705  1.00  0.00    -0.753 OA 
ENDBRANCH   4   5
ENDBRANCH   3   4
BRANCH   3   8
HETATM    8  C   UNL     1     -10.938  11.458  68.065  1.00  0.00    -0.237 C  
BRANCH   8   9
HETATM    9  C   UNL     1     -11.598  10.392  68.966  1.00  0.00    -0.220 C  
BRANCH   9  10
HETATM   10  C   UNL     1     -10.911  10.162  70.324  1.00  0.00    -0.380 C  
BRANCH  10  11
HETATM   11  C   UNL     1     -11.719   9.279  71.295  1.00  0.00    -0.346 C  
HETATM   12  C   UNL     1     -12.868  10.049  71.950  1.00  0.00    -0.524 C  
BRANCH  11  13
HETATM   13  N   UNL     1     -12.270   8.106  70.580  1.00  0.00    -0.491 NA 
HETATM   14  H   UNL     1     -13.108   8.182  70.004  1.00  0.00     0.000 HD 
BRANCH  13  15
HETATM   15  C   UNL     1     -11.584   6.868  70.730  1.00  0.00    -0.349 A  
HETATM   16  C   UNL     1     -10.971   6.245  69.609  1.00  0.00    -0.440 A  
HETATM   17  C   UNL     1     -11.033   6.755  68.289  1.00  0.00    -0.270 A  
HETATM   18  C   UNL     1     -10.417   6.085  67.228  1.00  0.00    -0.319 A  
HETATM   19  C   UNL     1      -9.747   4.894  67.472  1.00  0.00    -0.164 A  
HETATM   20  C   UNL     1      -9.678   4.377  68.763  1.00  0.00    -0.200 A  
HETATM   21 CL   UNL     1      -8.992   4.050  66.176  1.00  0.00    -0.124 Cl 
HETATM   22  C   UNL     1     -10.267   5.034  69.827  1.00  0.00    -0.266 A  
HETATM   23  N   UNL     1     -10.125   4.478  71.038  1.00  0.00    -0.184 NA 
HETATM   24  C   UNL     1     -10.654   5.125  72.092  1.00  0.00    -0.211 A  
HETATM   25  C   UNL     1     -11.353   6.312  71.988  1.00  0.00    -0.348 A  
ENDBRANCH  13  15
ENDBRANCH  11  13
ENDBRANCH  10  11
ENDBRANCH   9  10
ENDBRANCH   8   9
ENDBRANCH   3   8
ENDBRANCH   2   3
TORSDOF 9
ENDMDL
MODEL       37
REMARK 921   NORMALIZED FREE ENERGY PREDICTED BY IDOCK:   -5.03 KCAL/MOL
REMARK 922        TOTAL FREE ENERGY PREDICTED BY IDOCK:   -8.90 KCAL/MOL
REMARK 923 INTER-LIGAND FREE ENERGY PREDICTED BY IDOCK:   -8.00 KCAL/MOL
REMARK 924 INTRA-LIGAND FREE ENERGY PREDICTED BY IDOCK:   -0.90 KCAL/MOL
REMARK 927      BINDING AFFINITY PREDICTED BY RF-SCORE:    0.00 PKD
ROOT
HETATM    1  C   UNL     1     -12.425   8.812  72.137  1.00  0.00    -0.460 C  
HETATM    2  C   UNL     1     -13.045  10.205  72.073  1.00  0.00    -0.437 C  
ENDROOT
BRANCH   2   3
HETATM    3  N   UNL     1     -12.670  11.022  70.894  1.00  0.00    -0.363 NA 
BRANCH   3   4
HETATM    4  C   UNL     1     -12.691  12.468  71.231  1.00  0.00    -0.252 C  
BRANCH   4   5
HETATM    5  C   UNL     1     -13.772  12.904  72.238  1.00  0.00    -0.458 C  
HETATM    6  H   UNL     1     -13.950  14.225  73.691  1.00  0.00     0.000 HD 
HETATM    7  O   UNL     1     -13.283  13.956  73.070  1.00  0.00    -0.565 OA 
ENDBRANCH   4   5
ENDBRANCH   3   4
BRANCH   3   8
HETATM    8  C   UNL     1     -11.326  10.611  70.420  1.00  0.00    -0.304 C  
BRANCH   8   9
HETATM    9  C   UNL     1     -10.672  11.551  69.384  1.00  0.00    -0.118 C  
BRANCH   9  10
HETATM   10  C   UNL     1      -9.762  10.862  68.352  1.00  0.00    -0.179 C  
BRANCH  10  11
HETATM   11  C   UNL     1     -10.213  11.050  66.891  1.00  0.00    -0.222 C  
HETATM   12  C   UNL     1     -10.232   9.727  66.121  1.00  0.00    -0.278 C  
BRANCH  11  13
HETATM   13  N   UNL     1     -11.565  11.652  66.847  1.00  0.00    -0.542 NA 
HETATM   14  H   UNL     1     -12.267  11.431  67.553  1.00  0.00     0.000 HD 
BRANCH  13  15
HETATM   15  C   UNL     1     -11.845  12.551  65.780  1.00  0.00    -0.437 A  
HETATM   16  C   UNL     1     -11.427  13.907  65.854  1.00  0.00    -0.328 A  
HETATM   17  C   UNL     1     -10.769  14.472  66.974  1.00  0.00    -0.291 A  
HETATM   18  C   UNL     1     -10.394  15.818  66.986  1.00  0.00    -0.292 A  
HETATM   19  C   UNL     1     -10.687  16.617  65.888  1.00  0.00    -0.175 A  
HETATM   20  C   UNL     1     -11.336  16.080  64.781  1.00  0.00    -0.285 A  
HETATM   21 CL   UNL     1     -10.243  18.280  65.891  1.00  0.00    -0.304 Cl 
HETATM   22  C   UNL     1     -11.699  14.746  64.743  1.00  0.00    -0.422 A  
HETATM   23  N   UNL     1     -12.292  14.309  63.625  1.00  0.00    -0.730 NA 
HETATM   24  C   UNL     1     -12.614  13.004  63.553  1.00  0.00    -0.169 A  
HETATM   25  C   UNL     1     -12.387  12.104  64.576  1.00  0.00    -0.395 A  
ENDBRANCH  13  15
ENDBRANCH  11  13
ENDBRANCH  10  11
ENDBRANCH   9  10
ENDBRANCH   8   9
ENDBRANCH   3   8
ENDBRANCH   2   3
TORSDOF 9
ENDMDL
MODEL       38
REMARK 921   NORMALIZED FREE ENERGY PREDICTED BY IDOCK:   -5.02 KCAL/MOL
REMARK 922        TOTAL FREE ENERGY PREDICTED BY IDOCK:   -8.89 KCAL/MOL
REMARK 923 INTER-LIGAND FREE ENERGY PREDICTED BY IDOCK:   -7.63 KCAL/MOL
REMARK 924 INTRA-LIGAND FREE ENERGY PREDICTED BY IDOCK:   -1.26 KCAL/MOL
REMARK 927      BINDING AFFINITY PREDICTED BY RF-SCORE:    0.00 PKD
ROOT
HETATM    1  C   UNL     1     -11.966   9.944  71.215  1.00  0.00    -0.489 C  
HETATM    2  C   UNL     1     -10.557   9.381  71.058  1.00  0.00    -0.330 C  
ENDROOT
BRANCH   2   3
HETATM    3  N   UNL     1      -9.842   9.772  69.820  1.00  0.00    -0.221 NA 
BRANCH   3   4
HETATM    4  C   UNL     1      -8.402   9.424  69.915  1.00  0.00    -0.167 C  
BRANCH   4   5
HETATM    5  C   UNL     1      -7.420  10.504  69.424  1.00  0.00    -0.141 C  
HETATM    6  H   UNL     1      -7.525  12.293  68.601  1.00  0.00     0.000 HD 
HETATM    7  O   UNL     1      -8.131  11.627  68.903  1.00  0.00    -0.108 OA 
ENDBRANCH   4   5
ENDBRANCH   3   4
BRANCH   3   8
HETATM    8  C   UNL     1     -10.471   9.099  68.658  1.00  0.00    -0.207 C  
BRANCH   8   9
HETATM    9  C   UNL     1     -10.909  10.033  67.508  1.00  0.00    -0.326 C  
BRANCH   9  10
HETATM   10  C   UNL     1     -11.648  11.311  67.943  1.00  0.00    -0.330 C  
BRANCH  10  11
HETATM   11  C   UNL     1     -11.289  12.558  67.112  1.00  0.00    -0.324 C  
HETATM   12  C   UNL     1     -11.289  12.266  65.609  1.00  0.00    -0.394 C  
BRANCH  11  13
HETATM   13  N   UNL     1     -12.249  13.651  67.390  1.00  0.00    -0.374 NA 
HETATM   14  H   UNL     1     -13.212  13.609  67.055  1.00  0.00     0.000 HD 
BRANCH  13  15
HETATM   15  C   UNL     1     -11.774  14.760  68.144  1.00  0.00    -0.325 A  
HETATM   16  C   UNL     1     -12.020  14.838  69.542  1.00  0.00    -0.351 A  
HETATM   17  C   UNL     1     -12.774  13.884  70.267  1.00  0.00    -0.244 A  
HETATM   18  C   UNL     1     -12.988  14.027  71.640  1.00  0.00    -0.430 A  
HETATM   19  C   UNL     1     -12.465  15.132  72.299  1.00  0.00    -0.353 A  
HETATM   20  C   UNL     1     -11.724  16.082  71.602  1.00  0.00    -0.583 A  
HETATM   21 CL   UNL     1     -12.728  15.330  73.989  1.00  0.00    -0.661 Cl 
HETATM   22  C   UNL     1     -11.487  15.948  70.247  1.00  0.00    -0.366 A  
HETATM   23  N   UNL     1     -10.739  16.894  69.664  1.00  0.00    -0.261 NA 
HETATM   24  C   UNL     1     -10.463  16.758  68.355  1.00  0.00    -0.339 A  
HETATM   25  C   UNL     1     -10.928  15.714  67.580  1.00  0.00    -0.309 A  
ENDBRANCH  13  15
ENDBRANCH  11  13
ENDBRANCH  10  11
ENDBRANCH   9  10
ENDBRANCH   8   9
ENDBRANCH   3   8
ENDBRANCH   2   3
TORSDOF 9
ENDMDL
MODEL       39
REMARK 921   NORMALIZED FREE ENERGY PREDICTED BY IDOCK:   -5.00 KCAL/MOL
REMARK 922        TOTAL FREE ENERGY PREDICTED BY IDOCK:   -8.86 KCAL/MOL
REMARK 923 INTER-LIGAND FREE ENERGY PREDICTED BY IDOCK:   -7.68 KCAL/MOL
REMARK 924 INTRA-LIGAND FREE ENERGY PREDICTED BY IDOCK:   -1.18 KCAL/MOL
REMARK 927      BINDING AFFINITY PREDICTED BY RF-SCORE:    0.00 PKD
ROOT
HETATM    1  C   UNL     1     -11.606  16.117  64.547  1.00  0.00    -0.164 C  
HETATM    2  C   UNL     1     -11.166  14.681  64.818  1.00  0.00    -0.389 C  
ENDROOT
BRANCH   2   3
HETATM    3  N   UNL     1     -12.099  13.866  65.633  1.00  0.00    -0.396 NA 
BRANCH   3   4
HETATM    4  C   UNL     1     -12.530  12.659  64.883  1.00  0.00    -0.494 C  
BRANCH   4   5
HETATM    5  C   UNL     1     -11.590  12.203  63.752  1.00  0.00    -0.470 C  
HETATM    6  H   UNL     1     -10.211  10.819  63.485  1.00  0.00     0.000 HD 
HETATM    7  O   UNL     1     -10.791  11.101  64.182  1.00  0.00    -0.370 OA 
ENDBRANCH   4   5
ENDBRANCH   3   4
BRANCH   3   8
HETATM    8  C   UNL     1     -11.436  13.487  66.904  1.00  0.00    -0.344 C  
BRANCH   8   9
HETATM    9  C   UNL     1      -9.898  13.360  66.838  1.00  0.00    -0.256 C  
BRANCH   9  10
HETATM   10  C   UNL     1      -9.345  11.945  67.084  1.00  0.00    -0.180 C  
BRANCH  10  11
HETATM   11  C   UNL     1     -10.319  11.009  67.824  1.00  0.00    -0.188 C  
HETATM   12  C   UNL     1     -10.321   9.597  67.232  1.00  0.00    -0.310 C  
BRANCH  11  13
HETATM   13  N   UNL     1      -9.962  10.929  69.259  1.00  0.00    -0.384 NA 
HETATM   14  H   UNL     1      -9.011  11.116  69.579  1.00  0.00     0.000 HD 
BRANCH  13  15
HETATM   15  C   UNL     1     -10.997  10.583  70.171  1.00  0.00    -0.270 A  
HETATM   16  C   UNL     1     -10.889   9.412  70.970  1.00  0.00    -0.406 A  
HETATM   17  C   UNL     1      -9.810   8.498  70.893  1.00  0.00    -0.234 A  
HETATM   18  C   UNL     1      -9.772   7.358  71.700  1.00  0.00    -0.169 A  
HETATM   19  C   UNL     1     -10.817   7.112  72.581  1.00  0.00    -0.279 A  
HETATM   20  C   UNL     1     -11.887   7.998  72.669  1.00  0.00    -0.380 A  
HETATM   21 CL   UNL     1     -10.791   5.707  73.576  1.00  0.00    -0.307 Cl 
HETATM   22  C   UNL     1     -11.934   9.139  71.890  1.00  0.00    -0.373 A  
HETATM   23  N   UNL     1     -12.987   9.949  72.062  1.00  0.00    -0.426 NA 
HETATM   24  C   UNL     1     -13.028  11.086  71.344  1.00  0.00    -0.414 A  
HETATM   25  C   UNL     1     -12.061  11.447  70.427  1.00  0.00    -0.473 A  
ENDBRANCH  13  15
ENDBRANCH  11  13
ENDBRANCH  10  11
ENDBRANCH   9  10
ENDBRANCH   8   9
ENDBRANCH   3   8
ENDBRANCH   2   3
TORSDOF 9
ENDMDL
MODEL       40
REMARK 921   NORMALIZED FREE ENERGY PREDICTED BY IDOCK:   -5.00 KCAL/MOL
REMARK 922        TOTAL FREE ENERGY PREDICTED BY IDOCK:   -8.86 KCAL/MOL
REMARK 923 INTER-LIGAND FREE ENERGY PREDICTED BY IDOCK:   -7.96 KCAL/MOL
REMARK 924 INTRA-LIGAND FREE ENERGY PREDICTED BY IDOCK:   -0.90 KCAL/MOL
REMARK 927      BINDING AFFINITY PREDICTED BY RF-SCORE:    0.00 PKD
ROOT
HETATM    1  C   UNL     1     -10.528  19.568  65.857  1.00  0.00    -0.585 C  
HETATM    2  C   UNL     1     -10.491  18.783  67.164  1.00  0.00    -0.427 C  
ENDROOT
BRANCH   2   3
HETATM    3  N   UNL     1      -9.553  17.636  67.199  1.00  0.00    -0.271 NA 
BRANCH   3   4
HETATM    4  C   UNL     1      -8.443  17.896  68.150  1.00  0.00    -0.267 C  
BRANCH   4   5
HETATM    5  C   UNL     1      -8.490  19.253  68.877  1.00  0.00    -0.300 C  
HETATM    6  H   UNL     1      -7.231  20.705  69.317  1.00  0.00     0.000 HD 
HETATM    7  O   UNL     1      -7.202  19.868  68.869  1.00  0.00    -0.319 OA 
ENDBRANCH   4   5
ENDBRANCH   3   4
BRANCH   3   8
HETATM    8  C   UNL     1     -10.294  16.408  67.577  1.00  0.00    -0.288 C  
BRANCH   8   9
HETATM    9  C   UNL     1     -11.331  16.581  68.709  1.00  0.00    -0.221 C  
BRANCH   9  10
HETATM   10  C   UNL     1     -10.954  15.929  70.051  1.00  0.00    -0.361 C  
BRANCH  10  11
HETATM   11  C   UNL     1     -11.939  14.840  70.519  1.00  0.00    -0.312 C  
HETATM   12  C   UNL     1     -13.206  15.438  71.135  1.00  0.00    -0.583 C  
BRANCH  11  13
HETATM   13  N   UNL     1     -12.319  13.972  69.381  1.00  0.00    -0.455 NA 
HETATM   14  H   UNL     1     -13.116  14.198  68.786  1.00  0.00     0.000 HD 
BRANCH  13  15
HETATM   15  C   UNL     1     -11.527  12.812  69.152  1.00  0.00    -0.306 A  
HETATM   16  C   UNL     1     -11.716  11.646  69.941  1.00  0.00    -0.414 A  
HETATM   17  C   UNL     1     -12.633  11.557  71.016  1.00  0.00    -0.457 A  
HETATM   18  C   UNL     1     -12.761  10.382  71.761  1.00  0.00    -0.525 A  
HETATM   19  C   UNL     1     -11.962   9.289  71.449  1.00  0.00    -0.351 A  
HETATM   20  C   UNL     1     -11.052   9.359  70.399  1.00  0.00    -0.311 A  
HETATM   21 CL   UNL     1     -12.098   7.836  72.363  1.00  0.00    -0.320 Cl 
HETATM   22  C   UNL     1     -10.925  10.507  69.640  1.00  0.00    -0.283 A  
HETATM   23  N   UNL     1     -10.045  10.474  68.630  1.00  0.00    -0.171 NA 
HETATM   24  C   UNL     1      -9.938  11.568  67.855  1.00  0.00    -0.183 A  
HETATM   25  C   UNL     1     -10.665  12.724  68.059  1.00  0.00    -0.246 A  
ENDBRANCH  13  15
ENDBRANCH  11  13
ENDBRANCH  10  11
ENDBRANCH   9  10
ENDBRANCH   8   9
ENDBRANCH   3   8
ENDBRANCH   2   3
TORSDOF 9
ENDMDL
MODEL       41
REMARK 921   NORMALIZED FREE ENERGY PREDICTED BY IDOCK:   -4.99 KCAL/MOL
REMARK 922        TOTAL FREE ENERGY PREDICTED BY IDOCK:   -8.85 KCAL/MOL
REMARK 923 INTER-LIGAND FREE ENERGY PREDICTED BY IDOCK:   -7.71 KCAL/MOL
REMARK 924 INTRA-LIGAND FREE ENERGY PREDICTED BY IDOCK:   -1.14 KCAL/MOL
REMARK 927      BINDING AFFINITY PREDICTED BY RF-SCORE:    0.00 PKD
ROOT
HETATM    1  C   UNL     1      -8.472  15.522  68.443  1.00  0.00    -0.163 C  
HETATM    2  C   UNL     1      -9.009  15.697  67.026  1.00  0.00    -0.222 C  
ENDROOT
BRANCH   2   3
HETATM    3  N   UNL     1     -10.088  16.701  66.866  1.00  0.00    -0.273 NA 
BRANCH   3   4
HETATM    4  C   UNL     1      -9.548  18.076  67.017  1.00  0.00    -0.287 C  
BRANCH   4   5
HETATM    5  C   UNL     1     -10.598  19.198  67.131  1.00  0.00    -0.470 C  
HETATM    6  H   UNL     1     -11.237  20.702  66.029  1.00  0.00     0.000 HD 
HETATM    7  O   UNL     1     -10.589  20.011  65.959  1.00  0.00    -0.449 OA 
ENDBRANCH   4   5
ENDBRANCH   3   4
BRANCH   3   8
HETATM    8  C   UNL     1     -10.725  16.529  65.538  1.00  0.00    -0.256 C  
BRANCH   8   9
HETATM    9  C   UNL     1     -10.672  15.099  64.957  1.00  0.00    -0.451 C  
BRANCH   9  10
HETATM   10  C   UNL     1     -12.026  14.519  64.512  1.00  0.00    -0.482 C  
BRANCH  10  11
HETATM   11  C   UNL     1     -12.344  13.135  65.111  1.00  0.00    -0.473 C  
HETATM   12  C   UNL     1     -12.544  12.073  64.027  1.00  0.00    -0.466 C  
BRANCH  11  13
HETATM   13  N   UNL     1     -11.250  12.705  66.011  1.00  0.00    -0.293 NA 
HETATM   14  H   UNL     1     -10.321  12.487  65.651  1.00  0.00     0.000 HD 
BRANCH  13  15
HETATM   15  C   UNL     1     -11.548  12.609  67.400  1.00  0.00    -0.360 A  
HETATM   16  C   UNL     1     -11.288  11.405  68.109  1.00  0.00    -0.374 A  
HETATM   17  C   UNL     1     -10.781  10.226  67.509  1.00  0.00    -0.348 A  
HETATM   18  C   UNL     1     -10.559   9.072  68.263  1.00  0.00    -0.213 A  
HETATM   19  C   UNL     1     -10.856   9.077  69.620  1.00  0.00    -0.186 A  
HETATM   20  C   UNL     1     -11.358  10.224  70.226  1.00  0.00    -0.398 A  
HETATM   21 CL   UNL     1     -10.599   7.659  70.563  1.00  0.00    -0.222 Cl 
HETATM   22  C   UNL     1     -11.568  11.382  69.499  1.00  0.00    -0.331 A  
HETATM   23  N   UNL     1     -12.026  12.447  70.171  1.00  0.00    -0.339 NA 
HETATM   24  C   UNL     1     -12.195  13.594  69.489  1.00  0.00    -0.264 A  
HETATM   25  C   UNL     1     -11.947  13.723  68.137  1.00  0.00    -0.394 A  
ENDBRANCH  13  15
ENDBRANCH  11  13
ENDBRANCH  10  11
ENDBRANCH   9  10
ENDBRANCH   8   9
ENDBRANCH   3   8
ENDBRANCH   2   3
TORSDOF 9
ENDMDL
MODEL       42
REMARK 921   NORMALIZED FREE ENERGY PREDICTED BY IDOCK:   -4.99 KCAL/MOL
REMARK 922        TOTAL FREE ENERGY PREDICTED BY IDOCK:   -8.85 KCAL/MOL
REMARK 923 INTER-LIGAND FREE ENERGY PREDICTED BY IDOCK:   -8.19 KCAL/MOL
REMARK 924 INTRA-LIGAND FREE ENERGY PREDICTED BY IDOCK:   -0.66 KCAL/MOL
REMARK 927      BINDING AFFINITY PREDICTED BY RF-SCORE:    0.00 PKD
ROOT
HETATM    1  C   UNL     1      -5.854  17.595  66.165  1.00  0.00    -0.245 C  
HETATM    2  C   UNL     1      -6.828  18.749  66.387  1.00  0.00    -0.213 C  
ENDROOT
BRANCH   2   3
HETATM    3  N   UNL     1      -8.194  18.364  66.814  1.00  0.00    -0.245 NA 
BRANCH   3   4
HETATM    4  C   UNL     1      -9.202  19.292  66.242  1.00  0.00    -0.331 C  
BRANCH   4   5
HETATM    5  C   UNL     1      -9.917  20.208  67.253  1.00  0.00    -0.443 C  
HETATM    6  H   UNL     1      -9.907  20.501  69.203  1.00  0.00     0.000 HD 
HETATM    7  O   UNL     1      -9.466  19.936  68.579  1.00  0.00    -0.318 OA 
ENDBRANCH   4   5
ENDBRANCH   3   4
BRANCH   3   8
HETATM    8  C   UNL     1      -8.464  16.968  66.392  1.00  0.00    -0.283 C  
BRANCH   8   9
HETATM    9  C   UNL     1      -9.892  16.453  66.679  1.00  0.00    -0.272 C  
BRANCH   9  10
HETATM   10  C   UNL     1      -9.972  15.194  67.560  1.00  0.00    -0.225 C  
BRANCH  10  11
HETATM   11  C   UNL     1     -10.645  15.425  68.927  1.00  0.00    -0.244 C  
HETATM   12  C   UNL     1     -10.557  16.887  69.371  1.00  0.00    -0.292 C  
BRANCH  11  13
HETATM   13  N   UNL     1     -12.069  15.023  68.870  1.00  0.00    -0.556 NA 
HETATM   14  H   UNL     1     -12.605  15.092  68.005  1.00  0.00     0.000 HD 
BRANCH  13  15
HETATM   15  C   UNL     1     -12.659  14.538  70.070  1.00  0.00    -0.232 A  
HETATM   16  C   UNL     1     -12.529  13.170  70.434  1.00  0.00    -0.280 A  
HETATM   17  C   UNL     1     -11.873  12.199  69.639  1.00  0.00    -0.391 A  
HETATM   18  C   UNL     1     -11.791  10.866  70.050  1.00  0.00    -0.428 A  
HETATM   19  C   UNL     1     -12.376  10.487  71.251  1.00  0.00    -0.397 A  
HETATM   20  C   UNL     1     -13.028  11.427  72.044  1.00  0.00    -0.378 A  
HETATM   21 CL   UNL     1     -12.294   8.847  71.769  1.00  0.00    -0.393 Cl 
HETATM   22  C   UNL     1     -13.104  12.753  71.662  1.00  0.00    -0.331 A  
HETATM   23  N   UNL     1     -13.724  13.593  72.501  1.00  0.00    -0.687 NA 
HETATM   24  C   UNL     1     -13.771  14.895  72.166  1.00  0.00    -0.444 A  
HETATM   25  C   UNL     1     -13.238  15.403  70.998  1.00  0.00    -0.560 A  
ENDBRANCH  13  15
ENDBRANCH  11  13
ENDBRANCH  10  11
ENDBRANCH   9  10
ENDBRANCH   8   9
ENDBRANCH   3   8
ENDBRANCH   2   3
TORSDOF 9
ENDMDL
MODEL       43
REMARK 921   NORMALIZED FREE ENERGY PREDICTED BY IDOCK:   -4.99 KCAL/MOL
REMARK 922        TOTAL FREE ENERGY PREDICTED BY IDOCK:   -8.84 KCAL/MOL
REMARK 923 INTER-LIGAND FREE ENERGY PREDICTED BY IDOCK:   -7.97 KCAL/MOL
REMARK 924 INTRA-LIGAND FREE ENERGY PREDICTED BY IDOCK:   -0.88 KCAL/MOL
REMARK 927      BINDING AFFINITY PREDICTED BY RF-SCORE:    0.00 PKD
ROOT
HETATM    1  C   UNL     1     -12.170  14.870  70.108  1.00  0.00    -0.387 C  
HETATM    2  C   UNL     1     -11.548  15.917  69.189  1.00  0.00    -0.379 C  
ENDROOT
BRANCH   2   3
HETATM    3  N   UNL     1     -10.983  15.404  67.918  1.00  0.00    -0.300 NA 
BRANCH   3   4
HETATM    4  C   UNL     1     -10.342  16.500  67.150  1.00  0.00    -0.298 C  
BRANCH   4   5
HETATM    5  C   UNL     1      -9.841  16.126  65.742  1.00  0.00    -0.320 C  
HETATM    6  H   UNL     1     -10.494  16.267  63.887  1.00  0.00     0.000 HD 
HETATM    7  O   UNL     1     -10.803  16.498  64.755  1.00  0.00    -0.720 OA 
ENDBRANCH   4   5
ENDBRANCH   3   4
BRANCH   3   8
HETATM    8  C   UNL     1     -10.006  14.328  68.215  1.00  0.00    -0.239 C  
BRANCH   8   9
HETATM    9  C   UNL     1     -10.169  13.037  67.383  1.00  0.00    -0.231 C  
BRANCH   9  10
HETATM   10  C   UNL     1     -11.509  12.302  67.565  1.00  0.00    -0.414 C  
BRANCH  10  11
HETATM   11  C   UNL     1     -11.376  10.900  68.191  1.00  0.00    -0.315 C  
HETATM   12  C   UNL     1     -10.425  10.003  67.395  1.00  0.00    -0.316 C  
BRANCH  11  13
HETATM   13  N   UNL     1     -10.886  11.007  69.584  1.00  0.00    -0.401 NA 
HETATM   14  H   UNL     1     -10.127  11.642  69.831  1.00  0.00     0.000 HD 
BRANCH  13  15
HETATM   15  C   UNL     1     -11.516  10.189  70.563  1.00  0.00    -0.337 A  
HETATM   16  C   UNL     1     -10.752   9.274  71.336  1.00  0.00    -0.432 A  
HETATM   17  C   UNL     1      -9.361   9.068  71.171  1.00  0.00    -0.336 A  
HETATM   18  C   UNL     1      -8.670   8.143  71.959  1.00  0.00    -0.221 A  
HETATM   19  C   UNL     1      -9.365   7.404  72.908  1.00  0.00    -0.164 A  
HETATM   20  C   UNL     1     -10.733   7.592  73.083  1.00  0.00    -0.452 A  
HETATM   21 CL   UNL     1      -8.532   6.253  73.880  1.00  0.00    -0.118 Cl 
HETATM   22  C   UNL     1     -11.429   8.514  72.325  1.00  0.00    -0.375 A  
HETATM   23  N   UNL     1     -12.737   8.649  72.581  1.00  0.00    -0.302 NA 
HETATM   24  C   UNL     1     -13.422   9.572  71.883  1.00  0.00    -0.424 A  
HETATM   25  C   UNL     1     -12.857  10.366  70.904  1.00  0.00    -0.482 A  
ENDBRANCH  13  15
ENDBRANCH  11  13
ENDBRANCH  10  11
ENDBRANCH   9  10
ENDBRANCH   8   9
ENDBRANCH   3   8
ENDBRANCH   2   3
TORSDOF 9
ENDMDL
MODEL       44
REMARK 921   NORMALIZED FREE ENERGY PREDICTED BY IDOCK:   -4.97 KCAL/MOL
REMARK 922        TOTAL FREE ENERGY PREDICTED BY IDOCK:   -8.81 KCAL/MOL
REMARK 923 INTER-LIGAND FREE ENERGY PREDICTED BY IDOCK:   -7.95 KCAL/MOL
REMARK 924 INTRA-LIGAND FREE ENERGY PREDICTED BY IDOCK:   -0.86 KCAL/MOL
REMARK 927      BINDING AFFINITY PREDICTED BY RF-SCORE:    0.00 PKD
ROOT
HETATM    1  C   UNL     1      -9.288  16.203  66.084  1.00  0.00    -0.372 C  
HETATM    2  C   UNL     1      -8.604  16.768  67.326  1.00  0.00    -0.192 C  
ENDROOT
BRANCH   2   3
HETATM    3  N   UNL     1      -9.505  17.365  68.340  1.00  0.00    -0.283 NA 
BRANCH   3   4
HETATM    4  C   UNL     1      -9.626  18.831  68.134  1.00  0.00    -0.332 C  
BRANCH   4   5
HETATM    5  C   UNL     1     -10.882  19.298  67.374  1.00  0.00    -0.446 C  
HETATM    6  H   UNL     1     -11.333  19.900  65.551  1.00  0.00     0.000 HD 
HETATM    7  O   UNL     1     -10.558  19.612  66.020  1.00  0.00    -0.485 OA 
ENDBRANCH   4   5
ENDBRANCH   3   4
BRANCH   3   8
HETATM    8  C   UNL     1     -10.834  16.711  68.262  1.00  0.00    -0.356 C  
BRANCH   8   9
HETATM    9  C   UNL     1     -10.988  15.421  69.096  1.00  0.00    -0.252 C  
BRANCH   9  10
HETATM   10  C   UNL     1     -11.979  14.388  68.533  1.00  0.00    -0.333 C  
BRANCH  10  11
HETATM   11  C   UNL     1     -11.418  12.955  68.455  1.00  0.00    -0.310 C  
HETATM   12  C   UNL     1     -11.503  12.231  69.802  1.00  0.00    -0.237 C  
BRANCH  11  13
HETATM   13  N   UNL     1     -12.156  12.171  67.439  1.00  0.00    -0.515 NA 
HETATM   14  H   UNL     1     -12.851  11.475  67.709  1.00  0.00     0.000 HD 
BRANCH  13  15
HETATM   15  C   UNL     1     -11.856  12.428  66.072  1.00  0.00    -0.395 A  
HETATM   16  C   UNL     1     -10.931  11.606  65.372  1.00  0.00    -0.328 A  
HETATM   17  C   UNL     1     -10.218  10.535  65.964  1.00  0.00    -0.310 A  
HETATM   18  C   UNL     1      -9.314   9.773  65.220  1.00  0.00    -0.315 A  
HETATM   19  C   UNL     1      -9.102  10.082  63.882  1.00  0.00    -0.259 A  
HETATM   20  C   UNL     1      -9.792  11.132  63.285  1.00  0.00    -0.415 A  
HETATM   21 CL   UNL     1      -7.983   9.160  62.953  1.00  0.00    -0.134 Cl 
HETATM   22  C   UNL     1     -10.703  11.886  64.000  1.00  0.00    -0.375 A  
HETATM   23  N   UNL     1     -11.342  12.858  63.336  1.00  0.00    -0.374 NA 
HETATM   24  C   UNL     1     -12.263  13.575  64.005  1.00  0.00    -0.402 A  
HETATM   25  C   UNL     1     -12.564  13.379  65.338  1.00  0.00    -0.528 A  
ENDBRANCH  13  15
ENDBRANCH  11  13
ENDBRANCH  10  11
ENDBRANCH   9  10
ENDBRANCH   8   9
ENDBRANCH   3   8
ENDBRANCH   2   3
TORSDOF 9
ENDMDL
MODEL       45
REMARK 921   NORMALIZED FREE ENERGY PREDICTED BY IDOCK:   -4.96 KCAL/MOL
REMARK 922        TOTAL FREE ENERGY PREDICTED BY IDOCK:   -8.80 KCAL/MOL
REMARK 923 INTER-LIGAND FREE ENERGY PREDICTED BY IDOCK:   -7.46 KCAL/MOL
REMARK 924 INTRA-LIGAND FREE ENERGY PREDICTED BY IDOCK:   -1.35 KCAL/MOL
REMARK 927      BINDING AFFINITY PREDICTED BY RF-SCORE:    0.00 PKD
ROOT
HETATM    1  C   UNL     1     -11.020  15.915  70.201  1.00  0.00    -0.369 C  
HETATM    2  C   UNL     1     -12.259  15.034  70.069  1.00  0.00    -0.328 C  
ENDROOT
BRANCH   2   3
HETATM    3  N   UNL     1     -12.186  13.716  70.745  1.00  0.00    -0.355 NA 
BRANCH   3   4
HETATM    4  C   UNL     1     -13.269  13.583  71.751  1.00  0.00    -0.404 C  
BRANCH   4   5
HETATM    5  C   UNL     1     -13.795  14.903  72.346  1.00  0.00    -0.483 C  
HETATM    6  H   UNL     1     -13.341  16.099  73.847  1.00  0.00     0.000 HD 
HETATM    7  O   UNL     1     -13.017  15.285  73.480  1.00  0.00    -0.495 OA 
ENDBRANCH   4   5
ENDBRANCH   3   4
BRANCH   3   8
HETATM    8  C   UNL     1     -12.275  12.639  69.729  1.00  0.00    -0.143 C  
BRANCH   8   9
HETATM    9  C   UNL     1     -11.083  12.548  68.752  1.00  0.00    -0.314 C  
BRANCH   9  10
HETATM   10  C   UNL     1     -11.420  12.824  67.276  1.00  0.00    -0.393 C  
BRANCH  10  11
HETATM   11  C   UNL     1     -10.213  12.712  66.324  1.00  0.00    -0.251 C  
HETATM   12  C   UNL     1     -10.503  11.795  65.134  1.00  0.00    -0.330 C  
BRANCH  11  13
HETATM   13  N   UNL     1      -9.834  14.051  65.820  1.00  0.00    -0.452 NA 
HETATM   14  H   UNL     1     -10.146  14.381  64.906  1.00  0.00     0.000 HD 
BRANCH  13  15
HETATM   15  C   UNL     1      -9.019  14.859  66.661  1.00  0.00    -0.270 A  
HETATM   16  C   UNL     1      -9.272  16.252  66.786  1.00  0.00    -0.253 A  
HETATM   17  C   UNL     1     -10.284  16.939  66.072  1.00  0.00    -0.350 A  
HETATM   18  C   UNL     1     -10.473  18.314  66.233  1.00  0.00    -0.397 A  
HETATM   19  C   UNL     1      -9.643  19.019  67.096  1.00  0.00    -0.312 A  
HETATM   20  C   UNL     1      -8.642  18.361  67.803  1.00  0.00    -0.278 A  
HETATM   21 CL   UNL     1      -9.855  20.715  67.298  1.00  0.00    -0.600 Cl 
HETATM   22  C   UNL     1      -8.451  16.998  67.670  1.00  0.00    -0.205 A  
HETATM   23  N   UNL     1      -7.483  16.444  68.411  1.00  0.00    -0.164 NA 
HETATM   24  C   UNL     1      -7.311  15.113  68.327  1.00  0.00    -0.113 A  
HETATM   25  C   UNL     1      -8.060  14.296  67.502  1.00  0.00    -0.200 A  
ENDBRANCH  13  15
ENDBRANCH  11  13
ENDBRANCH  10  11
ENDBRANCH   9  10
ENDBRANCH   8   9
ENDBRANCH   3   8
ENDBRANCH   2   3
TORSDOF 9
ENDMDL
MODEL       46
REMARK 921   NORMALIZED FREE ENERGY PREDICTED BY IDOCK:   -4.93 KCAL/MOL
REMARK 922        TOTAL FREE ENERGY PREDICTED BY IDOCK:   -8.75 KCAL/MOL
REMARK 923 INTER-LIGAND FREE ENERGY PREDICTED BY IDOCK:   -7.87 KCAL/MOL
REMARK 924 INTRA-LIGAND FREE ENERGY PREDICTED BY IDOCK:   -0.87 KCAL/MOL
REMARK 927      BINDING AFFINITY PREDICTED BY RF-SCORE:    0.00 PKD
ROOT
HETATM    1  C   UNL     1     -10.969   6.675  68.154  1.00  0.00    -0.323 C  
HETATM    2  C   UNL     1     -11.231   6.138  69.558  1.00  0.00    -0.411 C  
ENDROOT
BRANCH   2   3
HETATM    3  N   UNL     1     -11.648   7.143  70.564  1.00  0.00    -0.303 NA 
BRANCH   3   4
HETATM    4  C   UNL     1     -12.111   6.478  71.808  1.00  0.00    -0.342 C  
BRANCH   4   5
HETATM    5  C   UNL     1     -11.001   5.933  72.728  1.00  0.00    -0.265 C  
HETATM    6  H   UNL     1     -10.731   4.376  73.906  1.00  0.00     0.000 HD 
HETATM    7  O   UNL     1     -11.416   4.712  73.340  1.00  0.00    -0.328 OA 
ENDBRANCH   4   5
ENDBRANCH   3   4
BRANCH   3   8
HETATM    8  C   UNL     1     -10.512   8.055  70.846  1.00  0.00    -0.202 C  
BRANCH   8   9
HETATM    9  C   UNL     1     -10.818   9.561  70.694  1.00  0.00    -0.371 C  
BRANCH   9  10
HETATM   10  C   UNL     1     -12.239   9.988  71.101  1.00  0.00    -0.477 C  
BRANCH  10  11
HETATM   11  C   UNL     1     -12.597  11.435  70.709  1.00  0.00    -0.316 C  
HETATM   12  C   UNL     1     -13.170  12.224  71.889  1.00  0.00    -0.481 C  
BRANCH  11  13
HETATM   13  N   UNL     1     -11.399  12.136  70.196  1.00  0.00    -0.479 NA 
HETATM   14  H   UNL     1     -10.552  12.220  70.758  1.00  0.00     0.000 HD 
BRANCH  13  15
HETATM   15  C   UNL     1     -11.477  12.688  68.886  1.00  0.00    -0.306 A  
HETATM   16  C   UNL     1     -11.231  14.072  68.673  1.00  0.00    -0.294 A  
HETATM   17  C   UNL     1     -10.951  14.995  69.710  1.00  0.00    -0.291 A  
HETATM   18  C   UNL     1     -10.729  16.346  69.432  1.00  0.00    -0.324 A  
HETATM   19  C   UNL     1     -10.802  16.792  68.119  1.00  0.00    -0.353 A  
HETATM   20  C   UNL     1     -11.079  15.900  67.087  1.00  0.00    -0.148 A  
HETATM   21 CL   UNL     1     -10.542  18.455  67.759  1.00  0.00    -0.433 Cl 
HETATM   22  C   UNL     1     -11.284  14.556  67.341  1.00  0.00    -0.327 A  
HETATM   23  N   UNL     1     -11.516  13.766  66.284  1.00  0.00    -0.325 NA 
HETATM   24  C   UNL     1     -11.675  12.450  66.507  1.00  0.00    -0.379 A  
HETATM   25  C   UNL     1     -11.636  11.877  67.763  1.00  0.00    -0.393 A  
ENDBRANCH  13  15
ENDBRANCH  11  13
ENDBRANCH  10  11
ENDBRANCH   9  10
ENDBRANCH   8   9
ENDBRANCH   3   8
ENDBRANCH   2   3
TORSDOF 9
ENDMDL
MODEL       47
REMARK 921   NORMALIZED FREE ENERGY PREDICTED BY IDOCK:   -4.92 KCAL/MOL
REMARK 922        TOTAL FREE ENERGY PREDICTED BY IDOCK:   -8.74 KCAL/MOL
REMARK 923 INTER-LIGAND FREE ENERGY PREDICTED BY IDOCK:   -7.35 KCAL/MOL
REMARK 924 INTRA-LIGAND FREE ENERGY PREDICTED BY IDOCK:   -1.39 KCAL/MOL
REMARK 927      BINDING AFFINITY PREDICTED BY RF-SCORE:    0.00 PKD
ROOT
HETATM    1  C   UNL     1     -12.034  12.080  69.459  1.00  0.00    -0.346 C  
HETATM    2  C   UNL     1     -11.666  13.365  70.195  1.00  0.00    -0.196 C  
ENDROOT
BRANCH   2   3
HETATM    3  N   UNL     1     -12.584  14.510  69.985  1.00  0.00    -0.288 NA 
BRANCH   3   4
HETATM    4  C   UNL     1     -13.645  14.527  71.024  1.00  0.00    -0.238 C  
BRANCH   4   5
HETATM    5  C   UNL     1     -13.340  15.366  72.278  1.00  0.00    -0.450 C  
HETATM    6  H   UNL     1     -12.996  15.039  74.192  1.00  0.00     0.000 HD 
HETATM    7  O   UNL     1     -13.184  14.522  73.419  1.00  0.00    -0.592 OA 
ENDBRANCH   4   5
ENDBRANCH   3   4
BRANCH   3   8
HETATM    8  C   UNL     1     -11.806  15.773  70.008  1.00  0.00    -0.354 C  
BRANCH   8   9
HETATM    9  C   UNL     1     -10.378  15.682  69.427  1.00  0.00    -0.260 C  
BRANCH   9  10
HETATM   10  C   UNL     1      -9.861  16.964  68.751  1.00  0.00    -0.269 C  
BRANCH  10  11
HETATM   11  C   UNL     1     -10.398  17.182  67.323  1.00  0.00    -0.320 C  
HETATM   12  C   UNL     1     -10.230  18.632  66.861  1.00  0.00    -0.423 C  
BRANCH  11  13
HETATM   13  N   UNL     1      -9.697  16.289  66.372  1.00  0.00    -0.269 NA 
HETATM   14  H   UNL     1      -8.683  16.315  66.269  1.00  0.00     0.000 HD 
BRANCH  13  15
HETATM   15  C   UNL     1     -10.497  15.393  65.608  1.00  0.00    -0.372 A  
HETATM   16  C   UNL     1     -10.380  13.989  65.793  1.00  0.00    -0.330 A  
HETATM   17  C   UNL     1      -9.458  13.382  66.680  1.00  0.00    -0.264 A  
HETATM   18  C   UNL     1      -9.387  11.992  66.806  1.00  0.00    -0.206 A  
HETATM   19  C   UNL     1     -10.224  11.195  66.036  1.00  0.00    -0.250 A  
HETATM   20  C   UNL     1     -11.135  11.774  65.157  1.00  0.00    -0.341 A  
HETATM   21 CL   UNL     1     -10.143   9.481  66.171  1.00  0.00    -0.351 Cl 
HETATM   22  C   UNL     1     -11.231  13.147  65.032  1.00  0.00    -0.298 A  
HETATM   23  N   UNL     1     -12.156  13.617  64.184  1.00  0.00    -0.516 NA 
HETATM   24  C   UNL     1     -12.293  14.951  64.081  1.00  0.00    -0.185 A  
HETATM   25  C   UNL     1     -11.519  15.856  64.780  1.00  0.00    -0.235 A  
ENDBRANCH  13  15
ENDBRANCH  11  13
ENDBRANCH  10  11
ENDBRANCH   9  10
ENDBRANCH   8   9
ENDBRANCH   3   8
ENDBRANCH   2   3
TORSDOF 9
ENDMDL
MODEL       48
REMARK 921   NORMALIZED FREE ENERGY PREDICTED BY IDOCK:   -4.90 KCAL/MOL
REMARK 922        TOTAL FREE ENERGY PREDICTED BY IDOCK:   -8.70 KCAL/MOL
REMARK 923 INTER-LIGAND FREE ENERGY PREDICTED BY IDOCK:   -7.73 KCAL/MOL
REMARK 924 INTRA-LIGAND FREE ENERGY PREDICTED BY IDOCK:   -0.97 KCAL/MOL
REMARK 927      BINDING AFFINITY PREDICTED BY RF-SCORE:    0.00 PKD
ROOT
HETATM    1  C   UNL     1     -10.943  15.900  70.373  1.00  0.00    -0.361 C  
HETATM    2  C   UNL     1      -9.954  15.826  69.213  1.00  0.00    -0.262 C  
ENDROOT
BRANCH   2   3
HETATM    3  N   UNL     1     -10.515  16.112  67.871  1.00  0.00    -0.281 NA 
BRANCH   3   4
HETATM    4  C   UNL     1     -10.544  17.574  67.617  1.00  0.00    -0.355 C  
BRANCH   4   5
HETATM    5  C   UNL     1     -10.213  18.009  66.176  1.00  0.00    -0.363 C  
HETATM    6  H   UNL     1      -9.028  19.315  65.293  1.00  0.00     0.000 HD 
HETATM    7  O   UNL     1      -9.232  19.047  66.181  1.00  0.00    -0.418 OA 
ENDBRANCH   4   5
ENDBRANCH   3   4
BRANCH   3   8
HETATM    8  C   UNL     1      -9.705  15.415  66.842  1.00  0.00    -0.231 C  
BRANCH   8   9
HETATM    9  C   UNL     1     -10.402  14.227  66.142  1.00  0.00    -0.305 C  
BRANCH   9  10
HETATM   10  C   UNL     1     -11.660  13.694  66.849  1.00  0.00    -0.397 C  
BRANCH  10  11
HETATM   11  C   UNL     1     -11.522  12.252  67.375  1.00  0.00    -0.352 C  
HETATM   12  C   UNL     1     -10.692  11.375  66.434  1.00  0.00    -0.325 C  
BRANCH  11  13
HETATM   13  N   UNL     1     -10.891  12.254  68.714  1.00  0.00    -0.232 NA 
HETATM   14  H   UNL     1      -9.913  12.514  68.838  1.00  0.00     0.000 HD 
BRANCH  13  15
HETATM   15  C   UNL     1     -11.705  11.880  69.819  1.00  0.00    -0.331 A  
HETATM   16  C   UNL     1     -11.709  10.538  70.288  1.00  0.00    -0.420 A  
HETATM   17  C   UNL     1     -10.974   9.488  69.686  1.00  0.00    -0.233 A  
HETATM   18  C   UNL     1     -11.032   8.186  70.191  1.00  0.00    -0.223 A  
HETATM   19  C   UNL     1     -11.836   7.917  71.291  1.00  0.00    -0.296 A  
HETATM   20  C   UNL     1     -12.568   8.936  71.893  1.00  0.00    -0.439 A  
HETATM   21 CL   UNL     1     -11.927   6.318  71.920  1.00  0.00    -0.372 Cl 
HETATM   22  C   UNL     1     -12.510  10.233  71.418  1.00  0.00    -0.424 A  
HETATM   23  N   UNL     1     -13.225  11.155  72.078  1.00  0.00    -0.447 NA 
HETATM   24  C   UNL     1     -13.147  12.430  71.656  1.00  0.00    -0.307 A  
HETATM   25  C   UNL     1     -12.394  12.831  70.571  1.00  0.00    -0.355 A  
ENDBRANCH  13  15
ENDBRANCH  11  13
ENDBRANCH  10  11
ENDBRANCH   9  10
ENDBRANCH   8   9
ENDBRANCH   3   8
ENDBRANCH   2   3
TORSDOF 9
ENDMDL
MODEL       49
REMARK 921   NORMALIZED FREE ENERGY PREDICTED BY IDOCK:   -4.89 KCAL/MOL
REMARK 922        TOTAL FREE ENERGY PREDICTED BY IDOCK:   -8.70 KCAL/MOL
REMARK 923 INTER-LIGAND FREE ENERGY PREDICTED BY IDOCK:   -7.52 KCAL/MOL
REMARK 924 INTRA-LIGAND FREE ENERGY PREDICTED BY IDOCK:   -1.18 KCAL/MOL
REMARK 927      BINDING AFFINITY PREDICTED BY RF-SCORE:    0.00 PKD
ROOT
HETATM    1  C   UNL     1      -9.814   4.399  67.105  1.00  0.00    -0.217 C  
HETATM    2  C   UNL     1     -10.279   5.853  67.099  1.00  0.00    -0.203 C  
ENDROOT
BRANCH   2   3
HETATM    3  N   UNL     1     -10.163   6.570  68.391  1.00  0.00    -0.159 NA 
BRANCH   3   4
HETATM    4  C   UNL     1     -10.000   8.029  68.167  1.00  0.00    -0.185 C  
BRANCH   4   5
HETATM    5  C   UNL     1      -9.307   8.430  66.851  1.00  0.00    -0.174 C  
HETATM    6  H   UNL     1      -9.684   9.606  65.314  1.00  0.00     0.000 HD 
HETATM    7  O   UNL     1     -10.112   9.358  66.125  1.00  0.00    -0.292 OA 
ENDBRANCH   4   5
ENDBRANCH   3   4
BRANCH   3   8
HETATM    8  C   UNL     1     -11.366   6.295  69.214  1.00  0.00    -0.341 C  
BRANCH   8   9
HETATM    9  C   UNL     1     -11.155   6.371  70.742  1.00  0.00    -0.365 C  
BRANCH   9  10
HETATM   10  C   UNL     1     -12.210   7.187  71.511  1.00  0.00    -0.396 C  
BRANCH  10  11
HETATM   11  C   UNL     1     -11.840   8.670  71.702  1.00  0.00    -0.323 C  
HETATM   12  C   UNL     1     -10.324   8.884  71.743  1.00  0.00    -0.426 C  
BRANCH  11  13
HETATM   13  N   UNL     1     -12.411   9.485  70.606  1.00  0.00    -0.496 NA 
HETATM   14  H   UNL     1     -12.703   9.060  69.726  1.00  0.00     0.000 HD 
BRANCH  13  15
HETATM   15  C   UNL     1     -12.537  10.885  70.831  1.00  0.00    -0.397 A  
HETATM   16  C   UNL     1     -12.080  11.814  69.858  1.00  0.00    -0.359 A  
HETATM   17  C   UNL     1     -11.437  11.444  68.651  1.00  0.00    -0.359 A  
HETATM   18  C   UNL     1     -11.002  12.410  67.741  1.00  0.00    -0.267 A  
HETATM   19  C   UNL     1     -11.189  13.755  68.033  1.00  0.00    -0.267 A  
HETATM   20  C   UNL     1     -11.816  14.137  69.215  1.00  0.00    -0.381 A  
HETATM   21 CL   UNL     1     -10.649  14.959  66.928  1.00  0.00    -0.294 Cl 
HETATM   22  C   UNL     1     -12.269  13.195  70.120  1.00  0.00    -0.290 A  
HETATM   23  N   UNL     1     -12.887  13.654  71.217  1.00  0.00    -0.348 NA 
HETATM   24  C   UNL     1     -13.373  12.750  72.087  1.00  0.00    -0.492 A  
HETATM   25  C   UNL     1     -13.246  11.385  71.923  1.00  0.00    -0.485 A  
ENDBRANCH  13  15
ENDBRANCH  11  13
ENDBRANCH  10  11
ENDBRANCH   9  10
ENDBRANCH   8   9
ENDBRANCH   3   8
ENDBRANCH   2   3
TORSDOF 9
ENDMDL
MODEL       50
REMARK 921   NORMALIZED FREE ENERGY PREDICTED BY IDOCK:   -4.89 KCAL/MOL
REMARK 922        TOTAL FREE ENERGY PREDICTED BY IDOCK:   -8.69 KCAL/MOL
REMARK 923 INTER-LIGAND FREE ENERGY PREDICTED BY IDOCK:   -7.87 KCAL/MOL
REMARK 924 INTRA-LIGAND FREE ENERGY PREDICTED BY IDOCK:   -0.82 KCAL/MOL
REMARK 927      BINDING AFFINITY PREDICTED BY RF-SCORE:    0.00 PKD
ROOT
HETATM    1  C   UNL     1     -12.512   6.896  71.205  1.00  0.00    -0.409 C  
HETATM    2  C   UNL     1     -11.605   6.506  70.042  1.00  0.00    -0.390 C  
ENDROOT
BRANCH   2   3
HETATM    3  N   UNL     1     -10.657   7.551  69.586  1.00  0.00    -0.237 NA 
BRANCH   3   4
HETATM    4  C   UNL     1      -9.467   7.599  70.472  1.00  0.00    -0.164 C  
BRANCH   4   5
HETATM    5  C   UNL     1      -9.245   8.926  71.222  1.00  0.00    -0.258 C  
HETATM    6  H   UNL     1      -8.723   9.496  73.036  1.00  0.00     0.000 HD 
HETATM    7  O   UNL     1      -8.860   8.678  72.574  1.00  0.00    -0.356 OA 
ENDBRANCH   4   5
ENDBRANCH   3   4
BRANCH   3   8
HETATM    8  C   UNL     1     -10.260   7.275  68.184  1.00  0.00    -0.187 C  
BRANCH   8   9
HETATM    9  C   UNL     1     -10.431   8.454  67.202  1.00  0.00    -0.380 C  
BRANCH   9  10
HETATM   10  C   UNL     1     -10.844   9.790  67.844  1.00  0.00    -0.298 C  
BRANCH  10  11
HETATM   11  C   UNL     1     -10.566  11.023  66.963  1.00  0.00    -0.256 C  
HETATM   12  C   UNL     1     -10.264  10.637  65.513  1.00  0.00    -0.329 C  
BRANCH  11  13
HETATM   13  N   UNL     1     -11.729  11.940  66.985  1.00  0.00    -0.589 NA 
HETATM   14  H   UNL     1     -12.683  11.587  66.905  1.00  0.00     0.000 HD 
BRANCH  13  15
HETATM   15  C   UNL     1     -11.461  13.330  67.123  1.00  0.00    -0.341 A  
HETATM   16  C   UNL     1     -11.589  13.965  68.388  1.00  0.00    -0.368 A  
HETATM   17  C   UNL     1     -12.026  13.307  69.563  1.00  0.00    -0.366 A  
HETATM   18  C   UNL     1     -12.140  13.995  70.774  1.00  0.00    -0.417 A  
HETATM   19  C   UNL     1     -11.834  15.349  70.820  1.00  0.00    -0.353 A  
HETATM   20  C   UNL     1     -11.405  16.013  69.675  1.00  0.00    -0.332 A  
HETATM   21 CL   UNL     1     -11.979  16.214  72.302  1.00  0.00    -0.605 Cl 
HETATM   22  C   UNL     1     -11.270  15.345  68.472  1.00  0.00    -0.318 A  
HETATM   23  N   UNL     1     -10.823  16.057  67.429  1.00  0.00    -0.307 NA 
HETATM   24  C   UNL     1     -10.644  15.415  66.260  1.00  0.00    -0.308 A  
HETATM   25  C   UNL     1     -10.920  14.074  66.075  1.00  0.00    -0.298 A  
ENDBRANCH  13  15
ENDBRANCH  11  13
ENDBRANCH  10  11
ENDBRANCH   9  10
ENDBRANCH   8   9
ENDBRANCH   3   8
ENDBRANCH   2   3
TORSDOF 9
ENDMDL
MODEL       51
REMARK 921   NORMALIZED FREE ENERGY PREDICTED BY IDOCK:   -4.89 KCAL/MOL
REMARK 922        TOTAL FREE ENERGY PREDICTED BY IDOCK:   -8.69 KCAL/MOL
REMARK 923 INTER-LIGAND FREE ENERGY PREDICTED BY IDOCK:   -7.83 KCAL/MOL
REMARK 924 INTRA-LIGAND FREE ENERGY PREDICTED BY IDOCK:   -0.86 KCAL/MOL
REMARK 927      BINDING AFFINITY PREDICTED BY RF-SCORE:    0.00 PKD
ROOT
HETATM    1  C   UNL     1     -14.375   8.253  71.527  1.00  0.00    -0.525 C  
HETATM    2  C   UNL     1     -13.361   8.730  72.562  1.00  0.00    -0.354 C  
ENDROOT
BRANCH   2   3
HETATM    3  N   UNL     1     -12.350   9.698  72.074  1.00  0.00    -0.340 NA 
BRANCH   3   4
HETATM    4  C   UNL     1     -11.078   9.007  71.748  1.00  0.00    -0.374 C  
BRANCH   4   5
HETATM    5  C   UNL     1     -10.988   8.402  70.334  1.00  0.00    -0.239 C  
HETATM    6  H   UNL     1      -9.648   7.444  69.250  1.00  0.00     0.000 HD 
HETATM    7  O   UNL     1      -9.703   7.817  70.122  1.00  0.00    -0.182 OA 
ENDBRANCH   4   5
ENDBRANCH   3   4
BRANCH   3   8
HETATM    8  C   UNL     1     -12.884  10.406  70.885  1.00  0.00    -0.392 C  
BRANCH   8   9
HETATM    9  C   UNL     1     -12.235  11.774  70.580  1.00  0.00    -0.443 C  
BRANCH   9  10
HETATM   10  C   UNL     1     -11.796  11.983  69.120  1.00  0.00    -0.369 C  
BRANCH  10  11
HETATM   11  C   UNL     1     -11.984  13.424  68.608  1.00  0.00    -0.327 C  
HETATM   12  C   UNL     1     -11.988  14.444  69.749  1.00  0.00    -0.385 C  
BRANCH  11  13
HETATM   13  N   UNL     1     -10.905  13.772  67.655  1.00  0.00    -0.252 NA 
HETATM   14  H   UNL     1      -9.998  14.105  67.980  1.00  0.00     0.000 HD 
BRANCH  13  15
HETATM   15  C   UNL     1     -11.186  13.622  66.268  1.00  0.00    -0.305 A  
HETATM   16  C   UNL     1     -10.621  12.546  65.532  1.00  0.00    -0.304 A  
HETATM   17  C   UNL     1      -9.723  11.598  66.080  1.00  0.00    -0.257 A  
HETATM   18  C   UNL     1      -9.194  10.569  65.296  1.00  0.00    -0.238 A  
HETATM   19  C   UNL     1      -9.543  10.486  63.955  1.00  0.00    -0.309 A  
HETATM   20  C   UNL     1     -10.422  11.411  63.398  1.00  0.00    -0.452 A  
HETATM   21 CL   UNL     1      -8.893   9.231  62.972  1.00  0.00    -0.213 Cl 
HETATM   22  C   UNL     1     -10.969  12.425  64.162  1.00  0.00    -0.367 A  
HETATM   23  N   UNL     1     -11.828  13.251  63.550  1.00  0.00    -0.466 NA 
HETATM   24  C   UNL     1     -12.403  14.218  64.288  1.00  0.00    -0.377 A  
HETATM   25  C   UNL     1     -12.136  14.417  65.628  1.00  0.00    -0.359 A  
ENDBRANCH  13  15
ENDBRANCH  11  13
ENDBRANCH  10  11
ENDBRANCH   9  10
ENDBRANCH   8   9
ENDBRANCH   3   8
ENDBRANCH   2   3
TORSDOF 9
ENDMDL
MODEL       52
REMARK 921   NORMALIZED FREE ENERGY PREDICTED BY IDOCK:   -4.88 KCAL/MOL
REMARK 922        TOTAL FREE ENERGY PREDICTED BY IDOCK:   -8.68 KCAL/MOL
REMARK 923 INTER-LIGAND FREE ENERGY PREDICTED BY IDOCK:   -7.19 KCAL/MOL
REMARK 924 INTRA-LIGAND FREE ENERGY PREDICTED BY IDOCK:   -1.49 KCAL/MOL
REMARK 927      BINDING AFFINITY PREDICTED BY RF-SCORE:    0.00 PKD
ROOT
HETATM    1  C   UNL     1      -7.458  12.545  67.490  1.00  0.00    -0.151 C  
HETATM    2  C   UNL     1      -7.986  11.198  67.006  1.00  0.00    -0.145 C  
ENDROOT
BRANCH   2   3
HETATM    3  N   UNL     1      -9.462  11.057  66.981  1.00  0.00    -0.171 NA 
BRANCH   3   4
HETATM    4  C   UNL     1      -9.903  10.400  65.725  1.00  0.00    -0.239 C  
BRANCH   4   5
HETATM    5  C   UNL     1      -8.940  10.526  64.530  1.00  0.00    -0.209 C  
HETATM    6  H   UNL     1      -8.974  10.150  62.594  1.00  0.00     0.000 HD 
HETATM    7  O   UNL     1      -9.568  10.072  63.331  1.00  0.00    -0.262 OA 
ENDBRANCH   4   5
ENDBRANCH   3   4
BRANCH   3   8
HETATM    8  C   UNL     1      -9.900  10.279  68.164  1.00  0.00    -0.148 C  
BRANCH   8   9
HETATM    9  C   UNL     1     -10.827  11.030  69.146  1.00  0.00    -0.283 C  
BRANCH   9  10
HETATM   10  C   UNL     1     -12.029  11.742  68.501  1.00  0.00    -0.279 C  
BRANCH  10  11
HETATM   11  C   UNL     1     -12.025  13.272  68.682  1.00  0.00    -0.310 C  
HETATM   12  C   UNL     1     -12.262  13.678  70.139  1.00  0.00    -0.413 C  
BRANCH  11  13
HETATM   13  N   UNL     1     -10.733  13.836  68.230  1.00  0.00    -0.246 NA 
HETATM   14  H   UNL     1      -9.861  13.620  68.713  1.00  0.00     0.000 HD 
BRANCH  13  15
HETATM   15  C   UNL     1     -10.757  14.692  67.093  1.00  0.00    -0.292 A  
HETATM   16  C   UNL     1     -10.513  16.085  67.236  1.00  0.00    -0.308 A  
HETATM   17  C   UNL     1     -10.285  16.725  68.478  1.00  0.00    -0.298 A  
HETATM   18  C   UNL     1     -10.062  18.103  68.549  1.00  0.00    -0.413 A  
HETATM   19  C   UNL     1     -10.080  18.856  67.383  1.00  0.00    -0.361 A  
HETATM   20  C   UNL     1     -10.305  18.245  66.153  1.00  0.00    -0.414 A  
HETATM   21 CL   UNL     1      -9.818  20.556  67.453  1.00  0.00    -0.596 Cl 
HETATM   22  C   UNL     1     -10.510  16.881  66.062  1.00  0.00    -0.290 A  
HETATM   23  N   UNL     1     -10.690  16.374  64.834  1.00  0.00    -0.705 NA 
HETATM   24  C   UNL     1     -10.848  15.043  64.721  1.00  0.00    -0.355 A  
HETATM   25  C   UNL     1     -10.861  14.181  65.800  1.00  0.00    -0.297 A  
ENDBRANCH  13  15
ENDBRANCH  11  13
ENDBRANCH  10  11
ENDBRANCH   9  10
ENDBRANCH   8   9
ENDBRANCH   3   8
ENDBRANCH   2   3
TORSDOF 9
ENDMDL
MODEL       53
REMARK 921   NORMALIZED FREE ENERGY PREDICTED BY IDOCK:   -4.87 KCAL/MOL
REMARK 922        TOTAL FREE ENERGY PREDICTED BY IDOCK:   -8.67 KCAL/MOL
REMARK 923 INTER-LIGAND FREE ENERGY PREDICTED BY IDOCK:   -7.63 KCAL/MOL
REMARK 924 INTRA-LIGAND FREE ENERGY PREDICTED BY IDOCK:   -1.03 KCAL/MOL
REMARK 927      BINDING AFFINITY PREDICTED BY RF-SCORE:    0.00 PKD
ROOT
HETATM    1  C   UNL     1     -12.025  12.794  66.074  1.00  0.00    -0.491 C  
HETATM    2  C   UNL     1     -11.526  12.627  67.506  1.00  0.00    -0.340 C  
ENDROOT
BRANCH   2   3
HETATM    3  N   UNL     1     -11.949  11.383  68.193  1.00  0.00    -0.630 NA 
BRANCH   3   4
HETATM    4  C   UNL     1     -11.102  10.239  67.773  1.00  0.00    -0.269 C  
BRANCH   4   5
HETATM    5  C   UNL     1      -9.719  10.149  68.444  1.00  0.00    -0.147 C  
HETATM    6  H   UNL     1      -7.833  10.068  67.873  1.00  0.00     0.000 HD 
HETATM    7  O   UNL     1      -8.686  10.123  67.459  1.00  0.00    -0.125 OA 
ENDBRANCH   4   5
ENDBRANCH   3   4
BRANCH   3   8
HETATM    8  C   UNL     1     -11.872  11.584  69.661  1.00  0.00    -0.354 C  
BRANCH   8   9
HETATM    9  C   UNL     1     -12.794  10.675  70.504  1.00  0.00    -0.356 C  
BRANCH   9  10
HETATM   10  C   UNL     1     -12.080   9.813  71.560  1.00  0.00    -0.493 C  
BRANCH  10  11
HETATM   11  C   UNL     1     -12.803   8.492  71.886  1.00  0.00    -0.363 C  
HETATM   12  C   UNL     1     -14.285   8.711  72.205  1.00  0.00    -0.520 C  
BRANCH  11  13
HETATM   13  N   UNL     1     -12.689   7.553  70.748  1.00  0.00    -0.564 NA 
HETATM   14  H   UNL     1     -13.265   7.659  69.913  1.00  0.00     0.000 HD 
BRANCH  13  15
HETATM   15  C   UNL     1     -11.744   6.496  70.866  1.00  0.00    -0.356 A  
HETATM   16  C   UNL     1     -11.052   6.019  69.720  1.00  0.00    -0.476 A  
HETATM   17  C   UNL     1     -11.272   6.498  68.405  1.00  0.00    -0.274 A  
HETATM   18  C   UNL     1     -10.565   5.976  67.320  1.00  0.00    -0.367 A  
HETATM   19  C   UNL     1      -9.641   4.961  67.533  1.00  0.00    -0.151 A  
HETATM   20  C   UNL     1      -9.414   4.475  68.817  1.00  0.00    -0.221 A  
HETATM   21 CL   UNL     1      -8.768   4.299  66.205  1.00  0.00    -0.113 Cl 
HETATM   22  C   UNL     1     -10.092   4.991  69.906  1.00  0.00    -0.274 A  
HETATM   23  N   UNL     1      -9.787   4.484  71.108  1.00  0.00    -0.184 NA 
HETATM   24  C   UNL     1     -10.406   5.003  72.183  1.00  0.00    -0.215 A  
HETATM   25  C   UNL     1     -11.351   6.007  72.111  1.00  0.00    -0.351 A  
ENDBRANCH  13  15
ENDBRANCH  11  13
ENDBRANCH  10  11
ENDBRANCH   9  10
ENDBRANCH   8   9
ENDBRANCH   3   8
ENDBRANCH   2   3
TORSDOF 9
ENDMDL
MODEL       54
REMARK 921   NORMALIZED FREE ENERGY PREDICTED BY IDOCK:   -4.87 KCAL/MOL
REMARK 922        TOTAL FREE ENERGY PREDICTED BY IDOCK:   -8.66 KCAL/MOL
REMARK 923 INTER-LIGAND FREE ENERGY PREDICTED BY IDOCK:   -8.10 KCAL/MOL
REMARK 924 INTRA-LIGAND FREE ENERGY PREDICTED BY IDOCK:   -0.56 KCAL/MOL
REMARK 927      BINDING AFFINITY PREDICTED BY RF-SCORE:    0.00 PKD
ROOT
HETATM    1  C   UNL     1      -8.720   9.552  62.633  1.00  0.00    -0.233 C  
HETATM    2  C   UNL     1      -9.585  10.809  62.606  1.00  0.00    -0.261 C  
ENDROOT
BRANCH   2   3
HETATM    3  N   UNL     1     -10.433  11.031  63.802  1.00  0.00    -0.369 NA 
BRANCH   3   4
HETATM    4  C   UNL     1      -9.593  11.284  64.999  1.00  0.00    -0.233 C  
BRANCH   4   5
HETATM    5  C   UNL     1      -9.834  10.344  66.196  1.00  0.00    -0.222 C  
HETATM    6  H   UNL     1     -10.155   8.420  66.485  1.00  0.00     0.000 HD 
HETATM    7  O   UNL     1     -10.007   9.000  65.748  1.00  0.00    -0.241 OA 
ENDBRANCH   4   5
ENDBRANCH   3   4
BRANCH   3   8
HETATM    8  C   UNL     1     -11.347  12.172  63.549  1.00  0.00    -0.453 C  
BRANCH   8   9
HETATM    9  C   UNL     1     -12.490  12.345  64.573  1.00  0.00    -0.519 C  
BRANCH   9  10
HETATM   10  C   UNL     1     -12.573  13.731  65.238  1.00  0.00    -0.510 C  
BRANCH  10  11
HETATM   11  C   UNL     1     -11.286  14.152  65.974  1.00  0.00    -0.319 C  
HETATM   12  C   UNL     1     -10.479  15.180  65.177  1.00  0.00    -0.437 C  
BRANCH  11  13
HETATM   13  N   UNL     1     -11.619  14.723  67.299  1.00  0.00    -0.379 NA 
HETATM   14  H   UNL     1     -11.728  15.729  67.430  1.00  0.00     0.000 HD 
BRANCH  13  15
HETATM   15  C   UNL     1     -11.780  13.813  68.380  1.00  0.00    -0.358 A  
HETATM   16  C   UNL     1     -12.067  14.292  69.687  1.00  0.00    -0.396 A  
HETATM   17  C   UNL     1     -12.160  15.664  70.024  1.00  0.00    -0.379 A  
HETATM   18  C   UNL     1     -12.434  16.068  71.333  1.00  0.00    -0.343 A  
HETATM   19  C   UNL     1     -12.602  15.107  72.321  1.00  0.00    -0.344 A  
HETATM   20  C   UNL     1     -12.510  13.753  72.010  1.00  0.00    -0.150 A  
HETATM   21 CL   UNL     1     -12.929  15.586  73.942  1.00  0.00    -0.581 Cl 
HETATM   22  C   UNL     1     -12.257  13.335  70.717  1.00  0.00    -0.308 A  
HETATM   23  N   UNL     1     -12.215  12.013  70.503  1.00  0.00    -0.361 NA 
HETATM   24  C   UNL     1     -12.012  11.586  69.244  1.00  0.00    -0.330 A  
HETATM   25  C   UNL     1     -11.821  12.435  68.171  1.00  0.00    -0.372 A  
ENDBRANCH  13  15
ENDBRANCH  11  13
ENDBRANCH  10  11
ENDBRANCH   9  10
ENDBRANCH   8   9
ENDBRANCH   3   8
ENDBRANCH   2   3
TORSDOF 9
ENDMDL
MODEL       55
REMARK 921   NORMALIZED FREE ENERGY PREDICTED BY IDOCK:   -4.86 KCAL/MOL
REMARK 922        TOTAL FREE ENERGY PREDICTED BY IDOCK:   -8.65 KCAL/MOL
REMARK 923 INTER-LIGAND FREE ENERGY PREDICTED BY IDOCK:   -7.69 KCAL/MOL
REMARK 924 INTRA-LIGAND FREE ENERGY PREDICTED BY IDOCK:   -0.96 KCAL/MOL
REMARK 927      BINDING AFFINITY PREDICTED BY RF-SCORE:    0.00 PKD
ROOT
HETATM    1  C   UNL     1      -8.927   8.310  70.519  1.00  0.00    -0.151 C  
HETATM    2  C   UNL     1     -10.345   7.763  70.388  1.00  0.00    -0.212 C  
ENDROOT
BRANCH   2   3
HETATM    3  N   UNL     1     -11.433   8.762  70.510  1.00  0.00    -0.238 NA 
BRANCH   3   4
HETATM    4  C   UNL     1     -11.792   8.973  71.935  1.00  0.00    -0.376 C  
BRANCH   4   5
HETATM    5  C   UNL     1     -13.292   8.869  72.269  1.00  0.00    -0.449 C  
HETATM    6  H   UNL     1     -14.773   7.617  71.914  1.00  0.00     0.000 HD 
HETATM    7  O   UNL     1     -13.848   7.681  71.708  1.00  0.00    -0.353 OA 
ENDBRANCH   4   5
ENDBRANCH   3   4
BRANCH   3   8
HETATM    8  C   UNL     1     -11.003  10.035  69.882  1.00  0.00    -0.293 C  
BRANCH   8   9
HETATM    9  C   UNL     1     -12.144  11.000  69.491  1.00  0.00    -0.400 C  
BRANCH   9  10
HETATM   10  C   UNL     1     -12.049  12.411  70.099  1.00  0.00    -0.366 C  
BRANCH  10  11
HETATM   11  C   UNL     1     -11.851  13.531  69.059  1.00  0.00    -0.343 C  
HETATM   12  C   UNL     1     -11.346  14.827  69.699  1.00  0.00    -0.316 C  
BRANCH  11  13
HETATM   13  N   UNL     1     -10.887  13.100  68.021  1.00  0.00    -0.235 NA 
HETATM   14  H   UNL     1      -9.971  12.728  68.269  1.00  0.00     0.000 HD 
BRANCH  13  15
HETATM   15  C   UNL     1     -11.293  13.224  66.662  1.00  0.00    -0.321 A  
HETATM   16  C   UNL     1     -10.780  12.340  65.675  1.00  0.00    -0.302 A  
HETATM   17  C   UNL     1      -9.819  11.333  65.936  1.00  0.00    -0.272 A  
HETATM   18  C   UNL     1      -9.347  10.504  64.915  1.00  0.00    -0.278 A  
HETATM   19  C   UNL     1      -9.818  10.683  63.621  1.00  0.00    -0.333 A  
HETATM   20  C   UNL     1     -10.760  11.669  63.345  1.00  0.00    -0.460 A  
HETATM   21 CL   UNL     1      -9.240   9.677  62.349  1.00  0.00    -0.290 Cl 
HETATM   22  C   UNL     1     -11.251  12.487  64.345  1.00  0.00    -0.339 A  
HETATM   23  N   UNL     1     -12.177  13.389  63.992  1.00  0.00    -0.597 NA 
HETATM   24  C   UNL     1     -12.697  14.165  64.960  1.00  0.00    -0.312 A  
HETATM   25  C   UNL     1     -12.311  14.098  66.284  1.00  0.00    -0.451 A  
ENDBRANCH  13  15
ENDBRANCH  11  13
ENDBRANCH  10  11
ENDBRANCH   9  10
ENDBRANCH   8   9
ENDBRANCH   3   8
ENDBRANCH   2   3
TORSDOF 9
ENDMDL
MODEL       56
REMARK 921   NORMALIZED FREE ENERGY PREDICTED BY IDOCK:   -4.86 KCAL/MOL
REMARK 922        TOTAL FREE ENERGY PREDICTED BY IDOCK:   -8.64 KCAL/MOL
REMARK 923 INTER-LIGAND FREE ENERGY PREDICTED BY IDOCK:   -7.77 KCAL/MOL
REMARK 924 INTRA-LIGAND FREE ENERGY PREDICTED BY IDOCK:   -0.87 KCAL/MOL
REMARK 927      BINDING AFFINITY PREDICTED BY RF-SCORE:    0.00 PKD
ROOT
HETATM    1  C   UNL     1      -9.323   8.433  69.421  1.00  0.00    -0.154 C  
HETATM    2  C   UNL     1     -10.649   9.183  69.514  1.00  0.00    -0.223 C  
ENDROOT
BRANCH   2   3
HETATM    3  N   UNL     1     -11.445   8.933  70.739  1.00  0.00    -0.277 NA 
BRANCH   3   4
HETATM    4  C   UNL     1     -10.556   8.801  71.921  1.00  0.00    -0.354 C  
BRANCH   4   5
HETATM    5  C   UNL     1     -10.921   7.676  72.909  1.00  0.00    -0.400 C  
HETATM    6  H   UNL     1     -11.512   5.798  72.812  1.00  0.00     0.000 HD 
HETATM    7  O   UNL     1     -11.288   6.491  72.203  1.00  0.00    -0.256 OA 
ENDBRANCH   4   5
ENDBRANCH   3   4
BRANCH   3   8
HETATM    8  C   UNL     1     -12.413  10.040  70.929  1.00  0.00    -0.337 C  
BRANCH   8   9
HETATM    9  C   UNL     1     -12.049  11.367  70.230  1.00  0.00    -0.459 C  
BRANCH   9  10
HETATM   10  C   UNL     1     -12.477  12.643  70.977  1.00  0.00    -0.354 C  
BRANCH  10  11
HETATM   11  C   UNL     1     -12.372  13.929  70.135  1.00  0.00    -0.334 C  
HETATM   12  C   UNL     1     -12.744  15.176  70.941  1.00  0.00    -0.464 C  
BRANCH  11  13
HETATM   13  N   UNL     1     -10.995  14.087  69.612  1.00  0.00    -0.447 NA 
HETATM   14  H   UNL     1     -10.184  14.016  70.226  1.00  0.00     0.000 HD 
BRANCH  13  15
HETATM   15  C   UNL     1     -10.851  14.342  68.220  1.00  0.00    -0.246 A  
HETATM   16  C   UNL     1     -10.685  15.671  67.745  1.00  0.00    -0.297 A  
HETATM   17  C   UNL     1     -10.702  16.816  68.578  1.00  0.00    -0.358 A  
HETATM   18  C   UNL     1     -10.544  18.098  68.044  1.00  0.00    -0.359 A  
HETATM   19  C   UNL     1     -10.385  18.250  66.673  1.00  0.00    -0.381 A  
HETATM   20  C   UNL     1     -10.369  17.136  65.839  1.00  0.00    -0.294 A  
HETATM   21 CL   UNL     1     -10.200  19.822  65.997  1.00  0.00    -0.589 Cl 
HETATM   22  C   UNL     1     -10.506  15.859  66.350  1.00  0.00    -0.308 A  
HETATM   23  N   UNL     1     -10.450  14.845  65.477  1.00  0.00    -0.332 NA 
HETATM   24  C   UNL     1     -10.539  13.593  65.962  1.00  0.00    -0.290 A  
HETATM   25  C   UNL     1     -10.709  13.302  67.301  1.00  0.00    -0.262 A  
ENDBRANCH  13  15
ENDBRANCH  11  13
ENDBRANCH  10  11
ENDBRANCH   9  10
ENDBRANCH   8   9
ENDBRANCH   3   8
ENDBRANCH   2   3
TORSDOF 9
ENDMDL
MODEL       57
REMARK 921   NORMALIZED FREE ENERGY PREDICTED BY IDOCK:   -4.85 KCAL/MOL
REMARK 922        TOTAL FREE ENERGY PREDICTED BY IDOCK:   -8.63 KCAL/MOL
REMARK 923 INTER-LIGAND FREE ENERGY PREDICTED BY IDOCK:   -7.83 KCAL/MOL
REMARK 924 INTRA-LIGAND FREE ENERGY PREDICTED BY IDOCK:   -0.81 KCAL/MOL
REMARK 927      BINDING AFFINITY PREDICTED BY RF-SCORE:    0.00 PKD
ROOT
HETATM    1  C   UNL     1     -10.532  16.666  69.298  1.00  0.00    -0.333 C  
HETATM    2  C   UNL     1     -11.817  15.853  69.176  1.00  0.00    -0.330 C  
ENDROOT
BRANCH   2   3
HETATM    3  N   UNL     1     -12.124  14.960  70.319  1.00  0.00    -0.303 NA 
BRANCH   3   4
HETATM    4  C   UNL     1     -13.382  15.377  70.987  1.00  0.00    -0.480 C  
BRANCH   4   5
HETATM    5  C   UNL     1     -13.337  15.431  72.525  1.00  0.00    -0.471 C  
HETATM    6  H   UNL     1     -13.580  14.177  74.027  1.00  0.00     0.000 HD 
HETATM    7  O   UNL     1     -13.608  14.144  73.078  1.00  0.00    -0.651 OA 
ENDBRANCH   4   5
ENDBRANCH   3   4
BRANCH   3   8
HETATM    8  C   UNL     1     -12.223  13.561  69.836  1.00  0.00    -0.292 C  
BRANCH   8   9
HETATM    9  C   UNL     1     -11.794  13.334  68.369  1.00  0.00    -0.395 C  
BRANCH   9  10
HETATM   10  C   UNL     1     -10.466  12.579  68.182  1.00  0.00    -0.238 C  
BRANCH  10  11
HETATM   11  C   UNL     1     -10.555  11.069  68.479  1.00  0.00    -0.190 C  
HETATM   12  C   UNL     1      -9.737  10.240  67.486  1.00  0.00    -0.196 C  
BRANCH  11  13
HETATM   13  N   UNL     1     -10.074  10.790  69.851  1.00  0.00    -0.401 NA 
HETATM   14  H   UNL     1      -9.166  11.125  70.174  1.00  0.00     0.000 HD 
BRANCH  13  15
HETATM   15  C   UNL     1     -10.930  10.036  70.702  1.00  0.00    -0.322 A  
HETATM   16  C   UNL     1     -10.394   9.040  71.562  1.00  0.00    -0.412 A  
HETATM   17  C   UNL     1      -9.022   8.690  71.609  1.00  0.00    -0.305 A  
HETATM   18  C   UNL     1      -8.562   7.692  72.472  1.00  0.00    -0.164 A  
HETATM   19  C   UNL     1      -9.468   7.024  73.285  1.00  0.00    -0.166 A  
HETATM   20  C   UNL     1     -10.820   7.353  73.251  1.00  0.00    -0.417 A  
HETATM   21 CL   UNL     1      -8.920   5.785  74.347  1.00  0.00    -0.121 Cl 
HETATM   22  C   UNL     1     -11.291   8.348  72.416  1.00  0.00    -0.378 A  
HETATM   23  N   UNL     1     -12.603   8.618  72.471  1.00  0.00    -0.364 NA 
HETATM   24  C   UNL     1     -13.072   9.613  71.697  1.00  0.00    -0.412 A  
HETATM   25  C   UNL     1     -12.282  10.349  70.836  1.00  0.00    -0.484 A  
ENDBRANCH  13  15
ENDBRANCH  11  13
ENDBRANCH  10  11
ENDBRANCH   9  10
ENDBRANCH   8   9
ENDBRANCH   3   8
ENDBRANCH   2   3
TORSDOF 9
ENDMDL
MODEL       58
REMARK 921   NORMALIZED FREE ENERGY PREDICTED BY IDOCK:   -4.85 KCAL/MOL
REMARK 922        TOTAL FREE ENERGY PREDICTED BY IDOCK:   -8.63 KCAL/MOL
REMARK 923 INTER-LIGAND FREE ENERGY PREDICTED BY IDOCK:   -7.56 KCAL/MOL
REMARK 924 INTRA-LIGAND FREE ENERGY PREDICTED BY IDOCK:   -1.08 KCAL/MOL
REMARK 927      BINDING AFFINITY PREDICTED BY RF-SCORE:    0.00 PKD
ROOT
HETATM    1  C   UNL     1      -9.408  10.103  62.555  1.00  0.00    -0.313 C  
HETATM    2  C   UNL     1      -9.524  11.282  63.517  1.00  0.00    -0.256 C  
ENDROOT
BRANCH   2   3
HETATM    3  N   UNL     1     -10.632  11.205  64.498  1.00  0.00    -0.338 NA 
BRANCH   3   4
HETATM    4  C   UNL     1     -10.201  10.478  65.718  1.00  0.00    -0.243 C  
BRANCH   4   5
HETATM    5  C   UNL     1      -8.835  10.893  66.296  1.00  0.00    -0.179 C  
HETATM    6  H   UNL     1      -8.146  11.672  67.972  1.00  0.00     0.000 HD 
HETATM    7  O   UNL     1      -8.988  11.416  67.615  1.00  0.00    -0.136 OA 
ENDBRANCH   4   5
ENDBRANCH   3   4
BRANCH   3   8
HETATM    8  C   UNL     1     -11.085  12.577  64.835  1.00  0.00    -0.299 C  
BRANCH   8   9
HETATM    9  C   UNL     1     -12.144  12.669  65.956  1.00  0.00    -0.429 C  
BRANCH   9  10
HETATM   10  C   UNL     1     -12.090  13.949  66.809  1.00  0.00    -0.476 C  
BRANCH  10  11
HETATM   11  C   UNL     1     -10.663  14.391  67.187  1.00  0.00    -0.283 C  
HETATM   12  C   UNL     1     -10.484  15.908  67.078  1.00  0.00    -0.306 C  
BRANCH  11  13
HETATM   13  N   UNL     1     -10.345  13.967  68.569  1.00  0.00    -0.241 NA 
HETATM   14  H   UNL     1      -9.429  13.591  68.811  1.00  0.00     0.000 HD 
BRANCH  13  15
HETATM   15  C   UNL     1     -11.371  14.105  69.546  1.00  0.00    -0.259 A  
HETATM   16  C   UNL     1     -11.876  12.963  70.225  1.00  0.00    -0.291 A  
HETATM   17  C   UNL     1     -11.456  11.636  69.963  1.00  0.00    -0.266 A  
HETATM   18  C   UNL     1     -12.002  10.556  70.660  1.00  0.00    -0.455 A  
HETATM   19  C   UNL     1     -12.983  10.788  71.615  1.00  0.00    -0.476 A  
HETATM   20  C   UNL     1     -13.410  12.085  71.885  1.00  0.00    -0.408 A  
HETATM   21 CL   UNL     1     -13.674   9.468  72.477  1.00  0.00    -0.439 Cl 
HETATM   22  C   UNL     1     -12.869  13.168  71.217  1.00  0.00    -0.296 A  
HETATM   23  N   UNL     1     -13.320  14.381  71.561  1.00  0.00    -0.339 NA 
HETATM   24  C   UNL     1     -12.774  15.450  70.952  1.00  0.00    -0.461 A  
HETATM   25  C   UNL     1     -11.799  15.359  69.979  1.00  0.00    -0.368 A  
ENDBRANCH  13  15
ENDBRANCH  11  13
ENDBRANCH  10  11
ENDBRANCH   9  10
ENDBRANCH   8   9
ENDBRANCH   3   8
ENDBRANCH   2   3
TORSDOF 9
ENDMDL
MODEL       59
REMARK 921   NORMALIZED FREE ENERGY PREDICTED BY IDOCK:   -4.85 KCAL/MOL
REMARK 922        TOTAL FREE ENERGY PREDICTED BY IDOCK:   -8.63 KCAL/MOL
REMARK 923 INTER-LIGAND FREE ENERGY PREDICTED BY IDOCK:   -7.54 KCAL/MOL
REMARK 924 INTRA-LIGAND FREE ENERGY PREDICTED BY IDOCK:   -1.09 KCAL/MOL
REMARK 927      BINDING AFFINITY PREDICTED BY RF-SCORE:    0.00 PKD
ROOT
HETATM    1  C   UNL     1     -11.559  12.817  69.181  1.00  0.00    -0.373 C  
HETATM    2  C   UNL     1     -11.809  13.615  70.457  1.00  0.00    -0.203 C  
ENDROOT
BRANCH   2   3
HETATM    3  N   UNL     1     -12.632  14.838  70.300  1.00  0.00    -0.336 NA 
BRANCH   3   4
HETATM    4  C   UNL     1     -13.714  14.874  71.316  1.00  0.00    -0.435 C  
BRANCH   4   5
HETATM    5  C   UNL     1     -13.277  14.596  72.767  1.00  0.00    -0.497 C  
HETATM    6  H   UNL     1     -13.114  15.608  74.451  1.00  0.00     0.000 HD 
HETATM    7  O   UNL     1     -13.382  15.780  73.557  1.00  0.00    -0.515 OA 
ENDBRANCH   4   5
ENDBRANCH   3   4
BRANCH   3   8
HETATM    8  C   UNL     1     -11.762  16.033  70.414  1.00  0.00    -0.309 C  
BRANCH   8   9
HETATM    9  C   UNL     1     -10.291  15.826  69.991  1.00  0.00    -0.286 C  
BRANCH   9  10
HETATM   10  C   UNL     1      -9.710  16.918  69.076  1.00  0.00    -0.231 C  
BRANCH  10  11
HETATM   11  C   UNL     1     -10.272  16.900  67.641  1.00  0.00    -0.306 C  
HETATM   12  C   UNL     1     -10.587  18.308  67.130  1.00  0.00    -0.392 C  
BRANCH  11  13
HETATM   13  N   UNL     1      -9.305  16.259  66.721  1.00  0.00    -0.225 NA 
HETATM   14  H   UNL     1      -8.662  16.814  66.157  1.00  0.00     0.000 HD 
BRANCH  13  15
HETATM   15  C   UNL     1      -9.311  14.837  66.656  1.00  0.00    -0.268 A  
HETATM   16  C   UNL     1     -10.204  14.161  65.781  1.00  0.00    -0.347 A  
HETATM   17  C   UNL     1     -11.164  14.814  64.971  1.00  0.00    -0.399 A  
HETATM   18  C   UNL     1     -12.021  14.087  64.141  1.00  0.00    -0.439 A  
HETATM   19  C   UNL     1     -11.939  12.701  64.123  1.00  0.00    -0.426 A  
HETATM   20  C   UNL     1     -11.004  12.042  64.916  1.00  0.00    -0.356 A  
HETATM   21 CL   UNL     1     -12.994  11.789  63.114  1.00  0.00    -0.307 Cl 
HETATM   22  C   UNL     1     -10.136  12.745  65.730  1.00  0.00    -0.286 A  
HETATM   23  N   UNL     1      -9.250  12.029  66.435  1.00  0.00    -0.219 NA 
HETATM   24  C   UNL     1      -8.369  12.699  67.201  1.00  0.00    -0.172 A  
HETATM   25  C   UNL     1      -8.348  14.075  67.316  1.00  0.00    -0.209 A  
ENDBRANCH  13  15
ENDBRANCH  11  13
ENDBRANCH  10  11
ENDBRANCH   9  10
ENDBRANCH   8   9
ENDBRANCH   3   8
ENDBRANCH   2   3
TORSDOF 9
ENDMDL
MODEL       60
REMARK 921   NORMALIZED FREE ENERGY PREDICTED BY IDOCK:   -4.84 KCAL/MOL
REMARK 922        TOTAL FREE ENERGY PREDICTED BY IDOCK:   -8.62 KCAL/MOL
REMARK 923 INTER-LIGAND FREE ENERGY PREDICTED BY IDOCK:   -7.59 KCAL/MOL
REMARK 924 INTRA-LIGAND FREE ENERGY PREDICTED BY IDOCK:   -1.03 KCAL/MOL
REMARK 927      BINDING AFFINITY PREDICTED BY RF-SCORE:    0.00 PKD
ROOT
HETATM    1  C   UNL     1     -11.820  15.404  68.727  1.00  0.00    -0.339 C  
HETATM    2  C   UNL     1     -11.170  14.793  67.489  1.00  0.00    -0.332 C  
ENDROOT
BRANCH   2   3
HETATM    3  N   UNL     1     -11.740  15.214  66.188  1.00  0.00    -0.091 NA 
BRANCH   3   4
HETATM    4  C   UNL     1     -10.676  15.736  65.294  1.00  0.00    -0.428 C  
BRANCH   4   5
HETATM    5  C   UNL     1      -9.486  16.416  65.998  1.00  0.00    -0.310 C  
HETATM    6  H   UNL     1      -8.902  18.254  66.408  1.00  0.00     0.000 HD 
HETATM    7  O   UNL     1      -9.636  17.835  65.974  1.00  0.00    -0.499 OA 
ENDBRANCH   4   5
ENDBRANCH   3   4
BRANCH   3   8
HETATM    8  C   UNL     1     -12.437  14.064  65.562  1.00  0.00    -0.509 C  
BRANCH   8   9
HETATM    9  C   UNL     1     -11.860  13.597  64.208  1.00  0.00    -0.464 C  
BRANCH   9  10
HETATM   10  C   UNL     1     -12.109  12.118  63.862  1.00  0.00    -0.584 C  
BRANCH  10  11
HETATM   11  C   UNL     1     -10.868  11.218  64.019  1.00  0.00    -0.344 C  
HETATM   12  C   UNL     1      -9.838  11.462  62.913  1.00  0.00    -0.314 C  
BRANCH  11  13
HETATM   13  N   UNL     1     -10.228  11.455  65.333  1.00  0.00    -0.258 NA 
HETATM   14  H   UNL     1      -9.936  12.389  65.620  1.00  0.00     0.000 HD 
BRANCH  13  15
HETATM   15  C   UNL     1     -10.036  10.326  66.179  1.00  0.00    -0.242 A  
HETATM   16  C   UNL     1     -10.601  10.301  67.483  1.00  0.00    -0.320 A  
HETATM   17  C   UNL     1     -11.329  11.375  68.051  1.00  0.00    -0.372 A  
HETATM   18  C   UNL     1     -11.848  11.288  69.345  1.00  0.00    -0.424 A  
HETATM   19  C   UNL     1     -11.633  10.136  70.090  1.00  0.00    -0.277 A  
HETATM   20  C   UNL     1     -10.917   9.072  69.549  1.00  0.00    -0.118 A  
HETATM   21 CL   UNL     1     -12.256  10.017  71.690  1.00  0.00    -0.478 Cl 
HETATM   22  C   UNL     1     -10.410   9.133  68.265  1.00  0.00    -0.214 A  
HETATM   23  N   UNL     1      -9.760   8.051  67.816  1.00  0.00    -0.151 NA 
HETATM   24  C   UNL     1      -9.298   8.075  66.553  1.00  0.00    -0.205 A  
HETATM   25  C   UNL     1      -9.435   9.159  65.709  1.00  0.00    -0.322 A  
ENDBRANCH  13  15
ENDBRANCH  11  13
ENDBRANCH  10  11
ENDBRANCH   9  10
ENDBRANCH   8   9
ENDBRANCH   3   8
ENDBRANCH   2   3
TORSDOF 9
ENDMDL
MODEL       61
REMARK 921   NORMALIZED FREE ENERGY PREDICTED BY IDOCK:   -4.84 KCAL/MOL
REMARK 922        TOTAL FREE ENERGY PREDICTED BY IDOCK:   -8.61 KCAL/MOL
REMARK 923 INTER-LIGAND FREE ENERGY PREDICTED BY IDOCK:   -7.81 KCAL/MOL
REMARK 924 INTRA-LIGAND FREE ENERGY PREDICTED BY IDOCK:   -0.80 KCAL/MOL
REMARK 927      BINDING AFFINITY PREDICTED BY RF-SCORE:    0.00 PKD
ROOT
HETATM    1  C   UNL     1      -9.524  20.127  66.984  1.00  0.00    -0.541 C  
HETATM    2  C   UNL     1     -10.599  19.147  67.445  1.00  0.00    -0.481 C  
ENDROOT
BRANCH   2   3
HETATM    3  N   UNL     1     -10.156  17.744  67.623  1.00  0.00    -0.326 NA 
BRANCH   3   4
HETATM    4  C   UNL     1     -11.025  17.040  68.599  1.00  0.00    -0.217 C  
BRANCH   4   5
HETATM    5  C   UNL     1     -10.337  16.583  69.899  1.00  0.00    -0.083 C  
HETATM    6  H   UNL     1      -8.732  15.555  70.405  1.00  0.00     0.000 HD 
HETATM    7  O   UNL     1      -9.157  15.837  69.604  1.00  0.00    -0.251 OA 
ENDBRANCH   4   5
ENDBRANCH   3   4
BRANCH   3   8
HETATM    8  C   UNL     1     -10.174  17.054  66.310  1.00  0.00    -0.329 C  
BRANCH   8   9
HETATM    9  C   UNL     1     -11.010  15.756  66.253  1.00  0.00    -0.163 C  
BRANCH   9  10
HETATM   10  C   UNL     1     -10.310  14.499  66.800  1.00  0.00    -0.269 C  
BRANCH  10  11
HETATM   11  C   UNL     1     -11.255  13.518  67.521  1.00  0.00    -0.283 C  
HETATM   12  C   UNL     1     -11.428  12.211  66.743  1.00  0.00    -0.418 C  
BRANCH  11  13
HETATM   13  N   UNL     1     -10.736  13.209  68.873  1.00  0.00    -0.367 NA 
HETATM   14  H   UNL     1      -9.734  13.192  69.065  1.00  0.00     0.000 HD 
BRANCH  13  15
HETATM   15  C   UNL     1     -11.691  12.937  69.892  1.00  0.00    -0.254 A  
HETATM   16  C   UNL     1     -11.870  11.613  70.376  1.00  0.00    -0.385 A  
HETATM   17  C   UNL     1     -11.178  10.485  69.869  1.00  0.00    -0.374 A  
HETATM   18  C   UNL     1     -11.410   9.207  70.383  1.00  0.00    -0.260 A  
HETATM   19  C   UNL     1     -12.345   9.039  71.396  1.00  0.00    -0.318 A  
HETATM   20  C   UNL     1     -13.036  10.135  71.904  1.00  0.00    -0.571 A  
HETATM   21 CL   UNL     1     -12.650   7.470  72.034  1.00  0.00    -0.296 Cl 
HETATM   22  C   UNL     1     -12.808  11.410  71.420  1.00  0.00    -0.397 A  
HETATM   23  N   UNL     1     -13.497  12.408  71.989  1.00  0.00    -0.454 NA 
HETATM   24  C   UNL     1     -13.257  13.661  71.560  1.00  0.00    -0.331 A  
HETATM   25  C   UNL     1     -12.361  13.966  70.554  1.00  0.00    -0.439 A  
ENDBRANCH  13  15
ENDBRANCH  11  13
ENDBRANCH  10  11
ENDBRANCH   9  10
ENDBRANCH   8   9
ENDBRANCH   3   8
ENDBRANCH   2   3
TORSDOF 9
ENDMDL
MODEL       62
REMARK 921   NORMALIZED FREE ENERGY PREDICTED BY IDOCK:   -4.84 KCAL/MOL
REMARK 922        TOTAL FREE ENERGY PREDICTED BY IDOCK:   -8.61 KCAL/MOL
REMARK 923 INTER-LIGAND FREE ENERGY PREDICTED BY IDOCK:   -7.26 KCAL/MOL
REMARK 924 INTRA-LIGAND FREE ENERGY PREDICTED BY IDOCK:   -1.35 KCAL/MOL
REMARK 927      BINDING AFFINITY PREDICTED BY RF-SCORE:    0.00 PKD
ROOT
HETATM    1  C   UNL     1     -11.916  13.929  68.484  1.00  0.00    -0.394 C  
HETATM    2  C   UNL     1     -12.212  13.870  66.989  1.00  0.00    -0.355 C  
ENDROOT
BRANCH   2   3
HETATM    3  N   UNL     1     -12.092  12.533  66.362  1.00  0.00    -0.597 NA 
BRANCH   3   4
HETATM    4  C   UNL     1     -11.240  12.598  65.148  1.00  0.00    -0.301 C  
BRANCH   4   5
HETATM    5  C   UNL     1     -11.968  12.386  63.807  1.00  0.00    -0.514 C  
HETATM    6  H   UNL     1     -13.763  11.839  63.203  1.00  0.00     0.000 HD 
HETATM    7  O   UNL     1     -13.314  11.969  64.030  1.00  0.00    -0.703 OA 
ENDBRANCH   4   5
ENDBRANCH   3   4
BRANCH   3   8
HETATM    8  C   UNL     1     -11.532  11.577  67.348  1.00  0.00    -0.274 C  
BRANCH   8   9
HETATM    9  C   UNL     1     -10.094  11.092  67.059  1.00  0.00    -0.235 C  
BRANCH   9  10
HETATM   10  C   UNL     1      -9.057  11.426  68.145  1.00  0.00    -0.174 C  
BRANCH  10  11
HETATM   11  C   UNL     1      -7.794  12.131  67.612  1.00  0.00    -0.153 C  
HETATM   12  C   UNL     1      -6.992  11.233  66.665  1.00  0.00    -0.129 C  
BRANCH  11  13
HETATM   13  N   UNL     1      -8.165  13.374  66.898  1.00  0.00    -0.406 NA 
HETATM   14  H   UNL     1      -8.583  13.346  65.968  1.00  0.00     0.000 HD 
BRANCH  13  15
HETATM   15  C   UNL     1      -7.914  14.607  67.562  1.00  0.00    -0.190 A  
HETATM   16  C   UNL     1      -8.637  15.777  67.204  1.00  0.00    -0.226 A  
HETATM   17  C   UNL     1      -9.594  15.827  66.161  1.00  0.00    -0.364 A  
HETATM   18  C   UNL     1     -10.262  17.015  65.852  1.00  0.00    -0.311 A  
HETATM   19  C   UNL     1      -9.970  18.167  66.571  1.00  0.00    -0.374 A  
HETATM   20  C   UNL     1      -9.030  18.137  67.597  1.00  0.00    -0.260 A  
HETATM   21 CL   UNL     1     -10.776  19.641  66.197  1.00  0.00    -0.557 Cl 
HETATM   22  C   UNL     1      -8.372  16.968  67.928  1.00  0.00    -0.201 A  
HETATM   23  N   UNL     1      -7.506  17.025  68.948  1.00  0.00    -0.239 NA 
HETATM   24  C   UNL     1      -6.888  15.887  69.312  1.00  0.00    -0.189 A  
HETATM   25  C   UNL     1      -7.079  14.676  68.677  1.00  0.00    -0.115 A  
ENDBRANCH  13  15
ENDBRANCH  11  13
ENDBRANCH  10  11
ENDBRANCH   9  10
ENDBRANCH   8   9
ENDBRANCH   3   8
ENDBRANCH   2   3
TORSDOF 9
ENDMDL
MODEL       63
REMARK 921   NORMALIZED FREE ENERGY PREDICTED BY IDOCK:   -4.83 KCAL/MOL
REMARK 922        TOTAL FREE ENERGY PREDICTED BY IDOCK:   -8.61 KCAL/MOL
REMARK 923 INTER-LIGAND FREE ENERGY PREDICTED BY IDOCK:   -7.56 KCAL/MOL
REMARK 924 INTRA-LIGAND FREE ENERGY PREDICTED BY IDOCK:   -1.04 KCAL/MOL
REMARK 927      BINDING AFFINITY PREDICTED BY RF-SCORE:    0.00 PKD
ROOT
HETATM    1  C   UNL     1     -12.015  13.637  67.998  1.00  0.00    -0.385 C  
HETATM    2  C   UNL     1     -12.410  13.930  66.553  1.00  0.00    -0.404 C  
ENDROOT
BRANCH   2   3
HETATM    3  N   UNL     1     -11.612  13.235  65.515  1.00  0.00    -0.316 NA 
BRANCH   3   4
HETATM    4  C   UNL     1     -11.134  14.197  64.491  1.00  0.00    -0.330 C  
BRANCH   4   5
HETATM    5  C   UNL     1     -11.151  15.680  64.907  1.00  0.00    -0.402 C  
HETATM    6  H   UNL     1     -11.669  17.405  64.103  1.00  0.00     0.000 HD 
HETATM    7  O   UNL     1     -11.658  16.490  63.846  1.00  0.00    -1.175 OA 
ENDBRANCH   4   5
ENDBRANCH   3   4
BRANCH   3   8
HETATM    8  C   UNL     1     -10.471  12.540  66.158  1.00  0.00    -0.249 C  
BRANCH   8   9
HETATM    9  C   UNL     1     -10.070  11.192  65.519  1.00  0.00    -0.309 C  
BRANCH   9  10
HETATM   10  C   UNL     1      -9.991  10.001  66.490  1.00  0.00    -0.286 C  
BRANCH  10  11
HETATM   11  C   UNL     1      -8.664   9.911  67.268  1.00  0.00    -0.128 C  
HETATM   12  C   UNL     1      -7.487  10.468  66.463  1.00  0.00    -0.128 C  
BRANCH  11  13
HETATM   13  N   UNL     1      -8.769  10.655  68.544  1.00  0.00    -0.134 NA 
HETATM   14  H   UNL     1      -8.765  11.675  68.566  1.00  0.00     0.000 HD 
BRANCH  13  15
HETATM   15  C   UNL     1      -8.876   9.889  69.739  1.00  0.00    -0.211 A  
HETATM   16  C   UNL     1     -10.138   9.711  70.368  1.00  0.00    -0.336 A  
HETATM   17  C   UNL     1     -11.341  10.301  69.910  1.00  0.00    -0.354 A  
HETATM   18  C   UNL     1     -12.548  10.095  70.584  1.00  0.00    -0.353 A  
HETATM   19  C   UNL     1     -12.562   9.311  71.730  1.00  0.00    -0.382 A  
HETATM   20  C   UNL     1     -11.389   8.726  72.197  1.00  0.00    -0.411 A  
HETATM   21 CL   UNL     1     -14.038   9.055  72.579  1.00  0.00    -0.508 Cl 
HETATM   22  C   UNL     1     -10.189   8.905  71.534  1.00  0.00    -0.328 A  
HETATM   23  N   UNL     1      -9.117   8.280  72.039  1.00  0.00    -0.180 NA 
HETATM   24  C   UNL     1      -7.950   8.408  71.383  1.00  0.00    -0.126 A  
HETATM   25  C   UNL     1      -7.795   9.164  70.238  1.00  0.00    -0.129 A  
ENDBRANCH  13  15
ENDBRANCH  11  13
ENDBRANCH  10  11
ENDBRANCH   9  10
ENDBRANCH   8   9
ENDBRANCH   3   8
ENDBRANCH   2   3
TORSDOF 9
ENDMDL
MODEL       64
REMARK 921   NORMALIZED FREE ENERGY PREDICTED BY IDOCK:   -4.82 KCAL/MOL
REMARK 922        TOTAL FREE ENERGY PREDICTED BY IDOCK:   -8.59 KCAL/MOL
REMARK 923 INTER-LIGAND FREE ENERGY PREDICTED BY IDOCK:   -7.56 KCAL/MOL
REMARK 924 INTRA-LIGAND FREE ENERGY PREDICTED BY IDOCK:   -1.03 KCAL/MOL
REMARK 927      BINDING AFFINITY PREDICTED BY RF-SCORE:    0.00 PKD
ROOT
HETATM    1  C   UNL     1     -11.242   6.287  69.095  1.00  0.00    -0.439 C  
HETATM    2  C   UNL     1     -11.243   6.628  70.583  1.00  0.00    -0.317 C  
ENDROOT
BRANCH   2   3
HETATM    3  N   UNL     1     -11.503   8.048  70.917  1.00  0.00    -0.278 NA 
BRANCH   3   4
HETATM    4  C   UNL     1     -12.352   8.154  72.130  1.00  0.00    -0.338 C  
BRANCH   4   5
HETATM    5  C   UNL     1     -13.708   8.858  71.939  1.00  0.00    -0.439 C  
HETATM    6  H   UNL     1     -14.390  10.462  71.017  1.00  0.00     0.000 HD 
HETATM    7  O   UNL     1     -13.554  10.028  71.136  1.00  0.00    -0.313 OA 
ENDBRANCH   4   5
ENDBRANCH   3   4
BRANCH   3   8
HETATM    8  C   UNL     1     -10.211   8.750  71.115  1.00  0.00    -0.246 C  
BRANCH   8   9
HETATM    9  C   UNL     1      -9.857   9.803  70.043  1.00  0.00    -0.295 C  
BRANCH   9  10
HETATM   10  C   UNL     1     -10.939  10.044  68.976  1.00  0.00    -0.249 C  
BRANCH  10  11
HETATM   11  C   UNL     1     -10.655  11.246  68.053  1.00  0.00    -0.195 C  
HETATM   12  C   UNL     1     -10.309  10.806  66.628  1.00  0.00    -0.294 C  
BRANCH  11  13
HETATM   13  N   UNL     1     -11.830  12.144  68.008  1.00  0.00    -0.465 NA 
HETATM   14  H   UNL     1     -12.670  11.894  67.485  1.00  0.00     0.000 HD 
BRANCH  13  15
HETATM   15  C   UNL     1     -11.742  13.371  68.724  1.00  0.00    -0.340 A  
HETATM   16  C   UNL     1     -11.336  14.562  68.062  1.00  0.00    -0.326 A  
HETATM   17  C   UNL     1     -10.949  14.619  66.701  1.00  0.00    -0.323 A  
HETATM   18  C   UNL     1     -10.549  15.822  66.115  1.00  0.00    -0.318 A  
HETATM   19  C   UNL     1     -10.516  16.977  66.885  1.00  0.00    -0.268 A  
HETATM   20  C   UNL     1     -10.890  16.940  68.225  1.00  0.00    -0.357 A  
HETATM   21 CL   UNL     1     -10.016  18.467  66.182  1.00  0.00    -0.352 Cl 
HETATM   22  C   UNL     1     -11.305  15.762  68.818  1.00  0.00    -0.362 A  
HETATM   23  N   UNL     1     -11.674  15.826  70.104  1.00  0.00    -0.343 NA 
HETATM   24  C   UNL     1     -12.121  14.698  70.686  1.00  0.00    -0.317 A  
HETATM   25  C   UNL     1     -12.195  13.481  70.038  1.00  0.00    -0.381 A  
ENDBRANCH  13  15
ENDBRANCH  11  13
ENDBRANCH  10  11
ENDBRANCH   9  10
ENDBRANCH   8   9
ENDBRANCH   3   8
ENDBRANCH   2   3
TORSDOF 9
ENDMDL
MODEL       65
REMARK 921   NORMALIZED FREE ENERGY PREDICTED BY IDOCK:   -4.82 KCAL/MOL
REMARK 922        TOTAL FREE ENERGY PREDICTED BY IDOCK:   -8.58 KCAL/MOL
REMARK 923 INTER-LIGAND FREE ENERGY PREDICTED BY IDOCK:   -7.48 KCAL/MOL
REMARK 924 INTRA-LIGAND FREE ENERGY PREDICTED BY IDOCK:   -1.10 KCAL/MOL
REMARK 927      BINDING AFFINITY PREDICTED BY RF-SCORE:    0.00 PKD
ROOT
HETATM    1  C   UNL     1      -9.842   4.801  68.804  1.00  0.00    -0.218 C  
HETATM    2  C   UNL     1     -10.476   5.419  70.046  1.00  0.00    -0.303 C  
ENDROOT
BRANCH   2   3
HETATM    3  N   UNL     1     -11.365   6.581  69.804  1.00  0.00    -0.388 NA 
BRANCH   3   4
HETATM    4  C   UNL     1     -12.259   6.807  70.967  1.00  0.00    -0.352 C  
BRANCH   4   5
HETATM    5  C   UNL     1     -12.170   8.200  71.619  1.00  0.00    -0.308 C  
HETATM    6  H   UNL     1     -13.350   9.759  71.873  1.00  0.00     0.000 HD 
HETATM    7  O   UNL     1     -13.405   8.900  71.471  1.00  0.00    -0.341 OA 
ENDBRANCH   4   5
ENDBRANCH   3   4
BRANCH   3   8
HETATM    8  C   UNL     1     -10.538   7.782  69.534  1.00  0.00    -0.221 C  
BRANCH   8   9
HETATM    9  C   UNL     1     -10.631   8.342  68.097  1.00  0.00    -0.169 C  
BRANCH   9  10
HETATM   10  C   UNL     1      -9.477   9.270  67.678  1.00  0.00    -0.156 C  
BRANCH  10  11
HETATM   11  C   UNL     1      -9.906  10.425  66.752  1.00  0.00    -0.195 C  
HETATM   12  C   UNL     1      -9.801  10.045  65.273  1.00  0.00    -0.388 C  
BRANCH  11  13
HETATM   13  N   UNL     1     -11.299  10.828  67.049  1.00  0.00    -0.327 NA 
HETATM   14  H   UNL     1     -12.064  10.154  67.016  1.00  0.00     0.000 HD 
BRANCH  13  15
HETATM   15  C   UNL     1     -11.527  12.193  67.381  1.00  0.00    -0.345 A  
HETATM   16  C   UNL     1     -11.907  12.558  68.701  1.00  0.00    -0.340 A  
HETATM   17  C   UNL     1     -12.134  11.627  69.745  1.00  0.00    -0.357 A  
HETATM   18  C   UNL     1     -12.518  12.053  71.019  1.00  0.00    -0.376 A  
HETATM   19  C   UNL     1     -12.693  13.410  71.260  1.00  0.00    -0.338 A  
HETATM   20  C   UNL     1     -12.478  14.338  70.246  1.00  0.00    -0.422 A  
HETATM   21 CL   UNL     1     -13.176  13.951  72.821  1.00  0.00    -0.596 Cl 
HETATM   22  C   UNL     1     -12.081  13.937  68.984  1.00  0.00    -0.329 A  
HETATM   23  N   UNL     1     -11.868  14.901  68.078  1.00  0.00    -0.314 NA 
HETATM   24  C   UNL     1     -11.441  14.532  66.857  1.00  0.00    -0.364 A  
HETATM   25  C   UNL     1     -11.235  13.219  66.483  1.00  0.00    -0.329 A  
ENDBRANCH  13  15
ENDBRANCH  11  13
ENDBRANCH  10  11
ENDBRANCH   9  10
ENDBRANCH   8   9
ENDBRANCH   3   8
ENDBRANCH   2   3
TORSDOF 9
ENDMDL
MODEL       66
REMARK 921   NORMALIZED FREE ENERGY PREDICTED BY IDOCK:   -4.79 KCAL/MOL
REMARK 922        TOTAL FREE ENERGY PREDICTED BY IDOCK:   -8.54 KCAL/MOL
REMARK 923 INTER-LIGAND FREE ENERGY PREDICTED BY IDOCK:   -7.61 KCAL/MOL
REMARK 924 INTRA-LIGAND FREE ENERGY PREDICTED BY IDOCK:   -0.93 KCAL/MOL
REMARK 927      BINDING AFFINITY PREDICTED BY RF-SCORE:    0.00 PKD
ROOT
HETATM    1  C   UNL     1     -12.226  13.851  69.722  1.00  0.00    -0.388 C  
HETATM    2  C   UNL     1     -12.312  12.643  70.650  1.00  0.00    -0.290 C  
ENDROOT
BRANCH   2   3
HETATM    3  N   UNL     1     -11.634  11.415  70.170  1.00  0.00    -0.305 NA 
BRANCH   3   4
HETATM    4  C   UNL     1     -11.922  10.272  71.073  1.00  0.00    -0.385 C  
BRANCH   4   5
HETATM    5  C   UNL     1     -13.259  10.343  71.836  1.00  0.00    -0.429 C  
HETATM    6  H   UNL     1     -14.272   9.211  73.093  1.00  0.00     0.000 HD 
HETATM    7  O   UNL     1     -13.448   9.167  72.623  1.00  0.00    -0.463 OA 
ENDBRANCH   4   5
ENDBRANCH   3   4
BRANCH   3   8
HETATM    8  C   UNL     1     -12.079  11.118  68.787  1.00  0.00    -0.162 C  
BRANCH   8   9
HETATM    9  C   UNL     1     -10.963  10.688  67.810  1.00  0.00    -0.364 C  
BRANCH   9  10
HETATM   10  C   UNL     1     -10.565  11.742  66.761  1.00  0.00    -0.273 C  
BRANCH  10  11
HETATM   11  C   UNL     1      -9.716  12.899  67.324  1.00  0.00    -0.220 C  
HETATM   12  C   UNL     1      -8.577  12.395  68.213  1.00  0.00    -0.172 C  
BRANCH  11  13
HETATM   13  N   UNL     1      -9.145  13.698  66.216  1.00  0.00    -0.479 NA 
HETATM   14  H   UNL     1      -8.199  13.530  65.874  1.00  0.00     0.000 HD 
BRANCH  13  15
HETATM   15  C   UNL     1      -9.969  14.711  65.650  1.00  0.00    -0.351 A  
HETATM   16  C   UNL     1      -9.843  16.061  66.075  1.00  0.00    -0.365 A  
HETATM   17  C   UNL     1      -8.960  16.491  67.095  1.00  0.00    -0.221 A  
HETATM   18  C   UNL     1      -8.895  17.835  67.473  1.00  0.00    -0.243 A  
HETATM   19  C   UNL     1      -9.721  18.759  66.848  1.00  0.00    -0.316 A  
HETATM   20  C   UNL     1     -10.597  18.355  65.845  1.00  0.00    -0.313 A  
HETATM   21 CL   UNL     1      -9.661  20.417  67.309  1.00  0.00    -0.583 Cl 
HETATM   22  C   UNL     1     -10.664  17.033  65.446  1.00  0.00    -0.116 A  
HETATM   23  N   UNL     1     -11.515  16.740  64.454  1.00  0.00    -1.005 NA 
HETATM   24  C   UNL     1     -11.562  15.466  64.023  1.00  0.00     0.110 A  
HETATM   25  C   UNL     1     -10.802  14.448  64.564  1.00  0.00    -0.271 A  
ENDBRANCH  13  15
ENDBRANCH  11  13
ENDBRANCH  10  11
ENDBRANCH   9  10
ENDBRANCH   8   9
ENDBRANCH   3   8
ENDBRANCH   2   3
TORSDOF 9
ENDMDL
MODEL       67
REMARK 921   NORMALIZED FREE ENERGY PREDICTED BY IDOCK:   -4.79 KCAL/MOL
REMARK 922        TOTAL FREE ENERGY PREDICTED BY IDOCK:   -8.54 KCAL/MOL
REMARK 923 INTER-LIGAND FREE ENERGY PREDICTED BY IDOCK:   -7.48 KCAL/MOL
REMARK 924 INTRA-LIGAND FREE ENERGY PREDICTED BY IDOCK:   -1.06 KCAL/MOL
REMARK 927      BINDING AFFINITY PREDICTED BY RF-SCORE:    0.00 PKD
ROOT
HETATM    1  C   UNL     1     -10.580   5.864  68.643  1.00  0.00    -0.323 C  
HETATM    2  C   UNL     1     -11.498   6.357  69.758  1.00  0.00    -0.399 C  
ENDROOT
BRANCH   2   3
HETATM    3  N   UNL     1     -11.141   5.913  71.127  1.00  0.00    -0.264 NA 
BRANCH   3   4
HETATM    4  C   UNL     1      -9.669   5.780  71.267  1.00  0.00    -0.171 C  
BRANCH   4   5
HETATM    5  C   UNL     1      -9.174   4.466  71.901  1.00  0.00    -0.129 C  
HETATM    6  H   UNL     1      -9.738   2.577  71.950  1.00  0.00     0.000 HD 
HETATM    7  O   UNL     1     -10.044   3.387  71.559  1.00  0.00    -0.137 OA 
ENDBRANCH   4   5
ENDBRANCH   3   4
BRANCH   3   8
HETATM    8  C   UNL     1     -11.678   6.883  72.112  1.00  0.00    -0.288 C  
BRANCH   8   9
HETATM    9  C   UNL     1     -12.433   8.089  71.512  1.00  0.00    -0.334 C  
BRANCH   9  10
HETATM   10  C   UNL     1     -11.789   9.462  71.769  1.00  0.00    -0.452 C  
BRANCH  10  11
HETATM   11  C   UNL     1     -12.354  10.596  70.891  1.00  0.00    -0.401 C  
HETATM   12  C   UNL     1     -13.121  11.633  71.714  1.00  0.00    -0.487 C  
BRANCH  11  13
HETATM   13  N   UNL     1     -11.256  11.273  70.164  1.00  0.00    -0.490 NA 
HETATM   14  H   UNL     1     -10.656  11.956  70.627  1.00  0.00     0.000 HD 
BRANCH  13  15
HETATM   15  C   UNL     1     -11.073  10.934  68.794  1.00  0.00    -0.256 A  
HETATM   16  C   UNL     1     -11.346  11.886  67.775  1.00  0.00    -0.361 A  
HETATM   17  C   UNL     1     -11.853  13.186  68.021  1.00  0.00    -0.398 A  
HETATM   18  C   UNL     1     -12.110  14.070  66.970  1.00  0.00    -0.455 A  
HETATM   19  C   UNL     1     -11.879  13.661  65.663  1.00  0.00    -0.364 A  
HETATM   20  C   UNL     1     -11.383  12.386  65.402  1.00  0.00    -0.379 A  
HETATM   21 CL   UNL     1     -12.200  14.733  64.356  1.00  0.00    -0.504 Cl 
HETATM   22  C   UNL     1     -11.107  11.504  66.430  1.00  0.00    -0.269 A  
HETATM   23  N   UNL     1     -10.605  10.310  66.087  1.00  0.00    -0.113 NA 
HETATM   24  C   UNL     1     -10.290   9.454  67.076  1.00  0.00    -0.252 A  
HETATM   25  C   UNL     1     -10.479   9.731  68.416  1.00  0.00    -0.250 A  
ENDBRANCH  13  15
ENDBRANCH  11  13
ENDBRANCH  10  11
ENDBRANCH   9  10
ENDBRANCH   8   9
ENDBRANCH   3   8
ENDBRANCH   2   3
TORSDOF 9
ENDMDL
MODEL       68
REMARK 921   NORMALIZED FREE ENERGY PREDICTED BY IDOCK:   -4.79 KCAL/MOL
REMARK 922        TOTAL FREE ENERGY PREDICTED BY IDOCK:   -8.54 KCAL/MOL
REMARK 923 INTER-LIGAND FREE ENERGY PREDICTED BY IDOCK:   -7.46 KCAL/MOL
REMARK 924 INTRA-LIGAND FREE ENERGY PREDICTED BY IDOCK:   -1.08 KCAL/MOL
REMARK 927      BINDING AFFINITY PREDICTED BY RF-SCORE:    0.00 PKD
ROOT
HETATM    1  C   UNL     1      -8.134   8.990  69.954  1.00  0.00    -0.117 C  
HETATM    2  C   UNL     1      -9.079  10.028  69.357  1.00  0.00    -0.215 C  
ENDROOT
BRANCH   2   3
HETATM    3  N   UNL     1     -10.474   9.576  69.136  1.00  0.00    -0.205 NA 
BRANCH   3   4
HETATM    4  C   UNL     1     -11.428  10.441  69.875  1.00  0.00    -0.297 C  
BRANCH   4   5
HETATM    5  C   UNL     1     -11.719  10.026  71.329  1.00  0.00    -0.369 C  
HETATM    6  H   UNL     1     -13.191  10.224  72.626  1.00  0.00     0.000 HD 
HETATM    7  O   UNL     1     -13.012  10.481  71.729  1.00  0.00    -0.429 OA 
ENDBRANCH   4   5
ENDBRANCH   3   4
BRANCH   3   8
HETATM    8  C   UNL     1     -10.769   9.588  67.683  1.00  0.00    -0.250 C  
BRANCH   8   9
HETATM    9  C   UNL     1     -10.065   8.492  66.854  1.00  0.00    -0.364 C  
BRANCH   9  10
HETATM   10  C   UNL     1      -9.436   8.968  65.533  1.00  0.00    -0.220 C  
BRANCH  10  11
HETATM   11  C   UNL     1      -8.592  10.251  65.665  1.00  0.00    -0.161 C  
HETATM   12  C   UNL     1      -7.093   9.969  65.536  1.00  0.00    -0.132 C  
BRANCH  11  13
HETATM   13  N   UNL     1      -8.989  11.232  64.629  1.00  0.00    -0.388 NA 
HETATM   14  H   UNL     1      -8.350  11.499  63.880  1.00  0.00     0.000 HD 
BRANCH  13  15
HETATM   15  C   UNL     1     -10.296  11.786  64.722  1.00  0.00    -0.288 A  
HETATM   16  C   UNL     1     -10.613  12.713  65.752  1.00  0.00    -0.296 A  
HETATM   17  C   UNL     1      -9.707  13.110  66.766  1.00  0.00    -0.246 A  
HETATM   18  C   UNL     1     -10.088  14.018  67.757  1.00  0.00    -0.240 A  
HETATM   19  C   UNL     1     -11.380  14.528  67.754  1.00  0.00    -0.317 A  
HETATM   20  C   UNL     1     -12.284  14.147  66.768  1.00  0.00    -0.429 A  
HETATM   21 CL   UNL     1     -11.869  15.640  68.974  1.00  0.00    -0.396 Cl 
HETATM   22  C   UNL     1     -11.921  13.263  65.769  1.00  0.00    -0.417 A  
HETATM   23  N   UNL     1     -12.847  12.976  64.844  1.00  0.00    -0.747 NA 
HETATM   24  C   UNL     1     -12.498  12.151  63.841  1.00  0.00    -0.478 A  
HETATM   25  C   UNL     1     -11.251  11.568  63.729  1.00  0.00    -0.456 A  
ENDBRANCH  13  15
ENDBRANCH  11  13
ENDBRANCH  10  11
ENDBRANCH   9  10
ENDBRANCH   8   9
ENDBRANCH   3   8
ENDBRANCH   2   3
TORSDOF 9
ENDMDL
MODEL       69
REMARK 921   NORMALIZED FREE ENERGY PREDICTED BY IDOCK:   -4.79 KCAL/MOL
REMARK 922        TOTAL FREE ENERGY PREDICTED BY IDOCK:   -8.54 KCAL/MOL
REMARK 923 INTER-LIGAND FREE ENERGY PREDICTED BY IDOCK:   -7.54 KCAL/MOL
REMARK 924 INTRA-LIGAND FREE ENERGY PREDICTED BY IDOCK:   -1.00 KCAL/MOL
REMARK 927      BINDING AFFINITY PREDICTED BY RF-SCORE:    0.00 PKD
ROOT
HETATM    1  C   UNL     1      -7.561   6.173  71.430  1.00  0.00    -0.099 C  
HETATM    2  C   UNL     1      -8.683   5.242  70.981  1.00  0.00    -0.130 C  
ENDROOT
BRANCH   2   3
HETATM    3  N   UNL     1      -9.890   5.906  70.434  1.00  0.00    -0.176 NA 
BRANCH   3   4
HETATM    4  C   UNL     1     -10.238   5.345  69.104  1.00  0.00    -0.232 C  
BRANCH   4   5
HETATM    5  C   UNL     1     -10.100   6.313  67.913  1.00  0.00    -0.145 C  
HETATM    6  H   UNL     1     -10.333   8.242  67.579  1.00  0.00     0.000 HD 
HETATM    7  O   UNL     1     -10.418   7.645  68.313  1.00  0.00    -0.199 OA 
ENDBRANCH   4   5
ENDBRANCH   3   4
BRANCH   3   8
HETATM    8  C   UNL     1     -11.015   5.742  71.386  1.00  0.00    -0.237 C  
BRANCH   8   9
HETATM    9  C   UNL     1     -12.039   6.898  71.409  1.00  0.00    -0.408 C  
BRANCH   9  10
HETATM   10  C   UNL     1     -11.703   8.054  72.368  1.00  0.00    -0.444 C  
BRANCH  10  11
HETATM   11  C   UNL     1     -11.120   9.299  71.671  1.00  0.00    -0.368 C  
HETATM   12  C   UNL     1      -9.627   9.143  71.371  1.00  0.00    -0.316 C  
BRANCH  11  13
HETATM   13  N   UNL     1     -11.841   9.561  70.405  1.00  0.00    -0.439 NA 
HETATM   14  H   UNL     1     -12.401   8.837  69.954  1.00  0.00     0.000 HD 
BRANCH  13  15
HETATM   15  C   UNL     1     -11.722  10.863  69.844  1.00  0.00    -0.339 A  
HETATM   16  C   UNL     1     -12.285  11.987  70.508  1.00  0.00    -0.414 A  
HETATM   17  C   UNL     1     -13.029  11.905  71.710  1.00  0.00    -0.455 A  
HETATM   18  C   UNL     1     -13.566  13.049  72.305  1.00  0.00    -0.643 A  
HETATM   19  C   UNL     1     -13.378  14.284  71.698  1.00  0.00    -0.365 A  
HETATM   20  C   UNL     1     -12.653  14.384  70.515  1.00  0.00    -0.417 A  
HETATM   21 CL   UNL     1     -14.041  15.704  72.412  1.00  0.00    -0.625 Cl 
HETATM   22  C   UNL     1     -12.100  13.265  69.920  1.00  0.00    -0.308 A  
HETATM   23  N   UNL     1     -11.393  13.459  68.799  1.00  0.00    -0.272 NA 
HETATM   24  C   UNL     1     -10.811  12.387  68.230  1.00  0.00    -0.237 A  
HETATM   25  C   UNL     1     -10.926  11.103  68.725  1.00  0.00    -0.268 A  
ENDBRANCH  13  15
ENDBRANCH  11  13
ENDBRANCH  10  11
ENDBRANCH   9  10
ENDBRANCH   8   9
ENDBRANCH   3   8
ENDBRANCH   2   3
TORSDOF 9
ENDMDL
MODEL       70
REMARK 921   NORMALIZED FREE ENERGY PREDICTED BY IDOCK:   -4.78 KCAL/MOL
REMARK 922        TOTAL FREE ENERGY PREDICTED BY IDOCK:   -8.53 KCAL/MOL
REMARK 923 INTER-LIGAND FREE ENERGY PREDICTED BY IDOCK:   -7.56 KCAL/MOL
REMARK 924 INTRA-LIGAND FREE ENERGY PREDICTED BY IDOCK:   -0.97 KCAL/MOL
REMARK 927      BINDING AFFINITY PREDICTED BY RF-SCORE:    0.00 PKD
ROOT
HETATM    1  C   UNL     1      -9.952   6.095  68.961  1.00  0.00    -0.188 C  
HETATM    2  C   UNL     1     -11.122   6.327  69.913  1.00  0.00    -0.401 C  
ENDROOT
BRANCH   2   3
HETATM    3  N   UNL     1     -10.787   6.318  71.357  1.00  0.00    -0.251 NA 
BRANCH   3   4
HETATM    4  C   UNL     1      -9.507   7.030  71.602  1.00  0.00    -0.156 C  
BRANCH   4   5
HETATM    5  C   UNL     1      -9.460   7.903  72.870  1.00  0.00    -0.257 C  
HETATM    6  H   UNL     1      -8.335   9.353  73.590  1.00  0.00     0.000 HD 
HETATM    7  O   UNL     1      -8.364   8.814  72.809  1.00  0.00    -0.412 OA 
ENDBRANCH   4   5
ENDBRANCH   3   4
BRANCH   3   8
HETATM    8  C   UNL     1     -11.893   6.945  72.120  1.00  0.00    -0.281 C  
BRANCH   8   9
HETATM    9  C   UNL     1     -12.673   8.048  71.373  1.00  0.00    -0.297 C  
BRANCH   9  10
HETATM   10  C   UNL     1     -12.669   9.430  72.050  1.00  0.00    -0.483 C  
BRANCH  10  11
HETATM   11  C   UNL     1     -11.931  10.520  71.248  1.00  0.00    -0.289 C  
HETATM   12  C   UNL     1     -11.050   9.925  70.147  1.00  0.00    -0.353 C  
BRANCH  11  13
HETATM   13  N   UNL     1     -12.905  11.452  70.636  1.00  0.00    -0.167 NA 
HETATM   14  H   UNL     1     -13.563  11.138  69.923  1.00  0.00     0.000 HD 
BRANCH  13  15
HETATM   15  C   UNL     1     -12.886  12.803  71.084  1.00  0.00    -0.226 A  
HETATM   16  C   UNL     1     -12.244  13.807  70.310  1.00  0.00    -0.429 A  
HETATM   17  C   UNL     1     -11.551  13.554  69.101  1.00  0.00    -0.359 A  
HETATM   18  C   UNL     1     -10.932  14.588  68.394  1.00  0.00    -0.255 A  
HETATM   19  C   UNL     1     -10.986  15.882  68.895  1.00  0.00    -0.290 A  
HETATM   20  C   UNL     1     -11.659  16.150  70.083  1.00  0.00    -0.254 A  
HETATM   21 CL   UNL     1     -10.219  17.167  68.043  1.00  0.00    -0.315 Cl 
HETATM   22  C   UNL     1     -12.292  15.143  70.787  1.00  0.00    -0.360 A  
HETATM   23  N   UNL     1     -12.941  15.497  71.904  1.00  0.00    -0.411 NA 
HETATM   24  C   UNL     1     -13.599  14.537  72.579  1.00  0.00    -0.487 A  
HETATM   25  C   UNL     1     -13.619  13.210  72.197  1.00  0.00    -0.637 A  
ENDBRANCH  13  15
ENDBRANCH  11  13
ENDBRANCH  10  11
ENDBRANCH   9  10
ENDBRANCH   8   9
ENDBRANCH   3   8
ENDBRANCH   2   3
TORSDOF 9
ENDMDL
MODEL       71
REMARK 921   NORMALIZED FREE ENERGY PREDICTED BY IDOCK:   -4.77 KCAL/MOL
REMARK 922        TOTAL FREE ENERGY PREDICTED BY IDOCK:   -8.51 KCAL/MOL
REMARK 923 INTER-LIGAND FREE ENERGY PREDICTED BY IDOCK:   -7.72 KCAL/MOL
REMARK 924 INTRA-LIGAND FREE ENERGY PREDICTED BY IDOCK:   -0.79 KCAL/MOL
REMARK 927      BINDING AFFINITY PREDICTED BY RF-SCORE:    0.00 PKD
ROOT
HETATM    1  C   UNL     1     -11.100   6.263  69.767  1.00  0.00    -0.473 C  
HETATM    2  C   UNL     1     -10.611   7.448  70.596  1.00  0.00    -0.223 C  
ENDROOT
BRANCH   2   3
HETATM    3  N   UNL     1     -11.426   7.776  71.790  1.00  0.00    -0.257 NA 
BRANCH   3   4
HETATM    4  C   UNL     1     -10.686   7.447  73.035  1.00  0.00    -0.364 C  
BRANCH   4   5
HETATM    5  C   UNL     1     -10.579   5.948  73.373  1.00  0.00    -0.258 C  
HETATM    6  H   UNL     1     -11.767   4.374  73.373  1.00  0.00     0.000 HD 
HETATM    7  O   UNL     1     -11.833   5.299  73.165  1.00  0.00    -0.229 OA 
ENDBRANCH   4   5
ENDBRANCH   3   4
BRANCH   3   8
HETATM    8  C   UNL     1     -11.787   9.214  71.757  1.00  0.00    -0.383 C  
BRANCH   8   9
HETATM    9  C   UNL     1     -12.123   9.782  70.360  1.00  0.00    -0.176 C  
BRANCH   9  10
HETATM   10  C   UNL     1     -11.571  11.189  70.072  1.00  0.00    -0.421 C  
BRANCH  10  11
HETATM   11  C   UNL     1     -11.087  11.389  68.622  1.00  0.00    -0.236 C  
HETATM   12  C   UNL     1     -10.868  10.056  67.901  1.00  0.00    -0.323 C  
BRANCH  11  13
HETATM   13  N   UNL     1     -12.070  12.192  67.861  1.00  0.00    -0.466 NA 
HETATM   14  H   UNL     1     -13.073  12.070  67.997  1.00  0.00     0.000 HD 
BRANCH  13  15
HETATM   15  C   UNL     1     -11.557  13.142  66.933  1.00  0.00    -0.368 A  
HETATM   16  C   UNL     1     -11.232  14.459  67.357  1.00  0.00    -0.337 A  
HETATM   17  C   UNL     1     -11.430  14.937  68.675  1.00  0.00    -0.326 A  
HETATM   18  C   UNL     1     -11.098  16.249  69.023  1.00  0.00    -0.331 A  
HETATM   19  C   UNL     1     -10.580  17.100  68.056  1.00  0.00    -0.374 A  
HETATM   20  C   UNL     1     -10.381  16.648  66.755  1.00  0.00    -0.295 A  
HETATM   21 CL   UNL     1     -10.175  18.723  68.464  1.00  0.00    -0.420 Cl 
HETATM   22  C   UNL     1     -10.687  15.349  66.396  1.00  0.00    -0.311 A  
HETATM   23  N   UNL     1     -10.436  14.992  65.129  1.00  0.00    -0.400 NA 
HETATM   24  C   UNL     1     -10.687  13.720  64.773  1.00  0.00    -0.416 A  
HETATM   25  C   UNL     1     -11.212  12.775  65.633  1.00  0.00    -0.335 A  
ENDBRANCH  13  15
ENDBRANCH  11  13
ENDBRANCH  10  11
ENDBRANCH   9  10
ENDBRANCH   8   9
ENDBRANCH   3   8
ENDBRANCH   2   3
TORSDOF 9
ENDMDL
MODEL       72
REMARK 921   NORMALIZED FREE ENERGY PREDICTED BY IDOCK:   -4.77 KCAL/MOL
REMARK 922        TOTAL FREE ENERGY PREDICTED BY IDOCK:   -8.51 KCAL/MOL
REMARK 923 INTER-LIGAND FREE ENERGY PREDICTED BY IDOCK:   -7.60 KCAL/MOL
REMARK 924 INTRA-LIGAND FREE ENERGY PREDICTED BY IDOCK:   -0.91 KCAL/MOL
REMARK 927      BINDING AFFINITY PREDICTED BY RF-SCORE:    0.00 PKD
ROOT
HETATM    1  C   UNL     1      -9.795  17.787  66.837  1.00  0.00    -0.312 C  
HETATM    2  C   UNL     1     -10.661  17.469  68.052  1.00  0.00    -0.384 C  
ENDROOT
BRANCH   2   3
HETATM    3  N   UNL     1     -10.787  16.032  68.393  1.00  0.00    -0.294 NA 
BRANCH   3   4
HETATM    4  C   UNL     1     -12.075  15.768  69.082  1.00  0.00    -0.198 C  
BRANCH   4   5
HETATM    5  C   UNL     1     -12.016  15.734  70.621  1.00  0.00    -0.393 C  
HETATM    6  H   UNL     1     -13.295  15.656  72.119  1.00  0.00     0.000 HD 
HETATM    7  O   UNL     1     -13.332  15.678  71.171  1.00  0.00    -0.514 OA 
ENDBRANCH   4   5
ENDBRANCH   3   4
BRANCH   3   8
HETATM    8  C   UNL     1     -10.677  15.223  67.155  1.00  0.00    -0.316 C  
BRANCH   8   9
HETATM    9  C   UNL     1     -11.451  13.886  67.165  1.00  0.00    -0.370 C  
BRANCH   9  10
HETATM   10  C   UNL     1     -10.646  12.656  66.710  1.00  0.00    -0.254 C  
BRANCH  10  11
HETATM   11  C   UNL     1     -10.955  11.373  67.506  1.00  0.00    -0.260 C  
HETATM   12  C   UNL     1     -10.311  10.136  66.874  1.00  0.00    -0.298 C  
BRANCH  11  13
HETATM   13  N   UNL     1     -10.475  11.508  68.900  1.00  0.00    -0.275 NA 
HETATM   14  H   UNL     1      -9.519  11.799  69.105  1.00  0.00     0.000 HD 
BRANCH  13  15
HETATM   15  C   UNL     1     -11.401  11.215  69.940  1.00  0.00    -0.268 A  
HETATM   16  C   UNL     1     -11.449   9.917  70.516  1.00  0.00    -0.391 A  
HETATM   17  C   UNL     1     -10.648   8.830  70.085  1.00  0.00    -0.237 A  
HETATM   18  C   UNL     1     -10.754   7.574  70.688  1.00  0.00    -0.239 A  
HETATM   19  C   UNL     1     -11.669   7.386  71.715  1.00  0.00    -0.286 A  
HETATM   20  C   UNL     1     -12.466   8.441  72.149  1.00  0.00    -0.422 A  
HETATM   21 CL   UNL     1     -11.820   5.842  72.462  1.00  0.00    -0.308 Cl 
HETATM   22  C   UNL     1     -12.364   9.695  71.576  1.00  0.00    -0.390 A  
HETATM   23  N   UNL     1     -13.150  10.658  72.077  1.00  0.00    -0.472 NA 
HETATM   24  C   UNL     1     -13.033  11.895  71.561  1.00  0.00    -0.323 A  
HETATM   25  C   UNL     1     -12.170  12.216  70.532  1.00  0.00    -0.392 A  
ENDBRANCH  13  15
ENDBRANCH  11  13
ENDBRANCH  10  11
ENDBRANCH   9  10
ENDBRANCH   8   9
ENDBRANCH   3   8
ENDBRANCH   2   3
TORSDOF 9
ENDMDL
MODEL       73
REMARK 921   NORMALIZED FREE ENERGY PREDICTED BY IDOCK:   -4.77 KCAL/MOL
REMARK 922        TOTAL FREE ENERGY PREDICTED BY IDOCK:   -8.50 KCAL/MOL
REMARK 923 INTER-LIGAND FREE ENERGY PREDICTED BY IDOCK:   -7.27 KCAL/MOL
REMARK 924 INTRA-LIGAND FREE ENERGY PREDICTED BY IDOCK:   -1.23 KCAL/MOL
REMARK 927      BINDING AFFINITY PREDICTED BY RF-SCORE:    0.00 PKD
ROOT
HETATM    1  C   UNL     1     -10.879   6.558  67.173  1.00  0.00    -0.472 C  
HETATM    2  C   UNL     1     -10.852   6.750  68.686  1.00  0.00    -0.224 C  
ENDROOT
BRANCH   2   3
HETATM    3  N   UNL     1     -10.702   5.513  69.489  1.00  0.00    -0.306 NA 
BRANCH   3   4
HETATM    4  C   UNL     1      -9.318   4.986  69.384  1.00  0.00    -0.124 C  
BRANCH   4   5
HETATM    5  C   UNL     1      -8.212   5.891  69.960  1.00  0.00    -0.121 C  
HETATM    6  H   UNL     1      -6.646   6.877  69.280  1.00  0.00     0.000 HD 
HETATM    7  O   UNL     1      -7.328   6.319  68.925  1.00  0.00    -0.081 OA 
ENDBRANCH   4   5
ENDBRANCH   3   4
BRANCH   3   8
HETATM    8  C   UNL     1     -11.050   5.800  70.902  1.00  0.00    -0.197 C  
BRANCH   8   9
HETATM    9  C   UNL     1     -12.035   6.970  71.118  1.00  0.00    -0.398 C  
BRANCH   9  10
HETATM   10  C   UNL     1     -11.597   8.014  72.160  1.00  0.00    -0.399 C  
BRANCH  10  11
HETATM   11  C   UNL     1     -11.091   9.337  71.551  1.00  0.00    -0.373 C  
HETATM   12  C   UNL     1      -9.665   9.212  71.011  1.00  0.00    -0.359 C  
BRANCH  11  13
HETATM   13  N   UNL     1     -11.986   9.768  70.454  1.00  0.00    -0.427 NA 
HETATM   14  H   UNL     1     -12.559   9.098  69.942  1.00  0.00     0.000 HD 
BRANCH  13  15
HETATM   15  C   UNL     1     -12.014  11.157  70.142  1.00  0.00    -0.365 A  
HETATM   16  C   UNL     1     -11.717  11.605  68.827  1.00  0.00    -0.392 A  
HETATM   17  C   UNL     1     -11.331  10.748  67.767  1.00  0.00    -0.354 A  
HETATM   18  C   UNL     1     -11.042  11.256  66.498  1.00  0.00    -0.280 A  
HETATM   19  C   UNL     1     -11.119  12.626  66.279  1.00  0.00    -0.293 A  
HETATM   20  C   UNL     1     -11.493  13.483  67.309  1.00  0.00    -0.369 A  
HETATM   21 CL   UNL     1     -10.755  13.270  64.725  1.00  0.00    -0.363 Cl 
HETATM   22  C   UNL     1     -11.800  12.997  68.566  1.00  0.00    -0.325 A  
HETATM   23  N   UNL     1     -12.179  13.892  69.489  1.00  0.00    -0.336 NA 
HETATM   24  C   UNL     1     -12.522  13.433  70.705  1.00  0.00    -0.341 A  
HETATM   25  C   UNL     1     -12.481  12.098  71.059  1.00  0.00    -0.369 A  
ENDBRANCH  13  15
ENDBRANCH  11  13
ENDBRANCH  10  11
ENDBRANCH   9  10
ENDBRANCH   8   9
ENDBRANCH   3   8
ENDBRANCH   2   3
TORSDOF 9
ENDMDL
MODEL       74
REMARK 921   NORMALIZED FREE ENERGY PREDICTED BY IDOCK:   -4.76 KCAL/MOL
REMARK 922        TOTAL FREE ENERGY PREDICTED BY IDOCK:   -8.49 KCAL/MOL
REMARK 923 INTER-LIGAND FREE ENERGY PREDICTED BY IDOCK:   -7.64 KCAL/MOL
REMARK 924 INTRA-LIGAND FREE ENERGY PREDICTED BY IDOCK:   -0.86 KCAL/MOL
REMARK 927      BINDING AFFINITY PREDICTED BY RF-SCORE:    0.00 PKD
ROOT
HETATM    1  C   UNL     1      -9.319   7.976  66.479  1.00  0.00    -0.261 C  
HETATM    2  C   UNL     1     -10.597   8.443  67.168  1.00  0.00    -0.256 C  
ENDROOT
BRANCH   2   3
HETATM    3  N   UNL     1     -10.425   9.001  68.531  1.00  0.00    -0.211 NA 
BRANCH   3   4
HETATM    4  C   UNL     1     -10.126   7.920  69.505  1.00  0.00    -0.195 C  
BRANCH   4   5
HETATM    5  C   UNL     1     -10.975   6.642  69.366  1.00  0.00    -0.309 C  
HETATM    6  H   UNL     1     -12.421   5.747  70.364  1.00  0.00     0.000 HD 
HETATM    7  O   UNL     1     -11.898   6.535  70.450  1.00  0.00    -0.400 OA 
ENDBRANCH   4   5
ENDBRANCH   3   4
BRANCH   3   8
HETATM    8  C   UNL     1      -9.339  10.010  68.515  1.00  0.00    -0.145 C  
BRANCH   8   9
HETATM    9  C   UNL     1      -9.770  11.443  68.136  1.00  0.00    -0.194 C  
BRANCH   9  10
HETATM   10  C   UNL     1     -11.196  11.835  68.563  1.00  0.00    -0.306 C  
BRANCH  10  11
HETATM   11  C   UNL     1     -11.610  13.258  68.141  1.00  0.00    -0.338 C  
HETATM   12  C   UNL     1     -12.209  14.052  69.305  1.00  0.00    -0.319 C  
BRANCH  11  13
HETATM   13  N   UNL     1     -10.440  13.993  67.608  1.00  0.00    -0.244 NA 
HETATM   14  H   UNL     1      -9.498  13.812  67.954  1.00  0.00     0.000 HD 
BRANCH  13  15
HETATM   15  C   UNL     1     -10.684  14.962  66.595  1.00  0.00    -0.312 A  
HETATM   16  C   UNL     1     -10.424  16.338  66.838  1.00  0.00    -0.302 A  
HETATM   17  C   UNL     1      -9.967  16.851  68.077  1.00  0.00    -0.279 A  
HETATM   18  C   UNL     1      -9.742  18.218  68.252  1.00  0.00    -0.350 A  
HETATM   19  C   UNL     1      -9.985  19.089  67.198  1.00  0.00    -0.338 A  
HETATM   20  C   UNL     1     -10.437  18.604  65.974  1.00  0.00    -0.456 A  
HETATM   21 CL   UNL     1      -9.722  20.779  67.400  1.00  0.00    -0.573 Cl 
HETATM   22  C   UNL     1     -10.649  17.253  65.777  1.00  0.00    -0.194 A  
HETATM   23  N   UNL     1     -11.056  16.873  64.558  1.00  0.00    -1.071 NA 
HETATM   24  C   UNL     1     -11.227  15.557  64.335  1.00  0.00    -0.219 A  
HETATM   25  C   UNL     1     -11.030  14.587  65.298  1.00  0.00    -0.366 A  
ENDBRANCH  13  15
ENDBRANCH  11  13
ENDBRANCH  10  11
ENDBRANCH   9  10
ENDBRANCH   8   9
ENDBRANCH   3   8
ENDBRANCH   2   3
TORSDOF 9
ENDMDL
MODEL       75
REMARK 921   NORMALIZED FREE ENERGY PREDICTED BY IDOCK:   -4.73 KCAL/MOL
REMARK 922        TOTAL FREE ENERGY PREDICTED BY IDOCK:   -8.45 KCAL/MOL
REMARK 923 INTER-LIGAND FREE ENERGY PREDICTED BY IDOCK:   -7.56 KCAL/MOL
REMARK 924 INTRA-LIGAND FREE ENERGY PREDICTED BY IDOCK:   -0.89 KCAL/MOL
REMARK 927      BINDING AFFINITY PREDICTED BY RF-SCORE:    0.00 PKD
ROOT
HETATM    1  C   UNL     1      -9.720  15.675  65.951  1.00  0.00    -0.388 C  
HETATM    2  C   UNL     1      -8.597  16.494  66.580  1.00  0.00    -0.286 C  
ENDROOT
BRANCH   2   3
HETATM    3  N   UNL     1      -9.027  17.625  67.436  1.00  0.00    -0.230 NA 
BRANCH   3   4
HETATM    4  C   UNL     1      -8.997  18.899  66.674  1.00  0.00    -0.323 C  
BRANCH   4   5
HETATM    5  C   UNL     1     -10.347  19.628  66.536  1.00  0.00    -0.493 C  
HETATM    6  H   UNL     1     -11.680  19.955  65.121  1.00  0.00     0.000 HD 
HETATM    7  O   UNL     1     -10.848  19.506  65.205  1.00  0.00    -0.449 OA 
ENDBRANCH   4   5
ENDBRANCH   3   4
BRANCH   3   8
HETATM    8  C   UNL     1     -10.389  17.355  67.957  1.00  0.00    -0.362 C  
BRANCH   8   9
HETATM    9  C   UNL     1     -10.447  16.650  69.329  1.00  0.00    -0.333 C  
BRANCH   9  10
HETATM   10  C   UNL     1     -11.782  15.960  69.659  1.00  0.00    -0.322 C  
BRANCH  10  11
HETATM   11  C   UNL     1     -11.639  14.695  70.527  1.00  0.00    -0.263 C  
HETATM   12  C   UNL     1     -12.035  14.950  71.984  1.00  0.00    -0.428 C  
BRANCH  11  13
HETATM   13  N   UNL     1     -12.479  13.604  69.983  1.00  0.00    -0.257 NA 
HETATM   14  H   UNL     1     -13.449  13.487  70.274  1.00  0.00     0.000 HD 
BRANCH  13  15
HETATM   15  C   UNL     1     -11.878  12.727  69.037  1.00  0.00    -0.297 A  
HETATM   16  C   UNL     1     -11.580  11.383  69.390  1.00  0.00    -0.391 A  
HETATM   17  C   UNL     1     -11.799  10.836  70.678  1.00  0.00    -0.460 A  
HETATM   18  C   UNL     1     -11.473   9.508  70.962  1.00  0.00    -0.420 A  
HETATM   19  C   UNL     1     -10.911   8.717  69.968  1.00  0.00    -0.209 A  
HETATM   20  C   UNL     1     -10.686   9.238  68.698  1.00  0.00    -0.180 A  
HETATM   21 CL   UNL     1     -10.494   7.081  70.304  1.00  0.00    -0.219 Cl 
HETATM   22  C   UNL     1     -11.018  10.545  68.393  1.00  0.00    -0.261 A  
HETATM   23  N   UNL     1     -10.793  10.953  67.137  1.00  0.00    -0.274 NA 
HETATM   24  C   UNL     1     -11.150  12.208  66.811  1.00  0.00    -0.300 A  
HETATM   25  C   UNL     1     -11.708  13.101  67.704  1.00  0.00    -0.414 A  
ENDBRANCH  13  15
ENDBRANCH  11  13
ENDBRANCH  10  11
ENDBRANCH   9  10
ENDBRANCH   8   9
ENDBRANCH   3   8
ENDBRANCH   2   3
TORSDOF 9
ENDMDL
MODEL       76
REMARK 921   NORMALIZED FREE ENERGY PREDICTED BY IDOCK:   -4.72 KCAL/MOL
REMARK 922        TOTAL FREE ENERGY PREDICTED BY IDOCK:   -8.43 KCAL/MOL
REMARK 923 INTER-LIGAND FREE ENERGY PREDICTED BY IDOCK:   -7.74 KCAL/MOL
REMARK 924 INTRA-LIGAND FREE ENERGY PREDICTED BY IDOCK:   -0.69 KCAL/MOL
REMARK 927      BINDING AFFINITY PREDICTED BY RF-SCORE:    0.00 PKD
ROOT
HETATM    1  C   UNL     1     -12.748  11.844  63.352  1.00  0.00    -0.496 C  
HETATM    2  C   UNL     1     -12.163  12.560  64.566  1.00  0.00    -0.453 C  
ENDROOT
BRANCH   2   3
HETATM    3  N   UNL     1     -10.717  12.878  64.490  1.00  0.00    -0.349 NA 
BRANCH   3   4
HETATM    4  C   UNL     1     -10.474  14.298  64.849  1.00  0.00    -0.430 C  
BRANCH   4   5
HETATM    5  C   UNL     1     -11.649  15.262  64.597  1.00  0.00    -0.333 C  
HETATM    6  H   UNL     1     -11.899  17.093  63.909  1.00  0.00     0.000 HD 
HETATM    7  O   UNL     1     -11.174  16.498  64.064  1.00  0.00    -0.967 OA 
ENDBRANCH   4   5
ENDBRANCH   3   4
BRANCH   3   8
HETATM    8  C   UNL     1      -9.968  11.971  65.393  1.00  0.00    -0.253 C  
BRANCH   8   9
HETATM    9  C   UNL     1     -10.746  11.478  66.633  1.00  0.00    -0.311 C  
BRANCH   9  10
HETATM   10  C   UNL     1      -9.934  11.422  67.939  1.00  0.00    -0.190 C  
BRANCH  10  11
HETATM   11  C   UNL     1     -10.778  11.110  69.191  1.00  0.00    -0.221 C  
HETATM   12  C   UNL     1     -11.853  12.172  69.438  1.00  0.00    -0.370 C  
BRANCH  11  13
HETATM   13  N   UNL     1     -11.430   9.788  69.051  1.00  0.00    -0.467 NA 
HETATM   14  H   UNL     1     -11.979   9.552  68.223  1.00  0.00     0.000 HD 
BRANCH  13  15
HETATM   15  C   UNL     1     -11.261   8.860  70.116  1.00  0.00    -0.160 A  
HETATM   16  C   UNL     1     -10.823   7.534  69.853  1.00  0.00    -0.250 A  
HETATM   17  C   UNL     1     -10.578   7.025  68.554  1.00  0.00    -0.235 A  
HETATM   18  C   UNL     1     -10.160   5.706  68.364  1.00  0.00    -0.224 A  
HETATM   19  C   UNL     1      -9.997   4.877  69.466  1.00  0.00    -0.225 A  
HETATM   20  C   UNL     1     -10.236   5.359  70.750  1.00  0.00    -0.313 A  
HETATM   21 CL   UNL     1      -9.492   3.246  69.250  1.00  0.00    -0.235 Cl 
HETATM   22  C   UNL     1     -10.633   6.667  70.959  1.00  0.00    -0.226 A  
HETATM   23  N   UNL     1     -10.811   7.052  72.229  1.00  0.00    -0.223 NA 
HETATM   24  C   UNL     1     -11.157   8.333  72.454  1.00  0.00    -0.377 A  
HETATM   25  C   UNL     1     -11.361   9.258  71.449  1.00  0.00    -0.434 A  
ENDBRANCH  13  15
ENDBRANCH  11  13
ENDBRANCH  10  11
ENDBRANCH   9  10
ENDBRANCH   8   9
ENDBRANCH   3   8
ENDBRANCH   2   3
TORSDOF 9
ENDMDL
MODEL       77
REMARK 921   NORMALIZED FREE ENERGY PREDICTED BY IDOCK:   -4.70 KCAL/MOL
REMARK 922        TOTAL FREE ENERGY PREDICTED BY IDOCK:   -8.40 KCAL/MOL
REMARK 923 INTER-LIGAND FREE ENERGY PREDICTED BY IDOCK:   -7.47 KCAL/MOL
REMARK 924 INTRA-LIGAND FREE ENERGY PREDICTED BY IDOCK:   -0.93 KCAL/MOL
REMARK 927      BINDING AFFINITY PREDICTED BY RF-SCORE:    0.00 PKD
ROOT
HETATM    1  C   UNL     1     -10.667  15.882  65.373  1.00  0.00    -0.415 C  
HETATM    2  C   UNL     1     -10.873  15.009  66.607  1.00  0.00    -0.318 C  
ENDROOT
BRANCH   2   3
HETATM    3  N   UNL     1     -12.054  14.114  66.572  1.00  0.00    -0.446 NA 
BRANCH   3   4
HETATM    4  C   UNL     1     -12.553  13.960  65.182  1.00  0.00    -0.434 C  
BRANCH   4   5
HETATM    5  C   UNL     1     -12.358  12.568  64.552  1.00  0.00    -0.467 C  
HETATM    6  H   UNL     1     -11.403  11.798  63.008  1.00  0.00     0.000 HD 
HETATM    7  O   UNL     1     -11.524  12.656  63.397  1.00  0.00    -0.487 OA 
ENDBRANCH   4   5
ENDBRANCH   3   4
BRANCH   3   8
HETATM    8  C   UNL     1     -11.690  12.798  67.149  1.00  0.00    -0.380 C  
BRANCH   8   9
HETATM    9  C   UNL     1     -11.096  12.840  68.575  1.00  0.00    -0.300 C  
BRANCH   9  10
HETATM   10  C   UNL     1     -12.120  12.722  69.717  1.00  0.00    -0.305 C  
BRANCH  10  11
HETATM   11  C   UNL     1     -11.974  11.442  70.562  1.00  0.00    -0.356 C  
HETATM   12  C   UNL     1     -13.032  11.358  71.666  1.00  0.00    -0.523 C  
BRANCH  11  13
HETATM   13  N   UNL     1     -12.084  10.244  69.698  1.00  0.00    -0.505 NA 
HETATM   14  H   UNL     1     -12.905  10.086  69.114  1.00  0.00     0.000 HD 
BRANCH  13  15
HETATM   15  C   UNL     1     -10.998   9.324  69.717  1.00  0.00    -0.196 A  
HETATM   16  C   UNL     1     -11.061   8.154  70.521  1.00  0.00    -0.257 A  
HETATM   17  C   UNL     1     -12.143   7.840  71.379  1.00  0.00    -0.335 A  
HETATM   18  C   UNL     1     -12.136   6.676  72.152  1.00  0.00    -0.299 A  
HETATM   19  C   UNL     1     -11.042   5.823  72.088  1.00  0.00    -0.271 A  
HETATM   20  C   UNL     1      -9.969   6.116  71.253  1.00  0.00    -0.215 A  
HETATM   21 CL   UNL     1     -11.012   4.390  73.042  1.00  0.00    -0.297 Cl 
HETATM   22  C   UNL     1      -9.965   7.254  70.468  1.00  0.00    -0.190 A  
HETATM   23  N   UNL     1      -8.904   7.441  69.672  1.00  0.00    -0.141 NA 
HETATM   24  C   UNL     1      -8.903   8.520  68.870  1.00  0.00    -0.139 A  
HETATM   25  C   UNL     1      -9.921   9.453  68.842  1.00  0.00    -0.188 A  
ENDBRANCH  13  15
ENDBRANCH  11  13
ENDBRANCH  10  11
ENDBRANCH   9  10
ENDBRANCH   8   9
ENDBRANCH   3   8
ENDBRANCH   2   3
TORSDOF 9
ENDMDL
MODEL       78
REMARK 921   NORMALIZED FREE ENERGY PREDICTED BY IDOCK:   -4.69 KCAL/MOL
REMARK 922        TOTAL FREE ENERGY PREDICTED BY IDOCK:   -8.38 KCAL/MOL
REMARK 923 INTER-LIGAND FREE ENERGY PREDICTED BY IDOCK:   -7.30 KCAL/MOL
REMARK 924 INTRA-LIGAND FREE ENERGY PREDICTED BY IDOCK:   -1.08 KCAL/MOL
REMARK 927      BINDING AFFINITY PREDICTED BY RF-SCORE:    0.00 PKD
ROOT
HETATM    1  C   UNL     1      -7.980  15.410  67.038  1.00  0.00    -0.259 C  
HETATM    2  C   UNL     1      -7.445  15.787  68.416  1.00  0.00    -0.121 C  
ENDROOT
BRANCH   2   3
HETATM    3  N   UNL     1      -7.617  17.207  68.806  1.00  0.00    -0.254 NA 
BRANCH   3   4
HETATM    4  C   UNL     1      -6.333  17.942  68.685  1.00  0.00    -0.209 C  
BRANCH   4   5
HETATM    5  C   UNL     1      -6.444  19.476  68.616  1.00  0.00    -0.268 C  
HETATM    6  H   UNL     1      -6.834  20.958  69.858  1.00  0.00     0.000 HD 
HETATM    7  O   UNL     1      -6.766  20.011  69.900  1.00  0.00    -0.336 OA 
ENDBRANCH   4   5
ENDBRANCH   3   4
BRANCH   3   8
HETATM    8  C   UNL     1      -8.661  17.826  67.954  1.00  0.00    -0.250 C  
BRANCH   8   9
HETATM    9  C   UNL     1      -9.997  18.137  68.663  1.00  0.00    -0.409 C  
BRANCH   9  10
HETATM   10  C   UNL     1     -11.148  17.163  68.354  1.00  0.00    -0.107 C  
BRANCH  10  11
HETATM   11  C   UNL     1     -11.122  15.873  69.197  1.00  0.00    -0.302 C  
HETATM   12  C   UNL     1     -11.145  16.168  70.699  1.00  0.00    -0.318 C  
BRANCH  11  13
HETATM   13  N   UNL     1     -12.281  15.018  68.856  1.00  0.00    -0.587 NA 
HETATM   14  H   UNL     1     -13.228  15.396  68.823  1.00  0.00     0.000 HD 
BRANCH  13  15
HETATM   15  C   UNL     1     -12.021  13.647  68.575  1.00  0.00    -0.361 A  
HETATM   16  C   UNL     1     -12.235  12.655  69.570  1.00  0.00    -0.149 A  
HETATM   17  C   UNL     1     -12.659  12.939  70.891  1.00  0.00    -0.355 A  
HETATM   18  C   UNL     1     -12.840  11.916  71.825  1.00  0.00    -0.389 A  
HETATM   19  C   UNL     1     -12.584  10.602  71.454  1.00  0.00    -0.421 A  
HETATM   20  C   UNL     1     -12.163  10.305  70.162  1.00  0.00    -0.251 A  
HETATM   21 CL   UNL     1     -12.791   9.330  72.596  1.00  0.00    -0.346 Cl 
HETATM   22  C   UNL     1     -11.996  11.302  69.219  1.00  0.00    -0.342 A  
HETATM   23  N   UNL     1     -11.617  10.921  67.992  1.00  0.00    -0.525 NA 
HETATM   24  C   UNL     1     -11.490  11.873  67.050  1.00  0.00    -0.316 A  
HETATM   25  C   UNL     1     -11.704  13.216  67.287  1.00  0.00    -0.425 A  
ENDBRANCH  13  15
ENDBRANCH  11  13
ENDBRANCH  10  11
ENDBRANCH   9  10
ENDBRANCH   8   9
ENDBRANCH   3   8
ENDBRANCH   2   3
TORSDOF 9
ENDMDL
MODEL       79
REMARK 921   NORMALIZED FREE ENERGY PREDICTED BY IDOCK:   -4.66 KCAL/MOL
REMARK 922        TOTAL FREE ENERGY PREDICTED BY IDOCK:   -8.34 KCAL/MOL
REMARK 923 INTER-LIGAND FREE ENERGY PREDICTED BY IDOCK:   -7.63 KCAL/MOL
REMARK 924 INTRA-LIGAND FREE ENERGY PREDICTED BY IDOCK:   -0.71 KCAL/MOL
REMARK 927      BINDING AFFINITY PREDICTED BY RF-SCORE:    0.00 PKD
ROOT
HETATM    1  C   UNL     1      -8.681   8.222  73.070  1.00  0.00    -0.287 C  
HETATM    2  C   UNL     1      -9.104   7.525  71.780  1.00  0.00    -0.125 C  
ENDROOT
BRANCH   2   3
HETATM    3  N   UNL     1     -10.554   7.248  71.645  1.00  0.00    -0.206 NA 
BRANCH   3   4
HETATM    4  C   UNL     1     -10.812   5.786  71.671  1.00  0.00    -0.255 C  
BRANCH   4   5
HETATM    5  C   UNL     1     -11.441   5.241  72.968  1.00  0.00    -0.269 C  
HETATM    6  H   UNL     1     -10.815   4.425  74.650  1.00  0.00     0.000 HD 
HETATM    7  O   UNL     1     -10.428   4.760  73.850  1.00  0.00    -0.210 OA 
ENDBRANCH   4   5
ENDBRANCH   3   4
BRANCH   3   8
HETATM    8  C   UNL     1     -11.288   7.932  72.737  1.00  0.00    -0.393 C  
BRANCH   8   9
HETATM    9  C   UNL     1     -12.379   8.926  72.282  1.00  0.00    -0.430 C  
BRANCH   9  10
HETATM   10  C   UNL     1     -12.253   9.421  70.830  1.00  0.00    -0.297 C  
BRANCH  10  11
HETATM   11  C   UNL     1     -12.548  10.923  70.651  1.00  0.00    -0.346 C  
HETATM   12  C   UNL     1     -13.135  11.549  71.919  1.00  0.00    -0.492 C  
BRANCH  11  13
HETATM   13  N   UNL     1     -11.309  11.647  70.285  1.00  0.00    -0.468 NA 
HETATM   14  H   UNL     1     -10.390  11.289  70.545  1.00  0.00     0.000 HD 
BRANCH  13  15
HETATM   15  C   UNL     1     -11.454  12.861  69.557  1.00  0.00    -0.225 A  
HETATM   16  C   UNL     1     -11.485  12.848  68.136  1.00  0.00    -0.354 A  
HETATM   17  C   UNL     1     -11.329  11.679  67.352  1.00  0.00    -0.367 A  
HETATM   18  C   UNL     1     -11.359  11.738  65.956  1.00  0.00    -0.335 A  
HETATM   19  C   UNL     1     -11.530  12.966  65.330  1.00  0.00    -0.313 A  
HETATM   20  C   UNL     1     -11.681  14.126  66.084  1.00  0.00    -0.402 A  
HETATM   21 CL   UNL     1     -11.558  13.059  63.611  1.00  0.00    -0.518 Cl 
HETATM   22  C   UNL     1     -11.672  14.084  67.466  1.00  0.00    -0.387 A  
HETATM   23  N   UNL     1     -11.855  15.245  68.110  1.00  0.00    -0.279 NA 
HETATM   24  C   UNL     1     -11.891  15.218  69.455  1.00  0.00    -0.343 A  
HETATM   25  C   UNL     1     -11.726  14.067  70.201  1.00  0.00    -0.331 A  
ENDBRANCH  13  15
ENDBRANCH  11  13
ENDBRANCH  10  11
ENDBRANCH   9  10
ENDBRANCH   8   9
ENDBRANCH   3   8
ENDBRANCH   2   3
TORSDOF 9
ENDMDL
MODEL       80
REMARK 921   NORMALIZED FREE ENERGY PREDICTED BY IDOCK:   -4.66 KCAL/MOL
REMARK 922        TOTAL FREE ENERGY PREDICTED BY IDOCK:   -8.33 KCAL/MOL
REMARK 923 INTER-LIGAND FREE ENERGY PREDICTED BY IDOCK:   -7.44 KCAL/MOL
REMARK 924 INTRA-LIGAND FREE ENERGY PREDICTED BY IDOCK:   -0.90 KCAL/MOL
REMARK 927      BINDING AFFINITY PREDICTED BY RF-SCORE:    0.00 PKD
ROOT
HETATM    1  C   UNL     1      -8.786   6.007  72.127  1.00  0.00    -0.132 C  
HETATM    2  C   UNL     1      -9.753   6.842  71.294  1.00  0.00    -0.172 C  
ENDROOT
BRANCH   2   3
HETATM    3  N   UNL     1     -11.067   6.215  71.014  1.00  0.00    -0.292 NA 
BRANCH   3   4
HETATM    4  C   UNL     1     -12.099   6.722  71.954  1.00  0.00    -0.334 C  
BRANCH   4   5
HETATM    5  C   UNL     1     -12.202   8.254  72.072  1.00  0.00    -0.348 C  
HETATM    6  H   UNL     1     -13.613   9.626  71.947  1.00  0.00     0.000 HD 
HETATM    7  O   UNL     1     -13.549   8.681  71.873  1.00  0.00    -0.366 OA 
ENDBRANCH   4   5
ENDBRANCH   3   4
BRANCH   3   8
HETATM    8  C   UNL     1     -11.454   6.492  69.609  1.00  0.00    -0.352 C  
BRANCH   8   9
HETATM    9  C   UNL     1     -10.281   6.633  68.614  1.00  0.00    -0.184 C  
BRANCH   9  10
HETATM   10  C   UNL     1     -10.338   7.871  67.701  1.00  0.00    -0.307 C  
BRANCH  10  11
HETATM   11  C   UNL     1     -10.381   9.211  68.462  1.00  0.00    -0.207 C  
HETATM   12  C   UNL     1      -9.138  10.064  68.193  1.00  0.00    -0.121 C  
BRANCH  11  13
HETATM   13  N   UNL     1     -11.586   9.980  68.075  1.00  0.00    -0.621 NA 
HETATM   14  H   UNL     1     -12.334   9.553  67.529  1.00  0.00     0.000 HD 
BRANCH  13  15
HETATM   15  C   UNL     1     -11.657  11.337  68.496  1.00  0.00    -0.315 A  
HETATM   16  C   UNL     1     -11.570  12.390  67.545  1.00  0.00    -0.431 A  
HETATM   17  C   UNL     1     -11.360  12.190  66.159  1.00  0.00    -0.414 A  
HETATM   18  C   UNL     1     -11.273  13.272  65.279  1.00  0.00    -0.315 A  
HETATM   19  C   UNL     1     -11.378  14.564  65.776  1.00  0.00    -0.336 A  
HETATM   20  C   UNL     1     -11.580  14.780  67.136  1.00  0.00    -0.373 A  
HETATM   21 CL   UNL     1     -11.262  15.909  64.708  1.00  0.00    -0.416 Cl 
HETATM   22  C   UNL     1     -11.687  13.722  68.019  1.00  0.00    -0.355 A  
HETATM   23  N   UNL     1     -11.911  14.023  69.305  1.00  0.00    -0.337 NA 
HETATM   24  C   UNL     1     -12.060  13.006  70.172  1.00  0.00    -0.307 A  
HETATM   25  C   UNL     1     -11.969  11.675  69.812  1.00  0.00    -0.402 A  
ENDBRANCH  13  15
ENDBRANCH  11  13
ENDBRANCH  10  11
ENDBRANCH   9  10
ENDBRANCH   8   9
ENDBRANCH   3   8
ENDBRANCH   2   3
TORSDOF 9
ENDMDL
MODEL       81
REMARK 921   NORMALIZED FREE ENERGY PREDICTED BY IDOCK:   -4.65 KCAL/MOL
REMARK 922        TOTAL FREE ENERGY PREDICTED BY IDOCK:   -8.32 KCAL/MOL
REMARK 923 INTER-LIGAND FREE ENERGY PREDICTED BY IDOCK:   -7.58 KCAL/MOL
REMARK 924 INTRA-LIGAND FREE ENERGY PREDICTED BY IDOCK:   -0.74 KCAL/MOL
REMARK 927      BINDING AFFINITY PREDICTED BY RF-SCORE:    0.00 PKD
ROOT
HETATM    1  C   UNL     1      -9.941   4.828  71.167  1.00  0.00    -0.273 C  
HETATM    2  C   UNL     1     -10.520   6.053  71.869  1.00  0.00    -0.218 C  
ENDROOT
BRANCH   2   3
HETATM    3  N   UNL     1     -10.604   7.285  71.049  1.00  0.00    -0.220 NA 
BRANCH   3   4
HETATM    4  C   UNL     1     -10.545   6.955  69.602  1.00  0.00    -0.231 C  
BRANCH   4   5
HETATM    5  C   UNL     1     -10.629   8.155  68.639  1.00  0.00    -0.109 C  
HETATM    6  H   UNL     1     -10.650   8.449  66.690  1.00  0.00     0.000 HD 
HETATM    7  O   UNL     1     -10.598   7.710  67.283  1.00  0.00    -0.295 OA 
ENDBRANCH   4   5
ENDBRANCH   3   4
BRANCH   3   8
HETATM    8  C   UNL     1     -11.858   8.006  71.373  1.00  0.00    -0.295 C  
BRANCH   8   9
HETATM    9  C   UNL     1     -11.727   9.539  71.504  1.00  0.00    -0.472 C  
BRANCH   9  10
HETATM   10  C   UNL     1     -13.056  10.304  71.632  1.00  0.00    -0.553 C  
BRANCH  10  11
HETATM   11  C   UNL     1     -13.006  11.746  71.089  1.00  0.00    -0.187 C  
HETATM   12  C   UNL     1     -13.323  12.779  72.173  1.00  0.00    -0.593 C  
BRANCH  11  13
HETATM   13  N   UNL     1     -11.668  12.034  70.526  1.00  0.00    -0.487 NA 
HETATM   14  H   UNL     1     -10.820  11.895  71.076  1.00  0.00     0.000 HD 
BRANCH  13  15
HETATM   15  C   UNL     1     -11.612  12.510  69.186  1.00  0.00    -0.320 A  
HETATM   16  C   UNL     1     -11.380  13.887  68.922  1.00  0.00    -0.319 A  
HETATM   17  C   UNL     1     -11.241  14.874  69.929  1.00  0.00    -0.307 A  
HETATM   18  C   UNL     1     -11.025  16.214  69.599  1.00  0.00    -0.346 A  
HETATM   19  C   UNL     1     -10.961  16.585  68.262  1.00  0.00    -0.346 A  
HETATM   20  C   UNL     1     -11.098  15.630  67.260  1.00  0.00    -0.238 A  
HETATM   21 CL   UNL     1     -10.706  18.234  67.838  1.00  0.00    -0.390 Cl 
HETATM   22  C   UNL     1     -11.295  14.297  67.566  1.00  0.00    -0.326 A  
HETATM   23  N   UNL     1     -11.386  13.443  66.538  1.00  0.00    -0.311 NA 
HETATM   24  C   UNL     1     -11.535  12.136  66.818  1.00  0.00    -0.356 A  
HETATM   25  C   UNL     1     -11.624  11.634  68.101  1.00  0.00    -0.389 A  
ENDBRANCH  13  15
ENDBRANCH  11  13
ENDBRANCH  10  11
ENDBRANCH   9  10
ENDBRANCH   8   9
ENDBRANCH   3   8
ENDBRANCH   2   3
TORSDOF 9
ENDMDL
MODEL       82
REMARK 921   NORMALIZED FREE ENERGY PREDICTED BY IDOCK:   -4.65 KCAL/MOL
REMARK 922        TOTAL FREE ENERGY PREDICTED BY IDOCK:   -8.32 KCAL/MOL
REMARK 923 INTER-LIGAND FREE ENERGY PREDICTED BY IDOCK:   -7.86 KCAL/MOL
REMARK 924 INTRA-LIGAND FREE ENERGY PREDICTED BY IDOCK:   -0.46 KCAL/MOL
REMARK 927      BINDING AFFINITY PREDICTED BY RF-SCORE:    0.00 PKD
ROOT
HETATM    1  C   UNL     1      -5.917  20.818  68.740  1.00  0.00    -0.376 C  
HETATM    2  C   UNL     1      -6.941  19.772  69.171  1.00  0.00    -0.329 C  
ENDROOT
BRANCH   2   3
HETATM    3  N   UNL     1      -7.567  18.996  68.075  1.00  0.00    -0.263 NA 
BRANCH   3   4
HETATM    4  C   UNL     1      -6.536  18.264  67.296  1.00  0.00    -0.186 C  
BRANCH   4   5
HETATM    5  C   UNL     1      -6.524  18.538  65.780  1.00  0.00    -0.270 C  
HETATM    6  H   UNL     1      -7.462  19.723  64.514  1.00  0.00     0.000 HD 
HETATM    7  O   UNL     1      -7.470  19.554  65.448  1.00  0.00    -0.416 OA 
ENDBRANCH   4   5
ENDBRANCH   3   4
BRANCH   3   8
HETATM    8  C   UNL     1      -8.561  18.055  68.646  1.00  0.00    -0.264 C  
BRANCH   8   9
HETATM    9  C   UNL     1      -9.990  18.169  68.070  1.00  0.00    -0.353 C  
BRANCH   9  10
HETATM   10  C   UNL     1     -10.125  17.833  66.575  1.00  0.00    -0.358 C  
BRANCH  10  11
HETATM   11  C   UNL     1     -10.254  16.326  66.279  1.00  0.00    -0.327 C  
HETATM   12  C   UNL     1      -8.908  15.604  66.375  1.00  0.00    -0.365 C  
BRANCH  11  13
HETATM   13  N   UNL     1     -11.206  15.699  67.224  1.00  0.00    -0.244 NA 
HETATM   14  H   UNL     1     -11.735  16.259  67.893  1.00  0.00     0.000 HD 
BRANCH  13  15
HETATM   15  C   UNL     1     -11.352  14.285  67.161  1.00  0.00    -0.337 A  
HETATM   16  C   UNL     1     -11.742  13.551  68.314  1.00  0.00    -0.394 A  
HETATM   17  C   UNL     1     -11.958  14.132  69.587  1.00  0.00    -0.389 A  
HETATM   18  C   UNL     1     -12.329  13.349  70.683  1.00  0.00    -0.423 A  
HETATM   19  C   UNL     1     -12.472  11.977  70.523  1.00  0.00    -0.207 A  
HETATM   20  C   UNL     1     -12.261  11.388  69.280  1.00  0.00    -0.271 A  
HETATM   21 CL   UNL     1     -12.919  10.996  71.866  1.00  0.00    -0.549 Cl 
HETATM   22  C   UNL     1     -11.910  12.149  68.181  1.00  0.00    -0.299 A  
HETATM   23  N   UNL     1     -11.755  11.501  67.018  1.00  0.00    -0.550 NA 
HETATM   24  C   UNL     1     -11.456  12.230  65.928  1.00  0.00    -0.376 A  
HETATM   25  C   UNL     1     -11.276  13.599  65.950  1.00  0.00    -0.311 A  
ENDBRANCH  13  15
ENDBRANCH  11  13
ENDBRANCH  10  11
ENDBRANCH   9  10
ENDBRANCH   8   9
ENDBRANCH   3   8
ENDBRANCH   2   3
TORSDOF 9
ENDMDL
MODEL       83
REMARK 921   NORMALIZED FREE ENERGY PREDICTED BY IDOCK:   -4.63 KCAL/MOL
REMARK 922        TOTAL FREE ENERGY PREDICTED BY IDOCK:   -8.29 KCAL/MOL
REMARK 923 INTER-LIGAND FREE ENERGY PREDICTED BY IDOCK:   -7.35 KCAL/MOL
REMARK 924 INTRA-LIGAND FREE ENERGY PREDICTED BY IDOCK:   -0.94 KCAL/MOL
REMARK 927      BINDING AFFINITY PREDICTED BY RF-SCORE:    0.00 PKD
ROOT
HETATM    1  C   UNL     1     -10.536  15.709  65.382  1.00  0.00    -0.436 C  
HETATM    2  C   UNL     1     -10.757  14.834  66.614  1.00  0.00    -0.309 C  
ENDROOT
BRANCH   2   3
HETATM    3  N   UNL     1     -12.100  14.220  66.734  1.00  0.00    -0.440 NA 
BRANCH   3   4
HETATM    4  C   UNL     1     -12.687  13.978  65.392  1.00  0.00    -0.471 C  
BRANCH   4   5
HETATM    5  C   UNL     1     -12.516  12.551  64.836  1.00  0.00    -0.450 C  
HETATM    6  H   UNL     1     -12.590  11.664  63.077  1.00  0.00     0.000 HD 
HETATM    7  O   UNL     1     -12.696  12.543  63.420  1.00  0.00    -0.710 OA 
ENDBRANCH   4   5
ENDBRANCH   3   4
BRANCH   3   8
HETATM    8  C   UNL     1     -11.994  12.954  67.499  1.00  0.00    -0.296 C  
BRANCH   8   9
HETATM    9  C   UNL     1     -11.278  13.061  68.863  1.00  0.00    -0.326 C  
BRANCH   9  10
HETATM   10  C   UNL     1     -12.204  13.087  70.092  1.00  0.00    -0.342 C  
BRANCH  10  11
HETATM   11  C   UNL     1     -12.201  11.780  70.908  1.00  0.00    -0.276 C  
HETATM   12  C   UNL     1     -13.404  11.689  71.851  1.00  0.00    -0.403 C  
BRANCH  11  13
HETATM   13  N   UNL     1     -12.211  10.611  70.001  1.00  0.00    -0.408 NA 
HETATM   14  H   UNL     1     -12.886  10.536  69.240  1.00  0.00     0.000 HD 
BRANCH  13  15
HETATM   15  C   UNL     1     -11.240   9.596  70.233  1.00  0.00    -0.271 A  
HETATM   16  C   UNL     1     -10.512   9.036  69.148  1.00  0.00    -0.239 A  
HETATM   17  C   UNL     1     -10.719   9.386  67.791  1.00  0.00    -0.290 A  
HETATM   18  C   UNL     1      -9.976   8.787  66.771  1.00  0.00    -0.338 A  
HETATM   19  C   UNL     1      -9.031   7.822  67.093  1.00  0.00    -0.126 A  
HETATM   20  C   UNL     1      -8.816   7.463  68.421  1.00  0.00    -0.121 A  
HETATM   21 CL   UNL     1      -8.114   7.066  65.848  1.00  0.00    -0.112 Cl 
HETATM   22  C   UNL     1      -9.529   8.057  69.445  1.00  0.00    -0.159 A  
HETATM   23  N   UNL     1      -9.236   7.671  70.694  1.00  0.00    -0.161 NA 
HETATM   24  C   UNL     1      -9.889   8.269  71.706  1.00  0.00    -0.218 A  
HETATM   25  C   UNL     1     -10.859   9.236  71.525  1.00  0.00    -0.442 A  
ENDBRANCH  13  15
ENDBRANCH  11  13
ENDBRANCH  10  11
ENDBRANCH   9  10
ENDBRANCH   8   9
ENDBRANCH   3   8
ENDBRANCH   2   3
TORSDOF 9
ENDMDL
MODEL       84
REMARK 921   NORMALIZED FREE ENERGY PREDICTED BY IDOCK:   -4.62 KCAL/MOL
REMARK 922        TOTAL FREE ENERGY PREDICTED BY IDOCK:   -8.28 KCAL/MOL
REMARK 923 INTER-LIGAND FREE ENERGY PREDICTED BY IDOCK:   -7.67 KCAL/MOL
REMARK 924 INTRA-LIGAND FREE ENERGY PREDICTED BY IDOCK:   -0.60 KCAL/MOL
REMARK 927      BINDING AFFINITY PREDICTED BY RF-SCORE:    0.00 PKD
ROOT
HETATM    1  C   UNL     1      -8.435  10.250  62.675  1.00  0.00    -0.193 C  
HETATM    2  C   UNL     1      -9.381  11.395  63.026  1.00  0.00    -0.322 C  
ENDROOT
BRANCH   2   3
HETATM    3  N   UNL     1     -10.495  11.050  63.941  1.00  0.00    -0.371 NA 
BRANCH   3   4
HETATM    4  C   UNL     1     -10.037  11.064  65.353  1.00  0.00    -0.269 C  
BRANCH   4   5
HETATM    5  C   UNL     1     -10.250   9.756  66.138  1.00  0.00    -0.208 C  
HETATM    6  H   UNL     1     -10.532   9.223  68.015  1.00  0.00     0.000 HD 
HETATM    7  O   UNL     1     -10.400  10.029  67.531  1.00  0.00    -0.200 OA 
ENDBRANCH   4   5
ENDBRANCH   3   4
BRANCH   3   8
HETATM    8  C   UNL     1     -11.609  12.008  63.739  1.00  0.00    -0.476 C  
BRANCH   8   9
HETATM    9  C   UNL     1     -12.330  12.468  65.026  1.00  0.00    -0.522 C  
BRANCH   9  10
HETATM   10  C   UNL     1     -12.305  13.985  65.287  1.00  0.00    -0.480 C  
BRANCH  10  11
HETATM   11  C   UNL     1     -10.914  14.628  65.123  1.00  0.00    -0.386 C  
HETATM   12  C   UNL     1     -11.004  16.134  64.867  1.00  0.00    -0.364 C  
BRANCH  11  13
HETATM   13  N   UNL     1     -10.097  14.393  66.336  1.00  0.00    -0.276 NA 
HETATM   14  H   UNL     1      -9.329  13.722  66.336  1.00  0.00     0.000 HD 
BRANCH  13  15
HETATM   15  C   UNL     1     -10.427  15.142  67.500  1.00  0.00    -0.258 A  
HETATM   16  C   UNL     1     -11.054  14.511  68.608  1.00  0.00    -0.272 A  
HETATM   17  C   UNL     1     -11.437  13.147  68.629  1.00  0.00    -0.342 A  
HETATM   18  C   UNL     1     -12.060  12.591  69.749  1.00  0.00    -0.293 A  
HETATM   19  C   UNL     1     -12.322  13.393  70.851  1.00  0.00    -0.353 A  
HETATM   20  C   UNL     1     -11.956  14.736  70.848  1.00  0.00    -0.384 A  
HETATM   21 CL   UNL     1     -13.099  12.727  72.235  1.00  0.00    -0.474 Cl 
HETATM   22  C   UNL     1     -11.322  15.299  69.756  1.00  0.00    -0.289 A  
HETATM   23  N   UNL     1     -10.980  16.591  69.852  1.00  0.00    -0.336 NA 
HETATM   24  C   UNL     1     -10.325  17.146  68.816  1.00  0.00    -0.353 A  
HETATM   25  C   UNL     1     -10.011  16.464  67.657  1.00  0.00    -0.252 A  
ENDBRANCH  13  15
ENDBRANCH  11  13
ENDBRANCH  10  11
ENDBRANCH   9  10
ENDBRANCH   8   9
ENDBRANCH   3   8
ENDBRANCH   2   3
TORSDOF 9
ENDMDL
MODEL       85
REMARK 921   NORMALIZED FREE ENERGY PREDICTED BY IDOCK:   -4.59 KCAL/MOL
REMARK 922        TOTAL FREE ENERGY PREDICTED BY IDOCK:   -8.24 KCAL/MOL
REMARK 923 INTER-LIGAND FREE ENERGY PREDICTED BY IDOCK:   -7.30 KCAL/MOL
REMARK 924 INTRA-LIGAND FREE ENERGY PREDICTED BY IDOCK:   -0.94 KCAL/MOL
REMARK 927      BINDING AFFINITY PREDICTED BY RF-SCORE:    0.00 PKD
ROOT
HETATM    1  C   UNL     1      -5.548  19.000  68.914  1.00  0.00    -0.209 C  
HETATM    2  C   UNL     1      -6.796  18.595  68.135  1.00  0.00    -0.230 C  
ENDROOT
BRANCH   2   3
HETATM    3  N   UNL     1      -7.823  19.651  67.972  1.00  0.00    -0.300 NA 
BRANCH   3   4
HETATM    4  C   UNL     1      -8.035  19.958  66.535  1.00  0.00    -0.321 C  
BRANCH   4   5
HETATM    5  C   UNL     1      -6.757  20.163  65.700  1.00  0.00    -0.266 C  
HETATM    6  H   UNL     1      -5.858  19.277  64.185  1.00  0.00     0.000 HD 
HETATM    7  O   UNL     1      -6.646  19.151  64.700  1.00  0.00    -0.450 OA 
ENDBRANCH   4   5
ENDBRANCH   3   4
BRANCH   3   8
HETATM    8  C   UNL     1      -9.088  19.207  68.607  1.00  0.00    -0.369 C  
BRANCH   8   9
HETATM    9  C   UNL     1      -9.395  17.697  68.490  1.00  0.00    -0.291 C  
BRANCH   9  10
HETATM   10  C   UNL     1     -10.651  17.343  67.676  1.00  0.00    -0.350 C  
BRANCH  10  11
HETATM   11  C   UNL     1     -10.385  16.396  66.490  1.00  0.00    -0.303 C  
HETATM   12  C   UNL     1      -8.889  16.171  66.259  1.00  0.00    -0.371 C  
BRANCH  11  13
HETATM   13  N   UNL     1     -11.039  15.089  66.723  1.00  0.00    -0.328 NA 
HETATM   14  H   UNL     1     -11.344  14.807  67.654  1.00  0.00     0.000 HD 
BRANCH  13  15
HETATM   15  C   UNL     1     -11.225  14.242  65.594  1.00  0.00    -0.314 A  
HETATM   16  C   UNL     1     -10.639  12.948  65.562  1.00  0.00    -0.298 A  
HETATM   17  C   UNL     1      -9.808  12.430  66.585  1.00  0.00    -0.231 A  
HETATM   18  C   UNL     1      -9.254  11.151  66.485  1.00  0.00    -0.194 A  
HETATM   19  C   UNL     1      -9.509  10.384  65.356  1.00  0.00    -0.232 A  
HETATM   20  C   UNL     1     -10.320  10.878  64.339  1.00  0.00    -0.430 A  
HETATM   21 CL   UNL     1      -8.825   8.811  65.211  1.00  0.00    -0.223 Cl 
HETATM   22  C   UNL     1     -10.892  12.134  64.428  1.00  0.00    -0.328 A  
HETATM   23  N   UNL     1     -11.682  12.515  63.416  1.00  0.00    -0.497 NA 
HETATM   24  C   UNL     1     -12.281  13.716  63.505  1.00  0.00    -0.268 A  
HETATM   25  C   UNL     1     -12.105  14.581  64.567  1.00  0.00    -0.501 A  
ENDBRANCH  13  15
ENDBRANCH  11  13
ENDBRANCH  10  11
ENDBRANCH   9  10
ENDBRANCH   8   9
ENDBRANCH   3   8
ENDBRANCH   2   3
TORSDOF 9
ENDMDL
MODEL       86
REMARK 921   NORMALIZED FREE ENERGY PREDICTED BY IDOCK:   -4.55 KCAL/MOL
REMARK 922        TOTAL FREE ENERGY PREDICTED BY IDOCK:   -8.18 KCAL/MOL
REMARK 923 INTER-LIGAND FREE ENERGY PREDICTED BY IDOCK:   -7.54 KCAL/MOL
REMARK 924 INTRA-LIGAND FREE ENERGY PREDICTED BY IDOCK:   -0.64 KCAL/MOL
REMARK 927      BINDING AFFINITY PREDICTED BY RF-SCORE:    0.00 PKD
ROOT
HETATM    1  C   UNL     1     -10.276  20.059  67.742  1.00  0.00    -0.549 C  
HETATM    2  C   UNL     1      -9.937  19.904  66.262  1.00  0.00    -0.486 C  
ENDROOT
BRANCH   2   3
HETATM    3  N   UNL     1      -8.850  18.946  65.948  1.00  0.00    -0.416 NA 
BRANCH   3   4
HETATM    4  C   UNL     1      -7.528  19.619  66.004  1.00  0.00    -0.311 C  
BRANCH   4   5
HETATM    5  C   UNL     1      -6.672  19.311  67.247  1.00  0.00    -0.193 C  
HETATM    6  H   UNL     1      -6.282  20.158  68.984  1.00  0.00     0.000 HD 
HETATM    7  O   UNL     1      -6.810  20.349  68.217  1.00  0.00    -0.291 OA 
ENDBRANCH   4   5
ENDBRANCH   3   4
BRANCH   3   8
HETATM    8  C   UNL     1      -8.905  17.813  66.903  1.00  0.00    -0.248 C  
BRANCH   8   9
HETATM    9  C   UNL     1      -9.797  16.627  66.475  1.00  0.00    -0.295 C  
BRANCH   9  10
HETATM   10  C   UNL     1      -9.345  15.247  66.984  1.00  0.00    -0.238 C  
BRANCH  10  11
HETATM   11  C   UNL     1     -10.226  14.674  68.111  1.00  0.00    -0.231 C  
HETATM   12  C   UNL     1     -11.333  15.646  68.525  1.00  0.00    -0.361 C  
BRANCH  11  13
HETATM   13  N   UNL     1     -10.842  13.398  67.679  1.00  0.00    -0.256 NA 
HETATM   14  H   UNL     1     -10.954  12.618  68.327  1.00  0.00     0.000 HD 
BRANCH  13  15
HETATM   15  C   UNL     1     -11.270  13.305  66.326  1.00  0.00    -0.299 A  
HETATM   16  C   UNL     1     -10.686  12.351  65.450  1.00  0.00    -0.317 A  
HETATM   17  C   UNL     1      -9.632  11.479  65.819  1.00  0.00    -0.259 A  
HETATM   18  C   UNL     1      -9.095  10.571  64.904  1.00  0.00    -0.235 A  
HETATM   19  C   UNL     1      -9.593  10.533  63.608  1.00  0.00    -0.320 A  
HETATM   20  C   UNL     1     -10.626  11.384  63.227  1.00  0.00    -0.374 A  
HETATM   21 CL   UNL     1      -8.935   9.427  62.464  1.00  0.00    -0.257 Cl 
HETATM   22  C   UNL     1     -11.182  12.278  64.123  1.00  0.00    -0.369 A  
HETATM   23  N   UNL     1     -12.192  13.037  63.677  1.00  0.00    -0.649 NA 
HETATM   24  C   UNL     1     -12.774  13.882  64.547  1.00  0.00    -0.071 A  
HETATM   25  C   UNL     1     -12.370  14.025  65.860  1.00  0.00    -0.515 A  
ENDBRANCH  13  15
ENDBRANCH  11  13
ENDBRANCH  10  11
ENDBRANCH   9  10
ENDBRANCH   8   9
ENDBRANCH   3   8
ENDBRANCH   2   3
TORSDOF 9
ENDMDL
MODEL       87
REMARK 921   NORMALIZED FREE ENERGY PREDICTED BY IDOCK:   -4.54 KCAL/MOL
REMARK 922        TOTAL FREE ENERGY PREDICTED BY IDOCK:   -8.15 KCAL/MOL
REMARK 923 INTER-LIGAND FREE ENERGY PREDICTED BY IDOCK:   -7.35 KCAL/MOL
REMARK 924 INTRA-LIGAND FREE ENERGY PREDICTED BY IDOCK:   -0.80 KCAL/MOL
REMARK 927      BINDING AFFINITY PREDICTED BY RF-SCORE:    0.00 PKD
ROOT
HETATM    1  C   UNL     1     -10.629   3.830  73.778  1.00  0.00    -0.288 C  
HETATM    2  C   UNL     1     -11.612   4.893  73.294  1.00  0.00    -0.189 C  
ENDROOT
BRANCH   2   3
HETATM    3  N   UNL     1     -11.032   6.229  73.022  1.00  0.00    -0.255 NA 
BRANCH   3   4
HETATM    4  C   UNL     1     -10.048   6.596  74.072  1.00  0.00    -0.347 C  
BRANCH   4   5
HETATM    5  C   UNL     1      -8.714   7.175  73.565  1.00  0.00    -0.145 C  
HETATM    6  H   UNL     1      -7.845   8.942  73.465  1.00  0.00     0.000 HD 
HETATM    7  O   UNL     1      -8.668   8.585  73.777  1.00  0.00    -0.263 OA 
ENDBRANCH   4   5
ENDBRANCH   3   4
BRANCH   3   8
HETATM    8  C   UNL     1     -10.395   6.224  71.683  1.00  0.00    -0.212 C  
BRANCH   8   9
HETATM    9  C   UNL     1     -10.980   7.230  70.667  1.00  0.00    -0.278 C  
BRANCH   9  10
HETATM   10  C   UNL     1     -10.429   8.663  70.769  1.00  0.00    -0.249 C  
BRANCH  10  11
HETATM   11  C   UNL     1     -10.488   9.455  69.449  1.00  0.00    -0.220 C  
HETATM   12  C   UNL     1     -10.225   8.564  68.232  1.00  0.00    -0.244 C  
BRANCH  11  13
HETATM   13  N   UNL     1     -11.814  10.097  69.297  1.00  0.00    -0.501 NA 
HETATM   14  H   UNL     1     -12.652   9.546  69.113  1.00  0.00     0.000 HD 
BRANCH  13  15
HETATM   15  C   UNL     1     -11.870  11.514  69.419  1.00  0.00    -0.350 A  
HETATM   16  C   UNL     1     -11.775  12.339  68.266  1.00  0.00    -0.392 A  
HETATM   17  C   UNL     1     -11.571  11.846  66.954  1.00  0.00    -0.358 A  
HETATM   18  C   UNL     1     -11.476  12.714  65.864  1.00  0.00    -0.407 A  
HETATM   19  C   UNL     1     -11.567  14.084  66.075  1.00  0.00    -0.357 A  
HETATM   20  C   UNL     1     -11.764  14.587  67.357  1.00  0.00    -0.425 A  
HETATM   21 CL   UNL     1     -11.440  15.169  64.744  1.00  0.00    -0.406 Cl 
HETATM   22  C   UNL     1     -11.878  13.743  68.445  1.00  0.00    -0.376 A  
HETATM   23  N   UNL     1     -12.096  14.313  69.638  1.00  0.00    -0.335 NA 
HETATM   24  C   UNL     1     -12.253  13.505  70.701  1.00  0.00    -0.358 A  
HETATM   25  C   UNL     1     -12.176  12.128  70.633  1.00  0.00    -0.392 A  
ENDBRANCH  13  15
ENDBRANCH  11  13
ENDBRANCH  10  11
ENDBRANCH   9  10
ENDBRANCH   8   9
ENDBRANCH   3   8
ENDBRANCH   2   3
TORSDOF 9
ENDMDL
MODEL       88
REMARK 921   NORMALIZED FREE ENERGY PREDICTED BY IDOCK:   -4.54 KCAL/MOL
REMARK 922        TOTAL FREE ENERGY PREDICTED BY IDOCK:   -8.15 KCAL/MOL
REMARK 923 INTER-LIGAND FREE ENERGY PREDICTED BY IDOCK:   -6.56 KCAL/MOL
REMARK 924 INTRA-LIGAND FREE ENERGY PREDICTED BY IDOCK:   -1.59 KCAL/MOL
REMARK 927      BINDING AFFINITY PREDICTED BY RF-SCORE:    0.00 PKD
ROOT
HETATM    1  C   UNL     1      -7.847  14.647  67.301  1.00  0.00    -0.213 C  
HETATM    2  C   UNL     1      -8.093  13.568  68.352  1.00  0.00    -0.145 C  
ENDROOT
BRANCH   2   3
HETATM    3  N   UNL     1      -7.168  12.410  68.314  1.00  0.00    -0.094 NA 
BRANCH   3   4
HETATM    4  C   UNL     1      -6.381  12.327  69.570  1.00  0.00    -0.121 C  
BRANCH   4   5
HETATM    5  C   UNL     1      -5.579  13.588  69.942  1.00  0.00    -0.108 C  
HETATM    6  H   UNL     1      -5.371  14.763  71.511  1.00  0.00     0.000 HD 
HETATM    7  O   UNL     1      -5.866  13.986  71.282  1.00  0.00    -0.224 OA 
ENDBRANCH   4   5
ENDBRANCH   3   4
BRANCH   3   8
HETATM    8  C   UNL     1      -7.947  11.167  68.096  1.00  0.00    -0.125 C  
BRANCH   8   9
HETATM    9  C   UNL     1      -8.359  10.410  69.378  1.00  0.00    -0.152 C  
BRANCH   9  10
HETATM   10  C   UNL     1      -9.625   9.545  69.252  1.00  0.00    -0.179 C  
BRANCH  10  11
HETATM   11  C   UNL     1     -10.349   9.684  67.899  1.00  0.00    -0.224 C  
HETATM   12  C   UNL     1     -10.626   8.324  67.253  1.00  0.00    -0.335 C  
BRANCH  11  13
HETATM   13  N   UNL     1     -11.632  10.403  68.077  1.00  0.00    -0.712 NA 
HETATM   14  H   UNL     1     -12.473   9.917  68.389  1.00  0.00     0.000 HD 
BRANCH  13  15
HETATM   15  C   UNL     1     -11.642  11.798  67.796  1.00  0.00    -0.304 A  
HETATM   16  C   UNL     1     -11.907  12.737  68.829  1.00  0.00    -0.346 A  
HETATM   17  C   UNL     1     -12.222  12.379  70.163  1.00  0.00    -0.303 A  
HETATM   18  C   UNL     1     -12.484  13.355  71.128  1.00  0.00    -0.414 A  
HETATM   19  C   UNL     1     -12.448  14.696  70.769  1.00  0.00    -0.340 A  
HETATM   20  C   UNL     1     -12.143  15.066  69.462  1.00  0.00    -0.311 A  
HETATM   21 CL   UNL     1     -12.778  15.911  71.943  1.00  0.00    -0.500 Cl 
HETATM   22  C   UNL     1     -11.865  14.116  68.498  1.00  0.00    -0.355 A  
HETATM   23  N   UNL     1     -11.553  14.565  67.275  1.00  0.00    -0.371 NA 
HETATM   24  C   UNL     1     -11.237  13.656  66.334  1.00  0.00    -0.308 A  
HETATM   25  C   UNL     1     -11.243  12.293  66.555  1.00  0.00    -0.373 A  
ENDBRANCH  13  15
ENDBRANCH  11  13
ENDBRANCH  10  11
ENDBRANCH   9  10
ENDBRANCH   8   9
ENDBRANCH   3   8
ENDBRANCH   2   3
TORSDOF 9
ENDMDL
MODEL       89
REMARK 921   NORMALIZED FREE ENERGY PREDICTED BY IDOCK:   -4.53 KCAL/MOL
REMARK 922        TOTAL FREE ENERGY PREDICTED BY IDOCK:   -8.15 KCAL/MOL
REMARK 923 INTER-LIGAND FREE ENERGY PREDICTED BY IDOCK:   -7.44 KCAL/MOL
REMARK 924 INTRA-LIGAND FREE ENERGY PREDICTED BY IDOCK:   -0.70 KCAL/MOL
REMARK 927      BINDING AFFINITY PREDICTED BY RF-SCORE:    0.00 PKD
ROOT
HETATM    1  C   UNL     1     -11.329  15.932  68.491  1.00  0.00    -0.374 C  
HETATM    2  C   UNL     1     -11.396  16.146  70.000  1.00  0.00    -0.328 C  
ENDROOT
BRANCH   2   3
HETATM    3  N   UNL     1     -11.997  15.038  70.780  1.00  0.00    -0.293 NA 
BRANCH   3   4
HETATM    4  C   UNL     1     -13.374  15.388  71.212  1.00  0.00    -0.520 C  
BRANCH   4   5
HETATM    5  C   UNL     1     -13.569  15.593  72.726  1.00  0.00    -0.593 C  
HETATM    6  H   UNL     1     -12.450  16.061  74.280  1.00  0.00     0.000 HD 
HETATM    7  O   UNL     1     -12.329  15.934  73.347  1.00  0.00    -0.434 OA 
ENDBRANCH   4   5
ENDBRANCH   3   4
BRANCH   3   8
HETATM    8  C   UNL     1     -12.001  13.804  69.957  1.00  0.00    -0.338 C  
BRANCH   8   9
HETATM    9  C   UNL     1     -12.400  12.511  70.702  1.00  0.00    -0.369 C  
BRANCH   9  10
HETATM   10  C   UNL     1     -11.801  11.213  70.133  1.00  0.00    -0.449 C  
BRANCH  10  11
HETATM   11  C   UNL     1     -11.948   9.992  71.062  1.00  0.00    -0.376 C  
HETATM   12  C   UNL     1     -13.225  10.063  71.904  1.00  0.00    -0.557 C  
BRANCH  11  13
HETATM   13  N   UNL     1     -11.963   8.744  70.268  1.00  0.00    -0.451 NA 
HETATM   14  H   UNL     1     -12.758   8.501  69.676  1.00  0.00     0.000 HD 
BRANCH  13  15
HETATM   15  C   UNL     1     -10.824   7.896  70.362  1.00  0.00    -0.244 A  
HETATM   16  C   UNL     1     -10.847   6.750  71.202  1.00  0.00    -0.275 A  
HETATM   17  C   UNL     1     -11.943   6.395  72.026  1.00  0.00    -0.375 A  
HETATM   18  C   UNL     1     -11.896   5.259  72.838  1.00  0.00    -0.159 A  
HETATM   19  C   UNL     1     -10.750   4.476  72.848  1.00  0.00    -0.208 A  
HETATM   20  C   UNL     1      -9.662   4.811  72.047  1.00  0.00    -0.217 A  
HETATM   21 CL   UNL     1     -10.671   3.079  73.850  1.00  0.00    -0.266 Cl 
HETATM   22  C   UNL     1      -9.696   5.921  71.225  1.00  0.00    -0.173 A  
HETATM   23  N   UNL     1      -8.615   6.151  70.467  1.00  0.00    -0.136 NA 
HETATM   24  C   UNL     1      -8.647   7.202  69.629  1.00  0.00    -0.137 A  
HETATM   25  C   UNL     1      -9.720   8.066  69.527  1.00  0.00    -0.170 A  
ENDBRANCH  13  15
ENDBRANCH  11  13
ENDBRANCH  10  11
ENDBRANCH   9  10
ENDBRANCH   8   9
ENDBRANCH   3   8
ENDBRANCH   2   3
TORSDOF 9
ENDMDL
MODEL       90
REMARK 921   NORMALIZED FREE ENERGY PREDICTED BY IDOCK:   -4.51 KCAL/MOL
REMARK 922        TOTAL FREE ENERGY PREDICTED BY IDOCK:   -8.10 KCAL/MOL
REMARK 923 INTER-LIGAND FREE ENERGY PREDICTED BY IDOCK:   -7.22 KCAL/MOL
REMARK 924 INTRA-LIGAND FREE ENERGY PREDICTED BY IDOCK:   -0.89 KCAL/MOL
REMARK 927      BINDING AFFINITY PREDICTED BY RF-SCORE:    0.00 PKD
ROOT
HETATM    1  C   UNL     1     -11.030   3.957  73.708  1.00  0.00    -0.321 C  
HETATM    2  C   UNL     1      -9.626   4.517  73.499  1.00  0.00    -0.116 C  
ENDROOT
BRANCH   2   3
HETATM    3  N   UNL     1      -9.542   5.761  72.697  1.00  0.00    -0.153 NA 
BRANCH   3   4
HETATM    4  C   UNL     1      -8.842   5.509  71.413  1.00  0.00    -0.136 C  
BRANCH   4   5
HETATM    5  C   UNL     1      -9.695   5.679  70.141  1.00  0.00    -0.174 C  
HETATM    6  H   UNL     1     -10.575   4.510  68.819  1.00  0.00     0.000 HD 
HETATM    7  O   UNL     1     -10.048   4.405  69.603  1.00  0.00    -0.202 OA 
ENDBRANCH   4   5
ENDBRANCH   3   4
BRANCH   3   8
HETATM    8  C   UNL     1     -10.910   6.282  72.457  1.00  0.00    -0.240 C  
BRANCH   8   9
HETATM    9  C   UNL     1     -11.149   7.744  72.896  1.00  0.00    -0.457 C  
BRANCH   9  10
HETATM   10  C   UNL     1     -12.075   8.562  71.980  1.00  0.00    -0.428 C  
BRANCH  10  11
HETATM   11  C   UNL     1     -11.387   9.761  71.299  1.00  0.00    -0.375 C  
HETATM   12  C   UNL     1     -10.027   9.382  70.706  1.00  0.00    -0.358 C  
BRANCH  11  13
HETATM   13  N   UNL     1     -12.248  10.301  70.223  1.00  0.00    -0.433 NA 
HETATM   14  H   UNL     1     -12.865   9.695  69.683  1.00  0.00     0.000 HD 
BRANCH  13  15
HETATM   15  C   UNL     1     -12.180  11.701  69.974  1.00  0.00    -0.263 A  
HETATM   16  C   UNL     1     -11.910  12.186  68.665  1.00  0.00    -0.358 A  
HETATM   17  C   UNL     1     -11.644  11.353  67.552  1.00  0.00    -0.298 A  
HETATM   18  C   UNL     1     -11.375  11.896  66.293  1.00  0.00    -0.394 A  
HETATM   19  C   UNL     1     -11.353  13.276  66.137  1.00  0.00    -0.309 A  
HETATM   20  C   UNL     1     -11.609  14.110  67.221  1.00  0.00    -0.399 A  
HETATM   21 CL   UNL     1     -11.013  13.963  64.596  1.00  0.00    -0.399 Cl 
HETATM   22  C   UNL     1     -11.894  13.591  68.470  1.00  0.00    -0.362 A  
HETATM   23  N   UNL     1     -12.157  14.468  69.448  1.00  0.00    -0.307 NA 
HETATM   24  C   UNL     1     -12.479  13.980  70.659  1.00  0.00    -0.365 A  
HETATM   25  C   UNL     1     -12.527  12.632  70.952  1.00  0.00    -0.368 A  
ENDBRANCH  13  15
ENDBRANCH  11  13
ENDBRANCH  10  11
ENDBRANCH   9  10
ENDBRANCH   8   9
ENDBRANCH   3   8
ENDBRANCH   2   3
TORSDOF 9
ENDMDL
MODEL       91
REMARK 921   NORMALIZED FREE ENERGY PREDICTED BY IDOCK:   -4.50 KCAL/MOL
REMARK 922        TOTAL FREE ENERGY PREDICTED BY IDOCK:   -8.10 KCAL/MOL
REMARK 923 INTER-LIGAND FREE ENERGY PREDICTED BY IDOCK:   -7.49 KCAL/MOL
REMARK 924 INTRA-LIGAND FREE ENERGY PREDICTED BY IDOCK:   -0.60 KCAL/MOL
REMARK 927      BINDING AFFINITY PREDICTED BY RF-SCORE:    0.00 PKD
ROOT
HETATM    1  C   UNL     1     -13.121  11.332  71.474  1.00  0.00    -0.459 C  
HETATM    2  C   UNL     1     -13.134  12.631  72.274  1.00  0.00    -0.261 C  
ENDROOT
BRANCH   2   3
HETATM    3  N   UNL     1     -13.368  13.867  71.489  1.00  0.00    -0.346 NA 
BRANCH   3   4
HETATM    4  C   UNL     1     -13.842  14.964  72.370  1.00  0.00    -0.483 C  
BRANCH   4   5
HETATM    5  C   UNL     1     -13.088  15.124  73.704  1.00  0.00    -0.236 C  
HETATM    6  H   UNL     1     -11.863  16.430  74.529  1.00  0.00     0.000 HD 
HETATM    7  O   UNL     1     -12.327  16.331  73.706  1.00  0.00    -0.504 OA 
ENDBRANCH   4   5
ENDBRANCH   3   4
BRANCH   3   8
HETATM    8  C   UNL     1     -12.114  14.252  70.796  1.00  0.00    -0.348 C  
BRANCH   8   9
HETATM    9  C   UNL     1     -12.116  14.056  69.264  1.00  0.00    -0.380 C  
BRANCH   9  10
HETATM   10  C   UNL     1     -11.174  12.958  68.741  1.00  0.00    -0.323 C  
BRANCH  10  11
HETATM   11  C   UNL     1     -11.274  12.715  67.223  1.00  0.00    -0.298 C  
HETATM   12  C   UNL     1     -12.637  13.132  66.663  1.00  0.00     0.197 C  
BRANCH  11  13
HETATM   13  N   UNL     1     -10.212  13.464  66.514  1.00  0.00    -0.276 NA 
HETATM   14  H   UNL     1      -9.269  13.088  66.423  1.00  0.00     0.000 HD 
BRANCH  13  15
HETATM   15  C   UNL     1     -10.563  14.730  65.965  1.00  0.00    -0.312 A  
HETATM   16  C   UNL     1     -10.113  15.930  66.581  1.00  0.00    -0.287 A  
HETATM   17  C   UNL     1      -9.352  15.970  67.775  1.00  0.00    -0.211 A  
HETATM   18  C   UNL     1      -8.952  17.186  68.334  1.00  0.00    -0.259 A  
HETATM   19  C   UNL     1      -9.320  18.374  67.715  1.00  0.00    -0.274 A  
HETATM   20  C   UNL     1     -10.069  18.354  66.543  1.00  0.00    -0.406 A  
HETATM   21 CL   UNL     1      -8.844  19.882  68.396  1.00  0.00    -0.291 Cl 
HETATM   22  C   UNL     1     -10.460  17.160  65.966  1.00  0.00    -0.266 A  
HETATM   23  N   UNL     1     -11.154  17.236  64.822  1.00  0.00    -0.920 NA 
HETATM   24  C   UNL     1     -11.506  16.084  64.224  1.00  0.00    -0.157 A  
HETATM   25  C   UNL     1     -11.213  14.835  64.737  1.00  0.00    -0.392 A  
ENDBRANCH  13  15
ENDBRANCH  11  13
ENDBRANCH  10  11
ENDBRANCH   9  10
ENDBRANCH   8   9
ENDBRANCH   3   8
ENDBRANCH   2   3
TORSDOF 9
ENDMDL
MODEL       92
REMARK 921   NORMALIZED FREE ENERGY PREDICTED BY IDOCK:   -4.50 KCAL/MOL
REMARK 922        TOTAL FREE ENERGY PREDICTED BY IDOCK:   -8.09 KCAL/MOL
REMARK 923 INTER-LIGAND FREE ENERGY PREDICTED BY IDOCK:   -7.19 KCAL/MOL
REMARK 924 INTRA-LIGAND FREE ENERGY PREDICTED BY IDOCK:   -0.90 KCAL/MOL
REMARK 927      BINDING AFFINITY PREDICTED BY RF-SCORE:    0.00 PKD
ROOT
HETATM    1  C   UNL     1     -10.093   4.769  69.974  1.00  0.00    -0.308 C  
HETATM    2  C   UNL     1     -10.909   5.827  70.711  1.00  0.00    -0.260 C  
ENDROOT
BRANCH   2   3
HETATM    3  N   UNL     1     -11.015   7.143  70.037  1.00  0.00    -0.258 NA 
BRANCH   3   4
HETATM    4  C   UNL     1     -11.067   8.240  71.035  1.00  0.00    -0.251 C  
BRANCH   4   5
HETATM    5  C   UNL     1      -9.782   9.079  71.174  1.00  0.00    -0.299 C  
HETATM    6  H   UNL     1      -8.369   9.353  72.522  1.00  0.00     0.000 HD 
HETATM    7  O   UNL     1      -9.161   8.836  72.437  1.00  0.00    -0.361 OA 
ENDBRANCH   4   5
ENDBRANCH   3   4
BRANCH   3   8
HETATM    8  C   UNL     1      -9.862   7.318  69.121  1.00  0.00    -0.166 C  
BRANCH   8   9
HETATM    9  C   UNL     1     -10.222   7.625  67.651  1.00  0.00    -0.277 C  
BRANCH   9  10
HETATM   10  C   UNL     1      -9.543   8.870  67.053  1.00  0.00    -0.232 C  
BRANCH  10  11
HETATM   11  C   UNL     1     -10.528   9.951  66.567  1.00  0.00    -0.143 C  
HETATM   12  C   UNL     1     -11.302  10.586  67.725  1.00  0.00    -0.267 C  
BRANCH  11  13
HETATM   13  N   UNL     1      -9.801  11.012  65.835  1.00  0.00    -0.221 NA 
HETATM   14  H   UNL     1      -8.782  11.057  65.839  1.00  0.00     0.000 HD 
BRANCH  13  15
HETATM   15  C   UNL     1     -10.581  11.967  65.125  1.00  0.00    -0.288 A  
HETATM   16  C   UNL     1     -10.435  13.356  65.390  1.00  0.00    -0.310 A  
HETATM   17  C   UNL     1      -9.572  13.886  66.380  1.00  0.00    -0.292 A  
HETATM   18  C   UNL     1      -9.484  15.263  66.597  1.00  0.00    -0.281 A  
HETATM   19  C   UNL     1     -10.267  16.124  65.839  1.00  0.00    -0.360 A  
HETATM   20  C   UNL     1     -11.123  15.621  64.863  1.00  0.00    -0.414 A  
HETATM   21 CL   UNL     1     -10.179  17.823  66.100  1.00  0.00    -0.359 Cl 
HETATM   22  C   UNL     1     -11.210  14.262  64.622  1.00  0.00    -0.366 A  
HETATM   23  N   UNL     1     -12.038  13.871  63.644  1.00  0.00    -0.520 NA 
HETATM   24  C   UNL     1     -12.104  12.556  63.367  1.00  0.00    -0.529 A  
HETATM   25  C   UNL     1     -11.388  11.594  64.050  1.00  0.00    -0.428 A  
ENDBRANCH  13  15
ENDBRANCH  11  13
ENDBRANCH  10  11
ENDBRANCH   9  10
ENDBRANCH   8   9
ENDBRANCH   3   8
ENDBRANCH   2   3
TORSDOF 9
ENDMDL
MODEL       93
REMARK 921   NORMALIZED FREE ENERGY PREDICTED BY IDOCK:   -4.48 KCAL/MOL
REMARK 922        TOTAL FREE ENERGY PREDICTED BY IDOCK:   -8.07 KCAL/MOL
REMARK 923 INTER-LIGAND FREE ENERGY PREDICTED BY IDOCK:   -7.16 KCAL/MOL
REMARK 924 INTRA-LIGAND FREE ENERGY PREDICTED BY IDOCK:   -0.91 KCAL/MOL
REMARK 927      BINDING AFFINITY PREDICTED BY RF-SCORE:    0.00 PKD
ROOT
HETATM    1  C   UNL     1     -10.548  19.062  65.955  1.00  0.00    -0.466 C  
HETATM    2  C   UNL     1      -9.694  18.218  66.896  1.00  0.00    -0.315 C  
ENDROOT
BRANCH   2   3
HETATM    3  N   UNL     1      -9.532  16.795  66.515  1.00  0.00    -0.253 NA 
BRANCH   3   4
HETATM    4  C   UNL     1      -9.694  15.914  67.700  1.00  0.00    -0.223 C  
BRANCH   4   5
HETATM    5  C   UNL     1     -10.388  16.553  68.918  1.00  0.00    -0.292 C  
HETATM    6  H   UNL     1     -12.074  16.319  69.913  1.00  0.00     0.000 HD 
HETATM    7  O   UNL     1     -11.647  15.926  69.162  1.00  0.00    -0.362 OA 
ENDBRANCH   4   5
ENDBRANCH   3   4
BRANCH   3   8
HETATM    8  C   UNL     1     -10.522  16.452  65.465  1.00  0.00    -0.330 C  
BRANCH   8   9
HETATM    9  C   UNL     1     -11.395  15.211  65.756  1.00  0.00    -0.238 C  
BRANCH   9  10
HETATM   10  C   UNL     1     -11.763  14.364  64.525  1.00  0.00    -0.430 C  
BRANCH  10  11
HETATM   11  C   UNL     1     -12.081  12.891  64.848  1.00  0.00    -0.432 C  
HETATM   12  C   UNL     1     -12.384  12.079  63.586  1.00  0.00    -0.648 C  
BRANCH  11  13
HETATM   13  N   UNL     1     -10.944  12.267  65.561  1.00  0.00    -0.289 NA 
HETATM   14  H   UNL     1     -10.019  12.208  65.135  1.00  0.00     0.000 HD 
BRANCH  13  15
HETATM   15  C   UNL     1     -11.194  11.754  66.865  1.00  0.00    -0.327 A  
HETATM   16  C   UNL     1     -10.681  10.486  67.249  1.00  0.00    -0.333 A  
HETATM   17  C   UNL     1      -9.951   9.633  66.386  1.00  0.00    -0.323 A  
HETATM   18  C   UNL     1      -9.485   8.391  66.824  1.00  0.00    -0.255 A  
HETATM   19  C   UNL     1      -9.755   7.982  68.124  1.00  0.00    -0.160 A  
HETATM   20  C   UNL     1     -10.474   8.806  68.985  1.00  0.00    -0.220 A  
HETATM   21 CL   UNL     1      -9.197   6.451  68.677  1.00  0.00    -0.126 Cl 
HETATM   22  C   UNL     1     -10.929  10.045  68.574  1.00  0.00    -0.209 A  
HETATM   23  N   UNL     1     -11.586  10.782  69.480  1.00  0.00    -0.278 NA 
HETATM   24  C   UNL     1     -11.998  12.008  69.111  1.00  0.00    -0.268 A  
HETATM   25  C   UNL     1     -11.803  12.533  67.849  1.00  0.00    -0.383 A  
ENDBRANCH  13  15
ENDBRANCH  11  13
ENDBRANCH  10  11
ENDBRANCH   9  10
ENDBRANCH   8   9
ENDBRANCH   3   8
ENDBRANCH   2   3
TORSDOF 9
ENDMDL
MODEL       94
REMARK 921   NORMALIZED FREE ENERGY PREDICTED BY IDOCK:   -4.47 KCAL/MOL
REMARK 922        TOTAL FREE ENERGY PREDICTED BY IDOCK:   -8.05 KCAL/MOL
REMARK 923 INTER-LIGAND FREE ENERGY PREDICTED BY IDOCK:   -7.41 KCAL/MOL
REMARK 924 INTRA-LIGAND FREE ENERGY PREDICTED BY IDOCK:   -0.65 KCAL/MOL
REMARK 927      BINDING AFFINITY PREDICTED BY RF-SCORE:    0.00 PKD
ROOT
HETATM    1  C   UNL     1     -12.133  12.933  63.361  1.00  0.00    -0.610 C  
HETATM    2  C   UNL     1     -10.727  12.488  63.752  1.00  0.00    -0.445 C  
ENDROOT
BRANCH   2   3
HETATM    3  N   UNL     1     -10.459  11.033  63.646  1.00  0.00    -0.359 NA 
BRANCH   3   4
HETATM    4  C   UNL     1      -9.307  10.778  62.746  1.00  0.00    -0.330 C  
BRANCH   4   5
HETATM    5  C   UNL     1      -8.685   9.372  62.839  1.00  0.00    -0.224 C  
HETATM    6  H   UNL     1      -6.904   8.594  63.175  1.00  0.00     0.000 HD 
HETATM    7  O   UNL     1      -7.288   9.461  63.117  1.00  0.00    -0.105 OA 
ENDBRANCH   4   5
ENDBRANCH   3   4
BRANCH   3   8
HETATM    8  C   UNL     1     -10.204  10.482  64.998  1.00  0.00    -0.295 C  
BRANCH   8   9
HETATM    9  C   UNL     1     -10.349  11.486  66.163  1.00  0.00    -0.287 C  
BRANCH   9  10
HETATM   10  C   UNL     1     -11.108  10.960  67.394  1.00  0.00    -0.373 C  
BRANCH  10  11
HETATM   11  C   UNL     1     -10.194  10.425  68.514  1.00  0.00    -0.173 C  
HETATM   12  C   UNL     1      -8.728  10.802  68.288  1.00  0.00    -0.136 C  
BRANCH  11  13
HETATM   13  N   UNL     1     -10.632  10.952  69.826  1.00  0.00    -0.444 NA 
HETATM   14  H   UNL     1     -10.393  11.899  70.123  1.00  0.00     0.000 HD 
BRANCH  13  15
HETATM   15  C   UNL     1     -11.398  10.086  70.655  1.00  0.00    -0.348 A  
HETATM   16  C   UNL     1     -10.753   9.148  71.505  1.00  0.00    -0.437 A  
HETATM   17  C   UNL     1      -9.349   8.964  71.560  1.00  0.00    -0.335 A  
HETATM   18  C   UNL     1      -8.780   8.014  72.412  1.00  0.00    -0.224 A  
HETATM   19  C   UNL     1      -9.605   7.228  73.205  1.00  0.00    -0.212 A  
HETATM   20  C   UNL     1     -10.986   7.393  73.162  1.00  0.00    -0.408 A  
HETATM   21 CL   UNL     1      -8.921   6.046  74.252  1.00  0.00    -0.127 Cl 
HETATM   22  C   UNL     1     -11.567   8.339  72.338  1.00  0.00    -0.396 A  
HETATM   23  N   UNL     1     -12.902   8.448  72.384  1.00  0.00    -0.313 NA 
HETATM   24  C   UNL     1     -13.481   9.392  71.621  1.00  0.00    -0.394 A  
HETATM   25  C   UNL     1     -12.779  10.233  70.781  1.00  0.00    -0.434 A  
ENDBRANCH  13  15
ENDBRANCH  11  13
ENDBRANCH  10  11
ENDBRANCH   9  10
ENDBRANCH   8   9
ENDBRANCH   3   8
ENDBRANCH   2   3
TORSDOF 9
ENDMDL
MODEL       95
REMARK 921   NORMALIZED FREE ENERGY PREDICTED BY IDOCK:   -4.47 KCAL/MOL
REMARK 922        TOTAL FREE ENERGY PREDICTED BY IDOCK:   -8.04 KCAL/MOL
REMARK 923 INTER-LIGAND FREE ENERGY PREDICTED BY IDOCK:   -6.87 KCAL/MOL
REMARK 924 INTRA-LIGAND FREE ENERGY PREDICTED BY IDOCK:   -1.17 KCAL/MOL
REMARK 927      BINDING AFFINITY PREDICTED BY RF-SCORE:    0.00 PKD
ROOT
HETATM    1  C   UNL     1      -6.444  17.722  65.917  1.00  0.00    -0.264 C  
HETATM    2  C   UNL     1      -7.197  16.949  66.995  1.00  0.00    -0.198 C  
ENDROOT
BRANCH   2   3
HETATM    3  N   UNL     1      -8.207  15.981  66.505  1.00  0.00    -0.296 NA 
BRANCH   3   4
HETATM    4  C   UNL     1      -8.089  14.690  67.229  1.00  0.00    -0.206 C  
BRANCH   4   5
HETATM    5  C   UNL     1      -6.797  14.497  68.045  1.00  0.00    -0.145 C  
HETATM    6  H   UNL     1      -5.023  13.680  67.778  1.00  0.00     0.000 HD 
HETATM    7  O   UNL     1      -5.819  13.799  67.275  1.00  0.00    -0.326 OA 
ENDBRANCH   4   5
ENDBRANCH   3   4
BRANCH   3   8
HETATM    8  C   UNL     1      -9.562  16.558  66.675  1.00  0.00    -0.258 C  
BRANCH   8   9
HETATM    9  C   UNL     1      -9.870  17.126  68.078  1.00  0.00    -0.283 C  
BRANCH   9  10
HETATM   10  C   UNL     1     -11.307  16.896  68.579  1.00  0.00     0.021 C  
BRANCH  10  11
HETATM   11  C   UNL     1     -11.496  15.586  69.368  1.00  0.00    -0.337 C  
HETATM   12  C   UNL     1     -12.031  15.837  70.780  1.00  0.00    -0.444 C  
BRANCH  11  13
HETATM   13  N   UNL     1     -12.431  14.689  68.651  1.00  0.00    -0.544 NA 
HETATM   14  H   UNL     1     -13.435  14.867  68.642  1.00  0.00     0.000 HD 
BRANCH  13  15
HETATM   15  C   UNL     1     -11.871  13.568  67.976  1.00  0.00    -0.365 A  
HETATM   16  C   UNL     1     -11.698  12.332  68.655  1.00  0.00    -0.377 A  
HETATM   17  C   UNL     1     -12.006  12.130  70.023  1.00  0.00    -0.391 A  
HETATM   18  C   UNL     1     -11.801  10.890  70.632  1.00  0.00    -0.453 A  
HETATM   19  C   UNL     1     -11.272   9.844  69.888  1.00  0.00    -0.250 A  
HETATM   20  C   UNL     1     -10.960  10.025  68.544  1.00  0.00    -0.255 A  
HETATM   21 CL   UNL     1     -11.003   8.312  70.626  1.00  0.00    -0.248 Cl 
HETATM   22  C   UNL     1     -11.172  11.239  67.919  1.00  0.00    -0.290 A  
HETATM   23  N   UNL     1     -10.871  11.313  66.615  1.00  0.00    -0.276 NA 
HETATM   24  C   UNL     1     -11.110  12.474  65.981  1.00  0.00    -0.294 A  
HETATM   25  C   UNL     1     -11.624  13.595  66.604  1.00  0.00    -0.391 A  
ENDBRANCH  13  15
ENDBRANCH  11  13
ENDBRANCH  10  11
ENDBRANCH   9  10
ENDBRANCH   8   9
ENDBRANCH   3   8
ENDBRANCH   2   3
TORSDOF 9
ENDMDL
MODEL       96
REMARK 921   NORMALIZED FREE ENERGY PREDICTED BY IDOCK:   -4.46 KCAL/MOL
REMARK 922        TOTAL FREE ENERGY PREDICTED BY IDOCK:   -8.04 KCAL/MOL
REMARK 923 INTER-LIGAND FREE ENERGY PREDICTED BY IDOCK:   -7.22 KCAL/MOL
REMARK 924 INTRA-LIGAND FREE ENERGY PREDICTED BY IDOCK:   -0.82 KCAL/MOL
REMARK 927      BINDING AFFINITY PREDICTED BY RF-SCORE:    0.00 PKD
ROOT
HETATM    1  C   UNL     1     -10.940   6.613  67.262  1.00  0.00    -0.456 C  
HETATM    2  C   UNL     1     -10.483   7.537  68.386  1.00  0.00    -0.175 C  
ENDROOT
BRANCH   2   3
HETATM    3  N   UNL     1     -10.535   8.988  68.087  1.00  0.00    -0.219 NA 
BRANCH   3   4
HETATM    4  C   UNL     1     -10.356   9.785  69.327  1.00  0.00    -0.215 C  
BRANCH   4   5
HETATM    5  C   UNL     1     -11.353   9.488  70.463  1.00  0.00    -0.283 C  
HETATM    6  H   UNL     1     -13.094  10.177  71.080  1.00  0.00     0.000 HD 
HETATM    7  O   UNL     1     -12.479  10.360  70.380  1.00  0.00    -0.296 OA 
ENDBRANCH   4   5
ENDBRANCH   3   4
BRANCH   3   8
HETATM    8  C   UNL     1      -9.488   9.321  67.091  1.00  0.00    -0.149 C  
BRANCH   8   9
HETATM    9  C   UNL     1      -9.984  10.062  65.830  1.00  0.00    -0.339 C  
BRANCH   9  10
HETATM   10  C   UNL     1      -9.617  11.554  65.757  1.00  0.00    -0.259 C  
BRANCH  10  11
HETATM   11  C   UNL     1     -10.550  12.388  64.857  1.00  0.00    -0.294 C  
HETATM   12  C   UNL     1     -10.971  11.622  63.600  1.00  0.00    -0.507 C  
BRANCH  11  13
HETATM   13  N   UNL     1     -11.763  12.785  65.608  1.00  0.00    -0.376 NA 
HETATM   14  H   UNL     1     -12.695  12.532  65.280  1.00  0.00     0.000 HD 
BRANCH  13  15
HETATM   15  C   UNL     1     -11.575  13.532  66.804  1.00  0.00    -0.363 A  
HETATM   16  C   UNL     1     -11.174  14.894  66.745  1.00  0.00    -0.338 A  
HETATM   17  C   UNL     1     -10.888  15.584  65.542  1.00  0.00    -0.372 A  
HETATM   18  C   UNL     1     -10.487  16.922  65.556  1.00  0.00    -0.220 A  
HETATM   19  C   UNL     1     -10.353  17.580  66.771  1.00  0.00    -0.314 A  
HETATM   20  C   UNL     1     -10.627  16.918  67.964  1.00  0.00    -0.367 A  
HETATM   21 CL   UNL     1      -9.850  19.226  66.807  1.00  0.00    -0.393 Cl 
HETATM   22  C   UNL     1     -11.041  15.599  67.969  1.00  0.00    -0.335 A  
HETATM   23  N   UNL     1     -11.311  15.051  69.161  1.00  0.00    -0.278 NA 
HETATM   24  C   UNL     1     -11.756  13.782  69.183  1.00  0.00    -0.334 A  
HETATM   25  C   UNL     1     -11.925  13.012  68.049  1.00  0.00    -0.335 A  
ENDBRANCH  13  15
ENDBRANCH  11  13
ENDBRANCH  10  11
ENDBRANCH   9  10
ENDBRANCH   8   9
ENDBRANCH   3   8
ENDBRANCH   2   3
TORSDOF 9
ENDMDL
MODEL       97
REMARK 921   NORMALIZED FREE ENERGY PREDICTED BY IDOCK:   -4.46 KCAL/MOL
REMARK 922        TOTAL FREE ENERGY PREDICTED BY IDOCK:   -8.03 KCAL/MOL
REMARK 923 INTER-LIGAND FREE ENERGY PREDICTED BY IDOCK:   -7.08 KCAL/MOL
REMARK 924 INTRA-LIGAND FREE ENERGY PREDICTED BY IDOCK:   -0.95 KCAL/MOL
REMARK 927      BINDING AFFINITY PREDICTED BY RF-SCORE:    0.00 PKD
ROOT
HETATM    1  C   UNL     1      -8.728   7.980  70.311  1.00  0.00    -0.134 C  
HETATM    2  C   UNL     1     -10.225   8.202  70.115  1.00  0.00    -0.199 C  
ENDROOT
BRANCH   2   3
HETATM    3  N   UNL     1     -10.621   9.559  69.669  1.00  0.00    -0.218 NA 
BRANCH   3   4
HETATM    4  C   UNL     1     -11.363  10.267  70.742  1.00  0.00    -0.337 C  
BRANCH   4   5
HETATM    5  C   UNL     1     -12.296   9.391  71.600  1.00  0.00    -0.385 C  
HETATM    6  H   UNL     1     -14.070   9.557  72.442  1.00  0.00     0.000 HD 
HETATM    7  O   UNL     1     -13.495  10.097  71.914  1.00  0.00    -0.385 OA 
ENDBRANCH   4   5
ENDBRANCH   3   4
BRANCH   3   8
HETATM    8  C   UNL     1      -9.409  10.319  69.277  1.00  0.00    -0.207 C  
BRANCH   8   9
HETATM    9  C   UNL     1      -9.303  10.673  67.777  1.00  0.00    -0.154 C  
BRANCH   9  10
HETATM   10  C   UNL     1     -10.645  10.786  67.033  1.00  0.00    -0.312 C  
BRANCH  10  11
HETATM   11  C   UNL     1     -10.816  12.098  66.243  1.00  0.00    -0.282 C  
HETATM   12  C   UNL     1     -11.004  11.847  64.745  1.00  0.00    -0.366 C  
BRANCH  11  13
HETATM   13  N   UNL     1     -11.982  12.854  66.755  1.00  0.00    -0.413 NA 
HETATM   14  H   UNL     1     -12.920  12.695  66.386  1.00  0.00     0.000 HD 
BRANCH  13  15
HETATM   15  C   UNL     1     -11.740  13.810  67.781  1.00  0.00    -0.358 A  
HETATM   16  C   UNL     1     -11.244  15.102  67.458  1.00  0.00    -0.331 A  
HETATM   17  C   UNL     1     -10.909  15.516  66.145  1.00  0.00    -0.295 A  
HETATM   18  C   UNL     1     -10.414  16.799  65.898  1.00  0.00    -0.311 A  
HETATM   19  C   UNL     1     -10.234  17.675  66.960  1.00  0.00    -0.332 A  
HETATM   20  C   UNL     1     -10.554  17.285  68.257  1.00  0.00    -0.383 A  
HETATM   21 CL   UNL     1      -9.615  19.256  66.675  1.00  0.00    -0.378 Cl 
HETATM   22  C   UNL     1     -11.061  16.026  68.518  1.00  0.00    -0.347 A  
HETATM   23  N   UNL     1     -11.368  15.747  69.792  1.00  0.00    -0.311 NA 
HETATM   24  C   UNL     1     -11.903  14.542  70.060  1.00  0.00    -0.313 A  
HETATM   25  C   UNL     1     -12.126  13.575  69.100  1.00  0.00    -0.331 A  
ENDBRANCH  13  15
ENDBRANCH  11  13
ENDBRANCH  10  11
ENDBRANCH   9  10
ENDBRANCH   8   9
ENDBRANCH   3   8
ENDBRANCH   2   3
TORSDOF 9
ENDMDL
MODEL       98
REMARK 921   NORMALIZED FREE ENERGY PREDICTED BY IDOCK:   -4.46 KCAL/MOL
REMARK 922        TOTAL FREE ENERGY PREDICTED BY IDOCK:   -8.03 KCAL/MOL
REMARK 923 INTER-LIGAND FREE ENERGY PREDICTED BY IDOCK:   -7.30 KCAL/MOL
REMARK 924 INTRA-LIGAND FREE ENERGY PREDICTED BY IDOCK:   -0.73 KCAL/MOL
REMARK 927      BINDING AFFINITY PREDICTED BY RF-SCORE:    0.00 PKD
ROOT
HETATM    1  C   UNL     1     -10.203  20.086  68.705  1.00  0.00    -0.443 C  
HETATM    2  C   UNL     1      -9.030  19.217  68.260  1.00  0.00    -0.335 C  
ENDROOT
BRANCH   2   3
HETATM    3  N   UNL     1      -9.374  18.073  67.383  1.00  0.00    -0.252 NA 
BRANCH   3   4
HETATM    4  C   UNL     1      -8.236  17.124  67.290  1.00  0.00    -0.187 C  
BRANCH   4   5
HETATM    5  C   UNL     1      -8.291  16.125  66.119  1.00  0.00    -0.187 C  
HETATM    6  H   UNL     1      -8.466  14.176  65.884  1.00  0.00     0.000 HD 
HETATM    7  O   UNL     1      -8.432  14.791  66.607  1.00  0.00    -0.199 OA 
ENDBRANCH   4   5
ENDBRANCH   3   4
BRANCH   3   8
HETATM    8  C   UNL     1     -10.582  17.395  67.911  1.00  0.00    -0.383 C  
BRANCH   8   9
HETATM    9  C   UNL     1     -10.395  16.658  69.255  1.00  0.00    -0.318 C  
BRANCH   9  10
HETATM   10  C   UNL     1     -10.366  15.122  69.164  1.00  0.00    -0.249 C  
BRANCH  10  11
HETATM   11  C   UNL     1     -11.707  14.446  69.508  1.00  0.00    -0.313 C  
HETATM   12  C   UNL     1     -12.482  15.220  70.578  1.00  0.00    -0.454 C  
BRANCH  11  13
HETATM   13  N   UNL     1     -12.547  14.330  68.295  1.00  0.00    -0.317 NA 
HETATM   14  H   UNL     1     -13.543  14.549  68.316  1.00  0.00     0.000 HD 
BRANCH  13  15
HETATM   15  C   UNL     1     -11.908  13.901  67.098  1.00  0.00    -0.412 A  
HETATM   16  C   UNL     1     -11.440  12.565  66.972  1.00  0.00    -0.419 A  
HETATM   17  C   UNL     1     -11.518  11.598  68.004  1.00  0.00    -0.385 A  
HETATM   18  C   UNL     1     -11.027  10.303  67.818  1.00  0.00    -0.360 A  
HETATM   19  C   UNL     1     -10.440   9.965  66.605  1.00  0.00    -0.169 A  
HETATM   20  C   UNL     1     -10.352  10.903  65.581  1.00  0.00    -0.305 A  
HETATM   21 CL   UNL     1      -9.821   8.378  66.362  1.00  0.00    -0.328 Cl 
HETATM   22  C   UNL     1     -10.847  12.183  65.741  1.00  0.00    -0.281 A  
HETATM   23  N   UNL     1     -10.746  13.010  64.691  1.00  0.00    -0.345 NA 
HETATM   24  C   UNL     1     -11.261  14.247  64.814  1.00  0.00    -0.385 A  
HETATM   25  C   UNL     1     -11.862  14.714  65.966  1.00  0.00    -0.280 A  
ENDBRANCH  13  15
ENDBRANCH  11  13
ENDBRANCH  10  11
ENDBRANCH   9  10
ENDBRANCH   8   9
ENDBRANCH   3   8
ENDBRANCH   2   3
TORSDOF 9
ENDMDL
MODEL       99
REMARK 921   NORMALIZED FREE ENERGY PREDICTED BY IDOCK:   -4.44 KCAL/MOL
REMARK 922        TOTAL FREE ENERGY PREDICTED BY IDOCK:   -8.00 KCAL/MOL
REMARK 923 INTER-LIGAND FREE ENERGY PREDICTED BY IDOCK:   -7.52 KCAL/MOL
REMARK 924 INTRA-LIGAND FREE ENERGY PREDICTED BY IDOCK:   -0.48 KCAL/MOL
REMARK 927      BINDING AFFINITY PREDICTED BY RF-SCORE:    0.00 PKD
ROOT
HETATM    1  C   UNL     1     -13.208   9.124  72.236  1.00  0.00    -0.528 C  
HETATM    2  C   UNL     1     -11.739   8.724  72.139  1.00  0.00    -0.363 C  
ENDROOT
BRANCH   2   3
HETATM    3  N   UNL     1     -10.901   9.563  71.249  1.00  0.00    -0.353 NA 
BRANCH   3   4
HETATM    4  C   UNL     1     -10.104   8.714  70.328  1.00  0.00    -0.187 C  
BRANCH   4   5
HETATM    5  C   UNL     1     -10.540   7.240  70.230  1.00  0.00    -0.229 C  
HETATM    6  H   UNL     1     -10.879   5.920  68.805  1.00  0.00     0.000 HD 
HETATM    7  O   UNL     1     -10.610   6.829  68.865  1.00  0.00    -0.201 OA 
ENDBRANCH   4   5
ENDBRANCH   3   4
BRANCH   3   8
HETATM    8  C   UNL     1     -11.772  10.491  70.488  1.00  0.00    -0.350 C  
BRANCH   8   9
HETATM    9  C   UNL     1     -11.064  11.317  69.392  1.00  0.00    -0.316 C  
BRANCH   9  10
HETATM   10  C   UNL     1     -11.517  11.023  67.951  1.00  0.00    -0.358 C  
BRANCH  10  11
HETATM   11  C   UNL     1     -11.080  12.087  66.925  1.00  0.00    -0.302 C  
HETATM   12  C   UNL     1     -10.611  11.458  65.610  1.00  0.00    -0.314 C  
BRANCH  11  13
HETATM   13  N   UNL     1     -12.199  13.014  66.643  1.00  0.00    -0.407 NA 
HETATM   14  H   UNL     1     -13.153  12.797  66.930  1.00  0.00     0.000 HD 
BRANCH  13  15
HETATM   15  C   UNL     1     -11.889  14.221  65.956  1.00  0.00    -0.391 A  
HETATM   16  C   UNL     1     -11.049  15.197  66.560  1.00  0.00    -0.305 A  
HETATM   17  C   UNL     1     -10.513  15.080  67.865  1.00  0.00    -0.247 A  
HETATM   18  C   UNL     1      -9.702  16.083  68.404  1.00  0.00    -0.213 A  
HETATM   19  C   UNL     1      -9.432  17.218  67.650  1.00  0.00    -0.246 A  
HETATM   20  C   UNL     1      -9.953  17.351  66.367  1.00  0.00    -0.322 A  
HETATM   21 CL   UNL     1      -8.444  18.468  68.302  1.00  0.00    -0.329 Cl 
HETATM   22  C   UNL     1     -10.742  16.362  65.811  1.00  0.00    -0.238 A  
HETATM   23  N   UNL     1     -11.175  16.561  64.559  1.00  0.00    -0.881 NA 
HETATM   24  C   UNL     1     -11.910  15.590  63.986  1.00  0.00     0.044 A  
HETATM   25  C   UNL     1     -12.259  14.418  64.626  1.00  0.00    -0.479 A  
ENDBRANCH  13  15
ENDBRANCH  11  13
ENDBRANCH  10  11
ENDBRANCH   9  10
ENDBRANCH   8   9
ENDBRANCH   3   8
ENDBRANCH   2   3
TORSDOF 9
ENDMDL
MODEL      100
REMARK 921   NORMALIZED FREE ENERGY PREDICTED BY IDOCK:   -4.43 KCAL/MOL
REMARK 922        TOTAL FREE ENERGY PREDICTED BY IDOCK:   -7.99 KCAL/MOL
REMARK 923 INTER-LIGAND FREE ENERGY PREDICTED BY IDOCK:   -7.48 KCAL/MOL
REMARK 924 INTRA-LIGAND FREE ENERGY PREDICTED BY IDOCK:   -0.50 KCAL/MOL
REMARK 927      BINDING AFFINITY PREDICTED BY RF-SCORE:    0.00 PKD
ROOT
HETATM    1  C   UNL     1      -7.127   8.221  74.134  1.00  0.00    -0.200 C  
HETATM    2  C   UNL     1      -8.583   7.820  73.917  1.00  0.00    -0.259 C  
ENDROOT
BRANCH   2   3
HETATM    3  N   UNL     1      -8.936   7.399  72.540  1.00  0.00    -0.129 NA 
BRANCH   3   4
HETATM    4  C   UNL     1     -10.188   6.602  72.541  1.00  0.00    -0.182 C  
BRANCH   4   5
HETATM    5  C   UNL     1     -10.412   5.710  73.777  1.00  0.00    -0.270 C  
HETATM    6  H   UNL     1     -11.546   4.174  74.269  1.00  0.00     0.000 HD 
HETATM    7  O   UNL     1     -11.408   4.724  73.507  1.00  0.00    -0.332 OA 
ENDBRANCH   4   5
ENDBRANCH   3   4
BRANCH   3   8
HETATM    8  C   UNL     1      -9.077   8.600  71.682  1.00  0.00    -0.247 C  
BRANCH   8   9
HETATM    9  C   UNL     1     -10.504   9.184  71.587  1.00  0.00    -0.403 C  
BRANCH   9  10
HETATM   10  C   UNL     1     -10.826   9.923  70.277  1.00  0.00    -0.367 C  
BRANCH  10  11
HETATM   11  C   UNL     1     -12.142  10.725  70.315  1.00  0.00    -0.348 C  
HETATM   12  C   UNL     1     -12.983  10.390  71.549  1.00  0.00    -0.562 C  
BRANCH  11  13
HETATM   13  N   UNL     1     -11.855  12.177  70.307  1.00  0.00    -0.515 NA 
HETATM   14  H   UNL     1     -11.721  12.696  71.175  1.00  0.00     0.000 HD 
BRANCH  13  15
HETATM   15  C   UNL     1     -11.773  12.819  69.040  1.00  0.00    -0.323 A  
HETATM   16  C   UNL     1     -11.417  14.192  68.951  1.00  0.00    -0.327 A  
HETATM   17  C   UNL     1     -11.174  15.021  70.073  1.00  0.00    -0.301 A  
HETATM   18  C   UNL     1     -10.839  16.368  69.915  1.00  0.00    -0.333 A  
HETATM   19  C   UNL     1     -10.759  16.905  68.637  1.00  0.00    -0.345 A  
HETATM   20  C   UNL     1     -10.997  16.106  67.522  1.00  0.00    -0.238 A  
HETATM   21 CL   UNL     1     -10.357  18.565  68.424  1.00  0.00    -0.389 Cl 
HETATM   22  C   UNL     1     -11.313  14.768  67.658  1.00  0.00    -0.339 A  
HETATM   23  N   UNL     1     -11.498  14.069  66.530  1.00  0.00    -0.342 NA 
HETATM   24  C   UNL     1     -11.764  12.755  66.641  1.00  0.00    -0.393 A  
HETATM   25  C   UNL     1     -11.881  12.099  67.851  1.00  0.00    -0.338 A  
ENDBRANCH  13  15
ENDBRANCH  11  13
ENDBRANCH  10  11
ENDBRANCH   9  10
ENDBRANCH   8   9
ENDBRANCH   3   8
ENDBRANCH   2   3
TORSDOF 9
ENDMDL
MODEL      101
REMARK 921   NORMALIZED FREE ENERGY PREDICTED BY IDOCK:   -4.42 KCAL/MOL
REMARK 922        TOTAL FREE ENERGY PREDICTED BY IDOCK:   -7.98 KCAL/MOL
REMARK 923 INTER-LIGAND FREE ENERGY PREDICTED BY IDOCK:   -6.99 KCAL/MOL
REMARK 924 INTRA-LIGAND FREE ENERGY PREDICTED BY IDOCK:   -0.99 KCAL/MOL
REMARK 927      BINDING AFFINITY PREDICTED BY RF-SCORE:    0.00 PKD
ROOT
HETATM    1  C   UNL     1     -12.502  15.779  71.668  1.00  0.00    -0.525 C  
HETATM    2  C   UNL     1     -11.818  14.918  70.611  1.00  0.00    -0.301 C  
ENDROOT
BRANCH   2   3
HETATM    3  N   UNL     1     -11.700  15.526  69.264  1.00  0.00    -0.345 NA 
BRANCH   3   4
HETATM    4  C   UNL     1     -10.289  15.883  68.972  1.00  0.00    -0.231 C  
BRANCH   4   5
HETATM    5  C   UNL     1      -9.997  17.388  68.818  1.00  0.00    -0.329 C  
HETATM    6  H   UNL     1     -10.602  18.870  67.668  1.00  0.00     0.000 HD 
HETATM    7  O   UNL     1     -10.782  17.942  67.762  1.00  0.00    -0.400 OA 
ENDBRANCH   4   5
ENDBRANCH   3   4
BRANCH   3   8
HETATM    8  C   UNL     1     -12.224  14.579  68.251  1.00  0.00    -0.091 C  
BRANCH   8   9
HETATM    9  C   UNL     1     -11.172  13.995  67.282  1.00  0.00    -0.328 C  
BRANCH   9  10
HETATM   10  C   UNL     1     -11.597  12.713  66.545  1.00  0.00    -0.441 C  
BRANCH  10  11
HETATM   11  C   UNL     1     -10.683  11.501  66.812  1.00  0.00    -0.270 C  
HETATM   12  C   UNL     1      -9.812  11.160  65.600  1.00  0.00    -0.280 C  
BRANCH  11  13
HETATM   13  N   UNL     1      -9.806  11.770  67.975  1.00  0.00    -0.178 NA 
HETATM   14  H   UNL     1      -9.340  12.670  68.091  1.00  0.00     0.000 HD 
BRANCH  13  15
HETATM   15  C   UNL     1      -9.641  10.722  68.923  1.00  0.00    -0.195 A  
HETATM   16  C   UNL     1     -10.706  10.365  69.793  1.00  0.00    -0.325 A  
HETATM   17  C   UNL     1     -11.957  11.028  69.827  1.00  0.00    -0.428 A  
HETATM   18  C   UNL     1     -12.959  10.633  70.717  1.00  0.00    -0.396 A  
HETATM   19  C   UNL     1     -12.717   9.582  71.592  1.00  0.00    -0.388 A  
HETATM   20  C   UNL     1     -11.493   8.920  71.575  1.00  0.00    -0.391 A  
HETATM   21 CL   UNL     1     -13.936   9.088  72.702  1.00  0.00    -0.466 Cl 
HETATM   22  C   UNL     1     -10.496   9.286  70.690  1.00  0.00    -0.262 A  
HETATM   23  N   UNL     1      -9.361   8.573  70.724  1.00  0.00    -0.161 NA 
HETATM   24  C   UNL     1      -8.396   8.888  69.841  1.00  0.00    -0.128 A  
HETATM   25  C   UNL     1      -8.503   9.915  68.925  1.00  0.00    -0.127 A  
ENDBRANCH  13  15
ENDBRANCH  11  13
ENDBRANCH  10  11
ENDBRANCH   9  10
ENDBRANCH   8   9
ENDBRANCH   3   8
ENDBRANCH   2   3
TORSDOF 9
ENDMDL
MODEL      102
REMARK 921   NORMALIZED FREE ENERGY PREDICTED BY IDOCK:   -4.41 KCAL/MOL
REMARK 922        TOTAL FREE ENERGY PREDICTED BY IDOCK:   -7.96 KCAL/MOL
REMARK 923 INTER-LIGAND FREE ENERGY PREDICTED BY IDOCK:   -7.27 KCAL/MOL
REMARK 924 INTRA-LIGAND FREE ENERGY PREDICTED BY IDOCK:   -0.69 KCAL/MOL
REMARK 927      BINDING AFFINITY PREDICTED BY RF-SCORE:    0.00 PKD
ROOT
HETATM    1  C   UNL     1     -11.887   9.757  71.358  1.00  0.00    -0.488 C  
HETATM    2  C   UNL     1     -10.878   9.143  70.392  1.00  0.00    -0.242 C  
ENDROOT
BRANCH   2   3
HETATM    3  N   UNL     1      -9.492   9.018  70.904  1.00  0.00    -0.244 NA 
BRANCH   3   4
HETATM    4  C   UNL     1      -9.249   7.649  71.426  1.00  0.00    -0.136 C  
BRANCH   4   5
HETATM    5  C   UNL     1      -9.103   7.533  72.955  1.00  0.00    -0.163 C  
HETATM    6  H   UNL     1     -10.294   7.501  74.526  1.00  0.00     0.000 HD 
HETATM    7  O   UNL     1     -10.384   7.573  73.583  1.00  0.00    -0.344 OA 
ENDBRANCH   4   5
ENDBRANCH   3   4
BRANCH   3   8
HETATM    8  C   UNL     1      -8.537   9.345  69.817  1.00  0.00    -0.175 C  
BRANCH   8   9
HETATM    9  C   UNL     1      -9.012  10.423  68.819  1.00  0.00    -0.157 C  
BRANCH   9  10
HETATM   10  C   UNL     1      -8.895  10.040  67.333  1.00  0.00    -0.132 C  
BRANCH  10  11
HETATM   11  C   UNL     1     -10.093  10.487  66.473  1.00  0.00    -0.225 C  
HETATM   12  C   UNL     1     -11.146  11.233  67.298  1.00  0.00    -0.367 C  
BRANCH  11  13
HETATM   13  N   UNL     1      -9.633  11.365  65.373  1.00  0.00    -0.225 NA 
HETATM   14  H   UNL     1      -8.689  11.290  64.995  1.00  0.00     0.000 HD 
BRANCH  13  15
HETATM   15  C   UNL     1     -10.561  12.316  64.865  1.00  0.00    -0.293 A  
HETATM   16  C   UNL     1     -10.426  13.695  65.184  1.00  0.00    -0.388 A  
HETATM   17  C   UNL     1      -9.426  14.214  66.042  1.00  0.00    -0.189 A  
HETATM   18  C   UNL     1      -9.356  15.581  66.323  1.00  0.00    -0.355 A  
HETATM   19  C   UNL     1     -10.291  16.440  65.762  1.00  0.00    -0.369 A  
HETATM   20  C   UNL     1     -11.283  15.948  64.919  1.00  0.00    -0.345 A  
HETATM   21 CL   UNL     1     -10.226  18.126  66.106  1.00  0.00    -0.385 Cl 
HETATM   22  C   UNL     1     -11.358  14.601  64.616  1.00  0.00    -0.369 A  
HETATM   23  N   UNL     1     -12.326  14.221  63.772  1.00  0.00    -0.759 NA 
HETATM   24  C   UNL     1     -12.388  12.921  63.432  1.00  0.00    -0.410 A  
HETATM   25  C   UNL     1     -11.527  11.960  63.924  1.00  0.00    -0.511 A  
ENDBRANCH  13  15
ENDBRANCH  11  13
ENDBRANCH  10  11
ENDBRANCH   9  10
ENDBRANCH   8   9
ENDBRANCH   3   8
ENDBRANCH   2   3
TORSDOF 9
ENDMDL
MODEL      103
REMARK 921   NORMALIZED FREE ENERGY PREDICTED BY IDOCK:   -4.41 KCAL/MOL
REMARK 922        TOTAL FREE ENERGY PREDICTED BY IDOCK:   -7.95 KCAL/MOL
REMARK 923 INTER-LIGAND FREE ENERGY PREDICTED BY IDOCK:   -6.81 KCAL/MOL
REMARK 924 INTRA-LIGAND FREE ENERGY PREDICTED BY IDOCK:   -1.14 KCAL/MOL
REMARK 927      BINDING AFFINITY PREDICTED BY RF-SCORE:    0.00 PKD
ROOT
HETATM    1  C   UNL     1     -12.414  12.694  64.688  1.00  0.00    -0.538 C  
HETATM    2  C   UNL     1     -11.362  12.343  65.736  1.00  0.00    -0.352 C  
ENDROOT
BRANCH   2   3
HETATM    3  N   UNL     1      -9.953  12.411  65.281  1.00  0.00    -0.248 NA 
BRANCH   3   4
HETATM    4  C   UNL     1      -9.176  13.353  66.126  1.00  0.00     0.029 C  
BRANCH   4   5
HETATM    5  C   UNL     1      -8.438  12.723  67.323  1.00  0.00    -0.194 C  
HETATM    6  H   UNL     1      -7.708  13.323  69.054  1.00  0.00     0.000 HD 
HETATM    7  O   UNL     1      -8.163  13.711  68.316  1.00  0.00    -0.145 OA 
ENDBRANCH   4   5
ENDBRANCH   3   4
BRANCH   3   8
HETATM    8  C   UNL     1      -9.358  11.054  65.321  1.00  0.00    -0.216 C  
BRANCH   8   9
HETATM    9  C   UNL     1     -10.261   9.951  65.917  1.00  0.00    -0.264 C  
BRANCH   9  10
HETATM   10  C   UNL     1      -9.527   8.862  66.719  1.00  0.00    -0.243 C  
BRANCH  10  11
HETATM   11  C   UNL     1      -9.577   9.065  68.246  1.00  0.00    -0.145 C  
HETATM   12  C   UNL     1      -8.189   9.321  68.838  1.00  0.00    -0.111 C  
BRANCH  11  13
HETATM   13  N   UNL     1     -10.461  10.204  68.581  1.00  0.00    -0.192 NA 
HETATM   14  H   UNL     1     -10.511  11.030  67.985  1.00  0.00     0.000 HD 
BRANCH  13  15
HETATM   15  C   UNL     1     -11.239  10.099  69.768  1.00  0.00    -0.272 A  
HETATM   16  C   UNL     1     -11.876  11.246  70.314  1.00  0.00    -0.446 A  
HETATM   17  C   UNL     1     -11.755  12.551  69.775  1.00  0.00    -0.355 A  
HETATM   18  C   UNL     1     -12.401  13.639  70.368  1.00  0.00    -0.415 A  
HETATM   19  C   UNL     1     -13.160  13.438  71.514  1.00  0.00    -0.342 A  
HETATM   20  C   UNL     1     -13.288  12.164  72.059  1.00  0.00    -0.470 A  
HETATM   21 CL   UNL     1     -13.953  14.769  72.264  1.00  0.00    -0.559 Cl 
HETATM   22  C   UNL     1     -12.671  11.073  71.476  1.00  0.00    -0.415 A  
HETATM   23  N   UNL     1     -12.873   9.880  72.052  1.00  0.00    -0.407 NA 
HETATM   24  C   UNL     1     -12.316   8.801  71.474  1.00  0.00    -0.328 A  
HETATM   25  C   UNL     1     -11.530   8.862  70.340  1.00  0.00    -0.182 A  
ENDBRANCH  13  15
ENDBRANCH  11  13
ENDBRANCH  10  11
ENDBRANCH   9  10
ENDBRANCH   8   9
ENDBRANCH   3   8
ENDBRANCH   2   3
TORSDOF 9
ENDMDL
MODEL      104
REMARK 921   NORMALIZED FREE ENERGY PREDICTED BY IDOCK:   -4.39 KCAL/MOL
REMARK 922        TOTAL FREE ENERGY PREDICTED BY IDOCK:   -7.93 KCAL/MOL
REMARK 923 INTER-LIGAND FREE ENERGY PREDICTED BY IDOCK:   -6.80 KCAL/MOL
REMARK 924 INTRA-LIGAND FREE ENERGY PREDICTED BY IDOCK:   -1.12 KCAL/MOL
REMARK 927      BINDING AFFINITY PREDICTED BY RF-SCORE:    0.00 PKD
ROOT
HETATM    1  C   UNL     1      -7.660  14.669  67.871  1.00  0.00    -0.151 C  
HETATM    2  C   UNL     1      -7.200  15.362  69.150  1.00  0.00    -0.171 C  
ENDROOT
BRANCH   2   3
HETATM    3  N   UNL     1      -7.421  16.827  69.203  1.00  0.00    -0.229 NA 
BRANCH   3   4
HETATM    4  C   UNL     1      -6.129  17.555  69.118  1.00  0.00    -0.218 C  
BRANCH   4   5
HETATM    5  C   UNL     1      -6.232  19.073  68.880  1.00  0.00    -0.247 C  
HETATM    6  H   UNL     1      -6.837  20.659  69.884  1.00  0.00     0.000 HD 
HETATM    7  O   UNL     1      -6.774  19.723  70.030  1.00  0.00    -0.307 OA 
ENDBRANCH   4   5
ENDBRANCH   3   4
BRANCH   3   8
HETATM    8  C   UNL     1      -8.324  17.227  68.096  1.00  0.00    -0.233 C  
BRANCH   8   9
HETATM    9  C   UNL     1      -9.688  17.806  68.530  1.00  0.00    -0.343 C  
BRANCH   9  10
HETATM   10  C   UNL     1     -10.921  17.069  67.977  1.00  0.00    -0.252 C  
BRANCH  10  11
HETATM   11  C   UNL     1     -11.119  15.654  68.554  1.00  0.00    -0.322 C  
HETATM   12  C   UNL     1     -11.452  15.685  70.048  1.00  0.00    -0.352 C  
BRANCH  11  13
HETATM   13  N   UNL     1     -12.206  14.955  67.833  1.00  0.00    -0.529 NA 
HETATM   14  H   UNL     1     -13.182  15.069  68.105  1.00  0.00     0.000 HD 
BRANCH  13  15
HETATM   15  C   UNL     1     -11.833  14.118  66.744  1.00  0.00    -0.425 A  
HETATM   16  C   UNL     1     -11.502  12.754  66.966  1.00  0.00    -0.397 A  
HETATM   17  C   UNL     1     -11.465  12.147  68.245  1.00  0.00    -0.360 A  
HETATM   18  C   UNL     1     -11.119  10.801  68.394  1.00  0.00    -0.323 A  
HETATM   19  C   UNL     1     -10.793  10.053  67.270  1.00  0.00    -0.217 A  
HETATM   20  C   UNL     1     -10.822  10.634  66.006  1.00  0.00    -0.051 A  
HETATM   21 CL   UNL     1     -10.355   8.397  67.437  1.00  0.00    -0.331 Cl 
HETATM   22  C   UNL     1     -11.178  11.959  65.837  1.00  0.00    -0.322 A  
HETATM   23  N   UNL     1     -11.206  12.425  64.581  1.00  0.00    -0.300 NA 
HETATM   24  C   UNL     1     -11.592  13.700  64.394  1.00  0.00    -0.393 A  
HETATM   25  C   UNL     1     -11.933  14.555  65.423  1.00  0.00    -0.332 A  
ENDBRANCH  13  15
ENDBRANCH  11  13
ENDBRANCH  10  11
ENDBRANCH   9  10
ENDBRANCH   8   9
ENDBRANCH   3   8
ENDBRANCH   2   3
TORSDOF 9
ENDMDL
MODEL      105
REMARK 921   NORMALIZED FREE ENERGY PREDICTED BY IDOCK:   -4.37 KCAL/MOL
REMARK 922        TOTAL FREE ENERGY PREDICTED BY IDOCK:   -7.90 KCAL/MOL
REMARK 923 INTER-LIGAND FREE ENERGY PREDICTED BY IDOCK:   -6.81 KCAL/MOL
REMARK 924 INTRA-LIGAND FREE ENERGY PREDICTED BY IDOCK:   -1.09 KCAL/MOL
REMARK 927      BINDING AFFINITY PREDICTED BY RF-SCORE:    0.00 PKD
ROOT
HETATM    1  C   UNL     1     -10.963   6.220  67.322  1.00  0.00    -0.455 C  
HETATM    2  C   UNL     1     -10.965   6.407  68.836  1.00  0.00    -0.346 C  
ENDROOT
BRANCH   2   3
HETATM    3  N   UNL     1      -9.637   6.349  69.492  1.00  0.00    -0.144 NA 
BRANCH   3   4
HETATM    4  C   UNL     1      -8.574   6.810  68.564  1.00  0.00    -0.125 C  
BRANCH   4   5
HETATM    5  C   UNL     1      -7.438   7.631  69.203  1.00  0.00    -0.095 C  
HETATM    6  H   UNL     1      -6.590   9.390  68.929  1.00  0.00     0.000 HD 
HETATM    7  O   UNL     1      -7.290   8.884  68.535  1.00  0.00    -0.078 OA 
ENDBRANCH   4   5
ENDBRANCH   3   4
BRANCH   3   8
HETATM    8  C   UNL     1      -9.659   7.179  70.721  1.00  0.00    -0.168 C  
BRANCH   8   9
HETATM    9  C   UNL     1     -11.017   7.837  71.052  1.00  0.00    -0.260 C  
BRANCH   9  10
HETATM   10  C   UNL     1     -10.950   9.324  71.441  1.00  0.00    -0.429 C  
BRANCH  10  11
HETATM   11  C   UNL     1     -11.989  10.209  70.725  1.00  0.00    -0.348 C  
HETATM   12  C   UNL     1     -13.043  10.755  71.693  1.00  0.00    -0.551 C  
BRANCH  11  13
HETATM   13  N   UNL     1     -11.318  11.344  70.053  1.00  0.00    -0.474 NA 
HETATM   14  H   UNL     1     -11.069  12.191  70.564  1.00  0.00     0.000 HD 
BRANCH  13  15
HETATM   15  C   UNL     1     -11.035  11.206  68.665  1.00  0.00    -0.220 A  
HETATM   16  C   UNL     1     -11.064  12.340  67.809  1.00  0.00    -0.304 A  
HETATM   17  C   UNL     1     -11.414  13.645  68.235  1.00  0.00    -0.348 A  
HETATM   18  C   UNL     1     -11.434  14.715  67.337  1.00  0.00    -0.384 A  
HETATM   19  C   UNL     1     -11.119  14.491  66.003  1.00  0.00    -0.329 A  
HETATM   20  C   UNL     1     -10.776  13.216  65.566  1.00  0.00    -0.297 A  
HETATM   21 CL   UNL     1     -11.149  15.797  64.882  1.00  0.00    -0.435 Cl 
HETATM   22  C   UNL     1     -10.735  12.148  66.443  1.00  0.00    -0.257 A  
HETATM   23  N   UNL     1     -10.365  10.962  65.940  1.00  0.00    -0.257 NA 
HETATM   24  C   UNL     1     -10.278   9.921  66.787  1.00  0.00    -0.236 A  
HETATM   25  C   UNL     1     -10.571  10.004  68.133  1.00  0.00    -0.268 A  
ENDBRANCH  13  15
ENDBRANCH  11  13
ENDBRANCH  10  11
ENDBRANCH   9  10
ENDBRANCH   8   9
ENDBRANCH   3   8
ENDBRANCH   2   3
TORSDOF 9
ENDMDL
MODEL      106
REMARK 921   NORMALIZED FREE ENERGY PREDICTED BY IDOCK:   -4.36 KCAL/MOL
REMARK 922        TOTAL FREE ENERGY PREDICTED BY IDOCK:   -7.88 KCAL/MOL
REMARK 923 INTER-LIGAND FREE ENERGY PREDICTED BY IDOCK:   -6.83 KCAL/MOL
REMARK 924 INTRA-LIGAND FREE ENERGY PREDICTED BY IDOCK:   -1.05 KCAL/MOL
REMARK 927      BINDING AFFINITY PREDICTED BY RF-SCORE:    0.00 PKD
ROOT
HETATM    1  C   UNL     1      -8.294  11.093  67.833  1.00  0.00    -0.129 C  
HETATM    2  C   UNL     1      -7.953  10.095  66.730  1.00  0.00    -0.115 C  
ENDROOT
BRANCH   2   3
HETATM    3  N   UNL     1      -8.373  10.481  65.362  1.00  0.00    -0.166 NA 
BRANCH   3   4
HETATM    4  C   UNL     1      -7.478   9.868  64.347  1.00  0.00    -0.137 C  
BRANCH   4   5
HETATM    5  C   UNL     1      -5.975  10.155  64.521  1.00  0.00    -0.130 C  
HETATM    6  H   UNL     1      -4.346  10.073  63.412  1.00  0.00     0.000 HD 
HETATM    7  O   UNL     1      -5.273   9.895  63.305  1.00  0.00    -0.076 OA 
ENDBRANCH   4   5
ENDBRANCH   3   4
BRANCH   3   8
HETATM    8  C   UNL     1      -9.779  10.064  65.144  1.00  0.00    -0.311 C  
BRANCH   8   9
HETATM    9  C   UNL     1     -10.813  11.211  65.111  1.00  0.00    -0.229 C  
BRANCH   9  10
HETATM   10  C   UNL     1     -10.676  12.185  63.928  1.00  0.00    -0.456 C  
BRANCH  10  11
HETATM   11  C   UNL     1     -10.677  13.672  64.335  1.00  0.00    -0.354 C  
HETATM   12  C   UNL     1     -12.092  14.196  64.593  1.00  0.00    -0.469 C  
BRANCH  11  13
HETATM   13  N   UNL     1      -9.860  13.867  65.554  1.00  0.00    -0.515 NA 
HETATM   14  H   UNL     1      -9.088  13.241  65.781  1.00  0.00     0.000 HD 
BRANCH  13  15
HETATM   15  C   UNL     1     -10.197  14.965  66.396  1.00  0.00    -0.284 A  
HETATM   16  C   UNL     1     -10.811  14.741  67.658  1.00  0.00    -0.285 A  
HETATM   17  C   UNL     1     -11.174  13.462  68.146  1.00  0.00    -0.304 A  
HETATM   18  C   UNL     1     -11.786  13.314  69.393  1.00  0.00    -0.386 A  
HETATM   19  C   UNL     1     -12.055  14.441  70.158  1.00  0.00    -0.335 A  
HETATM   20  C   UNL     1     -11.708  15.706  69.693  1.00  0.00    -0.373 A  
HETATM   21 CL   UNL     1     -12.818  14.278  71.693  1.00  0.00    -0.404 Cl 
HETATM   22  C   UNL     1     -11.086  15.871  68.470  1.00  0.00    -0.340 A  
HETATM   23  N   UNL     1     -10.762  17.122  68.117  1.00  0.00    -0.375 NA 
HETATM   24  C   UNL     1     -10.118  17.298  66.949  1.00  0.00    -0.304 A  
HETATM   25  C   UNL     1      -9.799  16.265  66.089  1.00  0.00    -0.358 A  
ENDBRANCH  13  15
ENDBRANCH  11  13
ENDBRANCH  10  11
ENDBRANCH   9  10
ENDBRANCH   8   9
ENDBRANCH   3   8
ENDBRANCH   2   3
TORSDOF 9
ENDMDL
MODEL      107
REMARK 921   NORMALIZED FREE ENERGY PREDICTED BY IDOCK:   -4.36 KCAL/MOL
REMARK 922        TOTAL FREE ENERGY PREDICTED BY IDOCK:   -7.88 KCAL/MOL
REMARK 923 INTER-LIGAND FREE ENERGY PREDICTED BY IDOCK:   -6.72 KCAL/MOL
REMARK 924 INTRA-LIGAND FREE ENERGY PREDICTED BY IDOCK:   -1.16 KCAL/MOL
REMARK 927      BINDING AFFINITY PREDICTED BY RF-SCORE:    0.00 PKD
ROOT
HETATM    1  C   UNL     1      -7.654   8.976  69.514  1.00  0.00    -0.077 C  
HETATM    2  C   UNL     1      -7.737   7.918  70.611  1.00  0.00    -0.090 C  
ENDROOT
BRANCH   2   3
HETATM    3  N   UNL     1      -9.094   7.399  70.903  1.00  0.00    -0.153 NA 
BRANCH   3   4
HETATM    4  C   UNL     1      -9.286   7.232  72.366  1.00  0.00    -0.138 C  
BRANCH   4   5
HETATM    5  C   UNL     1      -8.042   7.485  73.237  1.00  0.00    -0.118 C  
HETATM    6  H   UNL     1      -7.474   8.782  74.610  1.00  0.00     0.000 HD 
HETATM    7  O   UNL     1      -8.241   8.626  74.073  1.00  0.00    -0.359 OA 
ENDBRANCH   4   5
ENDBRANCH   3   4
BRANCH   3   8
HETATM    8  C   UNL     1     -10.105   8.328  70.342  1.00  0.00    -0.190 C  
BRANCH   8   9
HETATM    9  C   UNL     1     -10.853   9.198  71.376  1.00  0.00    -0.419 C  
BRANCH   9  10
HETATM   10  C   UNL     1     -12.317   9.522  71.027  1.00  0.00    -0.363 C  
BRANCH  10  11
HETATM   11  C   UNL     1     -12.555  10.988  70.619  1.00  0.00    -0.338 C  
HETATM   12  C   UNL     1     -13.102  11.826  71.778  1.00  0.00    -0.480 C  
BRANCH  11  13
HETATM   13  N   UNL     1     -11.293  11.597  70.140  1.00  0.00    -0.500 NA 
HETATM   14  H   UNL     1     -10.416  11.463  70.642  1.00  0.00     0.000 HD 
BRANCH  13  15
HETATM   15  C   UNL     1     -11.355  12.375  68.950  1.00  0.00    -0.294 A  
HETATM   16  C   UNL     1     -10.964  11.815  67.703  1.00  0.00    -0.286 A  
HETATM   17  C   UNL     1     -10.450  10.504  67.551  1.00  0.00    -0.284 A  
HETATM   18  C   UNL     1     -10.074  10.019  66.296  1.00  0.00    -0.310 A  
HETATM   19  C   UNL     1     -10.192  10.843  65.184  1.00  0.00    -0.297 A  
HETATM   20  C   UNL     1     -10.692  12.135  65.315  1.00  0.00    -0.328 A  
HETATM   21 CL   UNL     1      -9.722  10.265  63.631  1.00  0.00    -0.337 Cl 
HETATM   22  C   UNL     1     -11.085  12.626  66.546  1.00  0.00    -0.280 A  
HETATM   23  N   UNL     1     -11.582  13.870  66.573  1.00  0.00    -0.352 NA 
HETATM   24  C   UNL     1     -12.010  14.349  67.755  1.00  0.00    -0.333 A  
HETATM   25  C   UNL     1     -11.941  13.640  68.938  1.00  0.00    -0.392 A  
ENDBRANCH  13  15
ENDBRANCH  11  13
ENDBRANCH  10  11
ENDBRANCH   9  10
ENDBRANCH   8   9
ENDBRANCH   3   8
ENDBRANCH   2   3
TORSDOF 9
ENDMDL
MODEL      108
REMARK 921   NORMALIZED FREE ENERGY PREDICTED BY IDOCK:   -4.34 KCAL/MOL
REMARK 922        TOTAL FREE ENERGY PREDICTED BY IDOCK:   -7.85 KCAL/MOL
REMARK 923 INTER-LIGAND FREE ENERGY PREDICTED BY IDOCK:   -6.92 KCAL/MOL
REMARK 924 INTRA-LIGAND FREE ENERGY PREDICTED BY IDOCK:   -0.93 KCAL/MOL
REMARK 927      BINDING AFFINITY PREDICTED BY RF-SCORE:    0.00 PKD
ROOT
HETATM    1  C   UNL     1      -5.922  17.651  66.097  1.00  0.00    -0.249 C  
HETATM    2  C   UNL     1      -6.471  16.698  67.154  1.00  0.00    -0.188 C  
ENDROOT
BRANCH   2   3
HETATM    3  N   UNL     1      -7.493  15.734  66.682  1.00  0.00    -0.120 NA 
BRANCH   3   4
HETATM    4  C   UNL     1      -7.538  14.543  67.567  1.00  0.00    -0.190 C  
BRANCH   4   5
HETATM    5  C   UNL     1      -6.187  14.097  68.157  1.00  0.00    -0.133 C  
HETATM    6  H   UNL     1      -4.738  12.849  67.677  1.00  0.00     0.000 HD 
HETATM    7  O   UNL     1      -5.571  13.124  67.313  1.00  0.00    -0.349 OA 
ENDBRANCH   4   5
ENDBRANCH   3   4
BRANCH   3   8
HETATM    8  C   UNL     1      -8.815  16.405  66.634  1.00  0.00    -0.249 C  
BRANCH   8   9
HETATM    9  C   UNL     1      -9.532  16.554  67.994  1.00  0.00    -0.222 C  
BRANCH   9  10
HETATM   10  C   UNL     1     -11.017  16.149  68.001  1.00  0.00    -0.338 C  
BRANCH  10  11
HETATM   11  C   UNL     1     -11.276  14.722  68.524  1.00  0.00    -0.276 C  
HETATM   12  C   UNL     1     -11.687  14.716  69.999  1.00  0.00    -0.348 C  
BRANCH  11  13
HETATM   13  N   UNL     1     -12.339  14.071  67.725  1.00  0.00    -0.498 NA 
HETATM   14  H   UNL     1     -13.261  13.885  68.121  1.00  0.00     0.000 HD 
BRANCH  13  15
HETATM   15  C   UNL     1     -12.023  13.716  66.384  1.00  0.00    -0.426 A  
HETATM   16  C   UNL     1     -11.314  12.517  66.105  1.00  0.00    -0.388 A  
HETATM   17  C   UNL     1     -10.833  11.632  67.102  1.00  0.00    -0.306 A  
HETATM   18  C   UNL     1     -10.132  10.473  66.759  1.00  0.00    -0.270 A  
HETATM   19  C   UNL     1      -9.890  10.194  65.420  1.00  0.00    -0.307 A  
HETATM   20  C   UNL     1     -10.352  11.054  64.428  1.00  0.00    -0.424 A  
HETATM   21 CL   UNL     1      -9.019   8.776  64.981  1.00  0.00    -0.167 Cl 
HETATM   22  C   UNL     1     -11.062  12.196  64.747  1.00  0.00    -0.316 A  
HETATM   23  N   UNL     1     -11.493  12.948  63.726  1.00  0.00    -0.443 NA 
HETATM   24  C   UNL     1     -12.223  14.041  64.015  1.00  0.00    -0.355 A  
HETATM   25  C   UNL     1     -12.528  14.438  65.302  1.00  0.00    -0.359 A  
ENDBRANCH  13  15
ENDBRANCH  11  13
ENDBRANCH  10  11
ENDBRANCH   9  10
ENDBRANCH   8   9
ENDBRANCH   3   8
ENDBRANCH   2   3
TORSDOF 9
ENDMDL
MODEL      109
REMARK 921   NORMALIZED FREE ENERGY PREDICTED BY IDOCK:   -4.33 KCAL/MOL
REMARK 922        TOTAL FREE ENERGY PREDICTED BY IDOCK:   -7.83 KCAL/MOL
REMARK 923 INTER-LIGAND FREE ENERGY PREDICTED BY IDOCK:   -6.72 KCAL/MOL
REMARK 924 INTRA-LIGAND FREE ENERGY PREDICTED BY IDOCK:   -1.11 KCAL/MOL
REMARK 927      BINDING AFFINITY PREDICTED BY RF-SCORE:    0.00 PKD
ROOT
HETATM    1  C   UNL     1      -7.959  10.114  66.847  1.00  0.00    -0.114 C  
HETATM    2  C   UNL     1      -8.446   9.534  65.522  1.00  0.00    -0.140 C  
ENDROOT
BRANCH   2   3
HETATM    3  N   UNL     1      -8.420  10.462  64.366  1.00  0.00    -0.174 NA 
BRANCH   3   4
HETATM    4  C   UNL     1      -7.449   9.997  63.344  1.00  0.00    -0.139 C  
BRANCH   4   5
HETATM    5  C   UNL     1      -6.830   8.609  63.592  1.00  0.00    -0.088 C  
HETATM    6  H   UNL     1      -6.556   6.942  62.575  1.00  0.00     0.000 HD 
HETATM    7  O   UNL     1      -6.938   7.798  62.422  1.00  0.00    -0.079 OA 
ENDBRANCH   4   5
ENDBRANCH   3   4
BRANCH   3   8
HETATM    8  C   UNL     1      -9.782  10.564  63.790  1.00  0.00    -0.326 C  
BRANCH   8   9
HETATM    9  C   UNL     1     -10.798  11.373  64.627  1.00  0.00    -0.359 C  
BRANCH   9  10
HETATM   10  C   UNL     1     -10.452  12.859  64.824  1.00  0.00    -0.371 C  
BRANCH  10  11
HETATM   11  C   UNL     1     -10.202  13.257  66.292  1.00  0.00    -0.296 C  
HETATM   12  C   UNL     1      -9.351  14.524  66.407  1.00  0.00    -0.300 C  
BRANCH  11  13
HETATM   13  N   UNL     1     -11.490  13.477  66.988  1.00  0.00    -0.324 NA 
HETATM   14  H   UNL     1     -12.197  14.107  66.608  1.00  0.00     0.000 HD 
BRANCH  13  15
HETATM   15  C   UNL     1     -11.702  12.775  68.207  1.00  0.00    -0.344 A  
HETATM   16  C   UNL     1     -12.023  13.482  69.398  1.00  0.00    -0.383 A  
HETATM   17  C   UNL     1     -12.105  14.893  69.482  1.00  0.00    -0.315 A  
HETATM   18  C   UNL     1     -12.415  15.526  70.689  1.00  0.00    -0.483 A  
HETATM   19  C   UNL     1     -12.630  14.757  71.826  1.00  0.00    -0.334 A  
HETATM   20  C   UNL     1     -12.550  13.369  71.762  1.00  0.00    -0.235 A  
HETATM   21 CL   UNL     1     -13.002  15.521  73.323  1.00  0.00    -0.594 Cl 
HETATM   22  C   UNL     1     -12.262  12.725  70.574  1.00  0.00    -0.307 A  
HETATM   23  N   UNL     1     -12.234  11.386  70.599  1.00  0.00    -0.381 NA 
HETATM   24  C   UNL     1     -11.998  10.740  69.443  1.00  0.00    -0.281 A  
HETATM   25  C   UNL     1     -11.758  11.382  68.244  1.00  0.00    -0.359 A  
ENDBRANCH  13  15
ENDBRANCH  11  13
ENDBRANCH  10  11
ENDBRANCH   9  10
ENDBRANCH   8   9
ENDBRANCH   3   8
ENDBRANCH   2   3
TORSDOF 9
ENDMDL
MODEL      110
REMARK 921   NORMALIZED FREE ENERGY PREDICTED BY IDOCK:   -4.32 KCAL/MOL
REMARK 922        TOTAL FREE ENERGY PREDICTED BY IDOCK:   -7.82 KCAL/MOL
REMARK 923 INTER-LIGAND FREE ENERGY PREDICTED BY IDOCK:   -6.80 KCAL/MOL
REMARK 924 INTRA-LIGAND FREE ENERGY PREDICTED BY IDOCK:   -1.03 KCAL/MOL
REMARK 927      BINDING AFFINITY PREDICTED BY RF-SCORE:    0.00 PKD
ROOT
HETATM    1  C   UNL     1     -13.095  10.055  71.192  1.00  0.00    -0.472 C  
HETATM    2  C   UNL     1     -12.032  11.144  71.078  1.00  0.00    -0.163 C  
ENDROOT
BRANCH   2   3
HETATM    3  N   UNL     1     -12.359  12.270  70.171  1.00  0.00    -0.193 NA 
BRANCH   3   4
HETATM    4  C   UNL     1     -12.533  13.528  70.939  1.00  0.00    -0.369 C  
BRANCH   4   5
HETATM    5  C   UNL     1     -13.055  13.366  72.380  1.00  0.00    -0.366 C  
HETATM    6  H   UNL     1     -14.730  13.706  73.361  1.00  0.00     0.000 HD 
HETATM    7  O   UNL     1     -14.409  13.807  72.473  1.00  0.00    -0.696 OA 
ENDBRANCH   4   5
ENDBRANCH   3   4
BRANCH   3   8
HETATM    8  C   UNL     1     -11.283  12.414  69.161  1.00  0.00    -0.236 C  
BRANCH   8   9
HETATM    9  C   UNL     1     -11.691  12.095  67.706  1.00  0.00    -0.390 C  
BRANCH   9  10
HETATM   10  C   UNL     1     -10.530  12.009  66.701  1.00  0.00    -0.247 C  
BRANCH  10  11
HETATM   11  C   UNL     1      -9.134  11.988  67.354  1.00  0.00    -0.178 C  
HETATM   12  C   UNL     1      -8.443  10.632  67.190  1.00  0.00    -0.128 C  
BRANCH  11  13
HETATM   13  N   UNL     1      -8.277  13.040  66.761  1.00  0.00    -0.408 NA 
HETATM   14  H   UNL     1      -7.852  12.922  65.841  1.00  0.00     0.000 HD 
BRANCH  13  15
HETATM   15  C   UNL     1      -8.071  14.222  67.527  1.00  0.00    -0.187 A  
HETATM   16  C   UNL     1      -8.688  15.443  67.145  1.00  0.00    -0.243 A  
HETATM   17  C   UNL     1      -9.488  15.597  65.986  1.00  0.00    -0.390 A  
HETATM   18  C   UNL     1     -10.058  16.831  65.662  1.00  0.00    -0.214 A  
HETATM   19  C   UNL     1      -9.822  17.927  66.483  1.00  0.00    -0.343 A  
HETATM   20  C   UNL     1      -9.036  17.795  67.624  1.00  0.00    -0.249 A  
HETATM   21 CL   UNL     1     -10.507  19.457  66.093  1.00  0.00    -0.578 Cl 
HETATM   22  C   UNL     1      -8.478  16.579  67.970  1.00  0.00    -0.186 A  
HETATM   23  N   UNL     1      -7.761  16.538  69.100  1.00  0.00    -0.233 NA 
HETATM   24  C   UNL     1      -7.246  15.353  69.475  1.00  0.00    -0.202 A  
HETATM   25  C   UNL     1      -7.397  14.189  68.747  1.00  0.00    -0.128 A  
ENDBRANCH  13  15
ENDBRANCH  11  13
ENDBRANCH  10  11
ENDBRANCH   9  10
ENDBRANCH   8   9
ENDBRANCH   3   8
ENDBRANCH   2   3
TORSDOF 9
ENDMDL
MODEL      111
REMARK 921   NORMALIZED FREE ENERGY PREDICTED BY IDOCK:   -4.32 KCAL/MOL
REMARK 922        TOTAL FREE ENERGY PREDICTED BY IDOCK:   -7.82 KCAL/MOL
REMARK 923 INTER-LIGAND FREE ENERGY PREDICTED BY IDOCK:   -6.93 KCAL/MOL
REMARK 924 INTRA-LIGAND FREE ENERGY PREDICTED BY IDOCK:   -0.89 KCAL/MOL
REMARK 927      BINDING AFFINITY PREDICTED BY RF-SCORE:    0.00 PKD
ROOT
HETATM    1  C   UNL     1      -9.398   6.919  67.305  1.00  0.00    -0.152 C  
HETATM    2  C   UNL     1     -10.671   7.490  67.923  1.00  0.00    -0.133 C  
ENDROOT
BRANCH   2   3
HETATM    3  N   UNL     1     -10.477   8.359  69.108  1.00  0.00    -0.220 NA 
BRANCH   3   4
HETATM    4  C   UNL     1     -10.123   7.548  70.300  1.00  0.00    -0.194 C  
BRANCH   4   5
HETATM    5  C   UNL     1     -11.065   7.693  71.510  1.00  0.00    -0.236 C  
HETATM    6  H   UNL     1     -11.291   8.927  73.031  1.00  0.00     0.000 HD 
HETATM    7  O   UNL     1     -10.710   8.838  72.285  1.00  0.00    -0.344 OA 
ENDBRANCH   4   5
ENDBRANCH   3   4
BRANCH   3   8
HETATM    8  C   UNL     1      -9.418   9.356  68.816  1.00  0.00    -0.150 C  
BRANCH   8   9
HETATM    9  C   UNL     1      -9.919  10.783  68.502  1.00  0.00    -0.186 C  
BRANCH   9  10
HETATM   10  C   UNL     1     -11.107  11.265  69.352  1.00  0.00    -0.316 C  
BRANCH  10  11
HETATM   11  C   UNL     1     -11.521  12.725  69.083  1.00  0.00    -0.306 C  
HETATM   12  C   UNL     1     -12.220  13.356  70.290  1.00  0.00    -0.405 C  
BRANCH  11  13
HETATM   13  N   UNL     1     -10.332  13.537  68.736  1.00  0.00    -0.361 NA 
HETATM   14  H   UNL     1      -9.521  13.579  69.353  1.00  0.00     0.000 HD 
BRANCH  13  15
HETATM   15  C   UNL     1     -10.369  14.256  67.509  1.00  0.00    -0.248 A  
HETATM   16  C   UNL     1     -10.282  15.674  67.503  1.00  0.00    -0.263 A  
HETATM   17  C   UNL     1     -10.209  16.467  68.674  1.00  0.00    -0.264 A  
HETATM   18  C   UNL     1     -10.137  17.861  68.598  1.00  0.00    -0.394 A  
HETATM   19  C   UNL     1     -10.154  18.476  67.353  1.00  0.00    -0.352 A  
HETATM   20  C   UNL     1     -10.229  17.713  66.192  1.00  0.00    -0.345 A  
HETATM   21 CL   UNL     1     -10.077  20.192  67.241  1.00  0.00    -0.569 Cl 
HETATM   22  C   UNL     1     -10.283  16.333  66.247  1.00  0.00    -0.327 A  
HETATM   23  N   UNL     1     -10.324  15.679  65.078  1.00  0.00    -0.460 NA 
HETATM   24  C   UNL     1     -10.334  14.335  65.111  1.00  0.00    -0.415 A  
HETATM   25  C   UNL     1     -10.329  13.598  66.280  1.00  0.00    -0.293 A  
ENDBRANCH  13  15
ENDBRANCH  11  13
ENDBRANCH  10  11
ENDBRANCH   9  10
ENDBRANCH   8   9
ENDBRANCH   3   8
ENDBRANCH   2   3
TORSDOF 9
ENDMDL
MODEL      112
REMARK 921   NORMALIZED FREE ENERGY PREDICTED BY IDOCK:   -4.32 KCAL/MOL
REMARK 922        TOTAL FREE ENERGY PREDICTED BY IDOCK:   -7.82 KCAL/MOL
REMARK 923 INTER-LIGAND FREE ENERGY PREDICTED BY IDOCK:   -6.75 KCAL/MOL
REMARK 924 INTRA-LIGAND FREE ENERGY PREDICTED BY IDOCK:   -1.07 KCAL/MOL
REMARK 927      BINDING AFFINITY PREDICTED BY RF-SCORE:    0.00 PKD
ROOT
HETATM    1  C   UNL     1     -10.737   6.314  66.820  1.00  0.00    -0.364 C  
HETATM    2  C   UNL     1     -10.694   7.526  67.746  1.00  0.00    -0.163 C  
ENDROOT
BRANCH   2   3
HETATM    3  N   UNL     1      -9.344   7.948  68.191  1.00  0.00    -0.142 NA 
BRANCH   3   4
HETATM    4  C   UNL     1      -8.764   8.930  67.241  1.00  0.00    -0.121 C  
BRANCH   4   5
HETATM    5  C   UNL     1      -7.760   8.361  66.221  1.00  0.00    -0.094 C  
HETATM    6  H   UNL     1      -6.338   6.995  66.194  1.00  0.00     0.000 HD 
HETATM    7  O   UNL     1      -6.957   7.346  66.823  1.00  0.00    -0.073 OA 
ENDBRANCH   4   5
ENDBRANCH   3   4
BRANCH   3   8
HETATM    8  C   UNL     1      -9.435   8.524  69.554  1.00  0.00    -0.165 C  
BRANCH   8   9
HETATM    9  C   UNL     1     -10.817   8.404  70.235  1.00  0.00    -0.244 C  
BRANCH   9  10
HETATM   10  C   UNL     1     -11.129   9.486  71.284  1.00  0.00    -0.449 C  
BRANCH  10  11
HETATM   11  C   UNL     1     -12.181  10.516  70.830  1.00  0.00    -0.369 C  
HETATM   12  C   UNL     1     -13.286  10.706  71.872  1.00  0.00    -0.528 C  
BRANCH  11  13
HETATM   13  N   UNL     1     -11.537  11.823  70.567  1.00  0.00    -0.446 NA 
HETATM   14  H   UNL     1     -11.123  12.371  71.321  1.00  0.00     0.000 HD 
BRANCH  13  15
HETATM   15  C   UNL     1     -11.518  12.282  69.220  1.00  0.00    -0.292 A  
HETATM   16  C   UNL     1     -11.316  13.659  68.932  1.00  0.00    -0.332 A  
HETATM   17  C   UNL     1     -11.174  14.662  69.922  1.00  0.00    -0.271 A  
HETATM   18  C   UNL     1     -10.989  16.001  69.570  1.00  0.00    -0.326 A  
HETATM   19  C   UNL     1     -10.959  16.354  68.227  1.00  0.00    -0.355 A  
HETATM   20  C   UNL     1     -11.100  15.383  67.241  1.00  0.00    -0.302 A  
HETATM   21 CL   UNL     1     -10.743  18.001  67.775  1.00  0.00    -0.404 Cl 
HETATM   22  C   UNL     1     -11.266  14.051  67.570  1.00  0.00    -0.309 A  
HETATM   23  N   UNL     1     -11.363  13.181  66.555  1.00  0.00    -0.303 NA 
HETATM   24  C   UNL     1     -11.483  11.876  66.856  1.00  0.00    -0.322 A  
HETATM   25  C   UNL     1     -11.536  11.391  68.147  1.00  0.00    -0.375 A  
ENDBRANCH  13  15
ENDBRANCH  11  13
ENDBRANCH  10  11
ENDBRANCH   9  10
ENDBRANCH   8   9
ENDBRANCH   3   8
ENDBRANCH   2   3
TORSDOF 9
ENDMDL
MODEL      113
REMARK 921   NORMALIZED FREE ENERGY PREDICTED BY IDOCK:   -4.31 KCAL/MOL
REMARK 922        TOTAL FREE ENERGY PREDICTED BY IDOCK:   -7.80 KCAL/MOL
REMARK 923 INTER-LIGAND FREE ENERGY PREDICTED BY IDOCK:   -7.41 KCAL/MOL
REMARK 924 INTRA-LIGAND FREE ENERGY PREDICTED BY IDOCK:   -0.39 KCAL/MOL
REMARK 927      BINDING AFFINITY PREDICTED BY RF-SCORE:    0.00 PKD
ROOT
HETATM    1  C   UNL     1     -13.040  10.387  70.969  1.00  0.00    -0.450 C  
HETATM    2  C   UNL     1     -12.136  11.555  70.584  1.00  0.00    -0.353 C  
ENDROOT
BRANCH   2   3
HETATM    3  N   UNL     1     -12.713  12.906  70.781  1.00  0.00    -0.207 NA 
BRANCH   3   4
HETATM    4  C   UNL     1     -12.918  13.183  72.225  1.00  0.00    -0.249 C  
BRANCH   4   5
HETATM    5  C   UNL     1     -13.692  14.474  72.555  1.00  0.00    -0.476 C  
HETATM    6  H   UNL     1     -13.433  16.069  73.685  1.00  0.00     0.000 HD 
HETATM    7  O   UNL     1     -12.957  15.273  73.481  1.00  0.00    -0.495 OA 
ENDBRANCH   4   5
ENDBRANCH   3   4
BRANCH   3   8
HETATM    8  C   UNL     1     -11.812  13.917  70.174  1.00  0.00    -0.298 C  
BRANCH   8   9
HETATM    9  C   UNL     1     -12.104  14.265  68.698  1.00  0.00    -0.295 C  
BRANCH   9  10
HETATM   10  C   UNL     1     -10.996  13.886  67.701  1.00  0.00    -0.278 C  
BRANCH  10  11
HETATM   11  C   UNL     1     -11.277  14.326  66.251  1.00  0.00    -0.337 C  
HETATM   12  C   UNL     1     -10.009  14.805  65.539  1.00  0.00    -0.390 C  
BRANCH  11  13
HETATM   13  N   UNL     1     -11.868  13.207  65.483  1.00  0.00    -0.358 NA 
HETATM   14  H   UNL     1     -12.875  13.136  65.340  1.00  0.00     0.000 HD 
BRANCH  13  15
HETATM   15  C   UNL     1     -10.973  12.235  64.953  1.00  0.00    -0.302 A  
HETATM   16  C   UNL     1     -10.646  11.074  65.704  1.00  0.00    -0.263 A  
HETATM   17  C   UNL     1     -11.121  10.818  67.013  1.00  0.00    -0.245 A  
HETATM   18  C   UNL     1     -10.751   9.660  67.701  1.00  0.00    -0.324 A  
HETATM   19  C   UNL     1      -9.890   8.754  67.095  1.00  0.00    -0.207 A  
HETATM   20  C   UNL     1      -9.411   8.990  65.810  1.00  0.00    -0.305 A  
HETATM   21 CL   UNL     1      -9.415   7.326  67.932  1.00  0.00    -0.137 Cl 
HETATM   22  C   UNL     1      -9.780  10.122  65.108  1.00  0.00    -0.304 A  
HETATM   23  N   UNL     1      -9.294  10.252  63.866  1.00  0.00    -0.271 NA 
HETATM   24  C   UNL     1      -9.676  11.326  63.152  1.00  0.00    -0.386 A  
HETATM   25  C   UNL     1     -10.518  12.307  63.637  1.00  0.00    -0.483 A  
ENDBRANCH  13  15
ENDBRANCH  11  13
ENDBRANCH  10  11
ENDBRANCH   9  10
ENDBRANCH   8   9
ENDBRANCH   3   8
ENDBRANCH   2   3
TORSDOF 9
ENDMDL
MODEL      114
REMARK 921   NORMALIZED FREE ENERGY PREDICTED BY IDOCK:   -4.30 KCAL/MOL
REMARK 922        TOTAL FREE ENERGY PREDICTED BY IDOCK:   -7.80 KCAL/MOL
REMARK 923 INTER-LIGAND FREE ENERGY PREDICTED BY IDOCK:   -7.38 KCAL/MOL
REMARK 924 INTRA-LIGAND FREE ENERGY PREDICTED BY IDOCK:   -0.41 KCAL/MOL
REMARK 927      BINDING AFFINITY PREDICTED BY RF-SCORE:    0.00 PKD
ROOT
HETATM    1  C   UNL     1     -14.195  15.150  71.860  1.00  0.00    -0.676 C  
HETATM    2  C   UNL     1     -12.836  15.746  71.505  1.00  0.00    -0.449 C  
ENDROOT
BRANCH   2   3
HETATM    3  N   UNL     1     -12.289  15.356  70.184  1.00  0.00    -0.368 NA 
BRANCH   3   4
HETATM    4  C   UNL     1     -11.080  16.154  69.862  1.00  0.00    -0.357 C  
BRANCH   4   5
HETATM    5  C   UNL     1     -11.161  17.003  68.579  1.00  0.00    -0.156 C  
HETATM    6  H   UNL     1     -10.195  17.135  66.865  1.00  0.00     0.000 HD 
HETATM    7  O   UNL     1     -10.144  16.612  67.656  1.00  0.00    -0.258 OA 
ENDBRANCH   4   5
ENDBRANCH   3   4
BRANCH   3   8
HETATM    8  C   UNL     1     -11.975  13.906  70.192  1.00  0.00    -0.332 C  
BRANCH   8   9
HETATM    9  C   UNL     1     -12.083  13.197  68.824  1.00  0.00    -0.226 C  
BRANCH   9  10
HETATM   10  C   UNL     1     -11.857  11.675  68.853  1.00  0.00    -0.392 C  
BRANCH  10  11
HETATM   11  C   UNL     1     -11.766  11.080  70.272  1.00  0.00    -0.355 C  
HETATM   12  C   UNL     1     -13.011  10.267  70.635  1.00  0.00    -0.338 C  
BRANCH  11  13
HETATM   13  N   UNL     1     -10.573  10.211  70.386  1.00  0.00    -0.395 NA 
HETATM   14  H   UNL     1      -9.629  10.597  70.336  1.00  0.00     0.000 HD 
BRANCH  13  15
HETATM   15  C   UNL     1     -10.795   8.818  70.568  1.00  0.00    -0.233 A  
HETATM   16  C   UNL     1     -10.717   7.926  69.464  1.00  0.00    -0.195 A  
HETATM   17  C   UNL     1     -10.472   8.338  68.131  1.00  0.00    -0.226 A  
HETATM   18  C   UNL     1     -10.419   7.409  67.088  1.00  0.00    -0.403 A  
HETATM   19  C   UNL     1     -10.624   6.063  67.363  1.00  0.00    -0.283 A  
HETATM   20  C   UNL     1     -10.869   5.641  68.667  1.00  0.00    -0.190 A  
HETATM   21 CL   UNL     1     -10.573   4.907  66.089  1.00  0.00    -0.360 Cl 
HETATM   22  C   UNL     1     -10.909   6.543  69.713  1.00  0.00    -0.295 A  
HETATM   23  N   UNL     1     -11.121   6.044  70.939  1.00  0.00    -0.296 NA 
HETATM   24  C   UNL     1     -11.120   6.902  71.975  1.00  0.00    -0.245 A  
HETATM   25  C   UNL     1     -10.938   8.264  71.840  1.00  0.00    -0.354 A  
ENDBRANCH  13  15
ENDBRANCH  11  13
ENDBRANCH  10  11
ENDBRANCH   9  10
ENDBRANCH   8   9
ENDBRANCH   3   8
ENDBRANCH   2   3
TORSDOF 9
ENDMDL
MODEL      115
REMARK 921   NORMALIZED FREE ENERGY PREDICTED BY IDOCK:   -4.30 KCAL/MOL
REMARK 922        TOTAL FREE ENERGY PREDICTED BY IDOCK:   -7.80 KCAL/MOL
REMARK 923 INTER-LIGAND FREE ENERGY PREDICTED BY IDOCK:   -6.52 KCAL/MOL
REMARK 924 INTRA-LIGAND FREE ENERGY PREDICTED BY IDOCK:   -1.28 KCAL/MOL
REMARK 927      BINDING AFFINITY PREDICTED BY RF-SCORE:    0.00 PKD
ROOT
HETATM    1  C   UNL     1      -6.074  15.976  69.552  1.00  0.00    -0.161 C  
HETATM    2  C   UNL     1      -6.399  14.509  69.818  1.00  0.00    -0.148 C  
ENDROOT
BRANCH   2   3
HETATM    3  N   UNL     1      -6.507  13.647  68.617  1.00  0.00    -0.086 NA 
BRANCH   3   4
HETATM    4  C   UNL     1      -5.872  12.328  68.861  1.00  0.00    -0.062 C  
BRANCH   4   5
HETATM    5  C   UNL     1      -5.895  11.834  70.320  1.00  0.00    -0.163 C  
HETATM    6  H   UNL     1      -6.919  10.535  71.394  1.00  0.00     0.000 HD 
HETATM    7  O   UNL     1      -6.905  10.840  70.494  1.00  0.00    -0.285 OA 
ENDBRANCH   4   5
ENDBRANCH   3   4
BRANCH   3   8
HETATM    8  C   UNL     1      -7.937  13.484  68.257  1.00  0.00    -0.147 C  
BRANCH   8   9
HETATM    9  C   UNL     1      -8.220  12.518  67.086  1.00  0.00    -0.168 C  
BRANCH   9  10
HETATM   10  C   UNL     1      -9.706  12.206  66.836  1.00  0.00    -0.213 C  
BRANCH  10  11
HETATM   11  C   UNL     1     -10.420  13.230  65.933  1.00  0.00    -0.285 C  
HETATM   12  C   UNL     1     -10.935  12.594  64.639  1.00  0.00    -0.346 C  
BRANCH  11  13
HETATM   13  N   UNL     1     -11.558  13.843  66.655  1.00  0.00    -0.355 NA 
HETATM   14  H   UNL     1     -12.499  13.455  66.588  1.00  0.00     0.000 HD 
BRANCH  13  15
HETATM   15  C   UNL     1     -11.285  14.994  67.446  1.00  0.00    -0.335 A  
HETATM   16  C   UNL     1     -11.535  14.981  68.845  1.00  0.00    -0.333 A  
HETATM   17  C   UNL     1     -12.104  13.883  69.537  1.00  0.00    -0.393 A  
HETATM   18  C   UNL     1     -12.334  13.941  70.914  1.00  0.00    -0.451 A  
HETATM   19  C   UNL     1     -12.014  15.099  71.610  1.00  0.00    -0.369 A  
HETATM   20  C   UNL     1     -11.457  16.188  70.946  1.00  0.00    -0.421 A  
HETATM   21 CL   UNL     1     -12.300  15.190  73.305  1.00  0.00    -0.533 Cl 
HETATM   22  C   UNL     1     -11.207  16.143  69.588  1.00  0.00    -0.331 A  
HETATM   23  N   UNL     1     -10.642  17.227  69.038  1.00  0.00    -0.301 NA 
HETATM   24  C   UNL     1     -10.351  17.186  67.725  1.00  0.00    -0.347 A  
HETATM   25  C   UNL     1     -10.626  16.102  66.915  1.00  0.00    -0.283 A  
ENDBRANCH  13  15
ENDBRANCH  11  13
ENDBRANCH  10  11
ENDBRANCH   9  10
ENDBRANCH   8   9
ENDBRANCH   3   8
ENDBRANCH   2   3
TORSDOF 9
ENDMDL
MODEL      116
REMARK 921   NORMALIZED FREE ENERGY PREDICTED BY IDOCK:   -4.30 KCAL/MOL
REMARK 922        TOTAL FREE ENERGY PREDICTED BY IDOCK:   -7.80 KCAL/MOL
REMARK 923 INTER-LIGAND FREE ENERGY PREDICTED BY IDOCK:   -7.22 KCAL/MOL
REMARK 924 INTRA-LIGAND FREE ENERGY PREDICTED BY IDOCK:   -0.57 KCAL/MOL
REMARK 927      BINDING AFFINITY PREDICTED BY RF-SCORE:    0.00 PKD
ROOT
HETATM    1  C   UNL     1     -10.452  19.427  67.443  1.00  0.00    -0.581 C  
HETATM    2  C   UNL     1      -9.093  19.011  66.887  1.00  0.00    -0.303 C  
ENDROOT
BRANCH   2   3
HETATM    3  N   UNL     1      -9.084  17.774  66.070  1.00  0.00    -0.520 NA 
BRANCH   3   4
HETATM    4  C   UNL     1      -7.946  16.902  66.455  1.00  0.00    -0.317 C  
BRANCH   4   5
HETATM    5  C   UNL     1      -7.691  16.763  67.968  1.00  0.00    -0.171 C  
HETATM    6  H   UNL     1      -7.774  15.336  69.326  1.00  0.00     0.000 HD 
HETATM    7  O   UNL     1      -7.932  15.422  68.394  1.00  0.00    -0.125 OA 
ENDBRANCH   4   5
ENDBRANCH   3   4
BRANCH   3   8
HETATM    8  C   UNL     1     -10.375  17.063  66.243  1.00  0.00    -0.306 C  
BRANCH   8   9
HETATM    9  C   UNL     1     -10.414  15.619  65.697  1.00  0.00    -0.402 C  
BRANCH   9  10
HETATM   10  C   UNL     1     -11.241  14.624  66.530  1.00  0.00    -0.346 C  
BRANCH  10  11
HETATM   11  C   UNL     1     -12.419  13.990  65.765  1.00  0.00    -0.494 C  
HETATM   12  C   UNL     1     -12.389  14.339  64.274  1.00  0.00    -0.407 C  
BRANCH  11  13
HETATM   13  N   UNL     1     -12.393  12.517  65.916  1.00  0.00    -0.603 NA 
HETATM   14  H   UNL     1     -13.213  11.948  65.706  1.00  0.00     0.000 HD 
BRANCH  13  15
HETATM   15  C   UNL     1     -11.178  11.929  66.365  1.00  0.00    -0.331 A  
HETATM   16  C   UNL     1     -10.267  11.360  65.434  1.00  0.00    -0.320 A  
HETATM   17  C   UNL     1     -10.504  11.284  64.040  1.00  0.00    -0.440 A  
HETATM   18  C   UNL     1      -9.570  10.700  63.180  1.00  0.00    -0.382 A  
HETATM   19  C   UNL     1      -8.398  10.172  63.706  1.00  0.00    -0.171 A  
HETATM   20  C   UNL     1      -8.150  10.234  65.073  1.00  0.00    -0.146 A  
HETATM   21 CL   UNL     1      -7.241   9.439  62.662  1.00  0.00    -0.100 Cl 
HETATM   22  C   UNL     1      -9.054  10.823  65.937  1.00  0.00    -0.188 A  
HETATM   23  N   UNL     1      -8.718  10.865  67.234  1.00  0.00    -0.131 NA 
HETATM   24  C   UNL     1      -9.566  11.472  68.083  1.00  0.00    -0.187 A  
HETATM   25  C   UNL     1     -10.768  12.030  67.694  1.00  0.00    -0.252 A  
ENDBRANCH  13  15
ENDBRANCH  11  13
ENDBRANCH  10  11
ENDBRANCH   9  10
ENDBRANCH   8   9
ENDBRANCH   3   8
ENDBRANCH   2   3
TORSDOF 9
ENDMDL
MODEL      117
REMARK 921   NORMALIZED FREE ENERGY PREDICTED BY IDOCK:   -4.29 KCAL/MOL
REMARK 922        TOTAL FREE ENERGY PREDICTED BY IDOCK:   -7.78 KCAL/MOL
REMARK 923 INTER-LIGAND FREE ENERGY PREDICTED BY IDOCK:   -6.82 KCAL/MOL
REMARK 924 INTRA-LIGAND FREE ENERGY PREDICTED BY IDOCK:   -0.96 KCAL/MOL
REMARK 927      BINDING AFFINITY PREDICTED BY RF-SCORE:    0.00 PKD
ROOT
HETATM    1  C   UNL     1     -12.120  13.156  68.041  1.00  0.00    -0.240 C  
HETATM    2  C   UNL     1     -11.645  14.155  66.989  1.00  0.00    -0.382 C  
ENDROOT
BRANCH   2   3
HETATM    3  N   UNL     1     -10.555  13.685  66.102  1.00  0.00    -0.287 NA 
BRANCH   3   4
HETATM    4  C   UNL     1     -10.708  14.252  64.739  1.00  0.00    -0.416 C  
BRANCH   4   5
HETATM    5  C   UNL     1     -12.124  14.732  64.369  1.00  0.00    -0.440 C  
HETATM    6  H   UNL     1     -12.973  16.398  63.743  1.00  0.00     0.000 HD 
HETATM    7  O   UNL     1     -12.099  16.102  63.972  1.00  0.00    -0.889 OA 
ENDBRANCH   4   5
ENDBRANCH   3   4
BRANCH   3   8
HETATM    8  C   UNL     1      -9.247  14.067  66.688  1.00  0.00    -0.244 C  
BRANCH   8   9
HETATM    9  C   UNL     1      -8.496  12.939  67.428  1.00  0.00    -0.196 C  
BRANCH   9  10
HETATM   10  C   UNL     1      -8.794  11.514  66.929  1.00  0.00    -0.182 C  
BRANCH  10  11
HETATM   11  C   UNL     1      -8.610  10.422  68.001  1.00  0.00    -0.123 C  
HETATM   12  C   UNL     1      -7.680  10.876  69.130  1.00  0.00    -0.127 C  
BRANCH  11  13
HETATM   13  N   UNL     1      -9.920  10.046  68.578  1.00  0.00    -0.157 NA 
HETATM   14  H   UNL     1     -10.539  10.745  68.988  1.00  0.00     0.000 HD 
BRANCH  13  15
HETATM   15  C   UNL     1     -10.281   8.670  68.536  1.00  0.00    -0.195 A  
HETATM   16  C   UNL     1     -10.468   7.939  69.740  1.00  0.00    -0.233 A  
HETATM   17  C   UNL     1     -10.268   8.480  71.034  1.00  0.00    -0.255 A  
HETATM   18  C   UNL     1     -10.459   7.701  72.178  1.00  0.00    -0.270 A  
HETATM   19  C   UNL     1     -10.835   6.371  72.042  1.00  0.00    -0.239 A  
HETATM   20  C   UNL     1     -11.033   5.822  70.779  1.00  0.00    -0.312 A  
HETATM   21 CL   UNL     1     -11.064   5.394  73.441  1.00  0.00    -0.349 Cl 
HETATM   22  C   UNL     1     -10.866   6.581  69.636  1.00  0.00    -0.304 A  
HETATM   23  N   UNL     1     -11.107   5.978  68.465  1.00  0.00    -0.281 NA 
HETATM   24  C   UNL     1     -10.992   6.713  67.344  1.00  0.00    -0.360 A  
HETATM   25  C   UNL     1     -10.615   8.042  67.337  1.00  0.00    -0.337 A  
ENDBRANCH  13  15
ENDBRANCH  11  13
ENDBRANCH  10  11
ENDBRANCH   9  10
ENDBRANCH   8   9
ENDBRANCH   3   8
ENDBRANCH   2   3
TORSDOF 9
ENDMDL
MODEL      118
REMARK 921   NORMALIZED FREE ENERGY PREDICTED BY IDOCK:   -4.29 KCAL/MOL
REMARK 922        TOTAL FREE ENERGY PREDICTED BY IDOCK:   -7.77 KCAL/MOL
REMARK 923 INTER-LIGAND FREE ENERGY PREDICTED BY IDOCK:   -7.29 KCAL/MOL
REMARK 924 INTRA-LIGAND FREE ENERGY PREDICTED BY IDOCK:   -0.49 KCAL/MOL
REMARK 927      BINDING AFFINITY PREDICTED BY RF-SCORE:    0.00 PKD
ROOT
HETATM    1  C   UNL     1     -13.154  11.585  71.838  1.00  0.00    -0.492 C  
HETATM    2  C   UNL     1     -13.231  12.987  72.435  1.00  0.00    -0.381 C  
ENDROOT
BRANCH   2   3
HETATM    3  N   UNL     1     -13.377  14.095  71.460  1.00  0.00    -0.344 NA 
BRANCH   3   4
HETATM    4  C   UNL     1     -13.811  15.339  72.144  1.00  0.00    -0.522 C  
BRANCH   4   5
HETATM    5  C   UNL     1     -12.690  16.165  72.803  1.00  0.00    -0.392 C  
HETATM    6  H   UNL     1     -12.122  16.638  74.631  1.00  0.00     0.000 HD 
HETATM    7  O   UNL     1     -12.813  16.129  74.225  1.00  0.00    -0.681 OA 
ENDBRANCH   4   5
ENDBRANCH   3   4
BRANCH   3   8
HETATM    8  C   UNL     1     -12.088  14.302  70.757  1.00  0.00    -0.348 C  
BRANCH   8   9
HETATM    9  C   UNL     1     -12.065  13.872  69.273  1.00  0.00    -0.383 C  
BRANCH   9  10
HETATM   10  C   UNL     1     -11.224  12.621  68.964  1.00  0.00    -0.322 C  
BRANCH  10  11
HETATM   11  C   UNL     1     -11.468  12.031  67.562  1.00  0.00    -0.333 C  
HETATM   12  C   UNL     1     -10.259  12.217  66.642  1.00  0.00    -0.235 C  
BRANCH  11  13
HETATM   13  N   UNL     1     -11.778  10.586  67.662  1.00  0.00    -0.574 NA 
HETATM   14  H   UNL     1     -12.739  10.256  67.754  1.00  0.00     0.000 HD 
BRANCH  13  15
HETATM   15  C   UNL     1     -10.682   9.679  67.625  1.00  0.00    -0.262 A  
HETATM   16  C   UNL     1     -10.167   9.125  68.828  1.00  0.00    -0.228 A  
HETATM   17  C   UNL     1     -10.645   9.454  70.120  1.00  0.00    -0.279 A  
HETATM   18  C   UNL     1     -10.085   8.879  71.264  1.00  0.00    -0.365 A  
HETATM   19  C   UNL     1      -9.032   7.984  71.130  1.00  0.00    -0.141 A  
HETATM   20  C   UNL     1      -8.547   7.651  69.869  1.00  0.00    -0.138 A  
HETATM   21 CL   UNL     1      -8.323   7.275  72.529  1.00  0.00    -0.119 Cl 
HETATM   22  C   UNL     1      -9.100   8.196  68.725  1.00  0.00    -0.144 A  
HETATM   23  N   UNL     1      -8.589   7.796  67.553  1.00  0.00    -0.122 NA 
HETATM   24  C   UNL     1      -9.142   8.283  66.428  1.00  0.00    -0.182 A  
HETATM   25  C   UNL     1     -10.187   9.187  66.419  1.00  0.00    -0.300 A  
ENDBRANCH  13  15
ENDBRANCH  11  13
ENDBRANCH  10  11
ENDBRANCH   9  10
ENDBRANCH   8   9
ENDBRANCH   3   8
ENDBRANCH   2   3
TORSDOF 9
ENDMDL
MODEL      119
REMARK 921   NORMALIZED FREE ENERGY PREDICTED BY IDOCK:   -4.29 KCAL/MOL
REMARK 922        TOTAL FREE ENERGY PREDICTED BY IDOCK:   -7.77 KCAL/MOL
REMARK 923 INTER-LIGAND FREE ENERGY PREDICTED BY IDOCK:   -6.64 KCAL/MOL
REMARK 924 INTRA-LIGAND FREE ENERGY PREDICTED BY IDOCK:   -1.13 KCAL/MOL
REMARK 927      BINDING AFFINITY PREDICTED BY RF-SCORE:    0.00 PKD
ROOT
HETATM    1  C   UNL     1      -7.138  11.425  68.914  1.00  0.00    -0.109 C  
HETATM    2  C   UNL     1      -7.330   9.912  68.950  1.00  0.00    -0.078 C  
ENDROOT
BRANCH   2   3
HETATM    3  N   UNL     1      -8.689   9.428  68.609  1.00  0.00    -0.130 NA 
BRANCH   3   4
HETATM    4  C   UNL     1      -9.252   8.622  69.722  1.00  0.00    -0.154 C  
BRANCH   4   5
HETATM    5  C   UNL     1      -8.957   7.111  69.669  1.00  0.00    -0.141 C  
HETATM    6  H   UNL     1      -9.443   5.503  70.702  1.00  0.00     0.000 HD 
HETATM    7  O   UNL     1      -9.624   6.434  70.734  1.00  0.00    -0.177 OA 
ENDBRANCH   4   5
ENDBRANCH   3   4
BRANCH   3   8
HETATM    8  C   UNL     1      -9.562  10.588  68.306  1.00  0.00    -0.158 C  
BRANCH   8   9
HETATM    9  C   UNL     1     -10.429  10.452  67.035  1.00  0.00    -0.309 C  
BRANCH   9  10
HETATM   10  C   UNL     1      -9.720  10.798  65.715  1.00  0.00    -0.278 C  
BRANCH  10  11
HETATM   11  C   UNL     1     -10.374  11.955  64.934  1.00  0.00    -0.286 C  
HETATM   12  C   UNL     1     -11.025  11.474  63.634  1.00  0.00    -0.482 C  
BRANCH  11  13
HETATM   13  N   UNL     1     -11.400  12.619  65.770  1.00  0.00    -0.318 NA 
HETATM   14  H   UNL     1     -12.241  12.126  66.068  1.00  0.00     0.000 HD 
BRANCH  13  15
HETATM   15  C   UNL     1     -11.164  13.973  66.140  1.00  0.00    -0.318 A  
HETATM   16  C   UNL     1     -11.395  14.404  67.474  1.00  0.00    -0.345 A  
HETATM   17  C   UNL     1     -11.911  13.572  68.497  1.00  0.00    -0.398 A  
HETATM   18  C   UNL     1     -12.126  14.064  69.787  1.00  0.00    -0.405 A  
HETATM   19  C   UNL     1     -11.843  15.395  70.064  1.00  0.00    -0.343 A  
HETATM   20  C   UNL     1     -11.340  16.229  69.070  1.00  0.00    -0.301 A  
HETATM   21 CL   UNL     1     -12.112  16.021  71.645  1.00  0.00    -0.525 Cl 
HETATM   22  C   UNL     1     -11.104  15.756  67.793  1.00  0.00    -0.313 A  
HETATM   23  N   UNL     1     -10.590  16.621  66.909  1.00  0.00    -0.274 NA 
HETATM   24  C   UNL     1     -10.315  16.167  65.673  1.00  0.00    -0.382 A  
HETATM   25  C   UNL     1     -10.556  14.871  65.264  1.00  0.00    -0.421 A  
ENDBRANCH  13  15
ENDBRANCH  11  13
ENDBRANCH  10  11
ENDBRANCH   9  10
ENDBRANCH   8   9
ENDBRANCH   3   8
ENDBRANCH   2   3
TORSDOF 9
ENDMDL
MODEL      120
REMARK 921   NORMALIZED FREE ENERGY PREDICTED BY IDOCK:   -4.29 KCAL/MOL
REMARK 922        TOTAL FREE ENERGY PREDICTED BY IDOCK:   -7.77 KCAL/MOL
REMARK 923 INTER-LIGAND FREE ENERGY PREDICTED BY IDOCK:   -7.14 KCAL/MOL
REMARK 924 INTRA-LIGAND FREE ENERGY PREDICTED BY IDOCK:   -0.63 KCAL/MOL
REMARK 927      BINDING AFFINITY PREDICTED BY RF-SCORE:    0.00 PKD
ROOT
HETATM    1  C   UNL     1     -10.778   7.238  67.157  1.00  0.00    -0.413 C  
HETATM    2  C   UNL     1      -9.655   7.955  66.414  1.00  0.00    -0.181 C  
ENDROOT
BRANCH   2   3
HETATM    3  N   UNL     1      -9.675   9.435  66.491  1.00  0.00    -0.216 NA 
BRANCH   3   4
HETATM    4  C   UNL     1      -8.523   9.933  67.284  1.00  0.00    -0.121 C  
BRANCH   4   5
HETATM    5  C   UNL     1      -7.141   9.391  66.871  1.00  0.00    -0.086 C  
HETATM    6  H   UNL     1      -5.679   8.364  67.705  1.00  0.00     0.000 HD 
HETATM    7  O   UNL     1      -6.531   8.699  67.960  1.00  0.00    -0.055 OA 
ENDBRANCH   4   5
ENDBRANCH   3   4
BRANCH   3   8
HETATM    8  C   UNL     1      -9.652   9.998  65.119  1.00  0.00    -0.291 C  
BRANCH   8   9
HETATM    9  C   UNL     1     -10.518  11.258  64.904  1.00  0.00    -0.375 C  
BRANCH   9  10
HETATM   10  C   UNL     1     -11.314  11.726  66.135  1.00  0.00    -0.342 C  
BRANCH  10  11
HETATM   11  C   UNL     1     -11.027  13.181  66.554  1.00  0.00    -0.286 C  
HETATM   12  C   UNL     1     -12.295  14.039  66.556  1.00  0.00    -0.442 C  
BRANCH  11  13
HETATM   13  N   UNL     1     -10.421  13.214  67.904  1.00  0.00    -0.234 NA 
HETATM   14  H   UNL     1      -9.423  13.056  68.041  1.00  0.00     0.000 HD 
BRANCH  13  15
HETATM   15  C   UNL     1     -11.288  13.476  69.002  1.00  0.00    -0.288 A  
HETATM   16  C   UNL     1     -11.755  12.412  69.819  1.00  0.00    -0.361 A  
HETATM   17  C   UNL     1     -11.454  11.047  69.590  1.00  0.00    -0.375 A  
HETATM   18  C   UNL     1     -11.957  10.047  70.427  1.00  0.00    -0.318 A  
HETATM   19  C   UNL     1     -12.777  10.399  71.491  1.00  0.00    -0.459 A  
HETATM   20  C   UNL     1     -13.086  11.734  71.730  1.00  0.00    -0.480 A  
HETATM   21 CL   UNL     1     -13.413   9.179  72.526  1.00  0.00    -0.520 Cl 
HETATM   22  C   UNL     1     -12.584  12.738  70.923  1.00  0.00    -0.255 A  
HETATM   23  N   UNL     1     -12.910  13.997  71.245  1.00  0.00    -0.341 NA 
HETATM   24  C   UNL     1     -12.396  14.990  70.497  1.00  0.00    -0.356 A  
HETATM   25  C   UNL     1     -11.576  14.779  69.406  1.00  0.00    -0.342 A  
ENDBRANCH  13  15
ENDBRANCH  11  13
ENDBRANCH  10  11
ENDBRANCH   9  10
ENDBRANCH   8   9
ENDBRANCH   3   8
ENDBRANCH   2   3
TORSDOF 9
ENDMDL
MODEL      121
REMARK 921   NORMALIZED FREE ENERGY PREDICTED BY IDOCK:   -4.28 KCAL/MOL
REMARK 922        TOTAL FREE ENERGY PREDICTED BY IDOCK:   -7.76 KCAL/MOL
REMARK 923 INTER-LIGAND FREE ENERGY PREDICTED BY IDOCK:   -6.67 KCAL/MOL
REMARK 924 INTRA-LIGAND FREE ENERGY PREDICTED BY IDOCK:   -1.09 KCAL/MOL
REMARK 927      BINDING AFFINITY PREDICTED BY RF-SCORE:    0.00 PKD
ROOT
HETATM    1  C   UNL     1     -10.922   6.295  68.805  1.00  0.00    -0.424 C  
HETATM    2  C   UNL     1      -9.627   7.047  69.095  1.00  0.00    -0.149 C  
ENDROOT
BRANCH   2   3
HETATM    3  N   UNL     1      -9.783   8.468  69.489  1.00  0.00    -0.174 NA 
BRANCH   3   4
HETATM    4  C   UNL     1      -9.700   8.614  70.964  1.00  0.00    -0.210 C  
BRANCH   4   5
HETATM    5  C   UNL     1     -10.958   9.176  71.652  1.00  0.00    -0.374 C  
HETATM    6  H   UNL     1     -12.326   8.536  72.920  1.00  0.00     0.000 HD 
HETATM    7  O   UNL     1     -11.550   8.189  72.496  1.00  0.00    -0.375 OA 
ENDBRANCH   4   5
ENDBRANCH   3   4
BRANCH   3   8
HETATM    8  C   UNL     1      -8.737   9.280  68.820  1.00  0.00    -0.132 C  
BRANCH   8   9
HETATM    9  C   UNL     1      -8.342   8.814  67.401  1.00  0.00    -0.109 C  
BRANCH   9  10
HETATM   10  C   UNL     1      -7.914   9.935  66.437  1.00  0.00    -0.111 C  
BRANCH  10  11
HETATM   11  C   UNL     1      -8.678   9.938  65.099  1.00  0.00    -0.165 C  
HETATM   12  C   UNL     1      -8.321   8.728  64.231  1.00  0.00    -0.158 C  
BRANCH  11  13
HETATM   13  N   UNL     1     -10.138   9.941  65.343  1.00  0.00    -0.288 NA 
HETATM   14  H   UNL     1     -10.614   9.122  65.722  1.00  0.00     0.000 HD 
BRANCH  13  15
HETATM   15  C   UNL     1     -10.850  11.132  65.029  1.00  0.00    -0.173 A  
HETATM   16  C   UNL     1     -11.142  12.084  66.044  1.00  0.00    -0.364 A  
HETATM   17  C   UNL     1     -10.811  11.911  67.410  1.00  0.00    -0.289 A  
HETATM   18  C   UNL     1     -11.138  12.883  68.359  1.00  0.00    -0.293 A  
HETATM   19  C   UNL     1     -11.813  14.028  67.957  1.00  0.00    -0.368 A  
HETATM   20  C   UNL     1     -12.150  14.213  66.619  1.00  0.00    -0.480 A  
HETATM   21 CL   UNL     1     -12.234  15.230  69.115  1.00  0.00    -0.242 Cl 
HETATM   22  C   UNL     1     -11.819  13.271  65.663  1.00  0.00    -0.380 A  
HETATM   23  N   UNL     1     -12.157  13.546  64.396  1.00  0.00    -0.428 NA 
HETATM   24  C   UNL     1     -11.805  12.661  63.446  1.00  0.00    -0.514 A  
HETATM   25  C   UNL     1     -11.141  11.480  63.711  1.00  0.00    -0.471 A  
ENDBRANCH  13  15
ENDBRANCH  11  13
ENDBRANCH  10  11
ENDBRANCH   9  10
ENDBRANCH   8   9
ENDBRANCH   3   8
ENDBRANCH   2   3
TORSDOF 9
ENDMDL
MODEL      122
REMARK 921   NORMALIZED FREE ENERGY PREDICTED BY IDOCK:   -4.28 KCAL/MOL
REMARK 922        TOTAL FREE ENERGY PREDICTED BY IDOCK:   -7.76 KCAL/MOL
REMARK 923 INTER-LIGAND FREE ENERGY PREDICTED BY IDOCK:   -6.44 KCAL/MOL
REMARK 924 INTRA-LIGAND FREE ENERGY PREDICTED BY IDOCK:   -1.32 KCAL/MOL
REMARK 927      BINDING AFFINITY PREDICTED BY RF-SCORE:    0.00 PKD
ROOT
HETATM    1  C   UNL     1     -10.681   6.224  66.781  1.00  0.00    -0.364 C  
HETATM    2  C   UNL     1     -10.919   6.698  68.212  1.00  0.00    -0.244 C  
ENDROOT
BRANCH   2   3
HETATM    3  N   UNL     1      -9.771   6.549  69.138  1.00  0.00    -0.136 NA 
BRANCH   3   4
HETATM    4  C   UNL     1      -8.556   7.188  68.573  1.00  0.00    -0.124 C  
BRANCH   4   5
HETATM    5  C   UNL     1      -7.675   7.955  69.577  1.00  0.00    -0.104 C  
HETATM    6  H   UNL     1      -6.392   9.451  69.532  1.00  0.00     0.000 HD 
HETATM    7  O   UNL     1      -6.935   8.979  68.913  1.00  0.00    -0.063 OA 
ENDBRANCH   4   5
ENDBRANCH   3   4
BRANCH   3   8
HETATM    8  C   UNL     1     -10.118   7.146  70.450  1.00  0.00    -0.191 C  
BRANCH   8   9
HETATM    9  C   UNL     1     -11.238   8.211  70.419  1.00  0.00    -0.221 C  
BRANCH   9  10
HETATM   10  C   UNL     1     -10.800   9.637  70.796  1.00  0.00    -0.400 C  
BRANCH  10  11
HETATM   11  C   UNL     1     -11.657  10.747  70.159  1.00  0.00    -0.337 C  
HETATM   12  C   UNL     1     -12.643  11.357  71.160  1.00  0.00    -0.490 C  
BRANCH  11  13
HETATM   13  N   UNL     1     -10.789  11.820  69.624  1.00  0.00    -0.456 NA 
HETATM   14  H   UNL     1     -10.000  12.181  70.160  1.00  0.00     0.000 HD 
BRANCH  13  15
HETATM   15  C   UNL     1     -11.099  12.326  68.330  1.00  0.00    -0.243 A  
HETATM   16  C   UNL     1     -10.636  11.655  67.166  1.00  0.00    -0.269 A  
HETATM   17  C   UNL     1      -9.814  10.502  67.191  1.00  0.00    -0.213 A  
HETATM   18  C   UNL     1      -9.384   9.898  66.007  1.00  0.00    -0.240 A  
HETATM   19  C   UNL     1      -9.756  10.448  64.787  1.00  0.00    -0.320 A  
HETATM   20  C   UNL     1     -10.560  11.583  64.743  1.00  0.00    -0.362 A  
HETATM   21 CL   UNL     1      -9.226   9.723  63.318  1.00  0.00    -0.276 Cl 
HETATM   22  C   UNL     1     -11.010  12.184  65.904  1.00  0.00    -0.292 A  
HETATM   23  N   UNL     1     -11.804  13.255  65.766  1.00  0.00    -0.366 NA 
HETATM   24  C   UNL     1     -12.286  13.827  66.884  1.00  0.00    -0.366 A  
HETATM   25  C   UNL     1     -11.986  13.387  68.158  1.00  0.00    -0.356 A  
ENDBRANCH  13  15
ENDBRANCH  11  13
ENDBRANCH  10  11
ENDBRANCH   9  10
ENDBRANCH   8   9
ENDBRANCH   3   8
ENDBRANCH   2   3
TORSDOF 9
ENDMDL
MODEL      123
REMARK 921   NORMALIZED FREE ENERGY PREDICTED BY IDOCK:   -4.28 KCAL/MOL
REMARK 922        TOTAL FREE ENERGY PREDICTED BY IDOCK:   -7.75 KCAL/MOL
REMARK 923 INTER-LIGAND FREE ENERGY PREDICTED BY IDOCK:   -6.35 KCAL/MOL
REMARK 924 INTRA-LIGAND FREE ENERGY PREDICTED BY IDOCK:   -1.41 KCAL/MOL
REMARK 927      BINDING AFFINITY PREDICTED BY RF-SCORE:    0.00 PKD
ROOT
HETATM    1  C   UNL     1      -5.974  16.707  69.565  1.00  0.00    -0.205 C  
HETATM    2  C   UNL     1      -6.602  15.317  69.564  1.00  0.00    -0.164 C  
ENDROOT
BRANCH   2   3
HETATM    3  N   UNL     1      -6.158  14.412  68.477  1.00  0.00    -0.085 NA 
BRANCH   3   4
HETATM    4  C   UNL     1      -5.563  13.173  69.039  1.00  0.00    -0.071 C  
BRANCH   4   5
HETATM    5  C   UNL     1      -5.749  12.969  70.554  1.00  0.00    -0.173 C  
HETATM    6  H   UNL     1      -6.142  11.474  71.778  1.00  0.00     0.000 HD 
HETATM    7  O   UNL     1      -6.028  11.599  70.844  1.00  0.00    -0.365 OA 
ENDBRANCH   4   5
ENDBRANCH   3   4
BRANCH   3   8
HETATM    8  C   UNL     1      -7.313  14.092  67.603  1.00  0.00    -0.175 C  
BRANCH   8   9
HETATM    9  C   UNL     1      -7.865  12.655  67.733  1.00  0.00    -0.154 C  
BRANCH   9  10
HETATM   10  C   UNL     1      -9.287  12.547  68.313  1.00  0.00    -0.193 C  
BRANCH  10  11
HETATM   11  C   UNL     1     -10.392  12.421  67.247  1.00  0.00    -0.215 C  
HETATM   12  C   UNL     1     -11.128  11.082  67.339  1.00  0.00    -0.370 C  
BRANCH  11  13
HETATM   13  N   UNL     1     -11.372  13.520  67.395  1.00  0.00    -0.298 NA 
HETATM   14  H   UNL     1     -12.125  13.471  68.081  1.00  0.00     0.000 HD 
BRANCH  13  15
HETATM   15  C   UNL     1     -11.221  14.649  66.541  1.00  0.00    -0.346 A  
HETATM   16  C   UNL     1     -10.654  15.854  67.036  1.00  0.00    -0.306 A  
HETATM   17  C   UNL     1     -10.254  16.047  68.381  1.00  0.00    -0.236 A  
HETATM   18  C   UNL     1      -9.713  17.263  68.805  1.00  0.00    -0.280 A  
HETATM   19  C   UNL     1      -9.580  18.304  67.894  1.00  0.00    -0.289 A  
HETATM   20  C   UNL     1      -9.970  18.133  66.569  1.00  0.00    -0.374 A  
HETATM   21 CL   UNL     1      -8.925  19.813  68.402  1.00  0.00    -0.356 Cl 
HETATM   22  C   UNL     1     -10.491  16.932  66.128  1.00  0.00    -0.272 A  
HETATM   23  N   UNL     1     -10.812  16.849  64.829  1.00  0.00    -0.816 NA 
HETATM   24  C   UNL     1     -11.280  15.674  64.372  1.00  0.00    -0.236 A  
HETATM   25  C   UNL     1     -11.471  14.564  65.172  1.00  0.00    -0.368 A  
ENDBRANCH  13  15
ENDBRANCH  11  13
ENDBRANCH  10  11
ENDBRANCH   9  10
ENDBRANCH   8   9
ENDBRANCH   3   8
ENDBRANCH   2   3
TORSDOF 9
ENDMDL
MODEL      124
REMARK 921   NORMALIZED FREE ENERGY PREDICTED BY IDOCK:   -4.27 KCAL/MOL
REMARK 922        TOTAL FREE ENERGY PREDICTED BY IDOCK:   -7.75 KCAL/MOL
REMARK 923 INTER-LIGAND FREE ENERGY PREDICTED BY IDOCK:   -7.02 KCAL/MOL
REMARK 924 INTRA-LIGAND FREE ENERGY PREDICTED BY IDOCK:   -0.73 KCAL/MOL
REMARK 927      BINDING AFFINITY PREDICTED BY RF-SCORE:    0.00 PKD
ROOT
HETATM    1  C   UNL     1      -8.558   9.358  70.272  1.00  0.00    -0.249 C  
HETATM    2  C   UNL     1      -8.322   7.901  69.887  1.00  0.00    -0.122 C  
ENDROOT
BRANCH   2   3
HETATM    3  N   UNL     1      -8.376   7.603  68.436  1.00  0.00    -0.125 NA 
BRANCH   3   4
HETATM    4  C   UNL     1      -9.154   6.363  68.185  1.00  0.00    -0.113 C  
BRANCH   4   5
HETATM    5  C   UNL     1     -10.673   6.468  68.418  1.00  0.00    -0.279 C  
HETATM    6  H   UNL     1     -12.308   6.514  67.317  1.00  0.00     0.000 HD 
HETATM    7  O   UNL     1     -11.371   6.449  67.173  1.00  0.00    -0.308 OA 
ENDBRANCH   4   5
ENDBRANCH   3   4
BRANCH   3   8
HETATM    8  C   UNL     1      -8.976   8.755  67.720  1.00  0.00    -0.135 C  
BRANCH   8   9
HETATM    9  C   UNL     1      -8.742   8.782  66.193  1.00  0.00    -0.184 C  
BRANCH   9  10
HETATM   10  C   UNL     1      -9.450   9.922  65.440  1.00  0.00    -0.319 C  
BRANCH  10  11
HETATM   11  C   UNL     1      -8.678  10.438  64.211  1.00  0.00    -0.196 C  
HETATM   12  C   UNL     1      -8.809   9.494  63.012  1.00  0.00    -0.242 C  
BRANCH  11  13
HETATM   13  N   UNL     1      -9.170  11.779  63.824  1.00  0.00    -0.475 NA 
HETATM   14  H   UNL     1      -8.581  12.431  63.307  1.00  0.00     0.000 HD 
BRANCH  13  15
HETATM   15  C   UNL     1     -10.498  12.121  64.203  1.00  0.00    -0.362 A  
HETATM   16  C   UNL     1     -10.731  12.975  65.316  1.00  0.00    -0.317 A  
HETATM   17  C   UNL     1      -9.706  13.496  66.142  1.00  0.00    -0.264 A  
HETATM   18  C   UNL     1     -10.005  14.322  67.228  1.00  0.00    -0.252 A  
HETATM   19  C   UNL     1     -11.331  14.623  67.510  1.00  0.00    -0.348 A  
HETATM   20  C   UNL     1     -12.353  14.117  66.711  1.00  0.00    -0.333 A  
HETATM   21 CL   UNL     1     -11.719  15.630  68.851  1.00  0.00    -0.391 Cl 
HETATM   22  C   UNL     1     -12.075  13.313  65.622  1.00  0.00    -0.441 A  
HETATM   23  N   UNL     1     -13.118  12.896  64.892  1.00  0.00    -0.808 NA 
HETATM   24  C   UNL     1     -12.863  12.147  63.803  1.00  0.00    -0.333 A  
HETATM   25  C   UNL     1     -11.593  11.768  63.416  1.00  0.00    -0.419 A  
ENDBRANCH  13  15
ENDBRANCH  11  13
ENDBRANCH  10  11
ENDBRANCH   9  10
ENDBRANCH   8   9
ENDBRANCH   3   8
ENDBRANCH   2   3
TORSDOF 9
ENDMDL
MODEL      125
REMARK 921   NORMALIZED FREE ENERGY PREDICTED BY IDOCK:   -4.27 KCAL/MOL
REMARK 922        TOTAL FREE ENERGY PREDICTED BY IDOCK:   -7.74 KCAL/MOL
REMARK 923 INTER-LIGAND FREE ENERGY PREDICTED BY IDOCK:   -7.09 KCAL/MOL
REMARK 924 INTRA-LIGAND FREE ENERGY PREDICTED BY IDOCK:   -0.65 KCAL/MOL
REMARK 927      BINDING AFFINITY PREDICTED BY RF-SCORE:    0.00 PKD
ROOT
HETATM    1  C   UNL     1      -8.967   4.271  68.529  1.00  0.00    -0.154 C  
HETATM    2  C   UNL     1      -9.486   3.755  69.868  1.00  0.00    -0.197 C  
ENDROOT
BRANCH   2   3
HETATM    3  N   UNL     1     -10.265   4.725  70.674  1.00  0.00    -0.215 NA 
BRANCH   3   4
HETATM    4  C   UNL     1      -9.919   4.608  72.113  1.00  0.00    -0.181 C  
BRANCH   4   5
HETATM    5  C   UNL     1     -11.045   4.964  73.102  1.00  0.00    -0.322 C  
HETATM    6  H   UNL     1     -11.219   5.928  74.813  1.00  0.00     0.000 HD 
HETATM    7  O   UNL     1     -10.525   5.708  74.203  1.00  0.00    -0.270 OA 
ENDBRANCH   4   5
ENDBRANCH   3   4
BRANCH   3   8
HETATM    8  C   UNL     1     -10.000   6.098  70.179  1.00  0.00    -0.175 C  
BRANCH   8   9
HETATM    9  C   UNL     1     -11.237   7.016  70.075  1.00  0.00    -0.310 C  
BRANCH   9  10
HETATM   10  C   UNL     1     -11.328   8.120  71.144  1.00  0.00    -0.299 C  
BRANCH  10  11
HETATM   11  C   UNL     1     -10.895   9.513  70.647  1.00  0.00    -0.306 C  
HETATM   12  C   UNL     1      -9.810   9.426  69.571  1.00  0.00    -0.192 C  
BRANCH  11  13
HETATM   13  N   UNL     1     -12.059  10.245  70.100  1.00  0.00    -0.428 NA 
HETATM   14  H   UNL     1     -12.623   9.856  69.345  1.00  0.00     0.000 HD 
BRANCH  13  15
HETATM   15  C   UNL     1     -12.358  11.514  70.670  1.00  0.00    -0.364 A  
HETATM   16  C   UNL     1     -12.030  12.710  69.977  1.00  0.00    -0.377 A  
HETATM   17  C   UNL     1     -11.355  12.743  68.732  1.00  0.00    -0.332 A  
HETATM   18  C   UNL     1     -11.051  13.956  68.108  1.00  0.00    -0.278 A  
HETATM   19  C   UNL     1     -11.404  15.148  68.728  1.00  0.00    -0.300 A  
HETATM   20  C   UNL     1     -12.065  15.135  69.953  1.00  0.00    -0.373 A  
HETATM   21 CL   UNL     1     -11.028  16.651  67.979  1.00  0.00    -0.343 Cl 
HETATM   22  C   UNL     1     -12.388  13.944  70.577  1.00  0.00    -0.369 A  
HETATM   23  N   UNL     1     -13.050  14.027  71.739  1.00  0.00    -0.350 NA 
HETATM   24  C   UNL     1     -13.412  12.879  72.339  1.00  0.00    -0.471 A  
HETATM   25  C   UNL     1     -13.116  11.627  71.836  1.00  0.00    -0.490 A  
ENDBRANCH  13  15
ENDBRANCH  11  13
ENDBRANCH  10  11
ENDBRANCH   9  10
ENDBRANCH   8   9
ENDBRANCH   3   8
ENDBRANCH   2   3
TORSDOF 9
ENDMDL
MODEL      126
REMARK 921   NORMALIZED FREE ENERGY PREDICTED BY IDOCK:   -4.25 KCAL/MOL
REMARK 922        TOTAL FREE ENERGY PREDICTED BY IDOCK:   -7.72 KCAL/MOL
REMARK 923 INTER-LIGAND FREE ENERGY PREDICTED BY IDOCK:   -6.83 KCAL/MOL
REMARK 924 INTRA-LIGAND FREE ENERGY PREDICTED BY IDOCK:   -0.89 KCAL/MOL
REMARK 927      BINDING AFFINITY PREDICTED BY RF-SCORE:    0.00 PKD
ROOT
HETATM    1  C   UNL     1      -8.936  11.688  66.357  1.00  0.00    -0.198 C  
HETATM    2  C   UNL     1     -10.451  11.654  66.536  1.00  0.00    -0.239 C  
ENDROOT
BRANCH   2   3
HETATM    3  N   UNL     1     -11.110  12.973  66.686  1.00  0.00    -0.282 NA 
BRANCH   3   4
HETATM    4  C   UNL     1     -12.043  13.225  65.558  1.00  0.00    -0.435 C  
BRANCH   4   5
HETATM    5  C   UNL     1     -11.596  14.297  64.547  1.00  0.00    -0.387 C  
HETATM    6  H   UNL     1     -12.455  15.597  63.338  1.00  0.00     0.000 HD 
HETATM    7  O   UNL     1     -12.731  14.935  63.961  1.00  0.00    -0.792 OA 
ENDBRANCH   4   5
ENDBRANCH   3   4
BRANCH   3   8
HETATM    8  C   UNL     1     -11.829  13.017  67.983  1.00  0.00    -0.347 C  
BRANCH   8   9
HETATM    9  C   UNL     1     -11.873  11.685  68.763  1.00  0.00    -0.387 C  
BRANCH   9  10
HETATM   10  C   UNL     1     -12.123  11.816  70.275  1.00  0.00    -0.426 C  
BRANCH  10  11
HETATM   11  C   UNL     1     -12.087  10.477  71.037  1.00  0.00    -0.387 C  
HETATM   12  C   UNL     1     -13.331  10.276  71.906  1.00  0.00    -0.487 C  
BRANCH  11  13
HETATM   13  N   UNL     1     -11.978   9.350  70.083  1.00  0.00    -0.460 NA 
HETATM   14  H   UNL     1     -12.482   9.356  69.196  1.00  0.00     0.000 HD 
BRANCH  13  15
HETATM   15  C   UNL     1     -11.144   8.258  70.454  1.00  0.00    -0.235 A  
HETATM   16  C   UNL     1      -9.731   8.412  70.487  1.00  0.00    -0.192 A  
HETATM   17  C   UNL     1      -9.056   9.601  70.117  1.00  0.00    -0.280 A  
HETATM   18  C   UNL     1      -7.662   9.681  70.161  1.00  0.00    -0.179 A  
HETATM   19  C   UNL     1      -6.928   8.571  70.560  1.00  0.00    -0.040 A  
HETATM   20  C   UNL     1      -7.574   7.394  70.924  1.00  0.00    -0.083 A  
HETATM   21 CL   UNL     1      -5.209   8.649  70.611  1.00  0.00    -0.021 Cl 
HETATM   22  C   UNL     1      -8.953   7.301  70.903  1.00  0.00    -0.150 A  
HETATM   23  N   UNL     1      -9.491   6.139  71.298  1.00  0.00    -0.163 NA 
HETATM   24  C   UNL     1     -10.832   6.045  71.324  1.00  0.00    -0.272 A  
HETATM   25  C   UNL     1     -11.678   7.068  70.944  1.00  0.00    -0.387 A  
ENDBRANCH  13  15
ENDBRANCH  11  13
ENDBRANCH  10  11
ENDBRANCH   9  10
ENDBRANCH   8   9
ENDBRANCH   3   8
ENDBRANCH   2   3
TORSDOF 9
ENDMDL
MODEL      127
REMARK 921   NORMALIZED FREE ENERGY PREDICTED BY IDOCK:   -4.25 KCAL/MOL
REMARK 922        TOTAL FREE ENERGY PREDICTED BY IDOCK:   -7.71 KCAL/MOL
REMARK 923 INTER-LIGAND FREE ENERGY PREDICTED BY IDOCK:   -7.18 KCAL/MOL
REMARK 924 INTRA-LIGAND FREE ENERGY PREDICTED BY IDOCK:   -0.53 KCAL/MOL
REMARK 927      BINDING AFFINITY PREDICTED BY RF-SCORE:    0.00 PKD
ROOT
HETATM    1  C   UNL     1     -10.541  19.659  67.468  1.00  0.00    -0.577 C  
HETATM    2  C   UNL     1      -9.330  19.893  66.569  1.00  0.00    -0.401 C  
ENDROOT
BRANCH   2   3
HETATM    3  N   UNL     1      -8.683  18.673  66.031  1.00  0.00    -0.488 NA 
BRANCH   3   4
HETATM    4  C   UNL     1      -7.209  18.746  66.195  1.00  0.00    -0.263 C  
BRANCH   4   5
HETATM    5  C   UNL     1      -6.410  19.077  64.921  1.00  0.00    -0.203 C  
HETATM    6  H   UNL     1      -5.951  20.683  63.873  1.00  0.00     0.000 HD 
HETATM    7  O   UNL     1      -6.444  20.479  64.659  1.00  0.00    -0.297 OA 
ENDBRANCH   4   5
ENDBRANCH   3   4
BRANCH   3   8
HETATM    8  C   UNL     1      -9.231  17.482  66.723  1.00  0.00    -0.265 C  
BRANCH   8   9
HETATM    9  C   UNL     1      -8.900  16.123  66.068  1.00  0.00    -0.313 C  
BRANCH   9  10
HETATM   10  C   UNL     1      -9.678  14.917  66.624  1.00  0.00    -0.276 C  
BRANCH  10  11
HETATM   11  C   UNL     1     -11.163  14.883  66.212  1.00  0.00    -0.331 C  
HETATM   12  C   UNL     1     -11.399  15.559  64.859  1.00  0.00    -0.339 C  
BRANCH  11  13
HETATM   13  N   UNL     1     -11.642  13.484  66.141  1.00  0.00    -0.331 NA 
HETATM   14  H   UNL     1     -11.964  13.078  65.263  1.00  0.00     0.000 HD 
BRANCH  13  15
HETATM   15  C   UNL     1     -11.633  12.730  67.348  1.00  0.00    -0.356 A  
HETATM   16  C   UNL     1     -11.119  11.405  67.364  1.00  0.00    -0.349 A  
HETATM   17  C   UNL     1     -10.640  10.728  66.215  1.00  0.00    -0.257 A  
HETATM   18  C   UNL     1     -10.159   9.419  66.299  1.00  0.00    -0.328 A  
HETATM   19  C   UNL     1     -10.166   8.767  67.525  1.00  0.00    -0.246 A  
HETATM   20  C   UNL     1     -10.636   9.416  68.664  1.00  0.00    -0.230 A  
HETATM   21 CL   UNL     1      -9.586   7.151  67.644  1.00  0.00    -0.143 Cl 
HETATM   22  C   UNL     1     -11.100  10.716  68.604  1.00  0.00    -0.263 A  
HETATM   23  N   UNL     1     -11.505  11.271  69.754  1.00  0.00    -0.297 NA 
HETATM   24  C   UNL     1     -11.919  12.550  69.723  1.00  0.00    -0.289 A  
HETATM   25  C   UNL     1     -11.972  13.308  68.570  1.00  0.00    -0.340 A  
ENDBRANCH  13  15
ENDBRANCH  11  13
ENDBRANCH  10  11
ENDBRANCH   9  10
ENDBRANCH   8   9
ENDBRANCH   3   8
ENDBRANCH   2   3
TORSDOF 9
ENDMDL
MODEL      128
REMARK 921   NORMALIZED FREE ENERGY PREDICTED BY IDOCK:   -4.24 KCAL/MOL
REMARK 922        TOTAL FREE ENERGY PREDICTED BY IDOCK:   -7.70 KCAL/MOL
REMARK 923 INTER-LIGAND FREE ENERGY PREDICTED BY IDOCK:   -7.00 KCAL/MOL
REMARK 924 INTRA-LIGAND FREE ENERGY PREDICTED BY IDOCK:   -0.70 KCAL/MOL
REMARK 927      BINDING AFFINITY PREDICTED BY RF-SCORE:    0.00 PKD
ROOT
HETATM    1  C   UNL     1     -14.238   8.336  71.694  1.00  0.00    -0.530 C  
HETATM    2  C   UNL     1     -12.736   8.353  71.958  1.00  0.00    -0.360 C  
ENDROOT
BRANCH   2   3
HETATM    3  N   UNL     1     -12.070   9.668  71.800  1.00  0.00    -0.386 NA 
BRANCH   3   4
HETATM    4  C   UNL     1     -10.829   9.533  70.996  1.00  0.00    -0.353 C  
BRANCH   4   5
HETATM    5  C   UNL     1     -10.955   9.901  69.505  1.00  0.00    -0.242 C  
HETATM    6  H   UNL     1     -10.841   8.973  67.769  1.00  0.00     0.000 HD 
HETATM    7  O   UNL     1     -10.763   8.746  68.688  1.00  0.00    -0.175 OA 
ENDBRANCH   4   5
ENDBRANCH   3   4
BRANCH   3   8
HETATM    8  C   UNL     1     -13.010  10.620  71.161  1.00  0.00    -0.387 C  
BRANCH   8   9
HETATM    9  C   UNL     1     -12.938  12.073  71.679  1.00  0.00    -0.439 C  
BRANCH   9  10
HETATM   10  C   UNL     1     -12.174  13.056  70.774  1.00  0.00    -0.359 C  
BRANCH  10  11
HETATM   11  C   UNL     1     -12.862  14.427  70.615  1.00  0.00    -0.328 C  
HETATM   12  C   UNL     1     -13.024  15.147  71.956  1.00  0.00    -0.437 C  
BRANCH  11  13
HETATM   13  N   UNL     1     -12.081  15.286  69.697  1.00  0.00    -0.440 NA 
HETATM   14  H   UNL     1     -12.011  16.293  69.845  1.00  0.00     0.000 HD 
BRANCH  13  15
HETATM   15  C   UNL     1     -11.431  14.651  68.602  1.00  0.00    -0.300 A  
HETATM   16  C   UNL     1     -10.013  14.636  68.517  1.00  0.00    -0.235 A  
HETATM   17  C   UNL     1      -9.157  15.271  69.451  1.00  0.00    -0.228 A  
HETATM   18  C   UNL     1      -7.769  15.227  69.302  1.00  0.00    -0.214 A  
HETATM   19  C   UNL     1      -7.221  14.562  68.213  1.00  0.00    -0.119 A  
HETATM   20  C   UNL     1      -8.046  13.934  67.284  1.00  0.00    -0.162 A  
HETATM   21 CL   UNL     1      -5.513  14.507  68.009  1.00  0.00    -0.127 Cl 
HETATM   22  C   UNL     1      -9.421  13.953  67.424  1.00  0.00    -0.226 A  
HETATM   23  N   UNL     1     -10.135  13.297  66.499  1.00  0.00    -0.268 NA 
HETATM   24  C   UNL     1     -11.472  13.268  66.642  1.00  0.00    -0.347 A  
HETATM   25  C   UNL     1     -12.145  13.895  67.672  1.00  0.00    -0.342 A  
ENDBRANCH  13  15
ENDBRANCH  11  13
ENDBRANCH  10  11
ENDBRANCH   9  10
ENDBRANCH   8   9
ENDBRANCH   3   8
ENDBRANCH   2   3
TORSDOF 9
ENDMDL
MODEL      129
REMARK 921   NORMALIZED FREE ENERGY PREDICTED BY IDOCK:   -4.23 KCAL/MOL
REMARK 922        TOTAL FREE ENERGY PREDICTED BY IDOCK:   -7.69 KCAL/MOL
REMARK 923 INTER-LIGAND FREE ENERGY PREDICTED BY IDOCK:   -6.74 KCAL/MOL
REMARK 924 INTRA-LIGAND FREE ENERGY PREDICTED BY IDOCK:   -0.94 KCAL/MOL
REMARK 927      BINDING AFFINITY PREDICTED BY RF-SCORE:    0.00 PKD
ROOT
HETATM    1  C   UNL     1     -12.585  13.028  64.741  1.00  0.00    -0.460 C  
HETATM    2  C   UNL     1     -11.138  12.705  64.380  1.00  0.00    -0.345 C  
ENDROOT
BRANCH   2   3
HETATM    3  N   UNL     1     -10.782  11.266  64.378  1.00  0.00    -0.348 NA 
BRANCH   3   4
HETATM    4  C   UNL     1      -9.897  10.948  63.229  1.00  0.00    -0.365 C  
BRANCH   4   5
HETATM    5  C   UNL     1      -8.918   9.778  63.442  1.00  0.00    -0.246 C  
HETATM    6  H   UNL     1      -7.406   8.959  62.477  1.00  0.00     0.000 HD 
HETATM    7  O   UNL     1      -8.010   9.680  62.345  1.00  0.00    -0.114 OA 
ENDBRANCH   4   5
ENDBRANCH   3   4
BRANCH   3   8
HETATM    8  C   UNL     1     -10.123  10.921  65.661  1.00  0.00    -0.261 C  
BRANCH   8   9
HETATM    9  C   UNL     1      -9.421  12.093  66.382  1.00  0.00    -0.238 C  
BRANCH   9  10
HETATM   10  C   UNL     1      -9.877  12.341  67.831  1.00  0.00    -0.201 C  
BRANCH  10  11
HETATM   11  C   UNL     1     -10.487  13.736  68.068  1.00  0.00    -0.244 C  
HETATM   12  C   UNL     1     -12.000  13.671  68.290  1.00  0.00    -0.385 C  
BRANCH  11  13
HETATM   13  N   UNL     1      -9.854  14.377  69.243  1.00  0.00    -0.419 NA 
HETATM   14  H   UNL     1     -10.180  14.186  70.191  1.00  0.00     0.000 HD 
BRANCH  13  15
HETATM   15  C   UNL     1      -8.774  15.269  68.997  1.00  0.00    -0.226 A  
HETATM   16  C   UNL     1      -9.025  16.606  68.584  1.00  0.00    -0.246 A  
HETATM   17  C   UNL     1     -10.318  17.130  68.342  1.00  0.00    -0.362 A  
HETATM   18  C   UNL     1     -10.494  18.452  67.926  1.00  0.00    -0.416 A  
HETATM   19  C   UNL     1      -9.381  19.260  67.734  1.00  0.00    -0.312 A  
HETATM   20  C   UNL     1      -8.102  18.761  67.965  1.00  0.00    -0.308 A  
HETATM   21 CL   UNL     1      -9.579  20.888  67.213  1.00  0.00    -0.515 Cl 
HETATM   22  C   UNL     1      -7.909  17.461  68.393  1.00  0.00    -0.257 A  
HETATM   23  N   UNL     1      -6.646  17.076  68.618  1.00  0.00    -0.168 NA 
HETATM   24  C   UNL     1      -6.442  15.828  69.075  1.00  0.00    -0.130 A  
HETATM   25  C   UNL     1      -7.458  14.920  69.300  1.00  0.00    -0.177 A  
ENDBRANCH  13  15
ENDBRANCH  11  13
ENDBRANCH  10  11
ENDBRANCH   9  10
ENDBRANCH   8   9
ENDBRANCH   3   8
ENDBRANCH   2   3
TORSDOF 9
ENDMDL
MODEL      130
REMARK 921   NORMALIZED FREE ENERGY PREDICTED BY IDOCK:   -4.22 KCAL/MOL
REMARK 922        TOTAL FREE ENERGY PREDICTED BY IDOCK:   -7.67 KCAL/MOL
REMARK 923 INTER-LIGAND FREE ENERGY PREDICTED BY IDOCK:   -6.84 KCAL/MOL
REMARK 924 INTRA-LIGAND FREE ENERGY PREDICTED BY IDOCK:   -0.83 KCAL/MOL
REMARK 927      BINDING AFFINITY PREDICTED BY RF-SCORE:    0.00 PKD
ROOT
HETATM    1  C   UNL     1     -10.267  19.863  68.681  1.00  0.00    -0.494 C  
HETATM    2  C   UNL     1      -9.395  19.043  67.736  1.00  0.00    -0.302 C  
ENDROOT
BRANCH   2   3
HETATM    3  N   UNL     1     -10.055  17.879  67.098  1.00  0.00    -0.326 NA 
BRANCH   3   4
HETATM    4  C   UNL     1      -9.050  16.987  66.467  1.00  0.00    -0.264 C  
BRANCH   4   5
HETATM    5  C   UNL     1      -9.617  15.861  65.582  1.00  0.00    -0.231 C  
HETATM    6  H   UNL     1      -9.570  13.890  65.538  1.00  0.00     0.000 HD 
HETATM    7  O   UNL     1      -9.220  14.585  66.083  1.00  0.00    -0.244 OA 
ENDBRANCH   4   5
ENDBRANCH   3   4
BRANCH   3   8
HETATM    8  C   UNL     1     -10.844  17.144  68.117  1.00  0.00    -0.316 C  
BRANCH   8   9
HETATM    9  C   UNL     1     -10.018  16.447  69.220  1.00  0.00    -0.259 C  
BRANCH   9  10
HETATM   10  C   UNL     1     -10.295  14.944  69.398  1.00  0.00    -0.217 C  
BRANCH  10  11
HETATM   11  C   UNL     1     -11.386  14.625  70.439  1.00  0.00    -0.181 C  
HETATM   12  C   UNL     1     -12.148  15.879  70.874  1.00  0.00    -0.414 C  
BRANCH  11  13
HETATM   13  N   UNL     1     -12.348  13.644  69.886  1.00  0.00    -0.289 NA 
HETATM   14  H   UNL     1     -13.336  13.672  70.137  1.00  0.00     0.000 HD 
BRANCH  13  15
HETATM   15  C   UNL     1     -11.837  12.662  68.993  1.00  0.00    -0.294 A  
HETATM   16  C   UNL     1     -11.970  12.829  67.588  1.00  0.00    -0.331 A  
HETATM   17  C   UNL     1     -12.642  13.918  66.981  1.00  0.00     0.050 A  
HETATM   18  C   UNL     1     -12.747  14.016  65.591  1.00  0.00    -0.515 A  
HETATM   19  C   UNL     1     -12.196  13.021  64.794  1.00  0.00    -0.435 A  
HETATM   20  C   UNL     1     -11.535  11.942  65.373  1.00  0.00    -0.310 A  
HETATM   21 CL   UNL     1     -12.325  13.120  63.081  1.00  0.00    -0.426 Cl 
HETATM   22  C   UNL     1     -11.406  11.837  66.746  1.00  0.00    -0.320 A  
HETATM   23  N   UNL     1     -10.728  10.780  67.213  1.00  0.00    -0.257 NA 
HETATM   24  C   UNL     1     -10.556  10.684  68.544  1.00  0.00    -0.200 A  
HETATM   25  C   UNL     1     -11.060  11.598  69.448  1.00  0.00    -0.268 A  
ENDBRANCH  13  15
ENDBRANCH  11  13
ENDBRANCH  10  11
ENDBRANCH   9  10
ENDBRANCH   8   9
ENDBRANCH   3   8
ENDBRANCH   2   3
TORSDOF 9
ENDMDL
MODEL      131
REMARK 921   NORMALIZED FREE ENERGY PREDICTED BY IDOCK:   -4.21 KCAL/MOL
REMARK 922        TOTAL FREE ENERGY PREDICTED BY IDOCK:   -7.65 KCAL/MOL
REMARK 923 INTER-LIGAND FREE ENERGY PREDICTED BY IDOCK:   -6.59 KCAL/MOL
REMARK 924 INTRA-LIGAND FREE ENERGY PREDICTED BY IDOCK:   -1.06 KCAL/MOL
REMARK 927      BINDING AFFINITY PREDICTED BY RF-SCORE:    0.00 PKD
ROOT
HETATM    1  C   UNL     1      -9.744   7.724  67.031  1.00  0.00    -0.259 C  
HETATM    2  C   UNL     1     -10.265   9.082  66.570  1.00  0.00    -0.248 C  
ENDROOT
BRANCH   2   3
HETATM    3  N   UNL     1      -9.361  10.233  66.810  1.00  0.00    -0.157 NA 
BRANCH   3   4
HETATM    4  C   UNL     1      -9.503  11.243  65.731  1.00  0.00    -0.227 C  
BRANCH   4   5
HETATM    5  C   UNL     1     -10.282  10.785  64.484  1.00  0.00    -0.359 C  
HETATM    6  H   UNL     1     -11.815  11.421  63.418  1.00  0.00     0.000 HD 
HETATM    7  O   UNL     1     -11.334  11.703  64.188  1.00  0.00    -0.352 OA 
ENDBRANCH   4   5
ENDBRANCH   3   4
BRANCH   3   8
HETATM    8  C   UNL     1      -9.666  10.829  68.133  1.00  0.00    -0.159 C  
BRANCH   8   9
HETATM    9  C   UNL     1     -11.122  10.655  68.619  1.00  0.00    -0.315 C  
BRANCH   9  10
HETATM   10  C   UNL     1     -11.432  11.263  69.998  1.00  0.00    -0.359 C  
BRANCH  10  11
HETATM   11  C   UNL     1     -12.074  12.663  69.938  1.00  0.00    -0.252 C  
HETATM   12  C   UNL     1     -12.778  13.029  71.247  1.00  0.00    -0.385 C  
BRANCH  11  13
HETATM   13  N   UNL     1     -11.044  13.685  69.642  1.00  0.00    -0.457 NA 
HETATM   14  H   UNL     1     -10.355  13.960  70.341  1.00  0.00     0.000 HD 
BRANCH  13  15
HETATM   15  C   UNL     1     -11.056  14.266  68.343  1.00  0.00    -0.256 A  
HETATM   16  C   UNL     1     -10.014  15.144  67.939  1.00  0.00    -0.221 A  
HETATM   17  C   UNL     1      -8.944  15.541  68.777  1.00  0.00    -0.204 A  
HETATM   18  C   UNL     1      -7.957  16.418  68.319  1.00  0.00    -0.170 A  
HETATM   19  C   UNL     1      -8.036  16.918  67.026  1.00  0.00    -0.198 A  
HETATM   20  C   UNL     1      -9.082  16.540  66.189  1.00  0.00    -0.342 A  
HETATM   21 CL   UNL     1      -6.834  18.007  66.449  1.00  0.00    -0.248 Cl 
HETATM   22  C   UNL     1     -10.059  15.661  66.619  1.00  0.00    -0.273 A  
HETATM   23  N   UNL     1     -11.011  15.331  65.735  1.00  0.00    -0.344 NA 
HETATM   24  C   UNL     1     -11.945  14.444  66.122  1.00  0.00    -0.369 A  
HETATM   25  C   UNL     1     -11.988  13.878  67.381  1.00  0.00    -0.436 A  
ENDBRANCH  13  15
ENDBRANCH  11  13
ENDBRANCH  10  11
ENDBRANCH   9  10
ENDBRANCH   8   9
ENDBRANCH   3   8
ENDBRANCH   2   3
TORSDOF 9
ENDMDL
MODEL      132
REMARK 921   NORMALIZED FREE ENERGY PREDICTED BY IDOCK:   -4.18 KCAL/MOL
REMARK 922        TOTAL FREE ENERGY PREDICTED BY IDOCK:   -7.60 KCAL/MOL
REMARK 923 INTER-LIGAND FREE ENERGY PREDICTED BY IDOCK:   -6.87 KCAL/MOL
REMARK 924 INTRA-LIGAND FREE ENERGY PREDICTED BY IDOCK:   -0.73 KCAL/MOL
REMARK 927      BINDING AFFINITY PREDICTED BY RF-SCORE:    0.00 PKD
ROOT
HETATM    1  C   UNL     1      -5.342  19.325  71.031  1.00  0.00    -0.268 C  
HETATM    2  C   UNL     1      -6.522  19.945  70.288  1.00  0.00    -0.252 C  
ENDROOT
BRANCH   2   3
HETATM    3  N   UNL     1      -6.942  19.246  69.051  1.00  0.00    -0.334 NA 
BRANCH   3   4
HETATM    4  C   UNL     1      -6.323  19.875  67.857  1.00  0.00    -0.229 C  
BRANCH   4   5
HETATM    5  C   UNL     1      -7.176  20.941  67.145  1.00  0.00    -0.334 C  
HETATM    6  H   UNL     1      -9.083  21.237  66.738  1.00  0.00     0.000 HD 
HETATM    7  O   UNL     1      -8.557  20.579  67.178  1.00  0.00    -0.335 OA 
ENDBRANCH   4   5
ENDBRANCH   3   4
BRANCH   3   8
HETATM    8  C   UNL     1      -6.566  17.814  69.145  1.00  0.00    -0.246 C  
BRANCH   8   9
HETATM    9  C   UNL     1      -7.704  16.809  68.857  1.00  0.00    -0.242 C  
BRANCH   9  10
HETATM   10  C   UNL     1      -7.772  16.291  67.409  1.00  0.00    -0.187 C  
BRANCH  10  11
HETATM   11  C   UNL     1      -9.205  16.142  66.862  1.00  0.00    -0.225 C  
HETATM   12  C   UNL     1      -9.789  17.483  66.409  1.00  0.00    -0.316 C  
BRANCH  11  13
HETATM   13  N   UNL     1      -9.221  15.199  65.721  1.00  0.00    -0.452 NA 
HETATM   14  H   UNL     1      -8.511  15.240  64.990  1.00  0.00     0.000 HD 
BRANCH  13  15
HETATM   15  C   UNL     1     -10.265  14.233  65.688  1.00  0.00    -0.347 A  
HETATM   16  C   UNL     1     -10.205  13.079  66.516  1.00  0.00    -0.270 A  
HETATM   17  C   UNL     1      -9.119  12.777  67.373  1.00  0.00    -0.192 A  
HETATM   18  C   UNL     1      -9.118  11.618  68.154  1.00  0.00    -0.183 A  
HETATM   19  C   UNL     1     -10.193  10.742  68.074  1.00  0.00    -0.178 A  
HETATM   20  C   UNL     1     -11.268  11.022  67.235  1.00  0.00    -0.330 A  
HETATM   21 CL   UNL     1     -10.204   9.304  69.021  1.00  0.00    -0.208 Cl 
HETATM   22  C   UNL     1     -11.294  12.172  66.468  1.00  0.00    -0.350 A  
HETATM   23  N   UNL     1     -12.381  12.374  65.712  1.00  0.00    -0.603 NA 
HETATM   24  C   UNL     1     -12.444  13.508  64.992  1.00  0.00    -0.417 A  
HETATM   25  C   UNL     1     -11.441  14.457  64.973  1.00  0.00    -0.372 A  
ENDBRANCH  13  15
ENDBRANCH  11  13
ENDBRANCH  10  11
ENDBRANCH   9  10
ENDBRANCH   8   9
ENDBRANCH   3   8
ENDBRANCH   2   3
TORSDOF 9
ENDMDL
MODEL      133
REMARK 921   NORMALIZED FREE ENERGY PREDICTED BY IDOCK:   -4.17 KCAL/MOL
REMARK 922        TOTAL FREE ENERGY PREDICTED BY IDOCK:   -7.59 KCAL/MOL
REMARK 923 INTER-LIGAND FREE ENERGY PREDICTED BY IDOCK:   -6.24 KCAL/MOL
REMARK 924 INTRA-LIGAND FREE ENERGY PREDICTED BY IDOCK:   -1.35 KCAL/MOL
REMARK 927      BINDING AFFINITY PREDICTED BY RF-SCORE:    0.00 PKD
ROOT
HETATM    1  C   UNL     1     -10.907   6.779  67.061  1.00  0.00    -0.453 C  
HETATM    2  C   UNL     1      -9.419   7.030  66.829  1.00  0.00    -0.163 C  
ENDROOT
BRANCH   2   3
HETATM    3  N   UNL     1      -8.979   8.441  66.947  1.00  0.00    -0.140 NA 
BRANCH   3   4
HETATM    4  C   UNL     1      -7.497   8.528  66.944  1.00  0.00    -0.084 C  
BRANCH   4   5
HETATM    5  C   UNL     1      -6.903   9.821  67.535  1.00  0.00    -0.082 C  
HETATM    6  H   UNL     1      -7.286  11.036  69.040  1.00  0.00     0.000 HD 
HETATM    7  O   UNL     1      -7.653  10.240  68.676  1.00  0.00    -0.082 OA 
ENDBRANCH   4   5
ENDBRANCH   3   4
BRANCH   3   8
HETATM    8  C   UNL     1      -9.555   9.229  65.830  1.00  0.00    -0.275 C  
BRANCH   8   9
HETATM    9  C   UNL     1     -10.406  10.448  66.249  1.00  0.00    -0.270 C  
BRANCH   9  10
HETATM   10  C   UNL     1     -11.030  10.363  67.653  1.00  0.00    -0.374 C  
BRANCH  10  11
HETATM   11  C   UNL     1     -10.669  11.545  68.574  1.00  0.00    -0.209 C  
HETATM   12  C   UNL     1     -11.799  12.574  68.657  1.00  0.00    -0.340 C  
BRANCH  11  13
HETATM   13  N   UNL     1     -10.363  11.055  69.937  1.00  0.00    -0.389 NA 
HETATM   14  H   UNL     1      -9.492  11.304  70.407  1.00  0.00     0.000 HD 
BRANCH  13  15
HETATM   15  C   UNL     1     -11.332  10.223  70.565  1.00  0.00    -0.341 A  
HETATM   16  C   UNL     1     -11.050   8.852  70.813  1.00  0.00    -0.312 A  
HETATM   17  C   UNL     1      -9.850   8.208  70.424  1.00  0.00    -0.188 A  
HETATM   18  C   UNL     1      -9.642   6.852  70.689  1.00  0.00    -0.171 A  
HETATM   19  C   UNL     1     -10.636   6.123  71.329  1.00  0.00    -0.243 A  
HETATM   20  C   UNL     1     -11.823   6.738  71.715  1.00  0.00    -0.371 A  
HETATM   21 CL   UNL     1     -10.400   4.448  71.654  1.00  0.00    -0.178 Cl 
HETATM   22  C   UNL     1     -12.039   8.083  71.478  1.00  0.00    -0.298 A  
HETATM   23  N   UNL     1     -13.198   8.598  71.910  1.00  0.00    -0.355 NA 
HETATM   24  C   UNL     1     -13.408   9.913  71.726  1.00  0.00    -0.404 A  
HETATM   25  C   UNL     1     -12.509  10.750  71.095  1.00  0.00    -0.519 A  
ENDBRANCH  13  15
ENDBRANCH  11  13
ENDBRANCH  10  11
ENDBRANCH   9  10
ENDBRANCH   8   9
ENDBRANCH   3   8
ENDBRANCH   2   3
TORSDOF 9
ENDMDL
MODEL      134
REMARK 921   NORMALIZED FREE ENERGY PREDICTED BY IDOCK:   -4.17 KCAL/MOL
REMARK 922        TOTAL FREE ENERGY PREDICTED BY IDOCK:   -7.58 KCAL/MOL
REMARK 923 INTER-LIGAND FREE ENERGY PREDICTED BY IDOCK:   -6.57 KCAL/MOL
REMARK 924 INTRA-LIGAND FREE ENERGY PREDICTED BY IDOCK:   -1.02 KCAL/MOL
REMARK 927      BINDING AFFINITY PREDICTED BY RF-SCORE:    0.00 PKD
ROOT
HETATM    1  C   UNL     1      -7.665  14.803  67.347  1.00  0.00    -0.230 C  
HETATM    2  C   UNL     1      -7.596  15.603  68.644  1.00  0.00    -0.143 C  
ENDROOT
BRANCH   2   3
HETATM    3  N   UNL     1      -8.121  16.987  68.574  1.00  0.00    -0.241 NA 
BRANCH   3   4
HETATM    4  C   UNL     1      -7.067  17.924  68.110  1.00  0.00    -0.224 C  
BRANCH   4   5
HETATM    5  C   UNL     1      -7.460  18.847  66.941  1.00  0.00    -0.223 C  
HETATM    6  H   UNL     1      -7.226  20.741  66.448  1.00  0.00     0.000 HD 
HETATM    7  O   UNL     1      -6.984  20.173  67.169  1.00  0.00    -0.219 OA 
ENDBRANCH   4   5
ENDBRANCH   3   4
BRANCH   3   8
HETATM    8  C   UNL     1      -9.293  17.022  67.666  1.00  0.00    -0.241 C  
BRANCH   8   9
HETATM    9  C   UNL     1     -10.651  17.305  68.346  1.00  0.00    -0.368 C  
BRANCH   9  10
HETATM   10  C   UNL     1     -11.640  16.127  68.355  1.00  0.00    -0.228 C  
BRANCH  10  11
HETATM   11  C   UNL     1     -11.316  15.041  69.400  1.00  0.00    -0.297 C  
HETATM   12  C   UNL     1     -11.117  15.632  70.798  1.00  0.00    -0.382 C  
BRANCH  11  13
HETATM   13  N   UNL     1     -12.404  14.038  69.450  1.00  0.00    -0.455 NA 
HETATM   14  H   UNL     1     -13.383  14.320  69.477  1.00  0.00     0.000 HD 
BRANCH  13  15
HETATM   15  C   UNL     1     -12.026  12.666  69.459  1.00  0.00    -0.270 A  
HETATM   16  C   UNL     1     -11.482  12.063  68.293  1.00  0.00    -0.361 A  
HETATM   17  C   UNL     1     -11.324  12.733  67.055  1.00  0.00    -0.364 A  
HETATM   18  C   UNL     1     -10.792  12.076  65.943  1.00  0.00    -0.329 A  
HETATM   19  C   UNL     1     -10.428  10.740  66.050  1.00  0.00    -0.208 A  
HETATM   20  C   UNL     1     -10.579  10.064  67.258  1.00  0.00    -0.319 A  
HETATM   21 CL   UNL     1      -9.780   9.912  64.687  1.00  0.00    -0.338 Cl 
HETATM   22  C   UNL     1     -11.088  10.702  68.373  1.00  0.00    -0.272 A  
HETATM   23  N   UNL     1     -11.170   9.983  69.501  1.00  0.00    -0.229 NA 
HETATM   24  C   UNL     1     -11.623  10.599  70.607  1.00  0.00    -0.336 A  
HETATM   25  C   UNL     1     -12.027  11.919  70.636  1.00  0.00    -0.289 A  
ENDBRANCH  13  15
ENDBRANCH  11  13
ENDBRANCH  10  11
ENDBRANCH   9  10
ENDBRANCH   8   9
ENDBRANCH   3   8
ENDBRANCH   2   3
TORSDOF 9
ENDMDL
MODEL      135
REMARK 921   NORMALIZED FREE ENERGY PREDICTED BY IDOCK:   -4.15 KCAL/MOL
REMARK 922        TOTAL FREE ENERGY PREDICTED BY IDOCK:   -7.56 KCAL/MOL
REMARK 923 INTER-LIGAND FREE ENERGY PREDICTED BY IDOCK:   -6.14 KCAL/MOL
REMARK 924 INTRA-LIGAND FREE ENERGY PREDICTED BY IDOCK:   -1.42 KCAL/MOL
REMARK 927      BINDING AFFINITY PREDICTED BY RF-SCORE:    0.00 PKD
ROOT
HETATM    1  C   UNL     1     -12.339  10.924  69.849  1.00  0.00    -0.354 C  
HETATM    2  C   UNL     1     -11.461  11.840  69.001  1.00  0.00    -0.297 C  
ENDROOT
BRANCH   2   3
HETATM    3  N   UNL     1     -12.009  12.208  67.674  1.00  0.00    -0.543 NA 
BRANCH   3   4
HETATM    4  C   UNL     1     -12.139  13.682  67.551  1.00  0.00    -0.316 C  
BRANCH   4   5
HETATM    5  C   UNL     1     -11.809  14.490  68.820  1.00  0.00    -0.315 C  
HETATM    6  H   UNL     1     -11.546  16.383  69.305  1.00  0.00     0.000 HD 
HETATM    7  O   UNL     1     -11.749  15.885  68.523  1.00  0.00    -0.383 OA 
ENDBRANCH   4   5
ENDBRANCH   3   4
BRANCH   3   8
HETATM    8  C   UNL     1     -11.127  11.667  66.612  1.00  0.00    -0.307 C  
BRANCH   8   9
HETATM    9  C   UNL     1      -9.771  12.389  66.445  1.00  0.00    -0.246 C  
BRANCH   9  10
HETATM   10  C   UNL     1      -8.527  11.501  66.625  1.00  0.00    -0.172 C  
BRANCH  10  11
HETATM   11  C   UNL     1      -8.677  10.083  66.041  1.00  0.00    -0.138 C  
HETATM   12  C   UNL     1      -7.876   9.907  64.748  1.00  0.00    -0.141 C  
BRANCH  11  13
HETATM   13  N   UNL     1      -8.229   9.074  67.027  1.00  0.00    -0.109 NA 
HETATM   14  H   UNL     1      -7.272   9.066  67.379  1.00  0.00     0.000 HD 
BRANCH  13  15
HETATM   15  C   UNL     1      -9.188   8.118  67.463  1.00  0.00    -0.137 A  
HETATM   16  C   UNL     1      -9.619   8.098  68.818  1.00  0.00    -0.149 A  
HETATM   17  C   UNL     1      -9.113   8.959  69.822  1.00  0.00    -0.151 A  
HETATM   18  C   UNL     1      -9.573   8.879  71.139  1.00  0.00    -0.342 A  
HETATM   19  C   UNL     1     -10.530   7.928  71.469  1.00  0.00    -0.210 A  
HETATM   20  C   UNL     1     -11.036   7.072  70.496  1.00  0.00    -0.316 A  
HETATM   21 CL   UNL     1     -11.100   7.809  73.089  1.00  0.00    -0.429 Cl 
HETATM   22  C   UNL     1     -10.606   7.147  69.185  1.00  0.00    -0.214 A  
HETATM   23  N   UNL     1     -11.169   6.303  68.310  1.00  0.00    -0.275 NA 
HETATM   24  C   UNL     1     -10.794   6.392  67.022  1.00  0.00    -0.392 A  
HETATM   25  C   UNL     1      -9.847   7.284  66.561  1.00  0.00    -0.202 A  
ENDBRANCH  13  15
ENDBRANCH  11  13
ENDBRANCH  10  11
ENDBRANCH   9  10
ENDBRANCH   8   9
ENDBRANCH   3   8
ENDBRANCH   2   3
TORSDOF 9
ENDMDL
MODEL      136
REMARK 921   NORMALIZED FREE ENERGY PREDICTED BY IDOCK:   -4.14 KCAL/MOL
REMARK 922        TOTAL FREE ENERGY PREDICTED BY IDOCK:   -7.55 KCAL/MOL
REMARK 923 INTER-LIGAND FREE ENERGY PREDICTED BY IDOCK:   -6.74 KCAL/MOL
REMARK 924 INTRA-LIGAND FREE ENERGY PREDICTED BY IDOCK:   -0.81 KCAL/MOL
REMARK 927      BINDING AFFINITY PREDICTED BY RF-SCORE:    0.00 PKD
ROOT
HETATM    1  C   UNL     1     -12.282  13.690  70.466  1.00  0.00    -0.438 C  
HETATM    2  C   UNL     1     -12.243  12.172  70.608  1.00  0.00    -0.300 C  
ENDROOT
BRANCH   2   3
HETATM    3  N   UNL     1     -11.400  11.455  69.621  1.00  0.00    -0.277 NA 
BRANCH   3   4
HETATM    4  C   UNL     1     -11.394   9.997  69.900  1.00  0.00    -0.250 C  
BRANCH   4   5
HETATM    5  C   UNL     1     -11.479   9.599  71.385  1.00  0.00    -0.385 C  
HETATM    6  H   UNL     1     -12.215   8.110  72.447  1.00  0.00     0.000 HD 
HETATM    7  O   UNL     1     -12.163   8.355  71.531  1.00  0.00    -0.286 OA 
ENDBRANCH   4   5
ENDBRANCH   3   4
BRANCH   3   8
HETATM    8  C   UNL     1     -11.907  11.728  68.254  1.00  0.00    -0.271 C  
BRANCH   8   9
HETATM    9  C   UNL     1     -10.827  11.839  67.156  1.00  0.00    -0.303 C  
BRANCH   9  10
HETATM   10  C   UNL     1     -10.641  13.244  66.556  1.00  0.00    -0.289 C  
BRANCH  10  11
HETATM   11  C   UNL     1      -9.423  14.008  67.110  1.00  0.00    -0.241 C  
HETATM   12  C   UNL     1      -8.251  13.073  67.420  1.00  0.00    -0.183 C  
BRANCH  11  13
HETATM   13  N   UNL     1      -8.978  15.033  66.138  1.00  0.00    -0.485 NA 
HETATM   14  H   UNL     1      -8.400  14.786  65.335  1.00  0.00     0.000 HD 
BRANCH  13  15
HETATM   15  C   UNL     1      -9.390  16.375  66.370  1.00  0.00    -0.292 A  
HETATM   16  C   UNL     1      -8.643  17.216  67.239  1.00  0.00    -0.214 A  
HETATM   17  C   UNL     1      -7.500  16.794  67.960  1.00  0.00    -0.172 A  
HETATM   18  C   UNL     1      -6.817  17.671  68.807  1.00  0.00    -0.235 A  
HETATM   19  C   UNL     1      -7.278  18.973  68.954  1.00  0.00    -0.329 A  
HETATM   20  C   UNL     1      -8.402  19.404  68.256  1.00  0.00    -0.379 A  
HETATM   21 CL   UNL     1      -6.456  20.063  70.002  1.00  0.00    -0.387 Cl 
HETATM   22  C   UNL     1      -9.080  18.556  67.400  1.00  0.00    -0.275 A  
HETATM   23  N   UNL     1     -10.132  19.066  66.747  1.00  0.00    -0.351 NA 
HETATM   24  C   UNL     1     -10.778  18.268  65.878  1.00  0.00    -0.144 A  
HETATM   25  C   UNL     1     -10.431  16.952  65.644  1.00  0.00    -0.252 A  
ENDBRANCH  13  15
ENDBRANCH  11  13
ENDBRANCH  10  11
ENDBRANCH   9  10
ENDBRANCH   8   9
ENDBRANCH   3   8
ENDBRANCH   2   3
TORSDOF 9
ENDMDL
MODEL      137
REMARK 921   NORMALIZED FREE ENERGY PREDICTED BY IDOCK:   -4.14 KCAL/MOL
REMARK 922        TOTAL FREE ENERGY PREDICTED BY IDOCK:   -7.55 KCAL/MOL
REMARK 923 INTER-LIGAND FREE ENERGY PREDICTED BY IDOCK:   -7.01 KCAL/MOL
REMARK 924 INTRA-LIGAND FREE ENERGY PREDICTED BY IDOCK:   -0.54 KCAL/MOL
REMARK 927      BINDING AFFINITY PREDICTED BY RF-SCORE:    0.00 PKD
ROOT
HETATM    1  C   UNL     1      -6.619  13.877  69.194  1.00  0.00    -0.111 C  
HETATM    2  C   UNL     1      -6.972  15.216  69.835  1.00  0.00    -0.140 C  
ENDROOT
BRANCH   2   3
HETATM    3  N   UNL     1      -7.979  16.029  69.112  1.00  0.00    -0.231 NA 
BRANCH   3   4
HETATM    4  C   UNL     1      -7.315  17.035  68.245  1.00  0.00    -0.203 C  
BRANCH   4   5
HETATM    5  C   UNL     1      -7.091  16.612  66.781  1.00  0.00    -0.236 C  
HETATM    6  H   UNL     1      -7.112  17.470  65.006  1.00  0.00     0.000 HD 
HETATM    7  O   UNL     1      -7.250  17.731  65.908  1.00  0.00    -0.402 OA 
ENDBRANCH   4   5
ENDBRANCH   3   4
BRANCH   3   8
HETATM    8  C   UNL     1      -8.847  15.134  68.310  1.00  0.00    -0.173 C  
BRANCH   8   9
HETATM    9  C   UNL     1     -10.310  15.602  68.146  1.00  0.00    -0.246 C  
BRANCH   9  10
HETATM   10  C   UNL     1     -11.258  14.581  67.492  1.00  0.00    -0.333 C  
BRANCH  10  11
HETATM   11  C   UNL     1     -11.351  13.239  68.245  1.00  0.00    -0.300 C  
HETATM   12  C   UNL     1     -12.143  13.366  69.548  1.00  0.00    -0.334 C  
BRANCH  11  13
HETATM   13  N   UNL     1     -11.992  12.216  67.388  1.00  0.00    -0.570 NA 
HETATM   14  H   UNL     1     -12.616  11.511  67.781  1.00  0.00     0.000 HD 
BRANCH  13  15
HETATM   15  C   UNL     1     -11.703  12.257  65.995  1.00  0.00    -0.388 A  
HETATM   16  C   UNL     1     -10.738  11.377  65.435  1.00  0.00    -0.313 A  
HETATM   17  C   UNL     1      -9.973  10.457  66.192  1.00  0.00    -0.290 A  
HETATM   18  C   UNL     1      -9.030   9.627  65.579  1.00  0.00    -0.223 A  
HETATM   19  C   UNL     1      -8.832   9.719  64.208  1.00  0.00    -0.228 A  
HETATM   20  C   UNL     1      -9.572  10.619  63.448  1.00  0.00    -0.373 A  
HETATM   21 CL   UNL     1      -7.667   8.711  63.438  1.00  0.00    -0.131 Cl 
HETATM   22  C   UNL     1     -10.521  11.436  64.034  1.00  0.00    -0.378 A  
HETATM   23  N   UNL     1     -11.207  12.251  63.222  1.00  0.00    -0.393 NA 
HETATM   24  C   UNL     1     -12.164  13.022  63.769  1.00  0.00    -0.460 A  
HETATM   25  C   UNL     1     -12.457  13.036  65.118  1.00  0.00    -0.552 A  
ENDBRANCH  13  15
ENDBRANCH  11  13
ENDBRANCH  10  11
ENDBRANCH   9  10
ENDBRANCH   8   9
ENDBRANCH   3   8
ENDBRANCH   2   3
TORSDOF 9
ENDMDL
MODEL      138
REMARK 921   NORMALIZED FREE ENERGY PREDICTED BY IDOCK:   -4.14 KCAL/MOL
REMARK 922        TOTAL FREE ENERGY PREDICTED BY IDOCK:   -7.55 KCAL/MOL
REMARK 923 INTER-LIGAND FREE ENERGY PREDICTED BY IDOCK:   -6.61 KCAL/MOL
REMARK 924 INTRA-LIGAND FREE ENERGY PREDICTED BY IDOCK:   -0.94 KCAL/MOL
REMARK 927      BINDING AFFINITY PREDICTED BY RF-SCORE:    0.00 PKD
ROOT
HETATM    1  C   UNL     1     -10.574   4.858  66.261  1.00  0.00    -0.307 C  
HETATM    2  C   UNL     1      -9.206   5.476  65.985  1.00  0.00    -0.158 C  
ENDROOT
BRANCH   2   3
HETATM    3  N   UNL     1      -8.787   6.550  66.917  1.00  0.00    -0.117 NA 
BRANCH   3   4
HETATM    4  C   UNL     1      -7.342   6.432  67.236  1.00  0.00    -0.087 C  
BRANCH   4   5
HETATM    5  C   UNL     1      -6.941   6.814  68.674  1.00  0.00    -0.080 C  
HETATM    6  H   UNL     1      -7.719   6.675  70.480  1.00  0.00     0.000 HD 
HETATM    7  O   UNL     1      -7.966   6.439  69.594  1.00  0.00    -0.111 OA 
ENDBRANCH   4   5
ENDBRANCH   3   4
BRANCH   3   8
HETATM    8  C   UNL     1      -9.085   7.870  66.309  1.00  0.00    -0.179 C  
BRANCH   8   9
HETATM    9  C   UNL     1     -10.316   8.603  66.885  1.00  0.00    -0.355 C  
BRANCH   9  10
HETATM   10  C   UNL     1     -10.645   8.281  68.354  1.00  0.00    -0.148 C  
BRANCH  10  11
HETATM   11  C   UNL     1     -10.768   9.524  69.256  1.00  0.00    -0.222 C  
HETATM   12  C   UNL     1      -9.509  10.394  69.211  1.00  0.00    -0.214 C  
BRANCH  11  13
HETATM   13  N   UNL     1     -11.933  10.340  68.846  1.00  0.00    -0.649 NA 
HETATM   14  H   UNL     1     -12.744   9.917  68.394  1.00  0.00     0.000 HD 
BRANCH  13  15
HETATM   15  C   UNL     1     -11.875  11.738  69.108  1.00  0.00    -0.326 A  
HETATM   16  C   UNL     1     -11.698  12.662  68.043  1.00  0.00    -0.402 A  
HETATM   17  C   UNL     1     -11.518  12.285  66.689  1.00  0.00    -0.431 A  
HETATM   18  C   UNL     1     -11.338  13.247  65.692  1.00  0.00    -0.325 A  
HETATM   19  C   UNL     1     -11.319  14.592  66.037  1.00  0.00    -0.341 A  
HETATM   20  C   UNL     1     -11.491  14.980  67.362  1.00  0.00    -0.326 A  
HETATM   21 CL   UNL     1     -11.087  15.789  64.821  1.00  0.00    -0.453 Cl 
HETATM   22  C   UNL     1     -11.689  14.045  68.360  1.00  0.00    -0.354 A  
HETATM   23  N   UNL     1     -11.875  14.511  69.602  1.00  0.00    -0.299 NA 
HETATM   24  C   UNL     1     -12.111  13.618  70.580  1.00  0.00    -0.339 A  
HETATM   25  C   UNL     1     -12.146  12.252  70.375  1.00  0.00    -0.385 A  
ENDBRANCH  13  15
ENDBRANCH  11  13
ENDBRANCH  10  11
ENDBRANCH   9  10
ENDBRANCH   8   9
ENDBRANCH   3   8
ENDBRANCH   2   3
TORSDOF 9
ENDMDL
MODEL      139
REMARK 921   NORMALIZED FREE ENERGY PREDICTED BY IDOCK:   -4.14 KCAL/MOL
REMARK 922        TOTAL FREE ENERGY PREDICTED BY IDOCK:   -7.55 KCAL/MOL
REMARK 923 INTER-LIGAND FREE ENERGY PREDICTED BY IDOCK:   -6.17 KCAL/MOL
REMARK 924 INTRA-LIGAND FREE ENERGY PREDICTED BY IDOCK:   -1.37 KCAL/MOL
REMARK 927      BINDING AFFINITY PREDICTED BY RF-SCORE:    0.00 PKD
ROOT
HETATM    1  C   UNL     1      -8.031  10.769  68.414  1.00  0.00    -0.124 C  
HETATM    2  C   UNL     1      -8.433   9.303  68.275  1.00  0.00    -0.120 C  
ENDROOT
BRANCH   2   3
HETATM    3  N   UNL     1      -8.829   8.624  69.532  1.00  0.00    -0.142 NA 
BRANCH   3   4
HETATM    4  C   UNL     1      -7.639   8.072  70.226  1.00  0.00    -0.081 C  
BRANCH   4   5
HETATM    5  C   UNL     1      -7.913   7.376  71.573  1.00  0.00    -0.095 C  
HETATM    6  H   UNL     1      -7.168   5.870  72.604  1.00  0.00     0.000 HD 
HETATM    7  O   UNL     1      -6.999   6.299  71.774  1.00  0.00    -0.073 OA 
ENDBRANCH   4   5
ENDBRANCH   3   4
BRANCH   3   8
HETATM    8  C   UNL     1      -9.548   9.585  70.403  1.00  0.00    -0.269 C  
BRANCH   8   9
HETATM    9  C   UNL     1     -11.025   9.843  70.030  1.00  0.00    -0.338 C  
BRANCH   9  10
HETATM   10  C   UNL     1     -11.975  10.062  71.220  1.00  0.00    -0.483 C  
BRANCH  10  11
HETATM   11  C   UNL     1     -12.519   8.759  71.838  1.00  0.00    -0.372 C  
HETATM   12  C   UNL     1     -13.920   8.943  72.426  1.00  0.00    -0.516 C  
BRANCH  11  13
HETATM   13  N   UNL     1     -12.561   7.688  70.817  1.00  0.00    -0.537 NA 
HETATM   14  H   UNL     1     -13.179   7.751  70.008  1.00  0.00     0.000 HD 
BRANCH  13  15
HETATM   15  C   UNL     1     -11.706   6.568  71.010  1.00  0.00    -0.343 A  
HETATM   16  C   UNL     1     -11.016   5.991  69.910  1.00  0.00    -0.458 A  
HETATM   17  C   UNL     1     -11.155   6.430  68.570  1.00  0.00    -0.385 A  
HETATM   18  C   UNL     1     -10.455   5.811  67.532  1.00  0.00    -0.310 A  
HETATM   19  C   UNL     1      -9.621   4.737  67.818  1.00  0.00    -0.154 A  
HETATM   20  C   UNL     1      -9.475   4.290  69.128  1.00  0.00    -0.245 A  
HETATM   21 CL   UNL     1      -8.759   3.955  66.550  1.00  0.00    -0.111 Cl 
HETATM   22  C   UNL     1     -10.146   4.901  70.170  1.00  0.00    -0.261 A  
HETATM   23  N   UNL     1      -9.921   4.423  71.402  1.00  0.00    -0.189 NA 
HETATM   24  C   UNL     1     -10.533   5.033  72.433  1.00  0.00    -0.217 A  
HETATM   25  C   UNL     1     -11.393   6.103  72.287  1.00  0.00    -0.346 A  
ENDBRANCH  13  15
ENDBRANCH  11  13
ENDBRANCH  10  11
ENDBRANCH   9  10
ENDBRANCH   8   9
ENDBRANCH   3   8
ENDBRANCH   2   3
TORSDOF 9
ENDMDL
MODEL      140
REMARK 921   NORMALIZED FREE ENERGY PREDICTED BY IDOCK:   -4.12 KCAL/MOL
REMARK 922        TOTAL FREE ENERGY PREDICTED BY IDOCK:   -7.51 KCAL/MOL
REMARK 923 INTER-LIGAND FREE ENERGY PREDICTED BY IDOCK:   -6.49 KCAL/MOL
REMARK 924 INTRA-LIGAND FREE ENERGY PREDICTED BY IDOCK:   -1.02 KCAL/MOL
REMARK 927      BINDING AFFINITY PREDICTED BY RF-SCORE:    0.00 PKD
ROOT
HETATM    1  C   UNL     1      -6.353  20.779  67.651  1.00  0.00    -0.361 C  
HETATM    2  C   UNL     1      -7.124  19.883  68.615  1.00  0.00    -0.303 C  
ENDROOT
BRANCH   2   3
HETATM    3  N   UNL     1      -7.921  18.801  67.990  1.00  0.00    -0.273 NA 
BRANCH   3   4
HETATM    4  C   UNL     1      -7.225  17.496  68.122  1.00  0.00    -0.216 C  
BRANCH   4   5
HETATM    5  C   UNL     1      -7.557  16.686  69.389  1.00  0.00    -0.028 C  
HETATM    6  H   UNL     1      -7.711  14.787  69.896  1.00  0.00     0.000 HD 
HETATM    7  O   UNL     1      -7.507  15.286  69.115  1.00  0.00    -0.147 OA 
ENDBRANCH   4   5
ENDBRANCH   3   4
BRANCH   3   8
HETATM    8  C   UNL     1      -9.261  18.749  68.624  1.00  0.00    -0.347 C  
BRANCH   8   9
HETATM    9  C   UNL     1     -10.448  18.572  67.653  1.00  0.00    -0.452 C  
BRANCH   9  10
HETATM   10  C   UNL     1     -10.152  17.729  66.400  1.00  0.00    -0.357 C  
BRANCH  10  11
HETATM   11  C   UNL     1     -10.720  16.297  66.457  1.00  0.00    -0.187 C  
HETATM   12  C   UNL     1     -10.571  15.567  65.119  1.00  0.00    -0.455 C  
BRANCH  11  13
HETATM   13  N   UNL     1     -10.032  15.517  67.511  1.00  0.00    -0.229 NA 
HETATM   14  H   UNL     1      -9.042  15.655  67.711  1.00  0.00     0.000 HD 
BRANCH  13  15
HETATM   15  C   UNL     1     -10.810  14.568  68.232  1.00  0.00    -0.241 A  
HETATM   16  C   UNL     1     -10.697  13.180  67.946  1.00  0.00    -0.249 A  
HETATM   17  C   UNL     1      -9.874  12.647  66.925  1.00  0.00    -0.234 A  
HETATM   18  C   UNL     1      -9.818  11.271  66.689  1.00  0.00    -0.235 A  
HETATM   19  C   UNL     1     -10.595  10.416  67.460  1.00  0.00    -0.262 A  
HETATM   20  C   UNL     1     -11.413  10.922  68.466  1.00  0.00    -0.380 A  
HETATM   21 CL   UNL     1     -10.547   8.719  67.176  1.00  0.00    -0.349 Cl 
HETATM   22  C   UNL     1     -11.468  12.279  68.725  1.00  0.00    -0.311 A  
HETATM   23  N   UNL     1     -12.259  12.674  69.731  1.00  0.00    -0.200 NA 
HETATM   24  C   UNL     1     -12.292  13.986  70.026  1.00  0.00    -0.337 A  
HETATM   25  C   UNL     1     -11.578  14.944  69.333  1.00  0.00    -0.337 A  
ENDBRANCH  13  15
ENDBRANCH  11  13
ENDBRANCH  10  11
ENDBRANCH   9  10
ENDBRANCH   8   9
ENDBRANCH   3   8
ENDBRANCH   2   3
TORSDOF 9
ENDMDL
MODEL      141
REMARK 921   NORMALIZED FREE ENERGY PREDICTED BY IDOCK:   -4.11 KCAL/MOL
REMARK 922        TOTAL FREE ENERGY PREDICTED BY IDOCK:   -7.50 KCAL/MOL
REMARK 923 INTER-LIGAND FREE ENERGY PREDICTED BY IDOCK:   -6.75 KCAL/MOL
REMARK 924 INTRA-LIGAND FREE ENERGY PREDICTED BY IDOCK:   -0.75 KCAL/MOL
REMARK 927      BINDING AFFINITY PREDICTED BY RF-SCORE:    0.00 PKD
ROOT
HETATM    1  C   UNL     1     -11.566  10.506  70.096  1.00  0.00    -0.408 C  
HETATM    2  C   UNL     1     -10.322   9.709  69.713  1.00  0.00    -0.241 C  
ENDROOT
BRANCH   2   3
HETATM    3  N   UNL     1      -9.702  10.070  68.416  1.00  0.00    -0.144 NA 
BRANCH   3   4
HETATM    4  C   UNL     1      -8.625   9.109  68.066  1.00  0.00    -0.125 C  
BRANCH   4   5
HETATM    5  C   UNL     1      -9.096   7.757  67.495  1.00  0.00    -0.129 C  
HETATM    6  H   UNL     1      -8.801   6.692  65.862  1.00  0.00     0.000 HD 
HETATM    7  O   UNL     1      -8.511   7.526  66.214  1.00  0.00    -0.125 OA 
ENDBRANCH   4   5
ENDBRANCH   3   4
BRANCH   3   8
HETATM    8  C   UNL     1     -10.746  10.097  67.364  1.00  0.00    -0.277 C  
BRANCH   8   9
HETATM    9  C   UNL     1     -10.376  10.874  66.081  1.00  0.00    -0.305 C  
BRANCH   9  10
HETATM   10  C   UNL     1     -11.349  12.001  65.691  1.00  0.00    -0.381 C  
BRANCH  10  11
HETATM   11  C   UNL     1     -10.661  13.254  65.116  1.00  0.00    -0.330 C  
HETATM   12  C   UNL     1     -11.627  14.436  64.997  1.00  0.00    -0.374 C  
BRANCH  11  13
HETATM   13  N   UNL     1      -9.520  13.649  65.974  1.00  0.00    -0.488 NA 
HETATM   14  H   UNL     1      -8.721  13.030  66.112  1.00  0.00     0.000 HD 
BRANCH  13  15
HETATM   15  C   UNL     1      -9.584  14.927  66.596  1.00  0.00    -0.266 A  
HETATM   16  C   UNL     1     -10.249  15.088  67.842  1.00  0.00    -0.228 A  
HETATM   17  C   UNL     1     -10.923  14.043  68.520  1.00  0.00    -0.274 A  
HETATM   18  C   UNL     1     -11.567  14.272  69.738  1.00  0.00    -0.350 A  
HETATM   19  C   UNL     1     -11.558  15.548  70.285  1.00  0.00    -0.335 A  
HETATM   20  C   UNL     1     -10.902  16.588  69.632  1.00  0.00    -0.322 A  
HETATM   21 CL   UNL     1     -12.355  15.851  71.780  1.00  0.00    -0.508 Cl 
HETATM   22  C   UNL     1     -10.245  16.377  68.434  1.00  0.00    -0.259 A  
HETATM   23  N   UNL     1      -9.617  17.429  67.892  1.00  0.00    -0.261 NA 
HETATM   24  C   UNL     1      -8.936  17.232  66.749  1.00  0.00    -0.250 A  
HETATM   25  C   UNL     1      -8.873  16.017  66.096  1.00  0.00    -0.366 A  
ENDBRANCH  13  15
ENDBRANCH  11  13
ENDBRANCH  10  11
ENDBRANCH   9  10
ENDBRANCH   8   9
ENDBRANCH   3   8
ENDBRANCH   2   3
TORSDOF 9
ENDMDL
MODEL      142
REMARK 921   NORMALIZED FREE ENERGY PREDICTED BY IDOCK:   -4.09 KCAL/MOL
REMARK 922        TOTAL FREE ENERGY PREDICTED BY IDOCK:   -7.47 KCAL/MOL
REMARK 923 INTER-LIGAND FREE ENERGY PREDICTED BY IDOCK:   -6.67 KCAL/MOL
REMARK 924 INTRA-LIGAND FREE ENERGY PREDICTED BY IDOCK:   -0.80 KCAL/MOL
REMARK 927      BINDING AFFINITY PREDICTED BY RF-SCORE:    0.00 PKD
ROOT
HETATM    1  C   UNL     1     -11.388  15.773  68.363  1.00  0.00    -0.372 C  
HETATM    2  C   UNL     1     -10.879  14.576  67.567  1.00  0.00    -0.289 C  
ENDROOT
BRANCH   2   3
HETATM    3  N   UNL     1     -11.713  13.353  67.639  1.00  0.00    -0.340 NA 
BRANCH   3   4
HETATM    4  C   UNL     1     -11.775  12.682  66.316  1.00  0.00    -0.402 C  
BRANCH   4   5
HETATM    5  C   UNL     1     -12.634  13.385  65.249  1.00  0.00    -0.464 C  
HETATM    6  H   UNL     1     -13.323  12.981  63.446  1.00  0.00     0.000 HD 
HETATM    7  O   UNL     1     -12.793  12.548  64.104  1.00  0.00    -0.705 OA 
ENDBRANCH   4   5
ENDBRANCH   3   4
BRANCH   3   8
HETATM    8  C   UNL     1     -11.158  12.440  68.667  1.00  0.00    -0.257 C  
BRANCH   8   9
HETATM    9  C   UNL     1     -12.144  11.391  69.225  1.00  0.00    -0.356 C  
BRANCH   9  10
HETATM   10  C   UNL     1     -11.608  10.539  70.390  1.00  0.00    -0.430 C  
BRANCH  10  11
HETATM   11  C   UNL     1     -10.569   9.482  69.968  1.00  0.00    -0.244 C  
HETATM   12  C   UNL     1      -9.869   8.851  71.175  1.00  0.00    -0.345 C  
BRANCH  11  13
HETATM   13  N   UNL     1     -11.219   8.413  69.176  1.00  0.00    -0.359 NA 
HETATM   14  H   UNL     1     -12.228   8.268  69.210  1.00  0.00     0.000 HD 
BRANCH  13  15
HETATM   15  C   UNL     1     -10.380   7.598  68.366  1.00  0.00    -0.194 A  
HETATM   16  C   UNL     1      -9.810   8.117  67.172  1.00  0.00    -0.281 A  
HETATM   17  C   UNL     1     -10.059   9.420  66.677  1.00  0.00    -0.332 A  
HETATM   18  C   UNL     1      -9.474   9.864  65.488  1.00  0.00    -0.313 A  
HETATM   19  C   UNL     1      -8.647   9.007  64.775  1.00  0.00    -0.175 A  
HETATM   20  C   UNL     1      -8.393   7.722  65.245  1.00  0.00    -0.128 A  
HETATM   21 CL   UNL     1      -7.926   9.534  63.303  1.00  0.00    -0.135 Cl 
HETATM   22  C   UNL     1      -8.949   7.271  66.427  1.00  0.00    -0.158 A  
HETATM   23  N   UNL     1      -8.625   6.031  66.817  1.00  0.00    -0.109 NA 
HETATM   24  C   UNL     1      -9.123   5.591  67.987  1.00  0.00    -0.108 A  
HETATM   25  C   UNL     1      -9.964   6.336  68.789  1.00  0.00    -0.173 A  
ENDBRANCH  13  15
ENDBRANCH  11  13
ENDBRANCH  10  11
ENDBRANCH   9  10
ENDBRANCH   8   9
ENDBRANCH   3   8
ENDBRANCH   2   3
TORSDOF 9
ENDMDL
MODEL      143
REMARK 921   NORMALIZED FREE ENERGY PREDICTED BY IDOCK:   -4.08 KCAL/MOL
REMARK 922        TOTAL FREE ENERGY PREDICTED BY IDOCK:   -7.46 KCAL/MOL
REMARK 923 INTER-LIGAND FREE ENERGY PREDICTED BY IDOCK:   -6.66 KCAL/MOL
REMARK 924 INTRA-LIGAND FREE ENERGY PREDICTED BY IDOCK:   -0.80 KCAL/MOL
REMARK 927      BINDING AFFINITY PREDICTED BY RF-SCORE:    0.00 PKD
ROOT
HETATM    1  C   UNL     1      -8.371  13.607  67.416  1.00  0.00    -0.198 C  
HETATM    2  C   UNL     1      -9.630  13.757  66.568  1.00  0.00    -0.285 C  
ENDROOT
BRANCH   2   3
HETATM    3  N   UNL     1     -10.810  12.986  67.027  1.00  0.00    -0.258 NA 
BRANCH   3   4
HETATM    4  C   UNL     1     -12.062  13.569  66.481  1.00  0.00    -0.408 C  
BRANCH   4   5
HETATM    5  C   UNL     1     -12.175  13.590  64.945  1.00  0.00    -0.410 C  
HETATM    6  H   UNL     1     -13.258  12.697  63.560  1.00  0.00     0.000 HD 
HETATM    7  O   UNL     1     -13.188  12.684  64.507  1.00  0.00    -0.783 OA 
ENDBRANCH   4   5
ENDBRANCH   3   4
BRANCH   3   8
HETATM    8  C   UNL     1     -10.664  11.570  66.609  1.00  0.00    -0.268 C  
BRANCH   8   9
HETATM    9  C   UNL     1     -11.107  10.521  67.652  1.00  0.00    -0.375 C  
BRANCH   9  10
HETATM   10  C   UNL     1     -10.397  10.608  69.015  1.00  0.00    -0.237 C  
BRANCH  10  11
HETATM   11  C   UNL     1     -10.089   9.239  69.651  1.00  0.00    -0.197 C  
HETATM   12  C   UNL     1     -10.063   9.309  71.180  1.00  0.00    -0.374 C  
BRANCH  11  13
HETATM   13  N   UNL     1     -11.100   8.242  69.231  1.00  0.00    -0.430 NA 
HETATM   14  H   UNL     1     -12.090   8.373  69.436  1.00  0.00     0.000 HD 
BRANCH  13  15
HETATM   15  C   UNL     1     -10.633   7.094  68.532  1.00  0.00    -0.187 A  
HETATM   16  C   UNL     1     -10.312   5.902  69.237  1.00  0.00    -0.312 A  
HETATM   17  C   UNL     1     -10.377   5.775  70.646  1.00  0.00    -0.310 A  
HETATM   18  C   UNL     1     -10.037   4.576  71.278  1.00  0.00    -0.225 A  
HETATM   19  C   UNL     1      -9.614   3.499  70.511  1.00  0.00    -0.176 A  
HETATM   20  C   UNL     1      -9.541   3.606  69.126  1.00  0.00    -0.172 A  
HETATM   21 CL   UNL     1      -9.181   2.017  71.274  1.00  0.00    -0.161 Cl 
HETATM   22  C   UNL     1      -9.890   4.778  68.482  1.00  0.00    -0.130 A  
HETATM   23  N   UNL     1      -9.817   4.782  67.144  1.00  0.00    -0.184 NA 
HETATM   24  C   UNL     1     -10.194   5.900  66.498  1.00  0.00    -0.162 A  
HETATM   25  C   UNL     1     -10.624   7.045  67.138  1.00  0.00    -0.412 A  
ENDBRANCH  13  15
ENDBRANCH  11  13
ENDBRANCH  10  11
ENDBRANCH   9  10
ENDBRANCH   8   9
ENDBRANCH   3   8
ENDBRANCH   2   3
TORSDOF 9
ENDMDL
MODEL      144
REMARK 921   NORMALIZED FREE ENERGY PREDICTED BY IDOCK:   -4.07 KCAL/MOL
REMARK 922        TOTAL FREE ENERGY PREDICTED BY IDOCK:   -7.44 KCAL/MOL
REMARK 923 INTER-LIGAND FREE ENERGY PREDICTED BY IDOCK:   -6.61 KCAL/MOL
REMARK 924 INTRA-LIGAND FREE ENERGY PREDICTED BY IDOCK:   -0.82 KCAL/MOL
REMARK 927      BINDING AFFINITY PREDICTED BY RF-SCORE:    0.00 PKD
ROOT
HETATM    1  C   UNL     1     -10.198  20.330  66.777  1.00  0.00    -0.497 C  
HETATM    2  C   UNL     1      -8.685  20.530  66.815  1.00  0.00    -0.121 C  
ENDROOT
BRANCH   2   3
HETATM    3  N   UNL     1      -7.923  19.519  67.586  1.00  0.00    -0.278 NA 
BRANCH   3   4
HETATM    4  C   UNL     1      -6.778  20.151  68.289  1.00  0.00    -0.300 C  
BRANCH   4   5
HETATM    5  C   UNL     1      -6.361  19.490  69.617  1.00  0.00    -0.316 C  
HETATM    6  H   UNL     1      -6.153  20.030  71.502  1.00  0.00     0.000 HD 
HETATM    7  O   UNL     1      -6.410  20.438  70.683  1.00  0.00    -0.510 OA 
ENDBRANCH   4   5
ENDBRANCH   3   4
BRANCH   3   8
HETATM    8  C   UNL     1      -8.830  18.851  68.551  1.00  0.00    -0.352 C  
BRANCH   8   9
HETATM    9  C   UNL     1      -9.027  17.334  68.336  1.00  0.00    -0.269 C  
BRANCH   9  10
HETATM   10  C   UNL     1      -8.748  16.831  66.909  1.00  0.00    -0.242 C  
BRANCH  10  11
HETATM   11  C   UNL     1      -9.987  16.260  66.191  1.00  0.00    -0.334 C  
HETATM   12  C   UNL     1     -10.690  17.314  65.333  1.00  0.00    -0.074 C  
BRANCH  11  13
HETATM   13  N   UNL     1      -9.598  15.119  65.331  1.00  0.00    -0.385 NA 
HETATM   14  H   UNL     1      -8.795  15.177  64.705  1.00  0.00     0.000 HD 
BRANCH  13  15
HETATM   15  C   UNL     1     -10.390  13.940  65.414  1.00  0.00    -0.348 A  
HETATM   16  C   UNL     1     -10.040  12.900  66.317  1.00  0.00    -0.281 A  
HETATM   17  C   UNL     1      -8.889  12.923  67.142  1.00  0.00    -0.210 A  
HETATM   18  C   UNL     1      -8.596  11.861  68.001  1.00  0.00    -0.168 A  
HETATM   19  C   UNL     1      -9.440  10.759  68.034  1.00  0.00    -0.160 A  
HETATM   20  C   UNL     1     -10.574  10.717  67.228  1.00  0.00    -0.304 A  
HETATM   21 CL   UNL     1      -9.089   9.436  69.078  1.00  0.00    -0.139 Cl 
HETATM   22  C   UNL     1     -10.889  11.766  66.385  1.00  0.00    -0.282 A  
HETATM   23  N   UNL     1     -12.016  11.653  65.668  1.00  0.00    -0.172 NA 
HETATM   24  C   UNL     1     -12.361  12.682  64.874  1.00  0.00    -0.498 A  
HETATM   25  C   UNL     1     -11.606  13.832  64.741  1.00  0.00    -0.377 A  
ENDBRANCH  13  15
ENDBRANCH  11  13
ENDBRANCH  10  11
ENDBRANCH   9  10
ENDBRANCH   8   9
ENDBRANCH   3   8
ENDBRANCH   2   3
TORSDOF 9
ENDMDL
MODEL      145
REMARK 921   NORMALIZED FREE ENERGY PREDICTED BY IDOCK:   -4.05 KCAL/MOL
REMARK 922        TOTAL FREE ENERGY PREDICTED BY IDOCK:   -7.41 KCAL/MOL
REMARK 923 INTER-LIGAND FREE ENERGY PREDICTED BY IDOCK:   -5.65 KCAL/MOL
REMARK 924 INTRA-LIGAND FREE ENERGY PREDICTED BY IDOCK:   -1.77 KCAL/MOL
REMARK 927      BINDING AFFINITY PREDICTED BY RF-SCORE:    0.00 PKD
ROOT
HETATM    1  C   UNL     1      -7.122  15.254  67.426  1.00  0.00    -0.223 C  
HETATM    2  C   UNL     1      -7.220  13.880  68.082  1.00  0.00    -0.120 C  
ENDROOT
BRANCH   2   3
HETATM    3  N   UNL     1      -6.318  12.840  67.532  1.00  0.00    -0.155 NA 
BRANCH   3   4
HETATM    4  C   UNL     1      -5.453  12.280  68.601  1.00  0.00    -0.053 C  
BRANCH   4   5
HETATM    5  C   UNL     1      -5.644  12.888  70.004  1.00  0.00    -0.126 C  
HETATM    6  H   UNL     1      -6.152  12.255  71.801  1.00  0.00     0.000 HD 
HETATM    7  O   UNL     1      -6.035  11.880  70.936  1.00  0.00    -0.356 OA 
ENDBRANCH   4   5
ENDBRANCH   3   4
BRANCH   3   8
HETATM    8  C   UNL     1      -7.129  11.772  66.899  1.00  0.00    -0.097 C  
BRANCH   8   9
HETATM    9  C   UNL     1      -7.435  10.551  67.794  1.00  0.00    -0.087 C  
BRANCH   9  10
HETATM   10  C   UNL     1      -8.851  10.516  68.396  1.00  0.00    -0.140 C  
BRANCH  10  11
HETATM   11  C   UNL     1      -9.935  10.016  67.421  1.00  0.00    -0.197 C  
HETATM   12  C   UNL     1     -10.498   8.654  67.837  1.00  0.00    -0.269 C  
BRANCH  11  13
HETATM   13  N   UNL     1     -11.044  10.993  67.346  1.00  0.00    -0.296 NA 
HETATM   14  H   UNL     1     -11.867  10.909  67.943  1.00  0.00     0.000 HD 
BRANCH  13  15
HETATM   15  C   UNL     1     -10.916  12.055  66.407  1.00  0.00    -0.296 A  
HETATM   16  C   UNL     1     -10.858  13.404  66.850  1.00  0.00    -0.282 A  
HETATM   17  C   UNL     1     -10.972  13.797  68.205  1.00  0.00    -0.269 A  
HETATM   18  C   UNL     1     -10.918  15.144  68.572  1.00  0.00    -0.263 A  
HETATM   19  C   UNL     1     -10.766  16.113  67.588  1.00  0.00    -0.318 A  
HETATM   20  C   UNL     1     -10.656  15.745  66.250  1.00  0.00    -0.313 A  
HETATM   21 CL   UNL     1     -10.708  17.778  68.021  1.00  0.00    -0.366 Cl 
HETATM   22  C   UNL     1     -10.690  14.416  65.870  1.00  0.00    -0.306 A  
HETATM   23  N   UNL     1     -10.547  14.154  64.564  1.00  0.00    -0.362 NA 
HETATM   24  C   UNL     1     -10.535  12.865  64.181  1.00  0.00    -0.406 A  
HETATM   25  C   UNL     1     -10.686  11.806  65.054  1.00  0.00    -0.344 A  
ENDBRANCH  13  15
ENDBRANCH  11  13
ENDBRANCH  10  11
ENDBRANCH   9  10
ENDBRANCH   8   9
ENDBRANCH   3   8
ENDBRANCH   2   3
TORSDOF 9
ENDMDL
MODEL      146
REMARK 921   NORMALIZED FREE ENERGY PREDICTED BY IDOCK:   -4.05 KCAL/MOL
REMARK 922        TOTAL FREE ENERGY PREDICTED BY IDOCK:   -7.41 KCAL/MOL
REMARK 923 INTER-LIGAND FREE ENERGY PREDICTED BY IDOCK:   -6.90 KCAL/MOL
REMARK 924 INTRA-LIGAND FREE ENERGY PREDICTED BY IDOCK:   -0.50 KCAL/MOL
REMARK 927      BINDING AFFINITY PREDICTED BY RF-SCORE:    0.00 PKD
ROOT
HETATM    1  C   UNL     1     -10.633  15.836  66.814  1.00  0.00    -0.309 C  
HETATM    2  C   UNL     1     -11.203  14.963  65.700  1.00  0.00    -0.347 C  
ENDROOT
BRANCH   2   3
HETATM    3  N   UNL     1     -12.260  14.007  66.110  1.00  0.00    -0.450 NA 
BRANCH   3   4
HETATM    4  C   UNL     1     -12.318  12.858  65.171  1.00  0.00    -0.493 C  
BRANCH   4   5
HETATM    5  C   UNL     1     -11.717  13.103  63.775  1.00  0.00    -0.461 C  
HETATM    6  H   UNL     1     -10.184  12.448  62.722  1.00  0.00     0.000 HD 
HETATM    7  O   UNL     1     -10.555  12.297  63.583  1.00  0.00    -0.408 OA 
ENDBRANCH   4   5
ENDBRANCH   3   4
BRANCH   3   8
HETATM    8  C   UNL     1     -11.993  13.544  67.493  1.00  0.00    -0.346 C  
BRANCH   8   9
HETATM    9  C   UNL     1     -11.374  12.134  67.613  1.00  0.00    -0.379 C  
BRANCH   9  10
HETATM   10  C   UNL     1      -9.860  12.103  67.892  1.00  0.00    -0.199 C  
BRANCH  10  11
HETATM   11  C   UNL     1      -9.386  10.842  68.640  1.00  0.00    -0.184 C  
HETATM   12  C   UNL     1      -8.000  11.031  69.262  1.00  0.00    -0.034 C  
BRANCH  11  13
HETATM   13  N   UNL     1     -10.349  10.487  69.706  1.00  0.00    -0.397 NA 
HETATM   14  H   UNL     1     -10.938  11.195  70.146  1.00  0.00     0.000 HD 
BRANCH  13  15
HETATM   15  C   UNL     1     -10.420   9.120  70.094  1.00  0.00    -0.218 A  
HETATM   16  C   UNL     1     -10.448   8.095  69.110  1.00  0.00    -0.217 A  
HETATM   17  C   UNL     1     -10.460   8.337  67.714  1.00  0.00    -0.280 A  
HETATM   18  C   UNL     1     -10.499   7.281  66.800  1.00  0.00    -0.311 A  
HETATM   19  C   UNL     1     -10.542   5.975  67.269  1.00  0.00    -0.294 A  
HETATM   20  C   UNL     1     -10.535   5.718  68.637  1.00  0.00    -0.298 A  
HETATM   21 CL   UNL     1     -10.601   4.662  66.157  1.00  0.00    -0.297 Cl 
HETATM   22  C   UNL     1     -10.479   6.748  69.556  1.00  0.00    -0.220 A  
HETATM   23  N   UNL     1     -10.445   6.407  70.852  1.00  0.00    -0.221 NA 
HETATM   24  C   UNL     1     -10.348   7.395  71.759  1.00  0.00    -0.192 A  
HETATM   25  C   UNL     1     -10.306   8.735  71.429  1.00  0.00    -0.348 A  
ENDBRANCH  13  15
ENDBRANCH  11  13
ENDBRANCH  10  11
ENDBRANCH   9  10
ENDBRANCH   8   9
ENDBRANCH   3   8
ENDBRANCH   2   3
TORSDOF 9
ENDMDL
MODEL      147
REMARK 921   NORMALIZED FREE ENERGY PREDICTED BY IDOCK:   -4.03 KCAL/MOL
REMARK 922        TOTAL FREE ENERGY PREDICTED BY IDOCK:   -7.37 KCAL/MOL
REMARK 923 INTER-LIGAND FREE ENERGY PREDICTED BY IDOCK:   -6.73 KCAL/MOL
REMARK 924 INTRA-LIGAND FREE ENERGY PREDICTED BY IDOCK:   -0.64 KCAL/MOL
REMARK 927      BINDING AFFINITY PREDICTED BY RF-SCORE:    0.00 PKD
ROOT
HETATM    1  C   UNL     1      -6.843   5.819  71.132  1.00  0.00    -0.065 C  
HETATM    2  C   UNL     1      -8.313   5.428  71.252  1.00  0.00    -0.125 C  
ENDROOT
BRANCH   2   3
HETATM    3  N   UNL     1      -9.079   5.406  69.983  1.00  0.00    -0.128 NA 
BRANCH   3   4
HETATM    4  C   UNL     1      -8.658   4.260  69.138  1.00  0.00    -0.082 C  
BRANCH   4   5
HETATM    5  C   UNL     1      -8.338   2.956  69.891  1.00  0.00    -0.044 C  
HETATM    6  H   UNL     1      -9.300   1.323  70.436  1.00  0.00     0.000 HD 
HETATM    7  O   UNL     1      -9.498   2.127  69.971  1.00  0.00    -0.113 OA 
ENDBRANCH   4   5
ENDBRANCH   3   4
BRANCH   3   8
HETATM    8  C   UNL     1     -10.529   5.333  70.286  1.00  0.00    -0.261 C  
BRANCH   8   9
HETATM    9  C   UNL     1     -11.306   6.659  70.134  1.00  0.00    -0.440 C  
BRANCH   9  10
HETATM   10  C   UNL     1     -12.213   7.029  71.322  1.00  0.00    -0.419 C  
BRANCH  10  11
HETATM   11  C   UNL     1     -12.132   8.511  71.736  1.00  0.00    -0.333 C  
HETATM   12  C   UNL     1     -10.685   8.988  71.882  1.00  0.00    -0.401 C  
BRANCH  11  13
HETATM   13  N   UNL     1     -12.821   9.359  70.738  1.00  0.00    -0.523 NA 
HETATM   14  H   UNL     1     -13.335   8.949  69.958  1.00  0.00     0.000 HD 
BRANCH  13  15
HETATM   15  C   UNL     1     -12.737  10.769  70.911  1.00  0.00    -0.384 A  
HETATM   16  C   UNL     1     -12.157  11.584  69.901  1.00  0.00    -0.389 A  
HETATM   17  C   UNL     1     -11.588  11.079  68.707  1.00  0.00    -0.386 A  
HETATM   18  C   UNL     1     -11.023  11.937  67.759  1.00  0.00    -0.278 A  
HETATM   19  C   UNL     1     -11.007  13.304  68.002  1.00  0.00    -0.244 A  
HETATM   20  C   UNL     1     -11.559  13.818  69.171  1.00  0.00    -0.363 A  
HETATM   21 CL   UNL     1     -10.305  14.374  66.850  1.00  0.00    -0.263 Cl 
HETATM   22  C   UNL     1     -12.138  12.987  70.112  1.00  0.00    -0.307 A  
HETATM   23  N   UNL     1     -12.671  13.571  71.193  1.00  0.00    -0.354 NA 
HETATM   24  C   UNL     1     -13.276  12.782  72.099  1.00  0.00    -0.441 A  
HETATM   25  C   UNL     1     -13.354  11.408  71.986  1.00  0.00    -0.388 A  
ENDBRANCH  13  15
ENDBRANCH  11  13
ENDBRANCH  10  11
ENDBRANCH   9  10
ENDBRANCH   8   9
ENDBRANCH   3   8
ENDBRANCH   2   3
TORSDOF 9
ENDMDL
MODEL      148
REMARK 921   NORMALIZED FREE ENERGY PREDICTED BY IDOCK:   -4.02 KCAL/MOL
REMARK 922        TOTAL FREE ENERGY PREDICTED BY IDOCK:   -7.37 KCAL/MOL
REMARK 923 INTER-LIGAND FREE ENERGY PREDICTED BY IDOCK:   -6.91 KCAL/MOL
REMARK 924 INTRA-LIGAND FREE ENERGY PREDICTED BY IDOCK:   -0.46 KCAL/MOL
REMARK 927      BINDING AFFINITY PREDICTED BY RF-SCORE:    0.00 PKD
ROOT
HETATM    1  C   UNL     1     -11.419  10.691  70.021  1.00  0.00    -0.404 C  
HETATM    2  C   UNL     1     -10.255   9.727  69.816  1.00  0.00    -0.242 C  
ENDROOT
BRANCH   2   3
HETATM    3  N   UNL     1      -9.821   9.531  68.413  1.00  0.00    -0.154 NA 
BRANCH   3   4
HETATM    4  C   UNL     1      -9.539   8.098  68.147  1.00  0.00    -0.149 C  
BRANCH   4   5
HETATM    5  C   UNL     1     -10.716   7.131  68.377  1.00  0.00    -0.147 C  
HETATM    6  H   UNL     1     -11.084   5.530  69.467  1.00  0.00     0.000 HD 
HETATM    7  O   UNL     1     -10.358   6.126  69.325  1.00  0.00    -0.182 OA 
ENDBRANCH   4   5
ENDBRANCH   3   4
BRANCH   3   8
HETATM    8  C   UNL     1     -10.873  10.039  67.499  1.00  0.00    -0.265 C  
BRANCH   8   9
HETATM    9  C   UNL     1     -10.364  10.854  66.290  1.00  0.00    -0.306 C  
BRANCH   9  10
HETATM   10  C   UNL     1     -11.294  11.987  65.822  1.00  0.00    -0.384 C  
BRANCH  10  11
HETATM   11  C   UNL     1     -10.561  13.171  65.161  1.00  0.00    -0.319 C  
HETATM   12  C   UNL     1     -11.534  14.235  64.647  1.00  0.00    -0.389 C  
BRANCH  11  13
HETATM   13  N   UNL     1      -9.628  13.796  66.126  1.00  0.00    -0.432 NA 
HETATM   14  H   UNL     1      -8.619  13.680  66.039  1.00  0.00     0.000 HD 
BRANCH  13  15
HETATM   15  C   UNL     1     -10.198  14.567  67.178  1.00  0.00    -0.260 A  
HETATM   16  C   UNL     1     -10.032  15.978  67.207  1.00  0.00    -0.242 A  
HETATM   17  C   UNL     1      -9.273  16.705  66.258  1.00  0.00    -0.328 A  
HETATM   18  C   UNL     1      -9.141  18.093  66.351  1.00  0.00    -0.255 A  
HETATM   19  C   UNL     1      -9.753  18.767  67.400  1.00  0.00    -0.305 A  
HETATM   20  C   UNL     1     -10.501  18.068  68.343  1.00  0.00    -0.326 A  
HETATM   21 CL   UNL     1      -9.592  20.475  67.536  1.00  0.00    -0.562 Cl 
HETATM   22  C   UNL     1     -10.656  16.698  68.258  1.00  0.00    -0.338 A  
HETATM   23  N   UNL     1     -11.418  16.113  69.193  1.00  0.00    -0.334 NA 
HETATM   24  C   UNL     1     -11.615  14.785  69.101  1.00  0.00    -0.303 A  
HETATM   25  C   UNL     1     -11.058  13.996  68.115  1.00  0.00    -0.280 A  
ENDBRANCH  13  15
ENDBRANCH  11  13
ENDBRANCH  10  11
ENDBRANCH   9  10
ENDBRANCH   8   9
ENDBRANCH   3   8
ENDBRANCH   2   3
TORSDOF 9
ENDMDL
MODEL      149
REMARK 921   NORMALIZED FREE ENERGY PREDICTED BY IDOCK:   -4.02 KCAL/MOL
REMARK 922        TOTAL FREE ENERGY PREDICTED BY IDOCK:   -7.36 KCAL/MOL
REMARK 923 INTER-LIGAND FREE ENERGY PREDICTED BY IDOCK:   -6.99 KCAL/MOL
REMARK 924 INTRA-LIGAND FREE ENERGY PREDICTED BY IDOCK:   -0.37 KCAL/MOL
REMARK 927      BINDING AFFINITY PREDICTED BY RF-SCORE:    0.00 PKD
ROOT
HETATM    1  C   UNL     1      -9.798   6.781  66.752  1.00  0.00    -0.236 C  
HETATM    2  C   UNL     1      -9.168   8.023  66.128  1.00  0.00    -0.163 C  
ENDROOT
BRANCH   2   3
HETATM    3  N   UNL     1      -9.965   9.268  66.229  1.00  0.00    -0.287 NA 
BRANCH   3   4
HETATM    4  C   UNL     1      -9.865   9.845  67.593  1.00  0.00    -0.163 C  
BRANCH   4   5
HETATM    5  C   UNL     1     -11.202  10.072  68.323  1.00  0.00    -0.132 C  
HETATM    6  H   UNL     1     -11.896  11.254  69.740  1.00  0.00     0.000 HD 
HETATM    7  O   UNL     1     -11.072  11.114  69.290  1.00  0.00    -0.225 OA 
ENDBRANCH   4   5
ENDBRANCH   3   4
BRANCH   3   8
HETATM    8  C   UNL     1      -9.492  10.237  65.211  1.00  0.00    -0.240 C  
BRANCH   8   9
HETATM    9  C   UNL     1     -10.603  10.974  64.430  1.00  0.00    -0.395 C  
BRANCH   9  10
HETATM   10  C   UNL     1     -11.279  12.132  65.185  1.00  0.00    -0.378 C  
BRANCH  10  11
HETATM   11  C   UNL     1     -11.209  13.486  64.452  1.00  0.00    -0.379 C  
HETATM   12  C   UNL     1     -12.378  14.402  64.825  1.00  0.00    -0.427 C  
BRANCH  11  13
HETATM   13  N   UNL     1      -9.937  14.174  64.769  1.00  0.00    -0.563 NA 
HETATM   14  H   UNL     1      -9.255  14.389  64.042  1.00  0.00     0.000 HD 
BRANCH  13  15
HETATM   15  C   UNL     1      -9.706  14.523  66.129  1.00  0.00    -0.316 A  
HETATM   16  C   UNL     1      -9.886  15.863  66.568  1.00  0.00    -0.277 A  
HETATM   17  C   UNL     1     -10.245  16.934  65.714  1.00  0.00    -0.287 A  
HETATM   18  C   UNL     1     -10.395  18.232  66.210  1.00  0.00    -0.422 A  
HETATM   19  C   UNL     1     -10.172  18.476  67.558  1.00  0.00    -0.385 A  
HETATM   20  C   UNL     1      -9.815  17.437  68.412  1.00  0.00    -0.316 A  
HETATM   21 CL   UNL     1     -10.341  20.071  68.184  1.00  0.00    -0.539 Cl 
HETATM   22  C   UNL     1      -9.679  16.143  67.944  1.00  0.00    -0.225 A  
HETATM   23  N   UNL     1      -9.362  15.201  68.842  1.00  0.00    -0.199 NA 
HETATM   24  C   UNL     1      -9.268  13.930  68.412  1.00  0.00    -0.194 A  
HETATM   25  C   UNL     1      -9.455  13.552  67.097  1.00  0.00    -0.244 A  
ENDBRANCH  13  15
ENDBRANCH  11  13
ENDBRANCH  10  11
ENDBRANCH   9  10
ENDBRANCH   8   9
ENDBRANCH   3   8
ENDBRANCH   2   3
TORSDOF 9
ENDMDL
MODEL      150
REMARK 921   NORMALIZED FREE ENERGY PREDICTED BY IDOCK:   -4.01 KCAL/MOL
REMARK 922        TOTAL FREE ENERGY PREDICTED BY IDOCK:   -7.35 KCAL/MOL
REMARK 923 INTER-LIGAND FREE ENERGY PREDICTED BY IDOCK:   -6.11 KCAL/MOL
REMARK 924 INTRA-LIGAND FREE ENERGY PREDICTED BY IDOCK:   -1.24 KCAL/MOL
REMARK 927      BINDING AFFINITY PREDICTED BY RF-SCORE:    0.00 PKD
ROOT
HETATM    1  C   UNL     1      -7.171  14.377  67.476  1.00  0.00    -0.202 C  
HETATM    2  C   UNL     1      -6.286  13.143  67.628  1.00  0.00    -0.160 C  
ENDROOT
BRANCH   2   3
HETATM    3  N   UNL     1      -6.841  11.883  67.078  1.00  0.00    -0.143 NA 
BRANCH   3   4
HETATM    4  C   UNL     1      -5.902  11.281  66.098  1.00  0.00    -0.071 C  
BRANCH   4   5
HETATM    5  C   UNL     1      -6.365   9.963  65.450  1.00  0.00    -0.089 C  
HETATM    6  H   UNL     1      -7.826   9.364  64.269  1.00  0.00     0.000 HD 
HETATM    7  O   UNL     1      -7.540  10.177  64.668  1.00  0.00    -0.141 OA 
ENDBRANCH   4   5
ENDBRANCH   3   4
BRANCH   3   8
HETATM    8  C   UNL     1      -7.115  10.942  68.191  1.00  0.00    -0.077 C  
BRANCH   8   9
HETATM    9  C   UNL     1      -8.576  10.914  68.692  1.00  0.00    -0.153 C  
BRANCH   9  10
HETATM   10  C   UNL     1      -9.626  11.417  67.685  1.00  0.00    -0.176 C  
BRANCH  10  11
HETATM   11  C   UNL     1     -11.080  11.091  68.077  1.00  0.00    -0.286 C  
HETATM   12  C   UNL     1     -11.193  10.637  69.535  1.00  0.00    -0.331 C  
BRANCH  11  13
HETATM   13  N   UNL     1     -11.942  12.277  67.874  1.00  0.00    -0.480 NA 
HETATM   14  H   UNL     1     -12.611  12.575  68.584  1.00  0.00     0.000 HD 
BRANCH  13  15
HETATM   15  C   UNL     1     -11.799  12.986  66.648  1.00  0.00    -0.393 A  
HETATM   16  C   UNL     1     -11.313  14.321  66.642  1.00  0.00    -0.356 A  
HETATM   17  C   UNL     1     -10.992  15.052  67.812  1.00  0.00    -0.298 A  
HETATM   18  C   UNL     1     -10.530  16.369  67.735  1.00  0.00    -0.300 A  
HETATM   19  C   UNL     1     -10.397  16.973  66.491  1.00  0.00    -0.298 A  
HETATM   20  C   UNL     1     -10.711  16.271  65.331  1.00  0.00    -0.342 A  
HETATM   21 CL   UNL     1      -9.839  18.597  66.379  1.00  0.00    -0.371 Cl 
HETATM   22  C   UNL     1     -11.154  14.963  65.386  1.00  0.00    -0.364 A  
HETATM   23  N   UNL     1     -11.403  14.355  64.218  1.00  0.00    -0.231 NA 
HETATM   24  C   UNL     1     -11.794  13.069  64.251  1.00  0.00    -0.396 A  
HETATM   25  C   UNL     1     -11.974  12.353  65.418  1.00  0.00    -0.457 A  
ENDBRANCH  13  15
ENDBRANCH  11  13
ENDBRANCH  10  11
ENDBRANCH   9  10
ENDBRANCH   8   9
ENDBRANCH   3   8
ENDBRANCH   2   3
TORSDOF 9
ENDMDL
MODEL      151
REMARK 921   NORMALIZED FREE ENERGY PREDICTED BY IDOCK:   -4.01 KCAL/MOL
REMARK 922        TOTAL FREE ENERGY PREDICTED BY IDOCK:   -7.35 KCAL/MOL
REMARK 923 INTER-LIGAND FREE ENERGY PREDICTED BY IDOCK:   -6.10 KCAL/MOL
REMARK 924 INTRA-LIGAND FREE ENERGY PREDICTED BY IDOCK:   -1.25 KCAL/MOL
REMARK 927      BINDING AFFINITY PREDICTED BY RF-SCORE:    0.00 PKD
ROOT
HETATM    1  C   UNL     1      -7.334   4.660  70.552  1.00  0.00    -0.050 C  
HETATM    2  C   UNL     1      -8.849   4.830  70.480  1.00  0.00    -0.107 C  
ENDROOT
BRANCH   2   3
HETATM    3  N   UNL     1      -9.325   6.113  69.909  1.00  0.00    -0.148 NA 
BRANCH   3   4
HETATM    4  C   UNL     1      -8.696   6.364  68.588  1.00  0.00    -0.122 C  
BRANCH   4   5
HETATM    5  C   UNL     1      -9.554   6.005  67.360  1.00  0.00    -0.112 C  
HETATM    6  H   UNL     1      -9.376   6.074  65.398  1.00  0.00     0.000 HD 
HETATM    7  O   UNL     1      -8.847   6.295  66.155  1.00  0.00    -0.147 OA 
ENDBRANCH   4   5
ENDBRANCH   3   4
BRANCH   3   8
HETATM    8  C   UNL     1     -10.803   6.078  69.791  1.00  0.00    -0.363 C  
BRANCH   8   9
HETATM    9  C   UNL     1     -11.551   7.246  70.470  1.00  0.00    -0.292 C  
BRANCH   9  10
HETATM   10  C   UNL     1     -10.662   8.228  71.254  1.00  0.00    -0.276 C  
BRANCH  10  11
HETATM   11  C   UNL     1     -10.327   9.522  70.487  1.00  0.00    -0.288 C  
HETATM   12  C   UNL     1      -8.827   9.656  70.215  1.00  0.00    -0.253 C  
BRANCH  11  13
HETATM   13  N   UNL     1     -11.055   9.555  69.199  1.00  0.00    -0.425 NA 
HETATM   14  H   UNL     1     -11.499   8.718  68.819  1.00  0.00     0.000 HD 
BRANCH  13  15
HETATM   15  C   UNL     1     -11.111  10.800  68.512  1.00  0.00    -0.262 A  
HETATM   16  C   UNL     1     -10.696  10.893  67.156  1.00  0.00    -0.320 A  
HETATM   17  C   UNL     1     -10.163   9.810  66.416  1.00  0.00    -0.288 A  
HETATM   18  C   UNL     1      -9.763   9.973  65.087  1.00  0.00    -0.380 A  
HETATM   19  C   UNL     1      -9.877  11.221  64.490  1.00  0.00    -0.270 A  
HETATM   20  C   UNL     1     -10.395  12.298  65.203  1.00  0.00    -0.316 A  
HETATM   21 CL   UNL     1      -9.379  11.442  62.857  1.00  0.00    -0.379 Cl 
HETATM   22  C   UNL     1     -10.812  12.152  66.513  1.00  0.00    -0.270 A  
HETATM   23  N   UNL     1     -11.326  13.235  67.112  1.00  0.00    -0.303 NA 
HETATM   24  C   UNL     1     -11.776  13.101  68.372  1.00  0.00    -0.351 A  
HETATM   25  C   UNL     1     -11.714  11.920  69.085  1.00  0.00    -0.380 A  
ENDBRANCH  13  15
ENDBRANCH  11  13
ENDBRANCH  10  11
ENDBRANCH   9  10
ENDBRANCH   8   9
ENDBRANCH   3   8
ENDBRANCH   2   3
TORSDOF 9
ENDMDL
MODEL      152
REMARK 921   NORMALIZED FREE ENERGY PREDICTED BY IDOCK:   -4.01 KCAL/MOL
REMARK 922        TOTAL FREE ENERGY PREDICTED BY IDOCK:   -7.35 KCAL/MOL
REMARK 923 INTER-LIGAND FREE ENERGY PREDICTED BY IDOCK:   -6.12 KCAL/MOL
REMARK 924 INTRA-LIGAND FREE ENERGY PREDICTED BY IDOCK:   -1.23 KCAL/MOL
REMARK 927      BINDING AFFINITY PREDICTED BY RF-SCORE:    0.00 PKD
ROOT
HETATM    1  C   UNL     1     -10.883   6.194  68.786  1.00  0.00    -0.402 C  
HETATM    2  C   UNL     1      -9.739   5.571  69.582  1.00  0.00    -0.172 C  
ENDROOT
BRANCH   2   3
HETATM    3  N   UNL     1      -9.987   4.205  70.100  1.00  0.00    -0.167 NA 
BRANCH   3   4
HETATM    4  C   UNL     1      -9.029   3.238  69.507  1.00  0.00    -0.113 C  
BRANCH   4   5
HETATM    5  C   UNL     1      -7.700   3.835  69.006  1.00  0.00    -0.053 C  
HETATM    6  H   UNL     1      -5.860   4.045  69.681  1.00  0.00     0.000 HD 
HETATM    7  O   UNL     1      -6.679   3.677  69.990  1.00  0.00    -0.033 OA 
ENDBRANCH   4   5
ENDBRANCH   3   4
BRANCH   3   8
HETATM    8  C   UNL     1      -9.877   4.214  71.579  1.00  0.00    -0.184 C  
BRANCH   8   9
HETATM    9  C   UNL     1     -10.861   5.153  72.312  1.00  0.00    -0.241 C  
BRANCH   9  10
HETATM   10  C   UNL     1     -10.317   5.802  73.597  1.00  0.00    -0.258 C  
BRANCH  10  11
HETATM   11  C   UNL     1     -10.118   7.327  73.495  1.00  0.00    -0.340 C  
HETATM   12  C   UNL     1      -8.771   7.770  74.072  1.00  0.00    -0.316 C  
BRANCH  11  13
HETATM   13  N   UNL     1     -10.201   7.760  72.081  1.00  0.00    -0.201 NA 
HETATM   14  H   UNL     1      -9.584   7.369  71.370  1.00  0.00     0.000 HD 
BRANCH  13  15
HETATM   15  C   UNL     1     -11.179   8.742  71.757  1.00  0.00    -0.340 A  
HETATM   16  C   UNL     1     -10.943   9.672  70.708  1.00  0.00    -0.397 A  
HETATM   17  C   UNL     1      -9.741   9.734  69.961  1.00  0.00    -0.292 A  
HETATM   18  C   UNL     1      -9.570  10.682  68.949  1.00  0.00    -0.204 A  
HETATM   19  C   UNL     1     -10.589  11.588  68.685  1.00  0.00    -0.208 A  
HETATM   20  C   UNL     1     -11.775  11.544  69.411  1.00  0.00    -0.413 A  
HETATM   21 CL   UNL     1     -10.390  12.770  67.449  1.00  0.00    -0.221 Cl 
HETATM   22  C   UNL     1     -11.970  10.602  70.404  1.00  0.00    -0.346 A  
HETATM   23  N   UNL     1     -13.154  10.615  71.031  1.00  0.00    -0.341 NA 
HETATM   24  C   UNL     1     -13.377   9.679  71.970  1.00  0.00    -0.457 A  
HETATM   25  C   UNL     1     -12.447   8.726  72.337  1.00  0.00    -0.421 A  
ENDBRANCH  13  15
ENDBRANCH  11  13
ENDBRANCH  10  11
ENDBRANCH   9  10
ENDBRANCH   8   9
ENDBRANCH   3   8
ENDBRANCH   2   3
TORSDOF 9
ENDMDL
MODEL      153
REMARK 921   NORMALIZED FREE ENERGY PREDICTED BY IDOCK:   -4.00 KCAL/MOL
REMARK 922        TOTAL FREE ENERGY PREDICTED BY IDOCK:   -7.33 KCAL/MOL
REMARK 923 INTER-LIGAND FREE ENERGY PREDICTED BY IDOCK:   -6.50 KCAL/MOL
REMARK 924 INTRA-LIGAND FREE ENERGY PREDICTED BY IDOCK:   -0.83 KCAL/MOL
REMARK 927      BINDING AFFINITY PREDICTED BY RF-SCORE:    0.00 PKD
ROOT
HETATM    1  C   UNL     1     -10.648   5.461  66.667  1.00  0.00    -0.359 C  
HETATM    2  C   UNL     1      -9.643   4.484  67.269  1.00  0.00    -0.185 C  
ENDROOT
BRANCH   2   3
HETATM    3  N   UNL     1      -9.351   4.669  68.711  1.00  0.00    -0.130 NA 
BRANCH   3   4
HETATM    4  C   UNL     1      -8.157   5.532  68.896  1.00  0.00    -0.095 C  
BRANCH   4   5
HETATM    5  C   UNL     1      -6.993   4.903  69.686  1.00  0.00    -0.053 C  
HETATM    6  H   UNL     1      -6.337   3.092  70.104  1.00  0.00     0.000 HD 
HETATM    7  O   UNL     1      -7.055   3.479  69.617  1.00  0.00    -0.041 OA 
ENDBRANCH   4   5
ENDBRANCH   3   4
BRANCH   3   8
HETATM    8  C   UNL     1     -10.535   5.260  69.379  1.00  0.00    -0.214 C  
BRANCH   8   9
HETATM    9  C   UNL     1     -10.234   6.393  70.385  1.00  0.00    -0.233 C  
BRANCH   9  10
HETATM   10  C   UNL     1     -11.394   7.371  70.641  1.00  0.00    -0.304 C  
BRANCH  10  11
HETATM   11  C   UNL     1     -10.952   8.835  70.831  1.00  0.00    -0.262 C  
HETATM   12  C   UNL     1      -9.480   9.042  70.464  1.00  0.00    -0.265 C  
BRANCH  11  13
HETATM   13  N   UNL     1     -11.787   9.732  69.999  1.00  0.00    -0.449 NA 
HETATM   14  H   UNL     1     -12.090   9.458  69.065  1.00  0.00     0.000 HD 
BRANCH  13  15
HETATM   15  C   UNL     1     -12.147  10.990  70.558  1.00  0.00    -0.377 A  
HETATM   16  C   UNL     1     -11.797  12.198  69.895  1.00  0.00    -0.392 A  
HETATM   17  C   UNL     1     -11.043  12.253  68.698  1.00  0.00    -0.291 A  
HETATM   18  C   UNL     1     -10.723  13.477  68.104  1.00  0.00    -0.265 A  
HETATM   19  C   UNL     1     -11.139  14.656  68.707  1.00  0.00    -0.260 A  
HETATM   20  C   UNL     1     -11.878  14.621  69.886  1.00  0.00    -0.372 A  
HETATM   21 CL   UNL     1     -10.744  16.173  67.995  1.00  0.00    -0.310 Cl 
HETATM   22  C   UNL     1     -12.219  13.420  70.479  1.00  0.00    -0.352 A  
HETATM   23  N   UNL     1     -12.957  13.481  71.595  1.00  0.00    -0.362 NA 
HETATM   24  C   UNL     1     -13.334  12.321  72.162  1.00  0.00    -0.368 A  
HETATM   25  C   UNL     1     -12.982  11.079  71.671  1.00  0.00    -0.561 A  
ENDBRANCH  13  15
ENDBRANCH  11  13
ENDBRANCH  10  11
ENDBRANCH   9  10
ENDBRANCH   8   9
ENDBRANCH   3   8
ENDBRANCH   2   3
TORSDOF 9
ENDMDL
MODEL      154
REMARK 921   NORMALIZED FREE ENERGY PREDICTED BY IDOCK:   -3.99 KCAL/MOL
REMARK 922        TOTAL FREE ENERGY PREDICTED BY IDOCK:   -7.32 KCAL/MOL
REMARK 923 INTER-LIGAND FREE ENERGY PREDICTED BY IDOCK:   -6.02 KCAL/MOL
REMARK 924 INTRA-LIGAND FREE ENERGY PREDICTED BY IDOCK:   -1.30 KCAL/MOL
REMARK 927      BINDING AFFINITY PREDICTED BY RF-SCORE:    0.00 PKD
ROOT
HETATM    1  C   UNL     1     -11.034  16.491  68.807  1.00  0.00    -0.330 C  
HETATM    2  C   UNL     1     -10.599  17.667  67.938  1.00  0.00    -0.387 C  
ENDROOT
BRANCH   2   3
HETATM    3  N   UNL     1      -9.196  17.629  67.461  1.00  0.00    -0.242 NA 
BRANCH   3   4
HETATM    4  C   UNL     1      -8.978  18.639  66.394  1.00  0.00    -0.279 C  
BRANCH   4   5
HETATM    5  C   UNL     1      -7.876  19.678  66.672  1.00  0.00    -0.287 C  
HETATM    6  H   UNL     1      -6.664  20.823  65.618  1.00  0.00     0.000 HD 
HETATM    7  O   UNL     1      -7.344  20.182  65.447  1.00  0.00    -0.313 OA 
ENDBRANCH   4   5
ENDBRANCH   3   4
BRANCH   3   8
HETATM    8  C   UNL     1      -8.282  17.867  68.605  1.00  0.00    -0.275 C  
BRANCH   8   9
HETATM    9  C   UNL     1      -7.386  16.672  68.997  1.00  0.00    -0.228 C  
BRANCH   9  10
HETATM   10  C   UNL     1      -7.162  15.627  67.890  1.00  0.00    -0.152 C  
BRANCH  10  11
HETATM   11  C   UNL     1      -7.244  14.167  68.378  1.00  0.00    -0.109 C  
HETATM   12  C   UNL     1      -6.328  13.910  69.578  1.00  0.00    -0.118 C  
BRANCH  11  13
HETATM   13  N   UNL     1      -8.636  13.832  68.754  1.00  0.00    -0.360 NA 
HETATM   14  H   UNL     1      -9.154  14.396  69.428  1.00  0.00     0.000 HD 
BRANCH  13  15
HETATM   15  C   UNL     1      -9.222  12.692  68.136  1.00  0.00    -0.209 A  
HETATM   16  C   UNL     1      -9.959  12.827  66.928  1.00  0.00    -0.232 A  
HETATM   17  C   UNL     1     -10.209  14.066  66.288  1.00  0.00    -0.300 A  
HETATM   18  C   UNL     1     -10.952  14.129  65.107  1.00  0.00    -0.361 A  
HETATM   19  C   UNL     1     -11.466  12.960  64.561  1.00  0.00    -0.344 A  
HETATM   20  C   UNL     1     -11.233  11.734  65.178  1.00  0.00    -0.311 A  
HETATM   21 CL   UNL     1     -12.393  13.022  63.112  1.00  0.00    -0.438 Cl 
HETATM   22  C   UNL     1     -10.485  11.650  66.338  1.00  0.00    -0.244 A  
HETATM   23  N   UNL     1     -10.287  10.426  66.845  1.00  0.00    -0.231 NA 
HETATM   24  C   UNL     1      -9.527  10.319  67.950  1.00  0.00    -0.141 A  
HETATM   25  C   UNL     1      -8.964  11.401  68.598  1.00  0.00    -0.133 A  
ENDBRANCH  13  15
ENDBRANCH  11  13
ENDBRANCH  10  11
ENDBRANCH   9  10
ENDBRANCH   8   9
ENDBRANCH   3   8
ENDBRANCH   2   3
TORSDOF 9
ENDMDL
MODEL      155
REMARK 921   NORMALIZED FREE ENERGY PREDICTED BY IDOCK:   -3.99 KCAL/MOL
REMARK 922        TOTAL FREE ENERGY PREDICTED BY IDOCK:   -7.31 KCAL/MOL
REMARK 923 INTER-LIGAND FREE ENERGY PREDICTED BY IDOCK:   -6.49 KCAL/MOL
REMARK 924 INTRA-LIGAND FREE ENERGY PREDICTED BY IDOCK:   -0.82 KCAL/MOL
REMARK 927      BINDING AFFINITY PREDICTED BY RF-SCORE:    0.00 PKD
ROOT
HETATM    1  C   UNL     1     -12.632  15.309  70.345  1.00  0.00    -0.421 C  
HETATM    2  C   UNL     1     -11.987  15.348  68.963  1.00  0.00    -0.288 C  
ENDROOT
BRANCH   2   3
HETATM    3  N   UNL     1     -12.108  14.107  68.161  1.00  0.00    -0.319 NA 
BRANCH   3   4
HETATM    4  C   UNL     1     -11.636  14.334  66.772  1.00  0.00    -0.391 C  
BRANCH   4   5
HETATM    5  C   UNL     1     -12.447  13.631  65.667  1.00  0.00    -0.496 C  
HETATM    6  H   UNL     1     -13.300  14.124  63.959  1.00  0.00     0.000 HD 
HETATM    7  O   UNL     1     -12.800  14.558  64.641  1.00  0.00    -0.614 OA 
ENDBRANCH   4   5
ENDBRANCH   3   4
BRANCH   3   8
HETATM    8  C   UNL     1     -11.330  13.025  68.812  1.00  0.00    -0.289 C  
BRANCH   8   9
HETATM    9  C   UNL     1     -12.014  11.641  68.839  1.00  0.00    -0.355 C  
BRANCH   9  10
HETATM   10  C   UNL     1     -12.023  10.938  70.208  1.00  0.00    -0.448 C  
BRANCH  10  11
HETATM   11  C   UNL     1     -10.972   9.820  70.347  1.00  0.00    -0.312 C  
HETATM   12  C   UNL     1     -11.195   8.974  71.603  1.00  0.00    -0.431 C  
BRANCH  11  13
HETATM   13  N   UNL     1     -11.006   8.936  69.159  1.00  0.00    -0.428 NA 
HETATM   14  H   UNL     1     -11.878   8.745  68.666  1.00  0.00     0.000 HD 
BRANCH  13  15
HETATM   15  C   UNL     1      -9.774   8.366  68.734  1.00  0.00    -0.164 A  
HETATM   16  C   UNL     1      -9.761   7.168  67.970  1.00  0.00    -0.152 A  
HETATM   17  C   UNL     1     -10.925   6.438  67.623  1.00  0.00    -0.441 A  
HETATM   18  C   UNL     1     -10.841   5.259  66.878  1.00  0.00    -0.081 A  
HETATM   19  C   UNL     1      -9.595   4.789  66.485  1.00  0.00    -0.175 A  
HETATM   20  C   UNL     1      -8.440   5.491  66.819  1.00  0.00    -0.111 A  
HETATM   21 CL   UNL     1      -9.472   3.333  65.575  1.00  0.00    -0.142 Cl 
HETATM   22  C   UNL     1      -8.505   6.668  67.541  1.00  0.00    -0.121 A  
HETATM   23  N   UNL     1      -7.346   7.291  67.792  1.00  0.00    -0.091 NA 
HETATM   24  C   UNL     1      -7.393   8.460  68.457  1.00  0.00    -0.093 A  
HETATM   25  C   UNL     1      -8.563   9.034  68.912  1.00  0.00    -0.131 A  
ENDBRANCH  13  15
ENDBRANCH  11  13
ENDBRANCH  10  11
ENDBRANCH   9  10
ENDBRANCH   8   9
ENDBRANCH   3   8
ENDBRANCH   2   3
TORSDOF 9
ENDMDL
MODEL      156
REMARK 921   NORMALIZED FREE ENERGY PREDICTED BY IDOCK:   -3.98 KCAL/MOL
REMARK 922        TOTAL FREE ENERGY PREDICTED BY IDOCK:   -7.30 KCAL/MOL
REMARK 923 INTER-LIGAND FREE ENERGY PREDICTED BY IDOCK:   -6.57 KCAL/MOL
REMARK 924 INTRA-LIGAND FREE ENERGY PREDICTED BY IDOCK:   -0.73 KCAL/MOL
REMARK 927      BINDING AFFINITY PREDICTED BY RF-SCORE:    0.00 PKD
ROOT
HETATM    1  C   UNL     1     -12.692  11.758  63.218  1.00  0.00    -0.314 C  
HETATM    2  C   UNL     1     -11.810  12.991  63.388  1.00  0.00    -0.476 C  
ENDROOT
BRANCH   2   3
HETATM    3  N   UNL     1     -11.299  13.232  64.759  1.00  0.00    -0.315 NA 
BRANCH   3   4
HETATM    4  C   UNL     1     -11.824  14.513  65.296  1.00  0.00    -0.358 C  
BRANCH   4   5
HETATM    5  C   UNL     1     -11.024  15.774  64.918  1.00  0.00    -0.427 C  
HETATM    6  H   UNL     1     -11.188  17.264  63.638  1.00  0.00     0.000 HD 
HETATM    7  O   UNL     1     -11.681  16.487  63.870  1.00  0.00    -1.148 OA 
ENDBRANCH   4   5
ENDBRANCH   3   4
BRANCH   3   8
HETATM    8  C   UNL     1     -11.685  12.097  65.632  1.00  0.00    -0.323 C  
BRANCH   8   9
HETATM    9  C   UNL     1     -10.532  11.155  66.044  1.00  0.00    -0.312 C  
BRANCH   9  10
HETATM   10  C   UNL     1     -10.386  10.917  67.557  1.00  0.00    -0.237 C  
BRANCH  10  11
HETATM   11  C   UNL     1      -8.948  11.086  68.084  1.00  0.00    -0.152 C  
HETATM   12  C   UNL     1      -8.545  12.559  68.192  1.00  0.00    -0.189 C  
BRANCH  11  13
HETATM   13  N   UNL     1      -8.813  10.450  69.414  1.00  0.00    -0.292 NA 
HETATM   14  H   UNL     1      -8.887  10.997  70.272  1.00  0.00     0.000 HD 
BRANCH  13  15
HETATM   15  C   UNL     1      -8.576   9.048  69.447  1.00  0.00    -0.137 A  
HETATM   16  C   UNL     1      -9.403   8.197  70.229  1.00  0.00    -0.155 A  
HETATM   17  C   UNL     1     -10.458   8.658  71.053  1.00  0.00    -0.276 A  
HETATM   18  C   UNL     1     -11.227   7.767  71.807  1.00  0.00    -0.298 A  
HETATM   19  C   UNL     1     -10.939   6.409  71.758  1.00  0.00    -0.255 A  
HETATM   20  C   UNL     1      -9.903   5.938  70.956  1.00  0.00    -0.225 A  
HETATM   21 CL   UNL     1     -11.868   5.299  72.688  1.00  0.00    -0.207 Cl 
HETATM   22  C   UNL     1      -9.144   6.803  70.190  1.00  0.00    -0.155 A  
HETATM   23  N   UNL     1      -8.187   6.258  69.427  1.00  0.00    -0.113 NA 
HETATM   24  C   UNL     1      -7.466   7.079  68.642  1.00  0.00    -0.102 A  
HETATM   25  C   UNL     1      -7.643   8.448  68.602  1.00  0.00    -0.102 A  
ENDBRANCH  13  15
ENDBRANCH  11  13
ENDBRANCH  10  11
ENDBRANCH   9  10
ENDBRANCH   8   9
ENDBRANCH   3   8
ENDBRANCH   2   3
TORSDOF 9
ENDMDL
MODEL      157
REMARK 921   NORMALIZED FREE ENERGY PREDICTED BY IDOCK:   -3.98 KCAL/MOL
REMARK 922        TOTAL FREE ENERGY PREDICTED BY IDOCK:   -7.30 KCAL/MOL
REMARK 923 INTER-LIGAND FREE ENERGY PREDICTED BY IDOCK:   -6.76 KCAL/MOL
REMARK 924 INTRA-LIGAND FREE ENERGY PREDICTED BY IDOCK:   -0.53 KCAL/MOL
REMARK 927      BINDING AFFINITY PREDICTED BY RF-SCORE:    0.00 PKD
ROOT
HETATM    1  C   UNL     1     -10.806  15.944  65.069  1.00  0.00    -0.444 C  
HETATM    2  C   UNL     1     -10.329  15.385  66.406  1.00  0.00    -0.296 C  
ENDROOT
BRANCH   2   3
HETATM    3  N   UNL     1     -10.293  16.350  67.530  1.00  0.00    -0.282 NA 
BRANCH   3   4
HETATM    4  C   UNL     1     -10.474  17.738  67.035  1.00  0.00    -0.322 C  
BRANCH   4   5
HETATM    5  C   UNL     1      -9.488  18.781  67.592  1.00  0.00    -0.300 C  
HETATM    6  H   UNL     1      -7.896  18.794  68.756  1.00  0.00     0.000 HD 
HETATM    7  O   UNL     1      -8.504  18.151  68.412  1.00  0.00    -0.287 OA 
ENDBRANCH   4   5
ENDBRANCH   3   4
BRANCH   3   8
HETATM    8  C   UNL     1     -11.348  16.000  68.511  1.00  0.00    -0.382 C  
BRANCH   8   9
HETATM    9  C   UNL     1     -12.025  14.628  68.296  1.00  0.00    -0.282 C  
BRANCH   9  10
HETATM   10  C   UNL     1     -11.680  13.554  69.343  1.00  0.00    -0.381 C  
BRANCH  10  11
HETATM   11  C   UNL     1     -11.464  12.147  68.753  1.00  0.00    -0.307 C  
HETATM   12  C   UNL     1     -11.641  12.129  67.232  1.00  0.00    -0.404 C  
BRANCH  11  13
HETATM   13  N   UNL     1     -10.107  11.656  69.085  1.00  0.00    -0.419 NA 
HETATM   14  H   UNL     1      -9.392  12.283  69.454  1.00  0.00     0.000 HD 
BRANCH  13  15
HETATM   15  C   UNL     1      -9.842  10.275  68.870  1.00  0.00    -0.195 A  
HETATM   16  C   UNL     1     -10.385   9.294  69.742  1.00  0.00    -0.232 A  
HETATM   17  C   UNL     1     -11.163   9.596  70.887  1.00  0.00    -0.422 A  
HETATM   18  C   UNL     1     -11.658   8.581  71.710  1.00  0.00    -0.380 A  
HETATM   19  C   UNL     1     -11.368   7.257  71.409  1.00  0.00    -0.255 A  
HETATM   20  C   UNL     1     -10.603   6.941  70.290  1.00  0.00    -0.246 A  
HETATM   21 CL   UNL     1     -11.961   5.995  72.418  1.00  0.00    -0.309 Cl 
HETATM   22  C   UNL     1     -10.119   7.930  69.454  1.00  0.00    -0.196 A  
HETATM   23  N   UNL     1      -9.417   7.533  68.384  1.00  0.00    -0.148 NA 
HETATM   24  C   UNL     1      -8.975   8.479  67.537  1.00  0.00    -0.135 A  
HETATM   25  C   UNL     1      -9.184   9.831  67.723  1.00  0.00    -0.141 A  
ENDBRANCH  13  15
ENDBRANCH  11  13
ENDBRANCH  10  11
ENDBRANCH   9  10
ENDBRANCH   8   9
ENDBRANCH   3   8
ENDBRANCH   2   3
TORSDOF 9
ENDMDL
MODEL      158
REMARK 921   NORMALIZED FREE ENERGY PREDICTED BY IDOCK:   -3.97 KCAL/MOL
REMARK 922        TOTAL FREE ENERGY PREDICTED BY IDOCK:   -7.29 KCAL/MOL
REMARK 923 INTER-LIGAND FREE ENERGY PREDICTED BY IDOCK:   -6.03 KCAL/MOL
REMARK 924 INTRA-LIGAND FREE ENERGY PREDICTED BY IDOCK:   -1.26 KCAL/MOL
REMARK 927      BINDING AFFINITY PREDICTED BY RF-SCORE:    0.00 PKD
ROOT
HETATM    1  C   UNL     1     -10.755   6.862  67.082  1.00  0.00    -0.436 C  
HETATM    2  C   UNL     1      -9.452   7.401  66.500  1.00  0.00    -0.172 C  
ENDROOT
BRANCH   2   3
HETATM    3  N   UNL     1      -9.178   8.836  66.754  1.00  0.00    -0.160 NA 
BRANCH   3   4
HETATM    4  C   UNL     1     -10.285   9.679  66.237  1.00  0.00    -0.216 C  
BRANCH   4   5
HETATM    5  C   UNL     1     -10.030  10.357  64.877  1.00  0.00    -0.339 C  
HETATM    6  H   UNL     1     -10.345  12.121  64.056  1.00  0.00     0.000 HD 
HETATM    7  O   UNL     1     -10.503  11.703  64.894  1.00  0.00    -0.262 OA 
ENDBRANCH   4   5
ENDBRANCH   3   4
BRANCH   3   8
HETATM    8  C   UNL     1      -8.990   9.048  68.210  1.00  0.00    -0.133 C  
BRANCH   8   9
HETATM    9  C   UNL     1      -8.638  10.492  68.629  1.00  0.00    -0.139 C  
BRANCH   9  10
HETATM   10  C   UNL     1      -7.542  11.172  67.789  1.00  0.00    -0.100 C  
BRANCH  10  11
HETATM   11  C   UNL     1      -7.575  12.712  67.841  1.00  0.00    -0.132 C  
HETATM   12  C   UNL     1      -6.221  13.328  67.479  1.00  0.00    -0.114 C  
BRANCH  11  13
HETATM   13  N   UNL     1      -8.605  13.233  66.913  1.00  0.00    -0.391 NA 
HETATM   14  H   UNL     1      -8.563  13.039  65.912  1.00  0.00     0.000 HD 
BRANCH  13  15
HETATM   15  C   UNL     1      -9.653  14.014  67.473  1.00  0.00    -0.228 A  
HETATM   16  C   UNL     1      -9.631  15.431  67.366  1.00  0.00    -0.210 A  
HETATM   17  C   UNL     1      -8.579  16.162  66.763  1.00  0.00    -0.282 A  
HETATM   18  C   UNL     1      -8.614  17.558  66.702  1.00  0.00    -0.284 A  
HETATM   19  C   UNL     1      -9.691  18.237  67.255  1.00  0.00    -0.297 A  
HETATM   20  C   UNL     1     -10.733  17.535  67.854  1.00  0.00    -0.340 A  
HETATM   21 CL   UNL     1      -9.745  19.957  67.197  1.00  0.00    -0.490 Cl 
HETATM   22  C   UNL     1     -10.724  16.154  67.910  1.00  0.00    -0.321 A  
HETATM   23  N   UNL     1     -11.782  15.561  68.479  1.00  0.00    -0.367 NA 
HETATM   24  C   UNL     1     -11.811  14.217  68.504  1.00  0.00    -0.355 A  
HETATM   25  C   UNL     1     -10.801  13.421  67.998  1.00  0.00    -0.264 A  
ENDBRANCH  13  15
ENDBRANCH  11  13
ENDBRANCH  10  11
ENDBRANCH   9  10
ENDBRANCH   8   9
ENDBRANCH   3   8
ENDBRANCH   2   3
TORSDOF 9
ENDMDL
MODEL      159
REMARK 921   NORMALIZED FREE ENERGY PREDICTED BY IDOCK:   -3.97 KCAL/MOL
REMARK 922        TOTAL FREE ENERGY PREDICTED BY IDOCK:   -7.28 KCAL/MOL
REMARK 923 INTER-LIGAND FREE ENERGY PREDICTED BY IDOCK:   -6.71 KCAL/MOL
REMARK 924 INTRA-LIGAND FREE ENERGY PREDICTED BY IDOCK:   -0.57 KCAL/MOL
REMARK 927      BINDING AFFINITY PREDICTED BY RF-SCORE:    0.00 PKD
ROOT
HETATM    1  C   UNL     1      -9.645   4.585  68.581  1.00  0.00    -0.222 C  
HETATM    2  C   UNL     1      -8.503   4.887  67.614  1.00  0.00    -0.104 C  
ENDROOT
BRANCH   2   3
HETATM    3  N   UNL     1      -8.810   5.863  66.541  1.00  0.00    -0.124 NA 
BRANCH   3   4
HETATM    4  C   UNL     1      -8.894   5.183  65.224  1.00  0.00    -0.152 C  
BRANCH   4   5
HETATM    5  C   UNL     1      -9.685   3.861  65.203  1.00  0.00    -0.191 C  
HETATM    6  H   UNL     1     -10.913   2.926  63.976  1.00  0.00     0.000 HD 
HETATM    7  O   UNL     1     -10.426   3.741  63.989  1.00  0.00    -0.238 OA 
ENDBRANCH   4   5
ENDBRANCH   3   4
BRANCH   3   8
HETATM    8  C   UNL     1     -10.082   6.556  66.858  1.00  0.00    -0.192 C  
BRANCH   8   9
HETATM    9  C   UNL     1      -9.937   7.994  67.402  1.00  0.00    -0.270 C  
BRANCH   9  10
HETATM   10  C   UNL     1      -9.686   9.077  66.337  1.00  0.00    -0.337 C  
BRANCH  10  11
HETATM   11  C   UNL     1     -10.571  10.329  66.494  1.00  0.00    -0.132 C  
HETATM   12  C   UNL     1     -10.866  10.643  67.963  1.00  0.00    -0.309 C  
BRANCH  11  13
HETATM   13  N   UNL     1      -9.912  11.501  65.874  1.00  0.00    -0.221 NA 
HETATM   14  H   UNL     1      -8.906  11.650  65.958  1.00  0.00     0.000 HD 
BRANCH  13  15
HETATM   15  C   UNL     1     -10.738  12.411  65.157  1.00  0.00    -0.292 A  
HETATM   16  C   UNL     1     -10.620  13.811  65.370  1.00  0.00    -0.330 A  
HETATM   17  C   UNL     1      -9.742  14.396  66.314  1.00  0.00    -0.330 A  
HETATM   18  C   UNL     1      -9.683  15.782  66.481  1.00  0.00    -0.285 A  
HETATM   19  C   UNL     1     -10.511  16.596  65.719  1.00  0.00    -0.311 A  
HETATM   20  C   UNL     1     -11.383  16.038  64.788  1.00  0.00    -0.285 A  
HETATM   21 CL   UNL     1     -10.460  18.305  65.919  1.00  0.00    -0.400 Cl 
HETATM   22  C   UNL     1     -11.442  14.670  64.597  1.00  0.00    -0.388 A  
HETATM   23  N   UNL     1     -12.289  14.224  63.659  1.00  0.00    -0.730 NA 
HETATM   24  C   UNL     1     -12.329  12.899  63.429  1.00  0.00    -0.410 A  
HETATM   25  C   UNL     1     -11.567  11.979  64.122  1.00  0.00    -0.460 A  
ENDBRANCH  13  15
ENDBRANCH  11  13
ENDBRANCH  10  11
ENDBRANCH   9  10
ENDBRANCH   8   9
ENDBRANCH   3   8
ENDBRANCH   2   3
TORSDOF 9
ENDMDL
MODEL      160
REMARK 921   NORMALIZED FREE ENERGY PREDICTED BY IDOCK:   -3.97 KCAL/MOL
REMARK 922        TOTAL FREE ENERGY PREDICTED BY IDOCK:   -7.28 KCAL/MOL
REMARK 923 INTER-LIGAND FREE ENERGY PREDICTED BY IDOCK:   -6.41 KCAL/MOL
REMARK 924 INTRA-LIGAND FREE ENERGY PREDICTED BY IDOCK:   -0.87 KCAL/MOL
REMARK 927      BINDING AFFINITY PREDICTED BY RF-SCORE:    0.00 PKD
ROOT
HETATM    1  C   UNL     1      -6.573  14.279  68.794  1.00  0.00    -0.092 C  
HETATM    2  C   UNL     1      -6.717  12.760  68.765  1.00  0.00    -0.093 C  
ENDROOT
BRANCH   2   3
HETATM    3  N   UNL     1      -5.545  12.014  68.247  1.00  0.00    -0.050 NA 
BRANCH   3   4
HETATM    4  C   UNL     1      -5.216  10.872  69.138  1.00  0.00    -0.041 C  
BRANCH   4   5
HETATM    5  C   UNL     1      -5.301  11.158  70.649  1.00  0.00    -0.119 C  
HETATM    6  H   UNL     1      -6.449  10.629  72.162  1.00  0.00     0.000 HD 
HETATM    7  O   UNL     1      -6.397  10.453  71.230  1.00  0.00    -0.330 OA 
ENDBRANCH   4   5
ENDBRANCH   3   4
BRANCH   3   8
HETATM    8  C   UNL     1      -5.834  11.541  66.871  1.00  0.00    -0.132 C  
BRANCH   8   9
HETATM    9  C   UNL     1      -7.215  10.879  66.673  1.00  0.00    -0.139 C  
BRANCH   9  10
HETATM   10  C   UNL     1      -7.353  10.008  65.412  1.00  0.00    -0.139 C  
BRANCH  10  11
HETATM   11  C   UNL     1      -8.752  10.051  64.768  1.00  0.00    -0.187 C  
HETATM   12  C   UNL     1      -9.850   9.642  65.753  1.00  0.00    -0.373 C  
BRANCH  11  13
HETATM   13  N   UNL     1      -9.040  11.413  64.263  1.00  0.00    -0.401 NA 
HETATM   14  H   UNL     1      -8.323  11.968  63.795  1.00  0.00     0.000 HD 
BRANCH  13  15
HETATM   15  C   UNL     1     -10.357  11.915  64.457  1.00  0.00    -0.292 A  
HETATM   16  C   UNL     1     -10.622  12.863  65.482  1.00  0.00    -0.298 A  
HETATM   17  C   UNL     1      -9.648  13.331  66.398  1.00  0.00    -0.260 A  
HETATM   18  C   UNL     1      -9.979  14.256  67.391  1.00  0.00    -0.242 A  
HETATM   19  C   UNL     1     -11.287  14.711  67.491  1.00  0.00    -0.348 A  
HETATM   20  C   UNL     1     -12.258  14.259  66.602  1.00  0.00    -0.411 A  
HETATM   21 CL   UNL     1     -11.714  15.843  68.715  1.00  0.00    -0.394 Cl 
HETATM   22  C   UNL     1     -11.946  13.357  65.602  1.00  0.00    -0.401 A  
HETATM   23  N   UNL     1     -12.937  13.001  64.774  1.00  0.00    -0.748 NA 
HETATM   24  C   UNL     1     -12.643  12.157  63.769  1.00  0.00    -0.475 A  
HETATM   25  C   UNL     1     -11.386  11.623  63.562  1.00  0.00    -0.447 A  
ENDBRANCH  13  15
ENDBRANCH  11  13
ENDBRANCH  10  11
ENDBRANCH   9  10
ENDBRANCH   8   9
ENDBRANCH   3   8
ENDBRANCH   2   3
TORSDOF 9
ENDMDL
MODEL      161
REMARK 921   NORMALIZED FREE ENERGY PREDICTED BY IDOCK:   -3.96 KCAL/MOL
REMARK 922        TOTAL FREE ENERGY PREDICTED BY IDOCK:   -7.28 KCAL/MOL
REMARK 923 INTER-LIGAND FREE ENERGY PREDICTED BY IDOCK:   -6.48 KCAL/MOL
REMARK 924 INTRA-LIGAND FREE ENERGY PREDICTED BY IDOCK:   -0.79 KCAL/MOL
REMARK 927      BINDING AFFINITY PREDICTED BY RF-SCORE:    0.00 PKD
ROOT
HETATM    1  C   UNL     1     -11.809  16.349  71.837  1.00  0.00    -0.433 C  
HETATM    2  C   UNL     1     -11.307  15.166  71.015  1.00  0.00    -0.316 C  
ENDROOT
BRANCH   2   3
HETATM    3  N   UNL     1     -11.074  15.435  69.576  1.00  0.00    -0.263 NA 
BRANCH   3   4
HETATM    4  C   UNL     1      -9.620  15.453  69.276  1.00  0.00    -0.268 C  
BRANCH   4   5
HETATM    5  C   UNL     1      -9.139  16.599  68.366  1.00  0.00    -0.226 C  
HETATM    6  H   UNL     1      -9.446  18.540  68.194  1.00  0.00     0.000 HD 
HETATM    7  O   UNL     1      -9.742  17.833  68.755  1.00  0.00    -0.319 OA 
ENDBRANCH   4   5
ENDBRANCH   3   4
BRANCH   3   8
HETATM    8  C   UNL     1     -11.766  14.404  68.765  1.00  0.00    -0.337 C  
BRANCH   8   9
HETATM    9  C   UNL     1     -11.477  14.448  67.249  1.00  0.00    -0.377 C  
BRANCH   9  10
HETATM   10  C   UNL     1     -12.235  13.409  66.404  1.00  0.00    -0.435 C  
BRANCH  10  11
HETATM   11  C   UNL     1     -11.741  13.300  64.949  1.00  0.00    -0.342 C  
HETATM   12  C   UNL     1     -12.098  14.541  64.127  1.00  0.00    -0.377 C  
BRANCH  11  13
HETATM   13  N   UNL     1     -10.273  13.109  64.921  1.00  0.00    -0.470 NA 
HETATM   14  H   UNL     1      -9.637  13.843  65.233  1.00  0.00     0.000 HD 
BRANCH  13  15
HETATM   15  C   UNL     1      -9.787  11.861  64.441  1.00  0.00    -0.178 A  
HETATM   16  C   UNL     1      -9.446  10.824  65.351  1.00  0.00    -0.258 A  
HETATM   17  C   UNL     1      -9.510  10.955  66.760  1.00  0.00    -0.200 A  
HETATM   18  C   UNL     1      -9.149   9.898  67.599  1.00  0.00    -0.140 A  
HETATM   19  C   UNL     1      -8.708   8.705  67.041  1.00  0.00    -0.127 A  
HETATM   20  C   UNL     1      -8.636   8.559  65.659  1.00  0.00    -0.200 A  
HETATM   21 CL   UNL     1      -8.250   7.396  68.060  1.00  0.00    -0.123 Cl 
HETATM   22  C   UNL     1      -9.005   9.588  64.813  1.00  0.00    -0.218 A  
HETATM   23  N   UNL     1      -8.932   9.348  63.496  1.00  0.00    -0.185 NA 
HETATM   24  C   UNL     1      -9.327  10.323  62.658  1.00  0.00    -0.309 A  
HETATM   25  C   UNL     1      -9.777  11.559  63.080  1.00  0.00    -0.382 A  
ENDBRANCH  13  15
ENDBRANCH  11  13
ENDBRANCH  10  11
ENDBRANCH   9  10
ENDBRANCH   8   9
ENDBRANCH   3   8
ENDBRANCH   2   3
TORSDOF 9
ENDMDL
MODEL      162
REMARK 921   NORMALIZED FREE ENERGY PREDICTED BY IDOCK:   -3.96 KCAL/MOL
REMARK 922        TOTAL FREE ENERGY PREDICTED BY IDOCK:   -7.27 KCAL/MOL
REMARK 923 INTER-LIGAND FREE ENERGY PREDICTED BY IDOCK:   -6.52 KCAL/MOL
REMARK 924 INTRA-LIGAND FREE ENERGY PREDICTED BY IDOCK:   -0.75 KCAL/MOL
REMARK 927      BINDING AFFINITY PREDICTED BY RF-SCORE:    0.00 PKD
ROOT
HETATM    1  C   UNL     1      -7.025   7.005  70.723  1.00  0.00    -0.065 C  
HETATM    2  C   UNL     1      -7.392   6.374  69.383  1.00  0.00    -0.092 C  
ENDROOT
BRANCH   2   3
HETATM    3  N   UNL     1      -8.652   6.857  68.769  1.00  0.00    -0.124 NA 
BRANCH   3   4
HETATM    4  C   UNL     1      -9.741   5.865  68.960  1.00  0.00    -0.136 C  
BRANCH   4   5
HETATM    5  C   UNL     1     -10.455   5.910  70.324  1.00  0.00    -0.261 C  
HETATM    6  H   UNL     1     -12.219   6.450  71.019  1.00  0.00     0.000 HD 
HETATM    7  O   UNL     1     -11.779   6.423  70.178  1.00  0.00    -0.422 OA 
ENDBRANCH   4   5
ENDBRANCH   3   4
BRANCH   3   8
HETATM    8  C   UNL     1      -9.020   8.163  69.368  1.00  0.00    -0.147 C  
BRANCH   8   9
HETATM    9  C   UNL     1      -9.167   9.332  68.369  1.00  0.00    -0.132 C  
BRANCH   9  10
HETATM   10  C   UNL     1     -10.298   9.177  67.337  1.00  0.00    -0.330 C  
BRANCH  10  11
HETATM   11  C   UNL     1     -11.055  10.485  67.034  1.00  0.00    -0.110 C  
HETATM   12  C   UNL     1     -11.424  11.244  68.311  1.00  0.00    -0.378 C  
BRANCH  11  13
HETATM   13  N   UNL     1     -10.233  11.363  66.172  1.00  0.00    -0.231 NA 
HETATM   14  H   UNL     1      -9.215  11.307  66.174  1.00  0.00     0.000 HD 
BRANCH  13  15
HETATM   15  C   UNL     1     -10.922  12.290  65.339  1.00  0.00    -0.301 A  
HETATM   16  C   UNL     1     -10.758  13.689  65.532  1.00  0.00    -0.296 A  
HETATM   17  C   UNL     1      -9.969  14.259  66.560  1.00  0.00    -0.289 A  
HETATM   18  C   UNL     1      -9.860  15.645  66.701  1.00  0.00    -0.258 A  
HETATM   19  C   UNL     1     -10.550  16.474  65.826  1.00  0.00    -0.296 A  
HETATM   20  C   UNL     1     -11.332  15.932  64.811  1.00  0.00    -0.314 A  
HETATM   21 CL   UNL     1     -10.436  18.184  65.991  1.00  0.00    -0.399 Cl 
HETATM   22  C   UNL     1     -11.438  14.563  64.646  1.00  0.00    -0.387 A  
HETATM   23  N   UNL     1     -12.189  14.131  63.624  1.00  0.00    -0.645 NA 
HETATM   24  C   UNL     1     -12.270  12.803  63.422  1.00  0.00    -0.504 A  
HETATM   25  C   UNL     1     -11.643  11.869  64.223  1.00  0.00    -0.405 A  
ENDBRANCH  13  15
ENDBRANCH  11  13
ENDBRANCH  10  11
ENDBRANCH   9  10
ENDBRANCH   8   9
ENDBRANCH   3   8
ENDBRANCH   2   3
TORSDOF 9
ENDMDL
MODEL      163
REMARK 921   NORMALIZED FREE ENERGY PREDICTED BY IDOCK:   -3.95 KCAL/MOL
REMARK 922        TOTAL FREE ENERGY PREDICTED BY IDOCK:   -7.26 KCAL/MOL
REMARK 923 INTER-LIGAND FREE ENERGY PREDICTED BY IDOCK:   -6.23 KCAL/MOL
REMARK 924 INTRA-LIGAND FREE ENERGY PREDICTED BY IDOCK:   -1.03 KCAL/MOL
REMARK 927      BINDING AFFINITY PREDICTED BY RF-SCORE:    0.00 PKD
ROOT
HETATM    1  C   UNL     1     -10.101   4.985  70.268  1.00  0.00    -0.339 C  
HETATM    2  C   UNL     1     -10.540   5.775  69.039  1.00  0.00    -0.281 C  
ENDROOT
BRANCH   2   3
HETATM    3  N   UNL     1      -9.448   6.384  68.243  1.00  0.00    -0.122 NA 
BRANCH   3   4
HETATM    4  C   UNL     1      -9.915   6.698  66.869  1.00  0.00    -0.180 C  
BRANCH   4   5
HETATM    5  C   UNL     1      -8.826   7.159  65.882  1.00  0.00    -0.103 C  
HETATM    6  H   UNL     1      -8.243   8.851  65.053  1.00  0.00     0.000 HD 
HETATM    7  O   UNL     1      -8.915   8.567  65.662  1.00  0.00    -0.187 OA 
ENDBRANCH   4   5
ENDBRANCH   3   4
BRANCH   3   8
HETATM    8  C   UNL     1      -8.967   7.608  68.928  1.00  0.00    -0.137 C  
BRANCH   8   9
HETATM    9  C   UNL     1     -10.061   8.629  69.310  1.00  0.00    -0.203 C  
BRANCH   9  10
HETATM   10  C   UNL     1      -9.802  10.074  68.849  1.00  0.00    -0.187 C  
BRANCH  10  11
HETATM   11  C   UNL     1     -10.730  10.548  67.714  1.00  0.00    -0.272 C  
HETATM   12  C   UNL     1     -11.886  11.405  68.237  1.00  0.00    -0.320 C  
BRANCH  11  13
HETATM   13  N   UNL     1      -9.962  11.331  66.720  1.00  0.00    -0.202 NA 
HETATM   14  H   UNL     1      -8.942  11.319  66.708  1.00  0.00     0.000 HD 
BRANCH  13  15
HETATM   15  C   UNL     1     -10.705  12.100  65.780  1.00  0.00    -0.267 A  
HETATM   16  C   UNL     1     -10.622  13.519  65.787  1.00  0.00    -0.283 A  
HETATM   17  C   UNL     1      -9.865  14.263  66.724  1.00  0.00    -0.274 A  
HETATM   18  C   UNL     1      -9.835  15.659  66.681  1.00  0.00    -0.258 A  
HETATM   19  C   UNL     1     -10.573  16.326  65.712  1.00  0.00    -0.324 A  
HETATM   20  C   UNL     1     -11.326  15.612  64.785  1.00  0.00    -0.348 A  
HETATM   21 CL   UNL     1     -10.557  18.047  65.651  1.00  0.00    -0.261 Cl 
HETATM   22  C   UNL     1     -11.353  14.230  64.801  1.00  0.00    -0.382 A  
HETATM   23  N   UNL     1     -12.081  13.625  63.852  1.00  0.00    -0.564 NA 
HETATM   24  C   UNL     1     -12.085  12.280  63.826  1.00  0.00    -0.532 A  
HETATM   25  C   UNL     1     -11.403  11.496  64.736  1.00  0.00    -0.206 A  
ENDBRANCH  13  15
ENDBRANCH  11  13
ENDBRANCH  10  11
ENDBRANCH   9  10
ENDBRANCH   8   9
ENDBRANCH   3   8
ENDBRANCH   2   3
TORSDOF 9
ENDMDL
MODEL      164
REMARK 921   NORMALIZED FREE ENERGY PREDICTED BY IDOCK:   -3.95 KCAL/MOL
REMARK 922        TOTAL FREE ENERGY PREDICTED BY IDOCK:   -7.25 KCAL/MOL
REMARK 923 INTER-LIGAND FREE ENERGY PREDICTED BY IDOCK:   -6.54 KCAL/MOL
REMARK 924 INTRA-LIGAND FREE ENERGY PREDICTED BY IDOCK:   -0.71 KCAL/MOL
REMARK 927      BINDING AFFINITY PREDICTED BY RF-SCORE:    0.00 PKD
ROOT
HETATM    1  C   UNL     1     -10.941   8.745  71.931  1.00  0.00    -0.435 C  
HETATM    2  C   UNL     1     -11.343   8.353  70.513  1.00  0.00    -0.216 C  
ENDROOT
BRANCH   2   3
HETATM    3  N   UNL     1     -10.353   7.543  69.764  1.00  0.00    -0.215 NA 
BRANCH   3   4
HETATM    4  C   UNL     1     -10.629   6.093  69.932  1.00  0.00    -0.265 C  
BRANCH   4   5
HETATM    5  C   UNL     1      -9.423   5.227  70.342  1.00  0.00    -0.166 C  
HETATM    6  H   UNL     1      -9.005   3.306  70.496  1.00  0.00     0.000 HD 
HETATM    7  O   UNL     1      -9.748   3.840  70.244  1.00  0.00    -0.194 OA 
ENDBRANCH   4   5
ENDBRANCH   3   4
BRANCH   3   8
HETATM    8  C   UNL     1     -10.390   7.923  68.331  1.00  0.00    -0.199 C  
BRANCH   8   9
HETATM    9  C   UNL     1     -10.355   9.441  68.047  1.00  0.00    -0.267 C  
BRANCH   9  10
HETATM   10  C   UNL     1     -10.143   9.829  66.573  1.00  0.00    -0.307 C  
BRANCH  10  11
HETATM   11  C   UNL     1     -10.005  11.345  66.336  1.00  0.00    -0.214 C  
HETATM   12  C   UNL     1     -11.297  11.962  65.794  1.00  0.00    -0.354 C  
BRANCH  11  13
HETATM   13  N   UNL     1      -9.637  12.028  67.597  1.00  0.00    -0.184 NA 
HETATM   14  H   UNL     1      -9.156  11.533  68.347  1.00  0.00     0.000 HD 
BRANCH  13  15
HETATM   15  C   UNL     1      -9.983  13.403  67.720  1.00  0.00    -0.233 A  
HETATM   16  C   UNL     1     -10.913  13.825  68.708  1.00  0.00    -0.289 A  
HETATM   17  C   UNL     1     -11.590  12.944  69.586  1.00  0.00    -0.318 A  
HETATM   18  C   UNL     1     -12.502  13.425  70.529  1.00  0.00    -0.350 A  
HETATM   19  C   UNL     1     -12.760  14.788  70.593  1.00  0.00    -0.358 A  
HETATM   20  C   UNL     1     -12.107  15.669  69.735  1.00  0.00    -0.346 A  
HETATM   21 CL   UNL     1     -13.889  15.397  71.741  1.00  0.00    -0.587 Cl 
HETATM   22  C   UNL     1     -11.189  15.213  68.808  1.00  0.00    -0.284 A  
HETATM   23  N   UNL     1     -10.587  16.135  68.045  1.00  0.00    -0.293 NA 
HETATM   24  C   UNL     1      -9.659  15.715  67.167  1.00  0.00    -0.218 A  
HETATM   25  C   UNL     1      -9.315  14.389  66.995  1.00  0.00    -0.252 A  
ENDBRANCH  13  15
ENDBRANCH  11  13
ENDBRANCH  10  11
ENDBRANCH   9  10
ENDBRANCH   8   9
ENDBRANCH   3   8
ENDBRANCH   2   3
TORSDOF 9
ENDMDL
MODEL      165
REMARK 921   NORMALIZED FREE ENERGY PREDICTED BY IDOCK:   -3.94 KCAL/MOL
REMARK 922        TOTAL FREE ENERGY PREDICTED BY IDOCK:   -7.24 KCAL/MOL
REMARK 923 INTER-LIGAND FREE ENERGY PREDICTED BY IDOCK:   -6.38 KCAL/MOL
REMARK 924 INTRA-LIGAND FREE ENERGY PREDICTED BY IDOCK:   -0.86 KCAL/MOL
REMARK 927      BINDING AFFINITY PREDICTED BY RF-SCORE:    0.00 PKD
ROOT
HETATM    1  C   UNL     1      -9.562  20.426  67.340  1.00  0.00    -0.584 C  
HETATM    2  C   UNL     1      -9.360  19.418  66.212  1.00  0.00    -0.355 C  
ENDROOT
BRANCH   2   3
HETATM    3  N   UNL     1      -9.138  18.015  66.636  1.00  0.00    -0.274 NA 
BRANCH   3   4
HETATM    4  C   UNL     1      -7.711  17.792  66.978  1.00  0.00    -0.210 C  
BRANCH   4   5
HETATM    5  C   UNL     1      -7.393  17.673  68.481  1.00  0.00    -0.256 C  
HETATM    6  H   UNL     1      -6.452  18.733  69.851  1.00  0.00     0.000 HD 
HETATM    7  O   UNL     1      -6.647  18.806  68.925  1.00  0.00    -0.246 OA 
ENDBRANCH   4   5
ENDBRANCH   3   4
BRANCH   3   8
HETATM    8  C   UNL     1     -10.011  17.709  67.796  1.00  0.00    -0.315 C  
BRANCH   8   9
HETATM    9  C   UNL     1     -10.907  16.460  67.640  1.00  0.00    -0.280 C  
BRANCH   9  10
HETATM   10  C   UNL     1     -10.191  15.110  67.822  1.00  0.00    -0.236 C  
BRANCH  10  11
HETATM   11  C   UNL     1     -10.283  14.180  66.597  1.00  0.00    -0.270 C  
HETATM   12  C   UNL     1     -10.362  14.965  65.284  1.00  0.00    -0.424 C  
BRANCH  11  13
HETATM   13  N   UNL     1      -9.109  13.280  66.550  1.00  0.00    -0.428 NA 
HETATM   14  H   UNL     1      -8.164  13.633  66.699  1.00  0.00     0.000 HD 
BRANCH  13  15
HETATM   15  C   UNL     1      -9.352  11.903  66.287  1.00  0.00    -0.227 A  
HETATM   16  C   UNL     1      -9.818  11.045  67.321  1.00  0.00    -0.204 A  
HETATM   17  C   UNL     1     -10.021  11.458  68.660  1.00  0.00    -0.209 A  
HETATM   18  C   UNL     1     -10.470  10.560  69.632  1.00  0.00    -0.257 A  
HETATM   19  C   UNL     1     -10.705   9.237  69.279  1.00  0.00    -0.196 A  
HETATM   20  C   UNL     1     -10.508   8.813  67.968  1.00  0.00    -0.260 A  
HETATM   21 CL   UNL     1     -11.249   8.114  70.465  1.00  0.00    -0.263 Cl 
HETATM   22  C   UNL     1     -10.081   9.691  66.990  1.00  0.00    -0.214 A  
HETATM   23  N   UNL     1      -9.947   9.202  65.750  1.00  0.00    -0.204 NA 
HETATM   24  C   UNL     1      -9.573  10.052  64.777  1.00  0.00    -0.308 A  
HETATM   25  C   UNL     1      -9.298  11.388  64.993  1.00  0.00    -0.158 A  
ENDBRANCH  13  15
ENDBRANCH  11  13
ENDBRANCH  10  11
ENDBRANCH   9  10
ENDBRANCH   8   9
ENDBRANCH   3   8
ENDBRANCH   2   3
TORSDOF 9
ENDMDL
MODEL      166
REMARK 921   NORMALIZED FREE ENERGY PREDICTED BY IDOCK:   -3.94 KCAL/MOL
REMARK 922        TOTAL FREE ENERGY PREDICTED BY IDOCK:   -7.23 KCAL/MOL
REMARK 923 INTER-LIGAND FREE ENERGY PREDICTED BY IDOCK:   -6.48 KCAL/MOL
REMARK 924 INTRA-LIGAND FREE ENERGY PREDICTED BY IDOCK:   -0.76 KCAL/MOL
REMARK 927      BINDING AFFINITY PREDICTED BY RF-SCORE:    0.00 PKD
ROOT
HETATM    1  C   UNL     1      -8.203   7.214  69.802  1.00  0.00    -0.131 C  
HETATM    2  C   UNL     1      -7.644   7.779  68.500  1.00  0.00    -0.105 C  
ENDROOT
BRANCH   2   3
HETATM    3  N   UNL     1      -8.429   8.877  67.886  1.00  0.00    -0.125 NA 
BRANCH   3   4
HETATM    4  C   UNL     1      -8.760   8.557  66.474  1.00  0.00    -0.132 C  
BRANCH   4   5
HETATM    5  C   UNL     1      -8.597   9.715  65.471  1.00  0.00    -0.147 C  
HETATM    6  H   UNL     1      -9.185  10.136  63.636  1.00  0.00     0.000 HD 
HETATM    7  O   UNL     1      -9.285   9.422  64.255  1.00  0.00    -0.186 OA 
ENDBRANCH   4   5
ENDBRANCH   3   4
BRANCH   3   8
HETATM    8  C   UNL     1      -9.662   9.100  68.678  1.00  0.00    -0.155 C  
BRANCH   8   9
HETATM    9  C   UNL     1      -9.754  10.466  69.392  1.00  0.00    -0.222 C  
BRANCH   9  10
HETATM   10  C   UNL     1      -9.468  11.691  68.506  1.00  0.00    -0.175 C  
BRANCH  10  11
HETATM   11  C   UNL     1     -10.716  12.532  68.173  1.00  0.00    -0.227 C  
HETATM   12  C   UNL     1     -11.901  12.182  69.076  1.00  0.00    -0.361 C  
BRANCH  11  13
HETATM   13  N   UNL     1     -10.413  13.974  68.314  1.00  0.00    -0.238 NA 
HETATM   14  H   UNL     1     -10.122  14.370  69.208  1.00  0.00     0.000 HD 
BRANCH  13  15
HETATM   15  C   UNL     1     -10.543  14.785  67.152  1.00  0.00    -0.285 A  
HETATM   16  C   UNL     1     -10.353  16.191  67.231  1.00  0.00    -0.287 A  
HETATM   17  C   UNL     1     -10.081  16.887  68.434  1.00  0.00    -0.304 A  
HETATM   18  C   UNL     1      -9.916  18.274  68.443  1.00  0.00    -0.401 A  
HETATM   19  C   UNL     1     -10.036  18.982  67.255  1.00  0.00    -0.364 A  
HETATM   20  C   UNL     1     -10.307  18.316  66.063  1.00  0.00    -0.377 A  
HETATM   21 CL   UNL     1      -9.847  20.693  67.249  1.00  0.00    -0.600 Cl 
HETATM   22  C   UNL     1     -10.456  16.942  66.032  1.00  0.00    -0.290 A  
HETATM   23  N   UNL     1     -10.685  16.383  64.836  1.00  0.00    -0.705 NA 
HETATM   24  C   UNL     1     -10.790  15.043  64.779  1.00  0.00    -0.355 A  
HETATM   25  C   UNL     1     -10.700  14.221  65.886  1.00  0.00    -0.304 A  
ENDBRANCH  13  15
ENDBRANCH  11  13
ENDBRANCH  10  11
ENDBRANCH   9  10
ENDBRANCH   8   9
ENDBRANCH   3   8
ENDBRANCH   2   3
TORSDOF 9
ENDMDL
MODEL      167
REMARK 921   NORMALIZED FREE ENERGY PREDICTED BY IDOCK:   -3.92 KCAL/MOL
REMARK 922        TOTAL FREE ENERGY PREDICTED BY IDOCK:   -7.22 KCAL/MOL
REMARK 923 INTER-LIGAND FREE ENERGY PREDICTED BY IDOCK:   -6.50 KCAL/MOL
REMARK 924 INTRA-LIGAND FREE ENERGY PREDICTED BY IDOCK:   -0.72 KCAL/MOL
REMARK 927      BINDING AFFINITY PREDICTED BY RF-SCORE:    0.00 PKD
ROOT
HETATM    1  C   UNL     1     -10.722   5.993  69.234  1.00  0.00    -0.401 C  
HETATM    2  C   UNL     1      -9.395   6.015  68.480  1.00  0.00    -0.117 C  
ENDROOT
BRANCH   2   3
HETATM    3  N   UNL     1      -9.327   6.944  67.327  1.00  0.00    -0.132 NA 
BRANCH   3   4
HETATM    4  C   UNL     1      -8.959   6.213  66.088  1.00  0.00    -0.155 C  
BRANCH   4   5
HETATM    5  C   UNL     1      -9.253   4.701  66.091  1.00  0.00    -0.140 C  
HETATM    6  H   UNL     1     -10.722   3.509  65.534  1.00  0.00     0.000 HD 
HETATM    7  O   UNL     1     -10.541   4.442  65.532  1.00  0.00    -0.265 OA 
ENDBRANCH   4   5
ENDBRANCH   3   4
BRANCH   3   8
HETATM    8  C   UNL     1     -10.635   7.624  67.167  1.00  0.00    -0.340 C  
BRANCH   8   9
HETATM    9  C   UNL     1     -10.639   9.136  67.484  1.00  0.00    -0.317 C  
BRANCH   9  10
HETATM   10  C   UNL     1      -9.946  10.029  66.440  1.00  0.00    -0.300 C  
BRANCH  10  11
HETATM   11  C   UNL     1     -10.607  11.408  66.254  1.00  0.00    -0.263 C  
HETATM   12  C   UNL     1     -11.166  11.959  67.569  1.00  0.00    -0.359 C  
BRANCH  11  13
HETATM   13  N   UNL     1      -9.629  12.374  65.705  1.00  0.00    -0.395 NA 
HETATM   14  H   UNL     1      -8.672  12.094  65.489  1.00  0.00     0.000 HD 
BRANCH  13  15
HETATM   15  C   UNL     1     -10.078  13.708  65.491  1.00  0.00    -0.275 A  
HETATM   16  C   UNL     1      -9.425  14.797  66.129  1.00  0.00    -0.324 A  
HETATM   17  C   UNL     1      -8.348  14.652  67.038  1.00  0.00    -0.214 A  
HETATM   18  C   UNL     1      -7.758  15.767  67.640  1.00  0.00    -0.174 A  
HETATM   19  C   UNL     1      -8.247  17.034  67.353  1.00  0.00    -0.183 A  
HETATM   20  C   UNL     1      -9.306  17.196  66.465  1.00  0.00    -0.286 A  
HETATM   21 CL   UNL     1      -7.539  18.418  68.094  1.00  0.00    -0.274 Cl 
HETATM   22  C   UNL     1      -9.891  16.106  65.847  1.00  0.00    -0.353 A  
HETATM   23  N   UNL     1     -10.886  16.358  64.985  1.00  0.00    -0.629 NA 
HETATM   24  C   UNL     1     -11.438  15.314  64.342  1.00  0.00    -0.239 A  
HETATM   25  C   UNL     1     -11.054  14.003  64.541  1.00  0.00    -0.360 A  
ENDBRANCH  13  15
ENDBRANCH  11  13
ENDBRANCH  10  11
ENDBRANCH   9  10
ENDBRANCH   8   9
ENDBRANCH   3   8
ENDBRANCH   2   3
TORSDOF 9
ENDMDL
MODEL      168
REMARK 921   NORMALIZED FREE ENERGY PREDICTED BY IDOCK:   -3.91 KCAL/MOL
REMARK 922        TOTAL FREE ENERGY PREDICTED BY IDOCK:   -7.20 KCAL/MOL
REMARK 923 INTER-LIGAND FREE ENERGY PREDICTED BY IDOCK:   -6.35 KCAL/MOL
REMARK 924 INTRA-LIGAND FREE ENERGY PREDICTED BY IDOCK:   -0.85 KCAL/MOL
REMARK 927      BINDING AFFINITY PREDICTED BY RF-SCORE:    0.00 PKD
ROOT
HETATM    1  C   UNL     1     -10.877   6.687  67.726  1.00  0.00    -0.372 C  
HETATM    2  C   UNL     1     -10.490   8.031  67.115  1.00  0.00    -0.338 C  
ENDROOT
BRANCH   2   3
HETATM    3  N   UNL     1     -10.910   9.229  67.880  1.00  0.00    -0.178 NA 
BRANCH   3   4
HETATM    4  C   UNL     1     -10.314   9.218  69.240  1.00  0.00    -0.215 C  
BRANCH   4   5
HETATM    5  C   UNL     1     -11.290   9.489  70.400  1.00  0.00    -0.264 C  
HETATM    6  H   UNL     1     -11.272   9.370  72.368  1.00  0.00     0.000 HD 
HETATM    7  O   UNL     1     -10.670   9.202  71.652  1.00  0.00    -0.341 OA 
ENDBRANCH   4   5
ENDBRANCH   3   4
BRANCH   3   8
HETATM    8  C   UNL     1     -10.507  10.450  67.139  1.00  0.00    -0.256 C  
BRANCH   8   9
HETATM    9  C   UNL     1     -10.198  10.244  65.640  1.00  0.00    -0.301 C  
BRANCH   9  10
HETATM   10  C   UNL     1      -9.600  11.464  64.918  1.00  0.00    -0.244 C  
BRANCH  10  11
HETATM   11  C   UNL     1     -10.652  12.448  64.371  1.00  0.00    -0.337 C  
HETATM   12  C   UNL     1     -11.767  11.730  63.607  1.00  0.00    -0.517 C  
BRANCH  11  13
HETATM   13  N   UNL     1     -11.251  13.225  65.480  1.00  0.00    -0.286 NA 
HETATM   14  H   UNL     1     -11.889  12.792  66.146  1.00  0.00     0.000 HD 
BRANCH  13  15
HETATM   15  C   UNL     1     -10.899  14.601  65.577  1.00  0.00    -0.345 A  
HETATM   16  C   UNL     1      -9.923  15.028  66.517  1.00  0.00    -0.276 A  
HETATM   17  C   UNL     1      -9.280  14.166  67.438  1.00  0.00    -0.204 A  
HETATM   18  C   UNL     1      -8.336  14.655  68.346  1.00  0.00    -0.157 A  
HETATM   19  C   UNL     1      -8.037  16.011  68.353  1.00  0.00    -0.159 A  
HETATM   20  C   UNL     1      -8.661  16.874  67.457  1.00  0.00    -0.214 A  
HETATM   21 CL   UNL     1      -6.885  16.632  69.471  1.00  0.00    -0.213 Cl 
HETATM   22  C   UNL     1      -9.584  16.406  66.541  1.00  0.00    -0.270 A  
HETATM   23  N   UNL     1     -10.113  17.303  65.698  1.00  0.00    -0.591 NA 
HETATM   24  C   UNL     1     -10.981  16.859  64.771  1.00  0.00     0.091 A  
HETATM   25  C   UNL     1     -11.372  15.539  64.661  1.00  0.00    -0.363 A  
ENDBRANCH  13  15
ENDBRANCH  11  13
ENDBRANCH  10  11
ENDBRANCH   9  10
ENDBRANCH   8   9
ENDBRANCH   3   8
ENDBRANCH   2   3
TORSDOF 9
ENDMDL
MODEL      169
REMARK 921   NORMALIZED FREE ENERGY PREDICTED BY IDOCK:   -3.91 KCAL/MOL
REMARK 922        TOTAL FREE ENERGY PREDICTED BY IDOCK:   -7.20 KCAL/MOL
REMARK 923 INTER-LIGAND FREE ENERGY PREDICTED BY IDOCK:   -6.13 KCAL/MOL
REMARK 924 INTRA-LIGAND FREE ENERGY PREDICTED BY IDOCK:   -1.07 KCAL/MOL
REMARK 927      BINDING AFFINITY PREDICTED BY RF-SCORE:    0.00 PKD
ROOT
HETATM    1  C   UNL     1      -5.962  10.921  70.526  1.00  0.00    -0.121 C  
HETATM    2  C   UNL     1      -5.874   9.620  71.318  1.00  0.00    -0.068 C  
ENDROOT
BRANCH   2   3
HETATM    3  N   UNL     1      -6.919   8.612  71.017  1.00  0.00    -0.062 NA 
BRANCH   3   4
HETATM    4  C   UNL     1      -7.520   8.091  72.271  1.00  0.00    -0.098 C  
BRANCH   4   5
HETATM    5  C   UNL     1      -7.433   6.566  72.471  1.00  0.00    -0.090 C  
HETATM    6  H   UNL     1      -7.136   4.972  71.350  1.00  0.00     0.000 HD 
HETATM    7  O   UNL     1      -7.190   5.912  71.226  1.00  0.00    -0.074 OA 
ENDBRANCH   4   5
ENDBRANCH   3   4
BRANCH   3   8
HETATM    8  C   UNL     1      -7.956   9.224  70.151  1.00  0.00    -0.137 C  
BRANCH   8   9
HETATM    9  C   UNL     1      -9.416   8.879  70.519  1.00  0.00    -0.243 C  
BRANCH   9  10
HETATM   10  C   UNL     1     -10.348   8.608  69.325  1.00  0.00    -0.228 C  
BRANCH  10  11
HETATM   11  C   UNL     1     -10.178   9.598  68.157  1.00  0.00    -0.190 C  
HETATM   12  C   UNL     1      -9.656   8.911  66.892  1.00  0.00    -0.248 C  
BRANCH  11  13
HETATM   13  N   UNL     1     -11.470  10.254  67.851  1.00  0.00    -0.652 NA 
HETATM   14  H   UNL     1     -12.298   9.708  67.615  1.00  0.00     0.000 HD 
BRANCH  13  15
HETATM   15  C   UNL     1     -11.508  11.675  67.899  1.00  0.00    -0.311 A  
HETATM   16  C   UNL     1     -11.909  12.344  69.088  1.00  0.00    -0.352 A  
HETATM   17  C   UNL     1     -12.340  11.680  70.262  1.00  0.00    -0.339 A  
HETATM   18  C   UNL     1     -12.732  12.399  71.394  1.00  0.00    -0.346 A  
HETATM   19  C   UNL     1     -12.715  13.787  71.359  1.00  0.00    -0.367 A  
HETATM   20  C   UNL     1     -12.298  14.457  70.213  1.00  0.00    -0.410 A  
HETATM   21 CL   UNL     1     -13.205  14.689  72.741  1.00  0.00    -0.542 Cl 
HETATM   22  C   UNL     1     -11.889  13.762  69.089  1.00  0.00    -0.354 A  
HETATM   23  N   UNL     1     -11.477  14.489  68.042  1.00  0.00    -0.305 NA 
HETATM   24  C   UNL     1     -11.035  13.830  66.956  1.00  0.00    -0.290 A  
HETATM   25  C   UNL     1     -11.009  12.453  66.855  1.00  0.00    -0.307 A  
ENDBRANCH  13  15
ENDBRANCH  11  13
ENDBRANCH  10  11
ENDBRANCH   9  10
ENDBRANCH   8   9
ENDBRANCH   3   8
ENDBRANCH   2   3
TORSDOF 9
ENDMDL
MODEL      170
REMARK 921   NORMALIZED FREE ENERGY PREDICTED BY IDOCK:   -3.91 KCAL/MOL
REMARK 922        TOTAL FREE ENERGY PREDICTED BY IDOCK:   -7.20 KCAL/MOL
REMARK 923 INTER-LIGAND FREE ENERGY PREDICTED BY IDOCK:   -6.31 KCAL/MOL
REMARK 924 INTRA-LIGAND FREE ENERGY PREDICTED BY IDOCK:   -0.89 KCAL/MOL
REMARK 927      BINDING AFFINITY PREDICTED BY RF-SCORE:    0.00 PKD
ROOT
HETATM    1  C   UNL     1     -11.084   6.547  70.364  1.00  0.00    -0.389 C  
HETATM    2  C   UNL     1      -9.701   6.889  70.909  1.00  0.00    -0.178 C  
ENDROOT
BRANCH   2   3
HETATM    3  N   UNL     1      -9.461   8.322  71.201  1.00  0.00    -0.156 NA 
BRANCH   3   4
HETATM    4  C   UNL     1      -8.813   8.485  72.527  1.00  0.00    -0.175 C  
BRANCH   4   5
HETATM    5  C   UNL     1      -8.293   7.191  73.181  1.00  0.00    -0.112 C  
HETATM    6  H   UNL     1      -8.575   6.201  74.862  1.00  0.00     0.000 HD 
HETATM    7  O   UNL     1      -8.896   6.999  74.460  1.00  0.00    -0.190 OA 
ENDBRANCH   4   5
ENDBRANCH   3   4
BRANCH   3   8
HETATM    8  C   UNL     1      -8.618   8.906  70.129  1.00  0.00    -0.155 C  
BRANCH   8   9
HETATM    9  C   UNL     1      -9.382   9.683  69.034  1.00  0.00    -0.159 C  
BRANCH   9  10
HETATM   10  C   UNL     1     -10.091  10.963  69.510  1.00  0.00    -0.056 C  
BRANCH  10  11
HETATM   11  C   UNL     1     -11.578  11.043  69.112  1.00  0.00    -0.319 C  
HETATM   12  C   UNL     1     -12.501  10.594  70.248  1.00  0.00    -0.381 C  
BRANCH  11  13
HETATM   13  N   UNL     1     -11.929  12.428  68.725  1.00  0.00    -0.282 NA 
HETATM   14  H   UNL     1     -12.429  13.047  69.364  1.00  0.00     0.000 HD 
BRANCH  13  15
HETATM   15  C   UNL     1     -11.541  12.861  67.426  1.00  0.00    -0.360 A  
HETATM   16  C   UNL     1     -11.134  14.205  67.208  1.00  0.00    -0.315 A  
HETATM   17  C   UNL     1     -11.130  15.204  68.212  1.00  0.00    -0.295 A  
HETATM   18  C   UNL     1     -10.728  16.512  67.927  1.00  0.00    -0.337 A  
HETATM   19  C   UNL     1     -10.342  16.839  66.634  1.00  0.00    -0.297 A  
HETATM   20  C   UNL     1     -10.342  15.871  65.634  1.00  0.00    -0.413 A  
HETATM   21 CL   UNL     1      -9.854  18.447  66.263  1.00  0.00    -0.349 Cl 
HETATM   22  C   UNL     1     -10.720  14.568  65.901  1.00  0.00    -0.305 A  
HETATM   23  N   UNL     1     -10.661  13.698  64.884  1.00  0.00    -0.384 NA 
HETATM   24  C   UNL     1     -10.984  12.416  65.135  1.00  0.00    -0.302 A  
HETATM   25  C   UNL     1     -11.394  11.960  66.372  1.00  0.00    -0.400 A  
ENDBRANCH  13  15
ENDBRANCH  11  13
ENDBRANCH  10  11
ENDBRANCH   9  10
ENDBRANCH   8   9
ENDBRANCH   3   8
ENDBRANCH   2   3
TORSDOF 9
ENDMDL
MODEL      171
REMARK 921   NORMALIZED FREE ENERGY PREDICTED BY IDOCK:   -3.90 KCAL/MOL
REMARK 922        TOTAL FREE ENERGY PREDICTED BY IDOCK:   -7.18 KCAL/MOL
REMARK 923 INTER-LIGAND FREE ENERGY PREDICTED BY IDOCK:   -6.22 KCAL/MOL
REMARK 924 INTRA-LIGAND FREE ENERGY PREDICTED BY IDOCK:   -0.96 KCAL/MOL
REMARK 927      BINDING AFFINITY PREDICTED BY RF-SCORE:    0.00 PKD
ROOT
HETATM    1  C   UNL     1      -9.950   6.044  66.952  1.00  0.00    -0.207 C  
HETATM    2  C   UNL     1     -11.145   6.361  67.847  1.00  0.00    -0.270 C  
ENDROOT
BRANCH   2   3
HETATM    3  N   UNL     1     -10.830   7.062  69.115  1.00  0.00    -0.217 NA 
BRANCH   3   4
HETATM    4  C   UNL     1     -10.483   6.088  70.179  1.00  0.00    -0.246 C  
BRANCH   4   5
HETATM    5  C   UNL     1      -9.151   6.343  70.910  1.00  0.00    -0.151 C  
HETATM    6  H   UNL     1      -7.395   5.461  71.074  1.00  0.00     0.000 HD 
HETATM    7  O   UNL     1      -8.216   5.303  70.623  1.00  0.00    -0.104 OA 
ENDBRANCH   4   5
ENDBRANCH   3   4
BRANCH   3   8
HETATM    8  C   UNL     1      -9.715   8.012  68.886  1.00  0.00    -0.159 C  
BRANCH   8   9
HETATM    9  C   UNL     1     -10.130   9.419  68.403  1.00  0.00    -0.208 C  
BRANCH   9  10
HETATM   10  C   UNL     1     -11.232  10.101  69.234  1.00  0.00    -0.247 C  
BRANCH  10  11
HETATM   11  C   UNL     1     -11.553  11.541  68.790  1.00  0.00    -0.316 C  
HETATM   12  C   UNL     1     -11.883  12.448  69.978  1.00  0.00    -0.363 C  
BRANCH  11  13
HETATM   13  N   UNL     1     -10.407  12.115  68.049  1.00  0.00    -0.199 NA 
HETATM   14  H   UNL     1      -9.465  12.107  68.440  1.00  0.00     0.000 HD 
BRANCH  13  15
HETATM   15  C   UNL     1     -10.673  12.679  66.770  1.00  0.00    -0.239 A  
HETATM   16  C   UNL     1     -10.585  14.083  66.570  1.00  0.00    -0.279 A  
HETATM   17  C   UNL     1     -10.288  15.011  67.597  1.00  0.00    -0.243 A  
HETATM   18  C   UNL     1     -10.228  16.382  67.335  1.00  0.00    -0.281 A  
HETATM   19  C   UNL     1     -10.479  16.841  66.048  1.00  0.00    -0.293 A  
HETATM   20  C   UNL     1     -10.775  15.944  65.027  1.00  0.00    -0.426 A  
HETATM   21 CL   UNL     1     -10.419  18.528  65.709  1.00  0.00    -0.392 Cl 
HETATM   22  C   UNL     1     -10.822  14.583  65.264  1.00  0.00    -0.367 A  
HETATM   23  N   UNL     1     -11.085  13.792  64.215  1.00  0.00    -0.343 NA 
HETATM   24  C   UNL     1     -11.093  12.462  64.418  1.00  0.00    -0.333 A  
HETATM   25  C   UNL     1     -10.869  11.875  65.647  1.00  0.00    -0.333 A  
ENDBRANCH  13  15
ENDBRANCH  11  13
ENDBRANCH  10  11
ENDBRANCH   9  10
ENDBRANCH   8   9
ENDBRANCH   3   8
ENDBRANCH   2   3
TORSDOF 9
ENDMDL
MODEL      172
REMARK 921   NORMALIZED FREE ENERGY PREDICTED BY IDOCK:   -3.90 KCAL/MOL
REMARK 922        TOTAL FREE ENERGY PREDICTED BY IDOCK:   -7.17 KCAL/MOL
REMARK 923 INTER-LIGAND FREE ENERGY PREDICTED BY IDOCK:   -6.04 KCAL/MOL
REMARK 924 INTRA-LIGAND FREE ENERGY PREDICTED BY IDOCK:   -1.13 KCAL/MOL
REMARK 927      BINDING AFFINITY PREDICTED BY RF-SCORE:    0.00 PKD
ROOT
HETATM    1  C   UNL     1      -9.210  19.409  66.486  1.00  0.00    -0.403 C  
HETATM    2  C   UNL     1     -10.188  18.528  67.259  1.00  0.00    -0.372 C  
ENDROOT
BRANCH   2   3
HETATM    3  N   UNL     1      -9.773  17.117  67.444  1.00  0.00    -0.249 NA 
BRANCH   3   4
HETATM    4  C   UNL     1     -10.635  16.446  68.449  1.00  0.00    -0.311 C  
BRANCH   4   5
HETATM    5  C   UNL     1      -9.895  15.735  69.597  1.00  0.00    -0.275 C  
HETATM    6  H   UNL     1      -8.833  14.091  69.839  1.00  0.00     0.000 HD 
HETATM    7  O   UNL     1      -9.290  14.530  69.130  1.00  0.00    -0.122 OA 
ENDBRANCH   4   5
ENDBRANCH   3   4
BRANCH   3   8
HETATM    8  C   UNL     1      -9.837  16.412  66.141  1.00  0.00    -0.338 C  
BRANCH   8   9
HETATM    9  C   UNL     1     -10.865  15.262  66.059  1.00  0.00    -0.331 C  
BRANCH   9  10
HETATM   10  C   UNL     1     -10.266  13.857  65.873  1.00  0.00    -0.326 C  
BRANCH  10  11
HETATM   11  C   UNL     1     -11.026  12.746  66.622  1.00  0.00    -0.270 C  
HETATM   12  C   UNL     1     -11.650  11.729  65.663  1.00  0.00    -0.190 C  
BRANCH  11  13
HETATM   13  N   UNL     1     -10.115  12.037  67.549  1.00  0.00    -0.194 NA 
HETATM   14  H   UNL     1      -9.110  11.999  67.378  1.00  0.00     0.000 HD 
BRANCH  13  15
HETATM   15  C   UNL     1     -10.697  11.413  68.687  1.00  0.00    -0.206 A  
HETATM   16  C   UNL     1     -10.030  10.340  69.339  1.00  0.00    -0.254 A  
HETATM   17  C   UNL     1      -8.803   9.787  68.899  1.00  0.00    -0.140 A  
HETATM   18  C   UNL     1      -8.206   8.724  69.581  1.00  0.00    -0.113 A  
HETATM   19  C   UNL     1      -8.836   8.192  70.699  1.00  0.00    -0.140 A  
HETATM   20  C   UNL     1     -10.043   8.721  71.144  1.00  0.00    -0.317 A  
HETATM   21 CL   UNL     1      -8.119   6.875  71.545  1.00  0.00    -0.108 Cl 
HETATM   22  C   UNL     1     -10.640   9.784  70.493  1.00  0.00    -0.312 A  
HETATM   23  N   UNL     1     -11.787  10.247  71.009  1.00  0.00    -0.363 NA 
HETATM   24  C   UNL     1     -12.360  11.308  70.414  1.00  0.00    -0.329 A  
HETATM   25  C   UNL     1     -11.845  11.925  69.291  1.00  0.00    -0.379 A  
ENDBRANCH  13  15
ENDBRANCH  11  13
ENDBRANCH  10  11
ENDBRANCH   9  10
ENDBRANCH   8   9
ENDBRANCH   3   8
ENDBRANCH   2   3
TORSDOF 9
ENDMDL
MODEL      173
REMARK 921   NORMALIZED FREE ENERGY PREDICTED BY IDOCK:   -3.89 KCAL/MOL
REMARK 922        TOTAL FREE ENERGY PREDICTED BY IDOCK:   -7.16 KCAL/MOL
REMARK 923 INTER-LIGAND FREE ENERGY PREDICTED BY IDOCK:   -6.31 KCAL/MOL
REMARK 924 INTRA-LIGAND FREE ENERGY PREDICTED BY IDOCK:   -0.85 KCAL/MOL
REMARK 927      BINDING AFFINITY PREDICTED BY RF-SCORE:    0.00 PKD
ROOT
HETATM    1  C   UNL     1     -12.068  12.499  69.682  1.00  0.00    -0.272 C  
HETATM    2  C   UNL     1     -11.983  13.285  68.377  1.00  0.00    -0.301 C  
ENDROOT
BRANCH   2   3
HETATM    3  N   UNL     1     -11.479  12.532  67.204  1.00  0.00    -0.329 NA 
BRANCH   3   4
HETATM    4  C   UNL     1     -11.168  13.454  66.083  1.00  0.00    -0.295 C  
BRANCH   4   5
HETATM    5  C   UNL     1     -11.938  13.200  64.774  1.00  0.00    -0.388 C  
HETATM    6  H   UNL     1     -13.729  12.564  64.246  1.00  0.00     0.000 HD 
HETATM    7  O   UNL     1     -13.253  12.720  65.054  1.00  0.00    -0.768 OA 
ENDBRANCH   4   5
ENDBRANCH   3   4
BRANCH   3   8
HETATM    8  C   UNL     1     -10.277  11.758  67.598  1.00  0.00    -0.199 C  
BRANCH   8   9
HETATM    9  C   UNL     1      -8.923  12.445  67.314  1.00  0.00    -0.190 C  
BRANCH   9  10
HETATM   10  C   UNL     1      -8.305  13.199  68.504  1.00  0.00    -0.063 C  
BRANCH  10  11
HETATM   11  C   UNL     1      -7.190  14.188  68.112  1.00  0.00    -0.128 C  
HETATM   12  C   UNL     1      -5.901  13.468  67.706  1.00  0.00    -0.120 C  
BRANCH  11  13
HETATM   13  N   UNL     1      -7.638  15.044  66.990  1.00  0.00    -0.282 NA 
HETATM   14  H   UNL     1      -7.490  14.767  66.020  1.00  0.00     0.000 HD 
BRANCH  13  15
HETATM   15  C   UNL     1      -8.284  16.268  67.322  1.00  0.00    -0.172 A  
HETATM   16  C   UNL     1      -7.555  17.323  67.933  1.00  0.00    -0.191 A  
HETATM   17  C   UNL     1      -6.189  17.233  68.299  1.00  0.00    -0.149 A  
HETATM   18  C   UNL     1      -5.534  18.307  68.909  1.00  0.00    -0.197 A  
HETATM   19  C   UNL     1      -6.239  19.474  69.172  1.00  0.00    -0.283 A  
HETATM   20  C   UNL     1      -7.582  19.579  68.822  1.00  0.00    -0.386 A  
HETATM   21 CL   UNL     1      -5.450  20.802  69.932  1.00  0.00    -0.395 Cl 
HETATM   22  C   UNL     1      -8.242  18.534  68.203  1.00  0.00    -0.295 A  
HETATM   23  N   UNL     1      -9.526  18.735  67.876  1.00  0.00    -0.297 NA 
HETATM   24  C   UNL     1     -10.172  17.745  67.234  1.00  0.00    -0.350 A  
HETATM   25  C   UNL     1      -9.593  16.532  66.920  1.00  0.00    -0.253 A  
ENDBRANCH  13  15
ENDBRANCH  11  13
ENDBRANCH  10  11
ENDBRANCH   9  10
ENDBRANCH   8   9
ENDBRANCH   3   8
ENDBRANCH   2   3
TORSDOF 9
ENDMDL
MODEL      174
REMARK 921   NORMALIZED FREE ENERGY PREDICTED BY IDOCK:   -3.87 KCAL/MOL
REMARK 922        TOTAL FREE ENERGY PREDICTED BY IDOCK:   -7.14 KCAL/MOL
REMARK 923 INTER-LIGAND FREE ENERGY PREDICTED BY IDOCK:   -6.62 KCAL/MOL
REMARK 924 INTRA-LIGAND FREE ENERGY PREDICTED BY IDOCK:   -0.51 KCAL/MOL
REMARK 927      BINDING AFFINITY PREDICTED BY RF-SCORE:    0.00 PKD
ROOT
HETATM    1  C   UNL     1     -14.256  15.341  72.130  1.00  0.00    -0.667 C  
HETATM    2  C   UNL     1     -12.811  15.756  71.868  1.00  0.00    -0.446 C  
ENDROOT
BRANCH   2   3
HETATM    3  N   UNL     1     -12.208  15.233  70.619  1.00  0.00    -0.334 NA 
BRANCH   3   4
HETATM    4  C   UNL     1     -10.795  15.670  70.497  1.00  0.00    -0.326 C  
BRANCH   4   5
HETATM    5  C   UNL     1     -10.479  16.587  69.299  1.00  0.00    -0.326 C  
HETATM    6  H   UNL     1     -11.312  17.056  67.575  1.00  0.00     0.000 HD 
HETATM    7  O   UNL     1     -11.507  16.491  68.313  1.00  0.00    -0.283 OA 
ENDBRANCH   4   5
ENDBRANCH   3   4
BRANCH   3   8
HETATM    8  C   UNL     1     -12.304  13.753  70.611  1.00  0.00    -0.375 C  
BRANCH   8   9
HETATM    9  C   UNL     1     -12.022  13.078  69.251  1.00  0.00    -0.331 C  
BRANCH   9  10
HETATM   10  C   UNL     1     -12.117  11.542  69.247  1.00  0.00    -0.344 C  
BRANCH  10  11
HETATM   11  C   UNL     1     -11.643  10.880  70.556  1.00  0.00    -0.300 C  
HETATM   12  C   UNL     1     -12.701   9.942  71.141  1.00  0.00    -0.462 C  
BRANCH  11  13
HETATM   13  N   UNL     1     -10.398  10.114  70.319  1.00  0.00    -0.407 NA 
HETATM   14  H   UNL     1      -9.551  10.298  70.856  1.00  0.00     0.000 HD 
BRANCH  13  15
HETATM   15  C   UNL     1     -10.432   9.109  69.311  1.00  0.00    -0.221 A  
HETATM   16  C   UNL     1      -9.828   9.339  68.046  1.00  0.00    -0.191 A  
HETATM   17  C   UNL     1      -9.210  10.558  67.674  1.00  0.00    -0.153 A  
HETATM   18  C   UNL     1      -8.644  10.722  66.407  1.00  0.00    -0.159 A  
HETATM   19  C   UNL     1      -8.703   9.677  65.494  1.00  0.00    -0.153 A  
HETATM   20  C   UNL     1      -9.308   8.473  65.841  1.00  0.00    -0.231 A  
HETATM   21 CL   UNL     1      -8.020   9.865  63.925  1.00  0.00    -0.143 Cl 
HETATM   22  C   UNL     1      -9.859   8.286  67.096  1.00  0.00    -0.217 A  
HETATM   23  N   UNL     1     -10.394   7.085  67.352  1.00  0.00    -0.214 NA 
HETATM   24  C   UNL     1     -10.896   6.871  68.582  1.00  0.00    -0.187 A  
HETATM   25  C   UNL     1     -10.910   7.827  69.578  1.00  0.00    -0.157 A  
ENDBRANCH  13  15
ENDBRANCH  11  13
ENDBRANCH  10  11
ENDBRANCH   9  10
ENDBRANCH   8   9
ENDBRANCH   3   8
ENDBRANCH   2   3
TORSDOF 9
ENDMDL
MODEL      175
REMARK 921   NORMALIZED FREE ENERGY PREDICTED BY IDOCK:   -3.87 KCAL/MOL
REMARK 922        TOTAL FREE ENERGY PREDICTED BY IDOCK:   -7.13 KCAL/MOL
REMARK 923 INTER-LIGAND FREE ENERGY PREDICTED BY IDOCK:   -6.53 KCAL/MOL
REMARK 924 INTRA-LIGAND FREE ENERGY PREDICTED BY IDOCK:   -0.59 KCAL/MOL
REMARK 927      BINDING AFFINITY PREDICTED BY RF-SCORE:    0.00 PKD
ROOT
HETATM    1  C   UNL     1      -9.288   6.884  66.899  1.00  0.00    -0.177 C  
HETATM    2  C   UNL     1     -10.581   6.557  67.641  1.00  0.00    -0.269 C  
ENDROOT
BRANCH   2   3
HETATM    3  N   UNL     1     -10.508   6.627  69.120  1.00  0.00    -0.203 NA 
BRANCH   3   4
HETATM    4  C   UNL     1     -10.431   5.264  69.704  1.00  0.00    -0.250 C  
BRANCH   4   5
HETATM    5  C   UNL     1      -9.613   5.139  71.004  1.00  0.00    -0.171 C  
HETATM    6  H   UNL     1      -9.819   5.638  72.900  1.00  0.00     0.000 HD 
HETATM    7  O   UNL     1     -10.324   5.715  72.099  1.00  0.00    -0.196 OA 
ENDBRANCH   4   5
ENDBRANCH   3   4
BRANCH   3   8
HETATM    8  C   UNL     1      -9.331   7.437  69.516  1.00  0.00    -0.156 C  
BRANCH   8   9
HETATM    9  C   UNL     1      -9.612   8.933  69.774  1.00  0.00    -0.175 C  
BRANCH   9  10
HETATM   10  C   UNL     1     -10.917   9.236  70.531  1.00  0.00    -0.318 C  
BRANCH  10  11
HETATM   11  C   UNL     1     -11.678  10.467  70.003  1.00  0.00    -0.312 C  
HETATM   12  C   UNL     1     -12.849  10.853  70.912  1.00  0.00    -0.418 C  
BRANCH  11  13
HETATM   13  N   UNL     1     -10.760  11.623  69.884  1.00  0.00    -0.307 NA 
HETATM   14  H   UNL     1      -9.832  11.609  70.308  1.00  0.00     0.000 HD 
BRANCH  13  15
HETATM   15  C   UNL     1     -11.225  12.753  69.155  1.00  0.00    -0.237 A  
HETATM   16  C   UNL     1     -11.387  12.682  67.745  1.00  0.00    -0.349 A  
HETATM   17  C   UNL     1     -11.063  11.544  66.967  1.00  0.00    -0.365 A  
HETATM   18  C   UNL     1     -11.236  11.545  65.581  1.00  0.00    -0.212 A  
HETATM   19  C   UNL     1     -11.719  12.687  64.955  1.00  0.00    -0.359 A  
HETATM   20  C   UNL     1     -12.039  13.816  65.703  1.00  0.00    -0.444 A  
HETATM   21 CL   UNL     1     -11.928  12.709  63.247  1.00  0.00    -0.580 Cl 
HETATM   22  C   UNL     1     -11.891  13.828  67.077  1.00  0.00    -0.410 A  
HETATM   23  N   UNL     1     -12.253  14.947  67.718  1.00  0.00    -0.041 NA 
HETATM   24  C   UNL     1     -12.156  14.962  69.059  1.00  0.00    -0.212 A  
HETATM   25  C   UNL     1     -11.683  13.899  69.804  1.00  0.00    -0.372 A  
ENDBRANCH  13  15
ENDBRANCH  11  13
ENDBRANCH  10  11
ENDBRANCH   9  10
ENDBRANCH   8   9
ENDBRANCH   3   8
ENDBRANCH   2   3
TORSDOF 9
ENDMDL
MODEL      176
REMARK 921   NORMALIZED FREE ENERGY PREDICTED BY IDOCK:   -3.87 KCAL/MOL
REMARK 922        TOTAL FREE ENERGY PREDICTED BY IDOCK:   -7.13 KCAL/MOL
REMARK 923 INTER-LIGAND FREE ENERGY PREDICTED BY IDOCK:   -6.26 KCAL/MOL
REMARK 924 INTRA-LIGAND FREE ENERGY PREDICTED BY IDOCK:   -0.87 KCAL/MOL
REMARK 927      BINDING AFFINITY PREDICTED BY RF-SCORE:    0.00 PKD
ROOT
HETATM    1  C   UNL     1     -12.087  14.200  69.158  1.00  0.00    -0.362 C  
HETATM    2  C   UNL     1     -11.739  15.685  69.203  1.00  0.00    -0.390 C  
ENDROOT
BRANCH   2   3
HETATM    3  N   UNL     1     -10.461  16.067  68.556  1.00  0.00    -0.247 NA 
BRANCH   3   4
HETATM    4  C   UNL     1     -10.334  17.544  68.479  1.00  0.00    -0.380 C  
BRANCH   4   5
HETATM    5  C   UNL     1     -10.483  18.156  67.073  1.00  0.00    -0.370 C  
HETATM    6  H   UNL     1     -10.138  17.609  65.211  1.00  0.00     0.000 HD 
HETATM    7  O   UNL     1     -10.046  17.232  66.077  1.00  0.00    -0.404 OA 
ENDBRANCH   4   5
ENDBRANCH   3   4
BRANCH   3   8
HETATM    8  C   UNL     1      -9.332  15.480  69.317  1.00  0.00    -0.266 C  
BRANCH   8   9
HETATM    9  C   UNL     1      -8.306  14.687  68.477  1.00  0.00    -0.162 C  
BRANCH   9  10
HETATM   10  C   UNL     1      -8.870  13.460  67.738  1.00  0.00    -0.199 C  
BRANCH  10  11
HETATM   11  C   UNL     1      -8.169  12.135  68.096  1.00  0.00    -0.164 C  
HETATM   12  C   UNL     1      -6.794  12.365  68.727  1.00  0.00    -0.092 C  
BRANCH  11  13
HETATM   13  N   UNL     1      -9.005  11.352  69.034  1.00  0.00    -0.389 NA 
HETATM   14  H   UNL     1      -9.245  11.713  69.957  1.00  0.00     0.000 HD 
BRANCH  13  15
HETATM   15  C   UNL     1      -9.460  10.078  68.594  1.00  0.00    -0.156 A  
HETATM   16  C   UNL     1     -10.066   9.175  69.510  1.00  0.00    -0.202 A  
HETATM   17  C   UNL     1     -10.215   9.434  70.894  1.00  0.00    -0.373 A  
HETATM   18  C   UNL     1     -10.811   8.497  71.743  1.00  0.00    -0.374 A  
HETATM   19  C   UNL     1     -11.248   7.287  71.221  1.00  0.00    -0.256 A  
HETATM   20  C   UNL     1     -11.107   7.014  69.863  1.00  0.00    -0.301 A  
HETATM   21 CL   UNL     1     -11.975   6.117  72.253  1.00  0.00    -0.343 Cl 
HETATM   22  C   UNL     1     -10.536   7.936  69.006  1.00  0.00    -0.162 A  
HETATM   23  N   UNL     1     -10.468   7.600  67.710  1.00  0.00    -0.221 NA 
HETATM   24  C   UNL     1      -9.955   8.502  66.854  1.00  0.00    -0.265 A  
HETATM   25  C   UNL     1      -9.475   9.737  67.242  1.00  0.00    -0.183 A  
ENDBRANCH  13  15
ENDBRANCH  11  13
ENDBRANCH  10  11
ENDBRANCH   9  10
ENDBRANCH   8   9
ENDBRANCH   3   8
ENDBRANCH   2   3
TORSDOF 9
ENDMDL
MODEL      177
REMARK 921   NORMALIZED FREE ENERGY PREDICTED BY IDOCK:   -3.85 KCAL/MOL
REMARK 922        TOTAL FREE ENERGY PREDICTED BY IDOCK:   -7.11 KCAL/MOL
REMARK 923 INTER-LIGAND FREE ENERGY PREDICTED BY IDOCK:   -5.75 KCAL/MOL
REMARK 924 INTRA-LIGAND FREE ENERGY PREDICTED BY IDOCK:   -1.36 KCAL/MOL
REMARK 927      BINDING AFFINITY PREDICTED BY RF-SCORE:    0.00 PKD
ROOT
HETATM    1  C   UNL     1     -10.910   6.714  67.088  1.00  0.00    -0.471 C  
HETATM    2  C   UNL     1      -9.958   5.540  66.880  1.00  0.00    -0.179 C  
ENDROOT
BRANCH   2   3
HETATM    3  N   UNL     1      -8.651   5.642  67.571  1.00  0.00    -0.109 NA 
BRANCH   3   4
HETATM    4  C   UNL     1      -8.430   7.022  68.073  1.00  0.00    -0.125 C  
BRANCH   4   5
HETATM    5  C   UNL     1      -7.298   7.810  67.387  1.00  0.00    -0.092 C  
HETATM    6  H   UNL     1      -5.855   7.444  66.094  1.00  0.00     0.000 HD 
HETATM    7  O   UNL     1      -6.553   6.958  66.516  1.00  0.00    -0.048 OA 
ENDBRANCH   4   5
ENDBRANCH   3   4
BRANCH   3   8
HETATM    8  C   UNL     1      -8.607   4.663  68.684  1.00  0.00    -0.089 C  
BRANCH   8   9
HETATM    9  C   UNL     1      -8.605   5.273  70.104  1.00  0.00    -0.122 C  
BRANCH   9  10
HETATM   10  C   UNL     1      -9.914   5.101  70.895  1.00  0.00    -0.280 C  
BRANCH  10  11
HETATM   11  C   UNL     1     -10.422   6.396  71.558  1.00  0.00    -0.219 C  
HETATM   12  C   UNL     1      -9.276   7.242  72.120  1.00  0.00    -0.151 C  
BRANCH  11  13
HETATM   13  N   UNL     1     -11.184   7.206  70.580  1.00  0.00    -0.280 NA 
HETATM   14  H   UNL     1     -11.202   6.962  69.589  1.00  0.00     0.000 HD 
BRANCH  13  15
HETATM   15  C   UNL     1     -11.889   8.337  71.077  1.00  0.00    -0.255 A  
HETATM   16  C   UNL     1     -11.684   9.621  70.505  1.00  0.00    -0.312 A  
HETATM   17  C   UNL     1     -10.758   9.886  69.467  1.00  0.00    -0.265 A  
HETATM   18  C   UNL     1     -10.597  11.177  68.957  1.00  0.00    -0.251 A  
HETATM   19  C   UNL     1     -11.347  12.218  69.488  1.00  0.00    -0.187 A  
HETATM   20  C   UNL     1     -12.259  11.977  70.511  1.00  0.00    -0.414 A  
HETATM   21 CL   UNL     1     -11.153  13.816  68.879  1.00  0.00    -0.285 Cl 
HETATM   22  C   UNL     1     -12.444  10.704  71.017  1.00  0.00    -0.413 A  
HETATM   23  N   UNL     1     -13.365  10.560  71.979  1.00  0.00    -0.401 NA 
HETATM   24  C   UNL     1     -13.589   9.322  72.454  1.00  0.00    -0.463 A  
HETATM   25  C   UNL     1     -12.907   8.202  72.020  1.00  0.00    -0.346 A  
ENDBRANCH  13  15
ENDBRANCH  11  13
ENDBRANCH  10  11
ENDBRANCH   9  10
ENDBRANCH   8   9
ENDBRANCH   3   8
ENDBRANCH   2   3
TORSDOF 9
ENDMDL
MODEL      178
REMARK 921   NORMALIZED FREE ENERGY PREDICTED BY IDOCK:   -3.84 KCAL/MOL
REMARK 922        TOTAL FREE ENERGY PREDICTED BY IDOCK:   -7.09 KCAL/MOL
REMARK 923 INTER-LIGAND FREE ENERGY PREDICTED BY IDOCK:   -6.62 KCAL/MOL
REMARK 924 INTRA-LIGAND FREE ENERGY PREDICTED BY IDOCK:   -0.47 KCAL/MOL
REMARK 927      BINDING AFFINITY PREDICTED BY RF-SCORE:    0.00 PKD
ROOT
HETATM    1  C   UNL     1     -10.147  19.608  68.745  1.00  0.00    -0.532 C  
HETATM    2  C   UNL     1      -9.552  18.688  67.684  1.00  0.00    -0.300 C  
ENDROOT
BRANCH   2   3
HETATM    3  N   UNL     1     -10.473  17.670  67.125  1.00  0.00    -0.338 NA 
BRANCH   3   4
HETATM    4  C   UNL     1      -9.737  16.720  66.253  1.00  0.00    -0.297 C  
BRANCH   4   5
HETATM    5  C   UNL     1     -10.562  16.068  65.128  1.00  0.00    -0.370 C  
HETATM    6  H   UNL     1     -11.425  14.328  64.786  1.00  0.00     0.000 HD 
HETATM    7  O   UNL     1     -10.916  14.730  65.479  1.00  0.00    -0.315 OA 
ENDBRANCH   4   5
ENDBRANCH   3   4
BRANCH   3   8
HETATM    8  C   UNL     1     -11.144  16.953  68.236  1.00  0.00    -0.213 C  
BRANCH   8   9
HETATM    9  C   UNL     1     -10.233  16.030  69.076  1.00  0.00    -0.236 C  
BRANCH   9  10
HETATM   10  C   UNL     1     -10.413  14.523  68.824  1.00  0.00    -0.246 C  
BRANCH  10  11
HETATM   11  C   UNL     1     -11.329  13.820  69.845  1.00  0.00    -0.083 C  
HETATM   12  C   UNL     1     -12.456  14.736  70.330  1.00  0.00    -0.405 C  
BRANCH  11  13
HETATM   13  N   UNL     1     -11.921  12.602  69.247  1.00  0.00    -0.278 NA 
HETATM   14  H   UNL     1     -12.310  12.610  68.304  1.00  0.00     0.000 HD 
BRANCH  13  15
HETATM   15  C   UNL     1     -11.925  11.421  70.040  1.00  0.00    -0.363 A  
HETATM   16  C   UNL     1     -10.848  10.497  69.959  1.00  0.00    -0.320 A  
HETATM   17  C   UNL     1      -9.748  10.639  69.079  1.00  0.00    -0.214 A  
HETATM   18  C   UNL     1      -8.726   9.686  69.042  1.00  0.00    -0.142 A  
HETATM   19  C   UNL     1      -8.801   8.575  69.871  1.00  0.00    -0.137 A  
HETATM   20  C   UNL     1      -9.877   8.417  70.741  1.00  0.00    -0.215 A  
HETATM   21 CL   UNL     1      -7.557   7.386  69.831  1.00  0.00    -0.088 Cl 
HETATM   22  C   UNL     1     -10.888   9.358  70.804  1.00  0.00    -0.305 A  
HETATM   23  N   UNL     1     -11.868   9.139  71.690  1.00  0.00    -0.347 NA 
HETATM   24  C   UNL     1     -12.837  10.065  71.796  1.00  0.00    -0.446 A  
HETATM   25  C   UNL     1     -12.888  11.210  71.025  1.00  0.00    -0.424 A  
ENDBRANCH  13  15
ENDBRANCH  11  13
ENDBRANCH  10  11
ENDBRANCH   9  10
ENDBRANCH   8   9
ENDBRANCH   3   8
ENDBRANCH   2   3
TORSDOF 9
ENDMDL
MODEL      179
REMARK 921   NORMALIZED FREE ENERGY PREDICTED BY IDOCK:   -3.84 KCAL/MOL
REMARK 922        TOTAL FREE ENERGY PREDICTED BY IDOCK:   -7.09 KCAL/MOL
REMARK 923 INTER-LIGAND FREE ENERGY PREDICTED BY IDOCK:   -6.37 KCAL/MOL
REMARK 924 INTRA-LIGAND FREE ENERGY PREDICTED BY IDOCK:   -0.71 KCAL/MOL
REMARK 927      BINDING AFFINITY PREDICTED BY RF-SCORE:    0.00 PKD
ROOT
HETATM    1  C   UNL     1      -7.846  10.702  65.530  1.00  0.00    -0.099 C  
HETATM    2  C   UNL     1      -9.277  10.697  64.998  1.00  0.00    -0.211 C  
ENDROOT
BRANCH   2   3
HETATM    3  N   UNL     1      -9.974  12.005  65.014  1.00  0.00    -0.253 NA 
BRANCH   3   4
HETATM    4  C   UNL     1     -10.452  12.359  63.654  1.00  0.00    -0.426 C  
BRANCH   4   5
HETATM    5  C   UNL     1     -11.981  12.389  63.470  1.00  0.00    -0.538 C  
HETATM    6  H   UNL     1     -13.351  13.703  62.934  1.00  0.00     0.000 HD 
HETATM    7  O   UNL     1     -12.408  13.684  63.047  1.00  0.00    -0.672 OA 
ENDBRANCH   4   5
ENDBRANCH   3   4
BRANCH   3   8
HETATM    8  C   UNL     1     -11.105  11.946  65.971  1.00  0.00    -0.322 C  
BRANCH   8   9
HETATM    9  C   UNL     1     -10.816  11.203  67.294  1.00  0.00    -0.326 C  
BRANCH   9  10
HETATM   10  C   UNL     1     -11.875  11.386  68.396  1.00  0.00    -0.344 C  
BRANCH  10  11
HETATM   11  C   UNL     1     -11.507  10.724  69.738  1.00  0.00    -0.311 C  
HETATM   12  C   UNL     1     -12.151  11.440  70.928  1.00  0.00    -0.383 C  
BRANCH  11  13
HETATM   13  N   UNL     1     -11.932   9.306  69.741  1.00  0.00    -0.194 NA 
HETATM   14  H   UNL     1     -12.847   9.026  69.388  1.00  0.00     0.000 HD 
BRANCH  13  15
HETATM   15  C   UNL     1     -11.013   8.350  70.258  1.00  0.00    -0.232 A  
HETATM   16  C   UNL     1     -10.613   7.238  69.468  1.00  0.00    -0.244 A  
HETATM   17  C   UNL     1     -11.114   6.967  68.172  1.00  0.00    -0.165 A  
HETATM   18  C   UNL     1     -10.685   5.847  67.453  1.00  0.00    -0.370 A  
HETATM   19  C   UNL     1      -9.765   4.980  68.028  1.00  0.00    -0.151 A  
HETATM   20  C   UNL     1      -9.264   5.229  69.302  1.00  0.00    -0.151 A  
HETATM   21 CL   UNL     1      -9.235   3.591  67.161  1.00  0.00    -0.201 Cl 
HETATM   22  C   UNL     1      -9.663   6.341  70.021  1.00  0.00    -0.168 A  
HETATM   23  N   UNL     1      -9.107   6.517  71.227  1.00  0.00    -0.148 NA 
HETATM   24  C   UNL     1      -9.450   7.615  71.923  1.00  0.00    -0.146 A  
HETATM   25  C   UNL     1     -10.360   8.552  71.473  1.00  0.00    -0.321 A  
ENDBRANCH  13  15
ENDBRANCH  11  13
ENDBRANCH  10  11
ENDBRANCH   9  10
ENDBRANCH   8   9
ENDBRANCH   3   8
ENDBRANCH   2   3
TORSDOF 9
ENDMDL
MODEL      180
REMARK 921   NORMALIZED FREE ENERGY PREDICTED BY IDOCK:   -3.84 KCAL/MOL
REMARK 922        TOTAL FREE ENERGY PREDICTED BY IDOCK:   -7.08 KCAL/MOL
REMARK 923 INTER-LIGAND FREE ENERGY PREDICTED BY IDOCK:   -5.96 KCAL/MOL
REMARK 924 INTRA-LIGAND FREE ENERGY PREDICTED BY IDOCK:   -1.12 KCAL/MOL
REMARK 927      BINDING AFFINITY PREDICTED BY RF-SCORE:    0.00 PKD
ROOT
HETATM    1  C   UNL     1     -10.576  19.670  66.266  1.00  0.00    -0.585 C  
HETATM    2  C   UNL     1      -9.059  19.614  66.422  1.00  0.00    -0.379 C  
ENDROOT
BRANCH   2   3
HETATM    3  N   UNL     1      -8.544  18.548  67.314  1.00  0.00    -0.259 NA 
BRANCH   3   4
HETATM    4  C   UNL     1      -7.370  19.031  68.084  1.00  0.00    -0.268 C  
BRANCH   4   5
HETATM    5  C   UNL     1      -6.283  17.980  68.377  1.00  0.00    -0.190 C  
HETATM    6  H   UNL     1      -5.442  17.168  69.965  1.00  0.00     0.000 HD 
HETATM    7  O   UNL     1      -6.112  17.817  69.784  1.00  0.00    -0.247 OA 
ENDBRANCH   4   5
ENDBRANCH   3   4
BRANCH   3   8
HETATM    8  C   UNL     1      -9.626  18.106  68.226  1.00  0.00    -0.317 C  
BRANCH   8   9
HETATM    9  C   UNL     1      -9.908  16.587  68.235  1.00  0.00    -0.243 C  
BRANCH   9  10
HETATM   10  C   UNL     1      -9.235  15.787  67.105  1.00  0.00    -0.224 C  
BRANCH  10  11
HETATM   11  C   UNL     1     -10.190  14.847  66.345  1.00  0.00    -0.284 C  
HETATM   12  C   UNL     1     -10.669  15.460  65.026  1.00  0.00    -0.460 C  
BRANCH  11  13
HETATM   13  N   UNL     1      -9.521  13.558  66.063  1.00  0.00    -0.488 NA 
HETATM   14  H   UNL     1      -8.825  13.472  65.322  1.00  0.00     0.000 HD 
BRANCH  13  15
HETATM   15  C   UNL     1      -9.887  12.442  66.867  1.00  0.00    -0.215 A  
HETATM   16  C   UNL     1      -8.957  11.879  67.782  1.00  0.00    -0.173 A  
HETATM   17  C   UNL     1      -7.621  12.327  67.929  1.00  0.00    -0.127 A  
HETATM   18  C   UNL     1      -6.754  11.721  68.841  1.00  0.00    -0.094 A  
HETATM   19  C   UNL     1      -7.206  10.652  69.604  1.00  0.00    -0.139 A  
HETATM   20  C   UNL     1      -8.514  10.196  69.471  1.00  0.00    -0.179 A  
HETATM   21 CL   UNL     1      -6.148   9.886  70.725  1.00  0.00    -0.090 Cl 
HETATM   22  C   UNL     1      -9.392  10.794  68.586  1.00  0.00    -0.184 A  
HETATM   23  N   UNL     1     -10.640  10.309  68.546  1.00  0.00    -0.200 NA 
HETATM   24  C   UNL     1     -11.520  10.906  67.722  1.00  0.00    -0.243 A  
HETATM   25  C   UNL     1     -11.199  11.971  66.903  1.00  0.00    -0.375 A  
ENDBRANCH  13  15
ENDBRANCH  11  13
ENDBRANCH  10  11
ENDBRANCH   9  10
ENDBRANCH   8   9
ENDBRANCH   3   8
ENDBRANCH   2   3
TORSDOF 9
ENDMDL
MODEL      181
REMARK 921   NORMALIZED FREE ENERGY PREDICTED BY IDOCK:   -3.82 KCAL/MOL
REMARK 922        TOTAL FREE ENERGY PREDICTED BY IDOCK:   -7.05 KCAL/MOL
REMARK 923 INTER-LIGAND FREE ENERGY PREDICTED BY IDOCK:   -6.28 KCAL/MOL
REMARK 924 INTRA-LIGAND FREE ENERGY PREDICTED BY IDOCK:   -0.78 KCAL/MOL
REMARK 927      BINDING AFFINITY PREDICTED BY RF-SCORE:    0.00 PKD
ROOT
HETATM    1  C   UNL     1     -10.842   3.701  73.697  1.00  0.00    -0.326 C  
HETATM    2  C   UNL     1     -11.694   4.849  73.165  1.00  0.00    -0.131 C  
ENDROOT
BRANCH   2   3
HETATM    3  N   UNL     1     -11.059   6.188  73.193  1.00  0.00    -0.225 NA 
BRANCH   3   4
HETATM    4  C   UNL     1     -10.158   6.315  74.366  1.00  0.00    -0.340 C  
BRANCH   4   5
HETATM    5  C   UNL     1      -8.719   6.771  74.059  1.00  0.00    -0.150 C  
HETATM    6  H   UNL     1      -6.906   6.003  74.147  1.00  0.00     0.000 HD 
HETATM    7  O   UNL     1      -7.793   5.722  74.337  1.00  0.00    -0.097 OA 
ENDBRANCH   4   5
ENDBRANCH   3   4
BRANCH   3   8
HETATM    8  C   UNL     1     -10.311   6.402  71.930  1.00  0.00    -0.202 C  
BRANCH   8   9
HETATM    9  C   UNL     1     -10.906   7.463  70.978  1.00  0.00    -0.254 C  
BRANCH   9  10
HETATM   10  C   UNL     1     -11.071   8.869  71.582  1.00  0.00    -0.420 C  
BRANCH  10  11
HETATM   11  C   UNL     1     -11.654   9.908  70.604  1.00  0.00    -0.335 C  
HETATM   12  C   UNL     1     -12.684  10.817  71.279  1.00  0.00    -0.546 C  
BRANCH  11  13
HETATM   13  N   UNL     1     -10.569  10.743  70.040  1.00  0.00    -0.459 NA 
HETATM   14  H   UNL     1     -10.320  11.640  70.457  1.00  0.00     0.000 HD 
BRANCH  13  15
HETATM   15  C   UNL     1      -9.889  10.244  68.895  1.00  0.00    -0.195 A  
HETATM   16  C   UNL     1     -10.243  10.696  67.595  1.00  0.00    -0.229 A  
HETATM   17  C   UNL     1     -11.296  11.606  67.332  1.00  0.00    -0.367 A  
HETATM   18  C   UNL     1     -11.599  12.001  66.027  1.00  0.00    -0.371 A  
HETATM   19  C   UNL     1     -10.864  11.479  64.970  1.00  0.00    -0.274 A  
HETATM   20  C   UNL     1      -9.828  10.581  65.208  1.00  0.00    -0.345 A  
HETATM   21 CL   UNL     1     -11.231  11.947  63.354  1.00  0.00    -0.476 Cl 
HETATM   22  C   UNL     1      -9.503  10.192  66.494  1.00  0.00    -0.169 A  
HETATM   23  N   UNL     1      -8.472   9.348  66.631  1.00  0.00    -0.125 NA 
HETATM   24  C   UNL     1      -8.113   8.992  67.878  1.00  0.00    -0.106 A  
HETATM   25  C   UNL     1      -8.764   9.429  69.015  1.00  0.00    -0.136 A  
ENDBRANCH  13  15
ENDBRANCH  11  13
ENDBRANCH  10  11
ENDBRANCH   9  10
ENDBRANCH   8   9
ENDBRANCH   3   8
ENDBRANCH   2   3
TORSDOF 9
ENDMDL
MODEL      182
REMARK 921   NORMALIZED FREE ENERGY PREDICTED BY IDOCK:   -3.80 KCAL/MOL
REMARK 922        TOTAL FREE ENERGY PREDICTED BY IDOCK:   -7.02 KCAL/MOL
REMARK 923 INTER-LIGAND FREE ENERGY PREDICTED BY IDOCK:   -6.66 KCAL/MOL
REMARK 924 INTRA-LIGAND FREE ENERGY PREDICTED BY IDOCK:   -0.36 KCAL/MOL
REMARK 927      BINDING AFFINITY PREDICTED BY RF-SCORE:    0.00 PKD
ROOT
HETATM    1  C   UNL     1     -12.572   9.151  71.805  1.00  0.00    -0.446 C  
HETATM    2  C   UNL     1     -11.868   7.885  71.325  1.00  0.00    -0.296 C  
ENDROOT
BRANCH   2   3
HETATM    3  N   UNL     1     -10.563   7.593  71.963  1.00  0.00    -0.213 NA 
BRANCH   3   4
HETATM    4  C   UNL     1     -10.754   6.800  73.204  1.00  0.00    -0.296 C  
BRANCH   4   5
HETATM    5  C   UNL     1     -11.384   5.407  73.017  1.00  0.00    -0.293 C  
HETATM    6  H   UNL     1     -11.264   3.635  73.874  1.00  0.00     0.000 HD 
HETATM    7  O   UNL     1     -10.875   4.494  73.989  1.00  0.00    -0.268 OA 
ENDBRANCH   4   5
ENDBRANCH   3   4
BRANCH   3   8
HETATM    8  C   UNL     1      -9.698   6.866  71.002  1.00  0.00    -0.174 C  
BRANCH   8   9
HETATM    9  C   UNL     1      -8.799   7.756  70.116  1.00  0.00    -0.145 C  
BRANCH   9  10
HETATM   10  C   UNL     1      -8.492   7.193  68.717  1.00  0.00    -0.126 C  
BRANCH  10  11
HETATM   11  C   UNL     1      -9.114   8.004  67.563  1.00  0.00    -0.137 C  
HETATM   12  C   UNL     1     -10.640   7.888  67.537  1.00  0.00    -0.312 C  
BRANCH  11  13
HETATM   13  N   UNL     1      -8.741   9.431  67.683  1.00  0.00    -0.116 NA 
HETATM   14  H   UNL     1      -7.764   9.726  67.681  1.00  0.00     0.000 HD 
BRANCH  13  15
HETATM   15  C   UNL     1      -9.800  10.375  67.800  1.00  0.00    -0.168 A  
HETATM   16  C   UNL     1     -10.335  11.003  66.643  1.00  0.00    -0.288 A  
HETATM   17  C   UNL     1      -9.846  10.792  65.331  1.00  0.00    -0.317 A  
HETATM   18  C   UNL     1     -10.413  11.451  64.236  1.00  0.00    -0.401 A  
HETATM   19  C   UNL     1     -11.461  12.338  64.443  1.00  0.00    -0.354 A  
HETATM   20  C   UNL     1     -11.952  12.560  65.726  1.00  0.00    -0.482 A  
HETATM   21 CL   UNL     1     -12.163  13.167  63.108  1.00  0.00    -0.489 Cl 
HETATM   22  C   UNL     1     -11.416  11.904  66.819  1.00  0.00    -0.316 A  
HETATM   23  N   UNL     1     -11.971  12.157  68.012  1.00  0.00    -0.492 NA 
HETATM   24  C   UNL     1     -11.491  11.495  69.080  1.00  0.00    -0.297 A  
HETATM   25  C   UNL     1     -10.446  10.595  69.016  1.00  0.00    -0.237 A  
ENDBRANCH  13  15
ENDBRANCH  11  13
ENDBRANCH  10  11
ENDBRANCH   9  10
ENDBRANCH   8   9
ENDBRANCH   3   8
ENDBRANCH   2   3
TORSDOF 9
ENDMDL
MODEL      183
REMARK 921   NORMALIZED FREE ENERGY PREDICTED BY IDOCK:   -3.80 KCAL/MOL
REMARK 922        TOTAL FREE ENERGY PREDICTED BY IDOCK:   -7.02 KCAL/MOL
REMARK 923 INTER-LIGAND FREE ENERGY PREDICTED BY IDOCK:   -6.03 KCAL/MOL
REMARK 924 INTRA-LIGAND FREE ENERGY PREDICTED BY IDOCK:   -0.99 KCAL/MOL
REMARK 927      BINDING AFFINITY PREDICTED BY RF-SCORE:    0.00 PKD
ROOT
HETATM    1  C   UNL     1     -10.270   8.420  66.857  1.00  0.00    -0.383 C  
HETATM    2  C   UNL     1      -9.135   8.615  65.857  1.00  0.00    -0.205 C  
ENDROOT
BRANCH   2   3
HETATM    3  N   UNL     1      -8.885  10.013  65.432  1.00  0.00    -0.162 NA 
BRANCH   3   4
HETATM    4  C   UNL     1      -7.449  10.214  65.113  1.00  0.00    -0.141 C  
BRANCH   4   5
HETATM    5  C   UNL     1      -7.058  10.013  63.636  1.00  0.00    -0.126 C  
HETATM    6  H   UNL     1      -6.157   8.635  62.552  1.00  0.00     0.000 HD 
HETATM    7  O   UNL     1      -6.398   8.759  63.462  1.00  0.00    -0.087 OA 
ENDBRANCH   4   5
ENDBRANCH   3   4
BRANCH   3   8
HETATM    8  C   UNL     1      -9.735  10.328  64.258  1.00  0.00    -0.308 C  
BRANCH   8   9
HETATM    9  C   UNL     1     -10.847  11.371  64.504  1.00  0.00    -0.375 C  
BRANCH   9  10
HETATM   10  C   UNL     1     -10.788  12.085  65.866  1.00  0.00    -0.329 C  
BRANCH  10  11
HETATM   11  C   UNL     1     -10.478  13.592  65.772  1.00  0.00    -0.291 C  
HETATM   12  C   UNL     1     -11.273  14.274  64.656  1.00  0.00    -0.370 C  
BRANCH  11  13
HETATM   13  N   UNL     1     -10.785  14.258  67.058  1.00  0.00    -0.287 NA 
HETATM   14  H   UNL     1     -11.709  14.189  67.483  1.00  0.00     0.000 HD 
BRANCH  13  15
HETATM   15  C   UNL     1      -9.738  14.998  67.676  1.00  0.00    -0.215 A  
HETATM   16  C   UNL     1      -9.703  16.415  67.577  1.00  0.00    -0.231 A  
HETATM   17  C   UNL     1     -10.640  17.180  66.840  1.00  0.00    -0.209 A  
HETATM   18  C   UNL     1     -10.541  18.572  66.775  1.00  0.00    -0.395 A  
HETATM   19  C   UNL     1      -9.498  19.213  67.431  1.00  0.00    -0.305 A  
HETATM   20  C   UNL     1      -8.566  18.477  68.157  1.00  0.00    -0.324 A  
HETATM   21 CL   UNL     1      -9.355  20.926  67.352  1.00  0.00    -0.434 Cl 
HETATM   22  C   UNL     1      -8.657  17.101  68.247  1.00  0.00    -0.241 A  
HETATM   23  N   UNL     1      -7.734  16.478  68.992  1.00  0.00    -0.234 NA 
HETATM   24  C   UNL     1      -7.832  15.143  69.126  1.00  0.00    -0.199 A  
HETATM   25  C   UNL     1      -8.813  14.383  68.520  1.00  0.00    -0.182 A  
ENDBRANCH  13  15
ENDBRANCH  11  13
ENDBRANCH  10  11
ENDBRANCH   9  10
ENDBRANCH   8   9
ENDBRANCH   3   8
ENDBRANCH   2   3
TORSDOF 9
ENDMDL
MODEL      184
REMARK 921   NORMALIZED FREE ENERGY PREDICTED BY IDOCK:   -3.79 KCAL/MOL
REMARK 922        TOTAL FREE ENERGY PREDICTED BY IDOCK:   -7.02 KCAL/MOL
REMARK 923 INTER-LIGAND FREE ENERGY PREDICTED BY IDOCK:   -5.43 KCAL/MOL
REMARK 924 INTRA-LIGAND FREE ENERGY PREDICTED BY IDOCK:   -1.58 KCAL/MOL
REMARK 927      BINDING AFFINITY PREDICTED BY RF-SCORE:    0.00 PKD
ROOT
HETATM    1  C   UNL     1      -9.012  14.925  66.585  1.00  0.00    -0.301 C  
HETATM    2  C   UNL     1      -8.742  13.882  67.666  1.00  0.00    -0.187 C  
ENDROOT
BRANCH   2   3
HETATM    3  N   UNL     1      -7.488  13.107  67.512  1.00  0.00    -0.161 NA 
BRANCH   3   4
HETATM    4  C   UNL     1      -6.553  13.397  68.628  1.00  0.00    -0.091 C  
BRANCH   4   5
HETATM    5  C   UNL     1      -6.848  14.677  69.432  1.00  0.00    -0.159 C  
HETATM    6  H   UNL     1      -6.280  15.479  71.142  1.00  0.00     0.000 HD 
HETATM    7  O   UNL     1      -6.098  14.689  70.646  1.00  0.00    -0.174 OA 
ENDBRANCH   4   5
ENDBRANCH   3   4
BRANCH   3   8
HETATM    8  C   UNL     1      -7.810  11.660  67.458  1.00  0.00    -0.137 C  
BRANCH   8   9
HETATM    9  C   UNL     1      -8.691  11.132  68.611  1.00  0.00    -0.153 C  
BRANCH   9  10
HETATM   10  C   UNL     1      -9.181   9.682  68.453  1.00  0.00    -0.133 C  
BRANCH  10  11
HETATM   11  C   UNL     1      -8.739   9.009  67.140  1.00  0.00    -0.116 C  
HETATM   12  C   UNL     1      -8.211   7.590  67.370  1.00  0.00    -0.116 C  
BRANCH  11  13
HETATM   13  N   UNL     1      -9.872   8.952  66.188  1.00  0.00    -0.360 NA 
HETATM   14  H   UNL     1     -10.699   8.387  66.382  1.00  0.00     0.000 HD 
BRANCH  13  15
HETATM   15  C   UNL     1      -9.760   9.718  64.994  1.00  0.00    -0.233 A  
HETATM   16  C   UNL     1     -10.418  10.972  64.880  1.00  0.00    -0.371 A  
HETATM   17  C   UNL     1     -11.251  11.524  65.884  1.00  0.00    -0.239 A  
HETATM   18  C   UNL     1     -11.878  12.759  65.703  1.00  0.00    -0.472 A  
HETATM   19  C   UNL     1     -11.691  13.449  64.512  1.00  0.00    -0.384 A  
HETATM   20  C   UNL     1     -10.879  12.921  63.513  1.00  0.00    -0.169 A  
HETATM   21 CL   UNL     1     -12.464  14.968  64.267  1.00  0.00    -0.337 Cl 
HETATM   22  C   UNL     1     -10.237  11.709  63.681  1.00  0.00    -0.412 A  
HETATM   23  N   UNL     1      -9.451  11.293  62.679  1.00  0.00    -0.313 NA 
HETATM   24  C   UNL     1      -8.785  10.135  62.842  1.00  0.00    -0.207 A  
HETATM   25  C   UNL     1      -8.888   9.347  63.971  1.00  0.00    -0.210 A  
ENDBRANCH  13  15
ENDBRANCH  11  13
ENDBRANCH  10  11
ENDBRANCH   9  10
ENDBRANCH   8   9
ENDBRANCH   3   8
ENDBRANCH   2   3
TORSDOF 9
ENDMDL
MODEL      185
REMARK 921   NORMALIZED FREE ENERGY PREDICTED BY IDOCK:   -3.79 KCAL/MOL
REMARK 922        TOTAL FREE ENERGY PREDICTED BY IDOCK:   -7.01 KCAL/MOL
REMARK 923 INTER-LIGAND FREE ENERGY PREDICTED BY IDOCK:   -5.99 KCAL/MOL
REMARK 924 INTRA-LIGAND FREE ENERGY PREDICTED BY IDOCK:   -1.02 KCAL/MOL
REMARK 927      BINDING AFFINITY PREDICTED BY RF-SCORE:    0.00 PKD
ROOT
HETATM    1  C   UNL     1      -9.287  19.775  67.463  1.00  0.00    -0.443 C  
HETATM    2  C   UNL     1     -10.343  18.754  67.876  1.00  0.00    -0.406 C  
ENDROOT
BRANCH   2   3
HETATM    3  N   UNL     1      -9.876  17.351  67.975  1.00  0.00    -0.276 NA 
BRANCH   3   4
HETATM    4  C   UNL     1     -11.029  16.416  68.008  1.00  0.00    -0.327 C  
BRANCH   4   5
HETATM    5  C   UNL     1     -11.450  15.922  69.405  1.00  0.00    -0.351 C  
HETATM    6  H   UNL     1     -10.559  15.351  71.069  1.00  0.00     0.000 HD 
HETATM    7  O   UNL     1     -10.300  15.656  70.208  1.00  0.00    -0.307 OA 
ENDBRANCH   4   5
ENDBRANCH   3   4
BRANCH   3   8
HETATM    8  C   UNL     1      -8.986  17.048  66.828  1.00  0.00    -0.244 C  
BRANCH   8   9
HETATM    9  C   UNL     1      -8.623  15.558  66.645  1.00  0.00    -0.325 C  
BRANCH   9  10
HETATM   10  C   UNL     1      -7.486  15.043  67.544  1.00  0.00    -0.226 C  
BRANCH  10  11
HETATM   11  C   UNL     1      -7.331  13.510  67.544  1.00  0.00    -0.164 C  
HETATM   12  C   UNL     1      -5.868  13.080  67.687  1.00  0.00    -0.133 C  
BRANCH  11  13
HETATM   13  N   UNL     1      -8.117  12.917  68.650  1.00  0.00    -0.321 NA 
HETATM   14  H   UNL     1      -7.830  13.027  69.623  1.00  0.00     0.000 HD 
BRANCH  13  15
HETATM   15  C   UNL     1      -9.288  12.188  68.301  1.00  0.00    -0.198 A  
HETATM   16  C   UNL     1      -9.239  10.775  68.158  1.00  0.00    -0.151 A  
HETATM   17  C   UNL     1      -8.058  10.006  68.294  1.00  0.00    -0.104 A  
HETATM   18  C   UNL     1      -8.078   8.618  68.130  1.00  0.00    -0.115 A  
HETATM   19  C   UNL     1      -9.274   7.987  67.812  1.00  0.00    -0.134 A  
HETATM   20  C   UNL     1     -10.444   8.727  67.672  1.00  0.00    -0.310 A  
HETATM   21 CL   UNL     1      -9.315   6.280  67.596  1.00  0.00    -0.117 Cl 
HETATM   22  C   UNL     1     -10.447  10.098  67.848  1.00  0.00    -0.222 A  
HETATM   23  N   UNL     1     -11.625  10.725  67.722  1.00  0.00    -0.528 NA 
HETATM   24  C   UNL     1     -11.654  12.053  67.932  1.00  0.00    -0.337 A  
HETATM   25  C   UNL     1     -10.538  12.803  68.244  1.00  0.00    -0.251 A  
ENDBRANCH  13  15
ENDBRANCH  11  13
ENDBRANCH  10  11
ENDBRANCH   9  10
ENDBRANCH   8   9
ENDBRANCH   3   8
ENDBRANCH   2   3
TORSDOF 9
ENDMDL
MODEL      186
REMARK 921   NORMALIZED FREE ENERGY PREDICTED BY IDOCK:   -3.78 KCAL/MOL
REMARK 922        TOTAL FREE ENERGY PREDICTED BY IDOCK:   -6.99 KCAL/MOL
REMARK 923 INTER-LIGAND FREE ENERGY PREDICTED BY IDOCK:   -6.52 KCAL/MOL
REMARK 924 INTRA-LIGAND FREE ENERGY PREDICTED BY IDOCK:   -0.48 KCAL/MOL
REMARK 927      BINDING AFFINITY PREDICTED BY RF-SCORE:    0.00 PKD
ROOT
HETATM    1  C   UNL     1      -6.136  19.150  67.909  1.00  0.00    -0.218 C  
HETATM    2  C   UNL     1      -7.292  19.803  68.662  1.00  0.00    -0.307 C  
ENDROOT
BRANCH   2   3
HETATM    3  N   UNL     1      -8.572  19.056  68.648  1.00  0.00    -0.357 NA 
BRANCH   3   4
HETATM    4  C   UNL     1      -9.593  19.783  67.853  1.00  0.00    -0.373 C  
BRANCH   4   5
HETATM    5  C   UNL     1      -9.407  19.740  66.325  1.00  0.00    -0.391 C  
HETATM    6  H   UNL     1     -10.399  19.061  64.762  1.00  0.00     0.000 HD 
HETATM    7  O   UNL     1     -10.514  19.087  65.705  1.00  0.00    -0.554 OA 
ENDBRANCH   4   5
ENDBRANCH   3   4
BRANCH   3   8
HETATM    8  C   UNL     1      -8.342  17.699  68.095  1.00  0.00    -0.259 C  
BRANCH   8   9
HETATM    9  C   UNL     1      -9.170  16.569  68.744  1.00  0.00    -0.252 C  
BRANCH   9  10
HETATM   10  C   UNL     1      -9.805  15.571  67.760  1.00  0.00    -0.213 C  
BRANCH  10  11
HETATM   11  C   UNL     1      -8.837  14.481  67.258  1.00  0.00    -0.208 C  
HETATM   12  C   UNL     1      -7.876  14.018  68.356  1.00  0.00    -0.144 C  
BRANCH  11  13
HETATM   13  N   UNL     1      -9.598  13.313  66.759  1.00  0.00    -0.251 NA 
HETATM   14  H   UNL     1     -10.191  13.381  65.932  1.00  0.00     0.000 HD 
BRANCH  13  15
HETATM   15  C   UNL     1      -9.467  12.093  67.479  1.00  0.00    -0.180 A  
HETATM   16  C   UNL     1     -10.372  11.777  68.528  1.00  0.00    -0.228 A  
HETATM   17  C   UNL     1     -11.409  12.637  68.965  1.00  0.00    -0.345 A  
HETATM   18  C   UNL     1     -12.258  12.269  70.011  1.00  0.00    -0.267 A  
HETATM   19  C   UNL     1     -12.072  11.046  70.642  1.00  0.00    -0.373 A  
HETATM   20  C   UNL     1     -11.056  10.189  70.228  1.00  0.00    -0.384 A  
HETATM   21 CL   UNL     1     -13.102  10.580  71.940  1.00  0.00    -0.584 Cl 
HETATM   22  C   UNL     1     -10.217  10.528  69.183  1.00  0.00    -0.224 A  
HETATM   23  N   UNL     1      -9.287   9.630  68.834  1.00  0.00    -0.147 NA 
HETATM   24  C   UNL     1      -8.489   9.925  67.792  1.00  0.00    -0.118 A  
HETATM   25  C   UNL     1      -8.562  11.109  67.084  1.00  0.00    -0.139 A  
ENDBRANCH  13  15
ENDBRANCH  11  13
ENDBRANCH  10  11
ENDBRANCH   9  10
ENDBRANCH   8   9
ENDBRANCH   3   8
ENDBRANCH   2   3
TORSDOF 9
ENDMDL
MODEL      187
REMARK 921   NORMALIZED FREE ENERGY PREDICTED BY IDOCK:   -3.77 KCAL/MOL
REMARK 922        TOTAL FREE ENERGY PREDICTED BY IDOCK:   -6.99 KCAL/MOL
REMARK 923 INTER-LIGAND FREE ENERGY PREDICTED BY IDOCK:   -6.25 KCAL/MOL
REMARK 924 INTRA-LIGAND FREE ENERGY PREDICTED BY IDOCK:   -0.74 KCAL/MOL
REMARK 927      BINDING AFFINITY PREDICTED BY RF-SCORE:    0.00 PKD
ROOT
HETATM    1  C   UNL     1     -12.482   9.802  71.655  1.00  0.00    -0.500 C  
HETATM    2  C   UNL     1     -11.584   8.845  70.876  1.00  0.00    -0.283 C  
ENDROOT
BRANCH   2   3
HETATM    3  N   UNL     1     -10.204   8.693  71.394  1.00  0.00    -0.230 NA 
BRANCH   3   4
HETATM    4  C   UNL     1     -10.182   7.787  72.570  1.00  0.00    -0.260 C  
BRANCH   4   5
HETATM    5  C   UNL     1     -10.205   6.280  72.254  1.00  0.00    -0.187 C  
HETATM    6  H   UNL     1     -11.550   4.843  72.141  1.00  0.00     0.000 HD 
HETATM    7  O   UNL     1     -11.537   5.772  72.337  1.00  0.00    -0.301 OA 
ENDBRANCH   4   5
ENDBRANCH   3   4
BRANCH   3   8
HETATM    8  C   UNL     1      -9.329   8.175  70.314  1.00  0.00    -0.155 C  
BRANCH   8   9
HETATM    9  C   UNL     1      -8.896   9.213  69.256  1.00  0.00    -0.144 C  
BRANCH   9  10
HETATM   10  C   UNL     1      -8.372   8.624  67.934  1.00  0.00    -0.123 C  
BRANCH  10  11
HETATM   11  C   UNL     1      -9.231   8.980  66.705  1.00  0.00    -0.167 C  
HETATM   12  C   UNL     1     -10.729   8.906  67.009  1.00  0.00    -0.180 C  
BRANCH  11  13
HETATM   13  N   UNL     1      -8.903  10.343  66.230  1.00  0.00    -0.149 NA 
HETATM   14  H   UNL     1      -7.942  10.687  66.225  1.00  0.00     0.000 HD 
BRANCH  13  15
HETATM   15  C   UNL     1      -9.982  11.155  65.780  1.00  0.00    -0.245 A  
HETATM   16  C   UNL     1     -10.450  12.235  66.576  1.00  0.00    -0.254 A  
HETATM   17  C   UNL     1      -9.940  12.552  67.858  1.00  0.00    -0.212 A  
HETATM   18  C   UNL     1     -10.454  13.623  68.594  1.00  0.00    -0.242 A  
HETATM   19  C   UNL     1     -11.493  14.377  68.064  1.00  0.00    -0.310 A  
HETATM   20  C   UNL     1     -12.010  14.077  66.807  1.00  0.00    -0.473 A  
HETATM   21 CL   UNL     1     -12.147  15.692  68.961  1.00  0.00    -0.310 Cl 
HETATM   22  C   UNL     1     -11.502  13.033  66.057  1.00  0.00    -0.335 A  
HETATM   23  N   UNL     1     -12.040  12.836  64.846  1.00  0.00    -0.412 NA 
HETATM   24  C   UNL     1     -11.530  11.852  64.085  1.00  0.00    -0.370 A  
HETATM   25  C   UNL     1     -10.504  11.022  64.494  1.00  0.00    -0.411 A  
ENDBRANCH  13  15
ENDBRANCH  11  13
ENDBRANCH  10  11
ENDBRANCH   9  10
ENDBRANCH   8   9
ENDBRANCH   3   8
ENDBRANCH   2   3
TORSDOF 9
ENDMDL
MODEL      188
REMARK 921   NORMALIZED FREE ENERGY PREDICTED BY IDOCK:   -3.77 KCAL/MOL
REMARK 922        TOTAL FREE ENERGY PREDICTED BY IDOCK:   -6.99 KCAL/MOL
REMARK 923 INTER-LIGAND FREE ENERGY PREDICTED BY IDOCK:   -5.95 KCAL/MOL
REMARK 924 INTRA-LIGAND FREE ENERGY PREDICTED BY IDOCK:   -1.03 KCAL/MOL
REMARK 927      BINDING AFFINITY PREDICTED BY RF-SCORE:    0.00 PKD
ROOT
HETATM    1  C   UNL     1     -10.326   3.279  72.525  1.00  0.00    -0.186 C  
HETATM    2  C   UNL     1     -11.160   4.056  73.539  1.00  0.00    -0.259 C  
ENDROOT
BRANCH   2   3
HETATM    3  N   UNL     1     -10.862   5.504  73.643  1.00  0.00    -0.282 NA 
BRANCH   3   4
HETATM    4  C   UNL     1      -9.552   5.722  74.307  1.00  0.00    -0.169 C  
BRANCH   4   5
HETATM    5  C   UNL     1      -8.513   6.515  73.492  1.00  0.00    -0.122 C  
HETATM    6  H   UNL     1      -6.583   6.906  73.595  1.00  0.00     0.000 HD 
HETATM    7  O   UNL     1      -7.224   6.418  74.097  1.00  0.00    -0.086 OA 
ENDBRANCH   4   5
ENDBRANCH   3   4
BRANCH   3   8
HETATM    8  C   UNL     1     -10.871   6.105  72.287  1.00  0.00    -0.244 C  
BRANCH   8   9
HETATM    9  C   UNL     1     -12.108   6.966  71.951  1.00  0.00    -0.370 C  
BRANCH   9  10
HETATM   10  C   UNL     1     -12.050   8.421  72.447  1.00  0.00    -0.443 C  
BRANCH  10  11
HETATM   11  C   UNL     1     -12.335   9.470  71.355  1.00  0.00    -0.364 C  
HETATM   12  C   UNL     1     -13.251  10.589  71.857  1.00  0.00    -0.526 C  
BRANCH  11  13
HETATM   13  N   UNL     1     -11.067  10.065  70.875  1.00  0.00    -0.339 NA 
HETATM   14  H   UNL     1     -10.323  10.323  71.524  1.00  0.00     0.000 HD 
BRANCH  13  15
HETATM   15  C   UNL     1     -10.928  10.261  69.472  1.00  0.00    -0.258 A  
HETATM   16  C   UNL     1     -10.438   9.214  68.645  1.00  0.00    -0.235 A  
HETATM   17  C   UNL     1     -10.014   7.954  69.131  1.00  0.00    -0.184 A  
HETATM   18  C   UNL     1      -9.532   6.971  68.262  1.00  0.00    -0.128 A  
HETATM   19  C   UNL     1      -9.454   7.243  66.903  1.00  0.00    -0.164 A  
HETATM   20  C   UNL     1      -9.863   8.477  66.407  1.00  0.00    -0.327 A  
HETATM   21 CL   UNL     1      -8.853   6.047  65.819  1.00  0.00    -0.159 Cl 
HETATM   22  C   UNL     1     -10.359   9.455  67.249  1.00  0.00    -0.260 A  
HETATM   23  N   UNL     1     -10.757  10.601  66.681  1.00  0.00    -0.217 NA 
HETATM   24  C   UNL     1     -11.282  11.548  67.479  1.00  0.00    -0.298 A  
HETATM   25  C   UNL     1     -11.408  11.411  68.847  1.00  0.00    -0.334 A  
ENDBRANCH  13  15
ENDBRANCH  11  13
ENDBRANCH  10  11
ENDBRANCH   9  10
ENDBRANCH   8   9
ENDBRANCH   3   8
ENDBRANCH   2   3
TORSDOF 9
ENDMDL
MODEL      189
REMARK 921   NORMALIZED FREE ENERGY PREDICTED BY IDOCK:   -3.77 KCAL/MOL
REMARK 922        TOTAL FREE ENERGY PREDICTED BY IDOCK:   -6.98 KCAL/MOL
REMARK 923 INTER-LIGAND FREE ENERGY PREDICTED BY IDOCK:   -6.74 KCAL/MOL
REMARK 924 INTRA-LIGAND FREE ENERGY PREDICTED BY IDOCK:   -0.24 KCAL/MOL
REMARK 927      BINDING AFFINITY PREDICTED BY RF-SCORE:    0.00 PKD
ROOT
HETATM    1  C   UNL     1      -8.159  13.183  67.782  1.00  0.00    -0.165 C  
HETATM    2  C   UNL     1      -9.354  13.513  66.892  1.00  0.00    -0.253 C  
ENDROOT
BRANCH   2   3
HETATM    3  N   UNL     1     -10.495  14.176  67.567  1.00  0.00    -0.248 NA 
BRANCH   3   4
HETATM    4  C   UNL     1     -10.658  15.567  67.074  1.00  0.00    -0.311 C  
BRANCH   4   5
HETATM    5  C   UNL     1      -9.543  16.082  66.145  1.00  0.00    -0.334 C  
HETATM    6  H   UNL     1      -9.285  17.569  64.876  1.00  0.00     0.000 HD 
HETATM    7  O   UNL     1      -9.973  17.251  65.448  1.00  0.00    -0.521 OA 
ENDBRANCH   4   5
ENDBRANCH   3   4
BRANCH   3   8
HETATM    8  C   UNL     1     -11.729  13.387  67.335  1.00  0.00    -0.373 C  
BRANCH   8   9
HETATM    9  C   UNL     1     -11.888  12.130  68.218  1.00  0.00    -0.361 C  
BRANCH   9  10
HETATM   10  C   UNL     1     -11.837  12.381  69.735  1.00  0.00    -0.387 C  
BRANCH  10  11
HETATM   11  C   UNL     1     -11.790  11.096  70.584  1.00  0.00    -0.302 C  
HETATM   12  C   UNL     1     -12.906  10.118  70.208  1.00  0.00    -0.063 C  
BRANCH  11  13
HETATM   13  N   UNL     1     -10.482  10.421  70.417  1.00  0.00    -0.418 NA 
HETATM   14  H   UNL     1      -9.605  10.920  70.568  1.00  0.00     0.000 HD 
BRANCH  13  15
HETATM   15  C   UNL     1     -10.500   9.050  70.038  1.00  0.00    -0.214 A  
HETATM   16  C   UNL     1     -10.611   8.032  71.024  1.00  0.00    -0.239 A  
HETATM   17  C   UNL     1     -10.659   8.282  72.417  1.00  0.00    -0.408 A  
HETATM   18  C   UNL     1     -10.758   7.233  73.334  1.00  0.00    -0.415 A  
HETATM   19  C   UNL     1     -10.793   5.924  72.871  1.00  0.00    -0.258 A  
HETATM   20  C   UNL     1     -10.743   5.659  71.506  1.00  0.00    -0.306 A  
HETATM   21 CL   UNL     1     -10.903   4.619  73.988  1.00  0.00    -0.350 Cl 
HETATM   22  C   UNL     1     -10.663   6.685  70.583  1.00  0.00    -0.241 A  
HETATM   23  N   UNL     1     -10.650   6.338  69.288  1.00  0.00    -0.241 NA 
HETATM   24  C   UNL     1     -10.616   7.325  68.375  1.00  0.00    -0.170 A  
HETATM   25  C   UNL     1     -10.568   8.666  68.699  1.00  0.00    -0.165 A  
ENDBRANCH  13  15
ENDBRANCH  11  13
ENDBRANCH  10  11
ENDBRANCH   9  10
ENDBRANCH   8   9
ENDBRANCH   3   8
ENDBRANCH   2   3
TORSDOF 9
ENDMDL
MODEL      190
REMARK 921   NORMALIZED FREE ENERGY PREDICTED BY IDOCK:   -3.77 KCAL/MOL
REMARK 922        TOTAL FREE ENERGY PREDICTED BY IDOCK:   -6.98 KCAL/MOL
REMARK 923 INTER-LIGAND FREE ENERGY PREDICTED BY IDOCK:   -6.06 KCAL/MOL
REMARK 924 INTRA-LIGAND FREE ENERGY PREDICTED BY IDOCK:   -0.92 KCAL/MOL
REMARK 927      BINDING AFFINITY PREDICTED BY RF-SCORE:    0.00 PKD
ROOT
HETATM    1  C   UNL     1      -5.834  15.251  69.854  1.00  0.00    -0.132 C  
HETATM    2  C   UNL     1      -6.544  14.069  69.200  1.00  0.00    -0.113 C  
ENDROOT
BRANCH   2   3
HETATM    3  N   UNL     1      -6.527  14.049  67.718  1.00  0.00    -0.168 NA 
BRANCH   3   4
HETATM    4  C   UNL     1      -6.640  12.657  67.212  1.00  0.00    -0.104 C  
BRANCH   4   5
HETATM    5  C   UNL     1      -6.945  11.583  68.273  1.00  0.00    -0.073 C  
HETATM    6  H   UNL     1      -8.412  10.333  68.689  1.00  0.00     0.000 HD 
HETATM    7  O   UNL     1      -8.224  10.996  68.035  1.00  0.00    -0.115 OA 
ENDBRANCH   4   5
ENDBRANCH   3   4
BRANCH   3   8
HETATM    8  C   UNL     1      -7.638  14.887  67.204  1.00  0.00    -0.110 C  
BRANCH   8   9
HETATM    9  C   UNL     1      -9.032  14.572  67.789  1.00  0.00    -0.190 C  
BRANCH   9  10
HETATM   10  C   UNL     1     -10.008  15.760  67.839  1.00  0.00    -0.227 C  
BRANCH  10  11
HETATM   11  C   UNL     1     -11.276  15.498  68.675  1.00  0.00    -0.325 C  
HETATM   12  C   UNL     1     -12.290  14.630  67.925  1.00  0.00     0.080 C  
BRANCH  11  13
HETATM   13  N   UNL     1     -10.919  14.830  69.948  1.00  0.00    -0.380 NA 
HETATM   14  H   UNL     1      -9.951  14.602  70.173  1.00  0.00     0.000 HD 
BRANCH  13  15
HETATM   15  C   UNL     1     -11.981  14.521  70.842  1.00  0.00    -0.325 A  
HETATM   16  C   UNL     1     -12.376  13.171  71.050  1.00  0.00    -0.355 A  
HETATM   17  C   UNL     1     -11.806  12.066  70.373  1.00  0.00    -0.302 A  
HETATM   18  C   UNL     1     -12.250  10.764  70.616  1.00  0.00    -0.474 A  
HETATM   19  C   UNL     1     -13.277  10.554  71.526  1.00  0.00    -0.371 A  
HETATM   20  C   UNL     1     -13.852  11.628  72.199  1.00  0.00     0.241 A  
HETATM   21 CL   UNL     1     -13.844   8.957  71.831  1.00  0.00    -0.460 Cl 
HETATM   22  C   UNL     1     -13.415  12.921  71.984  1.00  0.00    -0.473 A  
HETATM   23  N   UNL     1     -14.005  13.890  72.698  1.00  0.00    -0.713 NA 
HETATM   24  C   UNL     1     -13.563  15.149  72.533  1.00  0.00    -0.488 A  
HETATM   25  C   UNL     1     -12.556  15.498  71.654  1.00  0.00    -0.486 A  
ENDBRANCH  13  15
ENDBRANCH  11  13
ENDBRANCH  10  11
ENDBRANCH   9  10
ENDBRANCH   8   9
ENDBRANCH   3   8
ENDBRANCH   2   3
TORSDOF 9
ENDMDL
MODEL      191
REMARK 921   NORMALIZED FREE ENERGY PREDICTED BY IDOCK:   -3.77 KCAL/MOL
REMARK 922        TOTAL FREE ENERGY PREDICTED BY IDOCK:   -6.98 KCAL/MOL
REMARK 923 INTER-LIGAND FREE ENERGY PREDICTED BY IDOCK:   -6.61 KCAL/MOL
REMARK 924 INTRA-LIGAND FREE ENERGY PREDICTED BY IDOCK:   -0.37 KCAL/MOL
REMARK 927      BINDING AFFINITY PREDICTED BY RF-SCORE:    0.00 PKD
ROOT
HETATM    1  C   UNL     1     -10.098  15.702  68.945  1.00  0.00    -0.217 C  
HETATM    2  C   UNL     1     -11.089  15.704  67.785  1.00  0.00    -0.311 C  
ENDROOT
BRANCH   2   3
HETATM    3  N   UNL     1     -11.905  14.475  67.635  1.00  0.00    -0.378 NA 
BRANCH   3   4
HETATM    4  C   UNL     1     -12.150  14.182  66.200  1.00  0.00    -0.435 C  
BRANCH   4   5
HETATM    5  C   UNL     1     -11.107  14.743  65.215  1.00  0.00    -0.370 C  
HETATM    6  H   UNL     1      -9.813  14.027  63.911  1.00  0.00     0.000 HD 
HETATM    7  O   UNL     1     -10.456  13.681  64.519  1.00  0.00    -0.430 OA 
ENDBRANCH   4   5
ENDBRANCH   3   4
BRANCH   3   8
HETATM    8  C   UNL     1     -11.210  13.342  68.293  1.00  0.00    -0.277 C  
BRANCH   8   9
HETATM    9  C   UNL     1     -11.803  11.945  68.006  1.00  0.00    -0.323 C  
BRANCH   9  10
HETATM   10  C   UNL     1     -10.840  10.947  67.338  1.00  0.00    -0.333 C  
BRANCH  10  11
HETATM   11  C   UNL     1     -10.396   9.791  68.256  1.00  0.00    -0.198 C  
HETATM   12  C   UNL     1      -9.152  10.152  69.072  1.00  0.00    -0.176 C  
BRANCH  11  13
HETATM   13  N   UNL     1     -11.491   9.426  69.183  1.00  0.00    -0.384 NA 
HETATM   14  H   UNL     1     -12.454   9.713  69.006  1.00  0.00     0.000 HD 
BRANCH  13  15
HETATM   15  C   UNL     1     -11.146   8.656  70.329  1.00  0.00    -0.217 A  
HETATM   16  C   UNL     1     -10.721   7.308  70.189  1.00  0.00    -0.260 A  
HETATM   17  C   UNL     1     -10.657   6.623  68.951  1.00  0.00    -0.264 A  
HETATM   18  C   UNL     1     -10.240   5.291  68.885  1.00  0.00    -0.248 A  
HETATM   19  C   UNL     1      -9.899   4.625  70.055  1.00  0.00    -0.224 A  
HETATM   20  C   UNL     1      -9.958   5.281  71.281  1.00  0.00    -0.256 A  
HETATM   21 CL   UNL     1      -9.393   2.981  69.993  1.00  0.00    -0.224 Cl 
HETATM   22  C   UNL     1     -10.352   6.604  71.364  1.00  0.00    -0.200 A  
HETATM   23  N   UNL     1     -10.351   7.163  72.582  1.00  0.00    -0.202 NA 
HETATM   24  C   UNL     1     -10.690   8.461  72.676  1.00  0.00    -0.242 A  
HETATM   25  C   UNL     1     -11.060   9.236  71.595  1.00  0.00    -0.438 A  
ENDBRANCH  13  15
ENDBRANCH  11  13
ENDBRANCH  10  11
ENDBRANCH   9  10
ENDBRANCH   8   9
ENDBRANCH   3   8
ENDBRANCH   2   3
TORSDOF 9
ENDMDL
MODEL      192
REMARK 921   NORMALIZED FREE ENERGY PREDICTED BY IDOCK:   -3.74 KCAL/MOL
REMARK 922        TOTAL FREE ENERGY PREDICTED BY IDOCK:   -6.94 KCAL/MOL
REMARK 923 INTER-LIGAND FREE ENERGY PREDICTED BY IDOCK:   -5.63 KCAL/MOL
REMARK 924 INTRA-LIGAND FREE ENERGY PREDICTED BY IDOCK:   -1.31 KCAL/MOL
REMARK 927      BINDING AFFINITY PREDICTED BY RF-SCORE:    0.00 PKD
ROOT
HETATM    1  C   UNL     1      -7.954   8.664  70.937  1.00  0.00    -0.137 C  
HETATM    2  C   UNL     1      -9.127   9.544  70.515  1.00  0.00    -0.219 C  
ENDROOT
BRANCH   2   3
HETATM    3  N   UNL     1     -10.387   8.829  70.202  1.00  0.00    -0.201 NA 
BRANCH   3   4
HETATM    4  C   UNL     1     -11.506   9.355  71.024  1.00  0.00    -0.334 C  
BRANCH   4   5
HETATM    5  C   UNL     1     -12.077   8.384  72.075  1.00  0.00    -0.356 C  
HETATM    6  H   UNL     1     -13.696   8.247  73.193  1.00  0.00     0.000 HD 
HETATM    7  O   UNL     1     -13.343   8.846  72.545  1.00  0.00    -0.431 OA 
ENDBRANCH   4   5
ENDBRANCH   3   4
BRANCH   3   8
HETATM    8  C   UNL     1     -10.685   8.970  68.756  1.00  0.00    -0.108 C  
BRANCH   8   9
HETATM    9  C   UNL     1     -10.560   7.676  67.923  1.00  0.00    -0.233 C  
BRANCH   9  10
HETATM   10  C   UNL     1      -9.596   7.755  66.726  1.00  0.00    -0.274 C  
BRANCH  10  11
HETATM   11  C   UNL     1      -8.182   8.248  67.089  1.00  0.00    -0.119 C  
HETATM   12  C   UNL     1      -7.139   7.133  66.979  1.00  0.00    -0.090 C  
BRANCH  11  13
HETATM   13  N   UNL     1      -7.787   9.366  66.202  1.00  0.00    -0.099 NA 
HETATM   14  H   UNL     1      -7.167   9.217  65.406  1.00  0.00     0.000 HD 
BRANCH  13  15
HETATM   15  C   UNL     1      -8.308  10.655  66.505  1.00  0.00    -0.143 A  
HETATM   16  C   UNL     1      -9.285  11.252  65.663  1.00  0.00    -0.231 A  
HETATM   17  C   UNL     1      -9.768  10.663  64.469  1.00  0.00    -0.367 A  
HETATM   18  C   UNL     1     -10.722  11.310  63.680  1.00  0.00    -0.438 A  
HETATM   19  C   UNL     1     -11.193  12.558  64.068  1.00  0.00    -0.403 A  
HETATM   20  C   UNL     1     -10.728  13.153  65.237  1.00  0.00    -0.318 A  
HETATM   21 CL   UNL     1     -12.362  13.374  63.102  1.00  0.00    -0.340 Cl 
HETATM   22  C   UNL     1      -9.797  12.521  66.038  1.00  0.00    -0.257 A  
HETATM   23  N   UNL     1      -9.429  13.155  67.160  1.00  0.00    -0.230 NA 
HETATM   24  C   UNL     1      -8.556  12.535  67.974  1.00  0.00    -0.185 A  
HETATM   25  C   UNL     1      -8.003  11.299  67.704  1.00  0.00    -0.118 A  
ENDBRANCH  13  15
ENDBRANCH  11  13
ENDBRANCH  10  11
ENDBRANCH   9  10
ENDBRANCH   8   9
ENDBRANCH   3   8
ENDBRANCH   2   3
TORSDOF 9
ENDMDL
MODEL      193
REMARK 921   NORMALIZED FREE ENERGY PREDICTED BY IDOCK:   -3.74 KCAL/MOL
REMARK 922        TOTAL FREE ENERGY PREDICTED BY IDOCK:   -6.94 KCAL/MOL
REMARK 923 INTER-LIGAND FREE ENERGY PREDICTED BY IDOCK:   -6.37 KCAL/MOL
REMARK 924 INTRA-LIGAND FREE ENERGY PREDICTED BY IDOCK:   -0.57 KCAL/MOL
REMARK 927      BINDING AFFINITY PREDICTED BY RF-SCORE:    0.00 PKD
ROOT
HETATM    1  C   UNL     1      -8.878   8.227  71.708  1.00  0.00    -0.230 C  
HETATM    2  C   UNL     1     -10.260   8.844  71.904  1.00  0.00    -0.333 C  
ENDROOT
BRANCH   2   3
HETATM    3  N   UNL     1     -11.168   8.771  70.735  1.00  0.00    -0.260 NA 
BRANCH   3   4
HETATM    4  C   UNL     1     -12.485   9.376  71.056  1.00  0.00    -0.239 C  
BRANCH   4   5
HETATM    5  C   UNL     1     -13.453   8.485  71.857  1.00  0.00    -0.383 C  
HETATM    6  H   UNL     1     -14.957   8.738  73.107  1.00  0.00     0.000 HD 
HETATM    7  O   UNL     1     -14.359   9.287  72.613  1.00  0.00    -0.497 OA 
ENDBRANCH   4   5
ENDBRANCH   3   4
BRANCH   3   8
HETATM    8  C   UNL     1     -10.539   9.459  69.582  1.00  0.00    -0.225 C  
BRANCH   8   9
HETATM    9  C   UNL     1     -10.443   8.628  68.284  1.00  0.00    -0.234 C  
BRANCH   9  10
HETATM   10  C   UNL     1     -10.333   9.446  66.985  1.00  0.00    -0.322 C  
BRANCH  10  11
HETATM   11  C   UNL     1      -9.350  10.630  67.070  1.00  0.00    -0.155 C  
HETATM   12  C   UNL     1      -7.933  10.175  67.429  1.00  0.00    -0.110 C  
BRANCH  11  13
HETATM   13  N   UNL     1      -9.310  11.354  65.780  1.00  0.00    -0.226 NA 
HETATM   14  H   UNL     1      -8.594  11.156  65.081  1.00  0.00     0.000 HD 
BRANCH  13  15
HETATM   15  C   UNL     1     -10.313  12.339  65.553  1.00  0.00    -0.267 A  
HETATM   16  C   UNL     1     -10.063  13.704  65.860  1.00  0.00    -0.320 A  
HETATM   17  C   UNL     1      -8.862  14.177  66.443  1.00  0.00     0.031 A  
HETATM   18  C   UNL     1      -8.685  15.533  66.729  1.00  0.00    -0.302 A  
HETATM   19  C   UNL     1      -9.710  16.427  66.451  1.00  0.00    -0.287 A  
HETATM   20  C   UNL     1     -10.898  15.980  65.882  1.00  0.00    -0.210 A  
HETATM   21 CL   UNL     1      -9.513  18.100  66.808  1.00  0.00    -0.285 Cl 
HETATM   22  C   UNL     1     -11.085  14.645  65.575  1.00  0.00    -0.345 A  
HETATM   23  N   UNL     1     -12.249  14.310  65.002  1.00  0.00    -0.419 NA 
HETATM   24  C   UNL     1     -12.431  13.022  64.657  1.00  0.00    -0.400 A  
HETATM   25  C   UNL     1     -11.498  12.030  64.886  1.00  0.00    -0.352 A  
ENDBRANCH  13  15
ENDBRANCH  11  13
ENDBRANCH  10  11
ENDBRANCH   9  10
ENDBRANCH   8   9
ENDBRANCH   3   8
ENDBRANCH   2   3
TORSDOF 9
ENDMDL
MODEL      194
REMARK 921   NORMALIZED FREE ENERGY PREDICTED BY IDOCK:   -3.73 KCAL/MOL
REMARK 922        TOTAL FREE ENERGY PREDICTED BY IDOCK:   -6.93 KCAL/MOL
REMARK 923 INTER-LIGAND FREE ENERGY PREDICTED BY IDOCK:   -6.40 KCAL/MOL
REMARK 924 INTRA-LIGAND FREE ENERGY PREDICTED BY IDOCK:   -0.53 KCAL/MOL
REMARK 927      BINDING AFFINITY PREDICTED BY RF-SCORE:    0.00 PKD
ROOT
HETATM    1  C   UNL     1      -9.242  19.901  68.892  1.00  0.00    -0.124 C  
HETATM    2  C   UNL     1      -8.264  19.165  67.981  1.00  0.00    -0.304 C  
ENDROOT
BRANCH   2   3
HETATM    3  N   UNL     1      -8.877  18.340  66.913  1.00  0.00    -0.267 NA 
BRANCH   3   4
HETATM    4  C   UNL     1      -7.921  17.310  66.434  1.00  0.00    -0.303 C  
BRANCH   4   5
HETATM    5  C   UNL     1      -6.738  17.008  67.373  1.00  0.00    -0.149 C  
HETATM    6  H   UNL     1      -4.805  16.658  67.202  1.00  0.00     0.000 HD 
HETATM    7  O   UNL     1      -5.535  16.844  66.623  1.00  0.00    -0.272 OA 
ENDBRANCH   4   5
ENDBRANCH   3   4
BRANCH   3   8
HETATM    8  C   UNL     1     -10.116  17.710  67.430  1.00  0.00    -0.331 C  
BRANCH   8   9
HETATM    9  C   UNL     1      -9.910  16.659  68.544  1.00  0.00    -0.252 C  
BRANCH   9  10
HETATM   10  C   UNL     1     -10.411  15.243  68.212  1.00  0.00    -0.234 C  
BRANCH  10  11
HETATM   11  C   UNL     1     -11.236  14.588  69.337  1.00  0.00    -0.280 C  
HETATM   12  C   UNL     1     -12.098  15.608  70.085  1.00  0.00    -0.400 C  
BRANCH  11  13
HETATM   13  N   UNL     1     -12.112  13.533  68.780  1.00  0.00    -0.326 NA 
HETATM   14  H   UNL     1     -12.840  13.752  68.101  1.00  0.00     0.000 HD 
BRANCH  13  15
HETATM   15  C   UNL     1     -11.897  12.200  69.232  1.00  0.00    -0.313 A  
HETATM   16  C   UNL     1     -11.190  11.272  68.421  1.00  0.00    -0.324 A  
HETATM   17  C   UNL     1     -10.704  11.564  67.123  1.00  0.00    -0.294 A  
HETATM   18  C   UNL     1     -10.026  10.600  66.373  1.00  0.00    -0.273 A  
HETATM   19  C   UNL     1      -9.840   9.330  66.905  1.00  0.00    -0.214 A  
HETATM   20  C   UNL     1     -10.313   9.024  68.177  1.00  0.00    -0.262 A  
HETATM   21 CL   UNL     1      -9.015   8.127  65.990  1.00  0.00    -0.210 Cl 
HETATM   22  C   UNL     1     -10.971   9.970  68.940  1.00  0.00    -0.207 A  
HETATM   23  N   UNL     1     -11.366   9.596  70.165  1.00  0.00    -0.243 NA 
HETATM   24  C   UNL     1     -11.970  10.516  70.938  1.00  0.00    -0.377 A  
HETATM   25  C   UNL     1     -12.225  11.810  70.529  1.00  0.00    -0.438 A  
ENDBRANCH  13  15
ENDBRANCH  11  13
ENDBRANCH  10  11
ENDBRANCH   9  10
ENDBRANCH   8   9
ENDBRANCH   3   8
ENDBRANCH   2   3
TORSDOF 9
ENDMDL
MODEL      195
REMARK 921   NORMALIZED FREE ENERGY PREDICTED BY IDOCK:   -3.71 KCAL/MOL
REMARK 922        TOTAL FREE ENERGY PREDICTED BY IDOCK:   -6.89 KCAL/MOL
REMARK 923 INTER-LIGAND FREE ENERGY PREDICTED BY IDOCK:   -5.85 KCAL/MOL
REMARK 924 INTRA-LIGAND FREE ENERGY PREDICTED BY IDOCK:   -1.04 KCAL/MOL
REMARK 927      BINDING AFFINITY PREDICTED BY RF-SCORE:    0.00 PKD
ROOT
HETATM    1  C   UNL     1     -11.138  11.478  65.154  1.00  0.00    -0.260 C  
HETATM    2  C   UNL     1     -11.244  11.841  66.632  1.00  0.00    -0.323 C  
ENDROOT
BRANCH   2   3
HETATM    3  N   UNL     1     -10.690  13.162  67.011  1.00  0.00    -0.261 NA 
BRANCH   3   4
HETATM    4  C   UNL     1     -11.466  13.754  68.131  1.00  0.00    -0.313 C  
BRANCH   4   5
HETATM    5  C   UNL     1     -10.839  14.993  68.797  1.00  0.00    -0.249 C  
HETATM    6  H   UNL     1     -11.221  16.924  68.914  1.00  0.00     0.000 HD 
HETATM    7  O   UNL     1     -11.607  16.160  68.503  1.00  0.00    -0.377 OA 
ENDBRANCH   4   5
ENDBRANCH   3   4
BRANCH   3   8
HETATM    8  C   UNL     1      -9.263  13.007  67.384  1.00  0.00    -0.208 C  
BRANCH   8   9
HETATM    9  C   UNL     1      -8.911  11.700  68.129  1.00  0.00    -0.164 C  
BRANCH   9  10
HETATM   10  C   UNL     1      -7.408  11.383  68.225  1.00  0.00    -0.089 C  
BRANCH  10  11
HETATM   11  C   UNL     1      -6.991  10.709  69.547  1.00  0.00    -0.121 C  
HETATM   12  C   UNL     1      -6.021  11.577  70.353  1.00  0.00    -0.138 C  
BRANCH  11  13
HETATM   13  N   UNL     1      -8.186  10.427  70.375  1.00  0.00    -0.285 NA 
HETATM   14  H   UNL     1      -8.713  11.179  70.819  1.00  0.00     0.000 HD 
BRANCH  13  15
HETATM   15  C   UNL     1      -8.568   9.064  70.525  1.00  0.00    -0.201 A  
HETATM   16  C   UNL     1      -9.922   8.723  70.792  1.00  0.00    -0.263 A  
HETATM   17  C   UNL     1     -10.956   9.672  70.976  1.00  0.00    -0.431 A  
HETATM   18  C   UNL     1     -12.266   9.267  71.247  1.00  0.00    -0.410 A  
HETATM   19  C   UNL     1     -12.552   7.913  71.352  1.00  0.00    -0.300 A  
HETATM   20  C   UNL     1     -11.548   6.966  71.178  1.00  0.00    -0.363 A  
HETATM   21 CL   UNL     1     -14.158   7.397  71.696  1.00  0.00    -0.545 Cl 
HETATM   22  C   UNL     1     -10.250   7.346  70.892  1.00  0.00    -0.192 A  
HETATM   23  N   UNL     1      -9.355   6.366  70.711  1.00  0.00    -0.158 NA 
HETATM   24  C   UNL     1      -8.096   6.716  70.390  1.00  0.00    -0.117 A  
HETATM   25  C   UNL     1      -7.676   8.025  70.263  1.00  0.00    -0.086 A  
ENDBRANCH  13  15
ENDBRANCH  11  13
ENDBRANCH  10  11
ENDBRANCH   9  10
ENDBRANCH   8   9
ENDBRANCH   3   8
ENDBRANCH   2   3
TORSDOF 9
ENDMDL
MODEL      196
REMARK 921   NORMALIZED FREE ENERGY PREDICTED BY IDOCK:   -3.70 KCAL/MOL
REMARK 922        TOTAL FREE ENERGY PREDICTED BY IDOCK:   -6.88 KCAL/MOL
REMARK 923 INTER-LIGAND FREE ENERGY PREDICTED BY IDOCK:   -5.76 KCAL/MOL
REMARK 924 INTRA-LIGAND FREE ENERGY PREDICTED BY IDOCK:   -1.12 KCAL/MOL
REMARK 927      BINDING AFFINITY PREDICTED BY RF-SCORE:    0.00 PKD
ROOT
HETATM    1  C   UNL     1      -8.187  12.976  67.635  1.00  0.00    -0.171 C  
HETATM    2  C   UNL     1      -9.423  12.907  66.744  1.00  0.00    -0.245 C  
ENDROOT
BRANCH   2   3
HETATM    3  N   UNL     1     -10.676  12.486  67.415  1.00  0.00    -0.225 NA 
BRANCH   3   4
HETATM    4  C   UNL     1     -11.836  12.640  66.501  1.00  0.00    -0.396 C  
BRANCH   4   5
HETATM    5  C   UNL     1     -12.220  14.089  66.146  1.00  0.00    -0.465 C  
HETATM    6  H   UNL     1     -13.442  14.998  64.893  1.00  0.00     0.000 HD 
HETATM    7  O   UNL     1     -13.205  14.105  65.113  1.00  0.00    -0.743 OA 
ENDBRANCH   4   5
ENDBRANCH   3   4
BRANCH   3   8
HETATM    8  C   UNL     1     -10.543  11.079  67.865  1.00  0.00    -0.205 C  
BRANCH   8   9
HETATM    9  C   UNL     1     -11.659  10.575  68.806  1.00  0.00    -0.252 C  
BRANCH   9  10
HETATM   10  C   UNL     1     -11.462  10.905  70.296  1.00  0.00    -0.391 C  
BRANCH  10  11
HETATM   11  C   UNL     1     -11.954   9.803  71.254  1.00  0.00    -0.386 C  
HETATM   12  C   UNL     1     -13.474   9.835  71.434  1.00  0.00    -0.397 C  
BRANCH  11  13
HETATM   13  N   UNL     1     -11.557   8.470  70.747  1.00  0.00    -0.349 NA 
HETATM   14  H   UNL     1     -12.196   7.903  70.190  1.00  0.00     0.000 HD 
BRANCH  13  15
HETATM   15  C   UNL     1     -10.247   8.014  71.067  1.00  0.00    -0.190 A  
HETATM   16  C   UNL     1      -9.374   7.559  70.042  1.00  0.00    -0.154 A  
HETATM   17  C   UNL     1      -9.734   7.474  68.675  1.00  0.00    -0.154 A  
HETATM   18  C   UNL     1      -8.829   7.006  67.719  1.00  0.00    -0.123 A  
HETATM   19  C   UNL     1      -7.561   6.604  68.120  1.00  0.00    -0.104 A  
HETATM   20  C   UNL     1      -7.191   6.678  69.460  1.00  0.00    -0.082 A  
HETATM   21 CL   UNL     1      -6.437   6.015  66.957  1.00  0.00    -0.048 Cl 
HETATM   22  C   UNL     1      -8.067   7.154  70.417  1.00  0.00    -0.118 A  
HETATM   23  N   UNL     1      -7.615   7.217  71.677  1.00  0.00    -0.085 NA 
HETATM   24  C   UNL     1      -8.438   7.718  72.615  1.00  0.00    -0.135 A  
HETATM   25  C   UNL     1      -9.726   8.144  72.354  1.00  0.00    -0.338 A  
ENDBRANCH  13  15
ENDBRANCH  11  13
ENDBRANCH  10  11
ENDBRANCH   9  10
ENDBRANCH   8   9
ENDBRANCH   3   8
ENDBRANCH   2   3
TORSDOF 9
ENDMDL
MODEL      197
REMARK 921   NORMALIZED FREE ENERGY PREDICTED BY IDOCK:   -3.70 KCAL/MOL
REMARK 922        TOTAL FREE ENERGY PREDICTED BY IDOCK:   -6.87 KCAL/MOL
REMARK 923 INTER-LIGAND FREE ENERGY PREDICTED BY IDOCK:   -6.98 KCAL/MOL
REMARK 924 INTRA-LIGAND FREE ENERGY PREDICTED BY IDOCK:    0.10 KCAL/MOL
REMARK 927      BINDING AFFINITY PREDICTED BY RF-SCORE:    0.00 PKD
ROOT
HETATM    1  C   UNL     1     -13.286  12.566  71.834  1.00  0.00    -0.467 C  
HETATM    2  C   UNL     1     -12.420  13.449  70.941  1.00  0.00    -0.359 C  
ENDROOT
BRANCH   2   3
HETATM    3  N   UNL     1     -12.468  14.902  71.232  1.00  0.00    -0.306 NA 
BRANCH   3   4
HETATM    4  C   UNL     1     -12.051  15.169  72.631  1.00  0.00    -0.385 C  
BRANCH   4   5
HETATM    5  C   UNL     1     -13.131  15.776  73.547  1.00  0.00    -0.548 C  
HETATM    6  H   UNL     1     -13.211  17.068  75.035  1.00  0.00     0.000 HD 
HETATM    7  O   UNL     1     -12.545  16.693  74.471  1.00  0.00    -0.732 OA 
ENDBRANCH   4   5
ENDBRANCH   3   4
BRANCH   3   8
HETATM    8  C   UNL     1     -11.594  15.623  70.275  1.00  0.00    -0.356 C  
BRANCH   8   9
HETATM    9  C   UNL     1     -11.966  15.460  68.785  1.00  0.00    -0.278 C  
BRANCH   9  10
HETATM   10  C   UNL     1     -10.782  15.203  67.836  1.00  0.00    -0.268 C  
BRANCH  10  11
HETATM   11  C   UNL     1      -9.645  14.372  68.461  1.00  0.00    -0.217 C  
HETATM   12  C   UNL     1      -8.612  13.936  67.418  1.00  0.00    -0.206 C  
BRANCH  11  13
HETATM   13  N   UNL     1      -8.962  15.153  69.518  1.00  0.00    -0.421 NA 
HETATM   14  H   UNL     1      -9.385  15.284  70.437  1.00  0.00     0.000 HD 
BRANCH  13  15
HETATM   15  C   UNL     1      -7.693  15.712  69.199  1.00  0.00    -0.212 A  
HETATM   16  C   UNL     1      -7.598  17.036  68.692  1.00  0.00    -0.238 A  
HETATM   17  C   UNL     1      -8.715  17.863  68.421  1.00  0.00    -0.296 A  
HETATM   18  C   UNL     1      -8.551  19.153  67.912  1.00  0.00    -0.340 A  
HETATM   19  C   UNL     1      -7.271  19.626  67.654  1.00  0.00    -0.244 A  
HETATM   20  C   UNL     1      -6.161  18.827  67.911  1.00  0.00    -0.203 A  
HETATM   21 CL   UNL     1      -7.051  21.210  67.016  1.00  0.00    -0.351 Cl 
HETATM   22  C   UNL     1      -6.303  17.554  68.431  1.00  0.00    -0.177 A  
HETATM   23  N   UNL     1      -5.178  16.868  68.675  1.00  0.00    -0.125 NA 
HETATM   24  C   UNL     1      -5.295  15.644  69.221  1.00  0.00    -0.101 A  
HETATM   25  C   UNL     1      -6.507  15.052  69.518  1.00  0.00    -0.146 A  
ENDBRANCH  13  15
ENDBRANCH  11  13
ENDBRANCH  10  11
ENDBRANCH   9  10
ENDBRANCH   8   9
ENDBRANCH   3   8
ENDBRANCH   2   3
TORSDOF 9
ENDMDL
MODEL      198
REMARK 921   NORMALIZED FREE ENERGY PREDICTED BY IDOCK:   -3.68 KCAL/MOL
REMARK 922        TOTAL FREE ENERGY PREDICTED BY IDOCK:   -6.85 KCAL/MOL
REMARK 923 INTER-LIGAND FREE ENERGY PREDICTED BY IDOCK:   -5.99 KCAL/MOL
REMARK 924 INTRA-LIGAND FREE ENERGY PREDICTED BY IDOCK:   -0.86 KCAL/MOL
REMARK 927      BINDING AFFINITY PREDICTED BY RF-SCORE:    0.00 PKD
ROOT
HETATM    1  C   UNL     1     -10.817   6.883  67.641  1.00  0.00    -0.333 C  
HETATM    2  C   UNL     1     -11.032   6.329  69.047  1.00  0.00    -0.372 C  
ENDROOT
BRANCH   2   3
HETATM    3  N   UNL     1     -11.280   7.337  70.105  1.00  0.00    -0.262 NA 
BRANCH   3   4
HETATM    4  C   UNL     1     -11.818   6.690  71.328  1.00  0.00    -0.350 C  
BRANCH   4   5
HETATM    5  C   UNL     1     -11.594   7.458  72.644  1.00  0.00    -0.250 C  
HETATM    6  H   UNL     1     -12.383   9.011  73.568  1.00  0.00     0.000 HD 
HETATM    7  O   UNL     1     -12.521   8.538  72.757  1.00  0.00    -0.320 OA 
ENDBRANCH   4   5
ENDBRANCH   3   4
BRANCH   3   8
HETATM    8  C   UNL     1     -10.018   8.057  70.401  1.00  0.00    -0.188 C  
BRANCH   8   9
HETATM    9  C   UNL     1     -10.043   9.578  70.134  1.00  0.00    -0.293 C  
BRANCH   9  10
HETATM   10  C   UNL     1      -9.026  10.079  69.093  1.00  0.00    -0.172 C  
BRANCH  10  11
HETATM   11  C   UNL     1      -9.601  11.102  68.094  1.00  0.00    -0.179 C  
HETATM   12  C   UNL     1     -11.043  10.771  67.700  1.00  0.00    -0.384 C  
BRANCH  11  13
HETATM   13  N   UNL     1      -9.562  12.462  68.677  1.00  0.00    -0.394 NA 
HETATM   14  H   UNL     1     -10.153  12.718  69.468  1.00  0.00     0.000 HD 
BRANCH  13  15
HETATM   15  C   UNL     1      -8.665  13.398  68.089  1.00  0.00    -0.179 A  
HETATM   16  C   UNL     1      -9.148  14.634  67.579  1.00  0.00    -0.192 A  
HETATM   17  C   UNL     1     -10.515  15.004  67.565  1.00  0.00    -0.256 A  
HETATM   18  C   UNL     1     -10.924  16.232  67.037  1.00  0.00    -0.086 A  
HETATM   19  C   UNL     1      -9.975  17.094  66.505  1.00  0.00    -0.302 A  
HETATM   20  C   UNL     1      -8.627  16.746  66.508  1.00  0.00    -0.312 A  
HETATM   21 CL   UNL     1     -10.462  18.606  65.841  1.00  0.00    -0.470 Cl 
HETATM   22  C   UNL     1      -8.202  15.543  67.041  1.00  0.00    -0.240 A  
HETATM   23  N   UNL     1      -6.884  15.305  67.028  1.00  0.00    -0.199 NA 
HETATM   24  C   UNL     1      -6.448  14.159  67.580  1.00  0.00    -0.135 A  
HETATM   25  C   UNL     1      -7.285  13.210  68.135  1.00  0.00    -0.117 A  
ENDBRANCH  13  15
ENDBRANCH  11  13
ENDBRANCH  10  11
ENDBRANCH   9  10
ENDBRANCH   8   9
ENDBRANCH   3   8
ENDBRANCH   2   3
TORSDOF 9
ENDMDL
MODEL      199
REMARK 921   NORMALIZED FREE ENERGY PREDICTED BY IDOCK:   -3.68 KCAL/MOL
REMARK 922        TOTAL FREE ENERGY PREDICTED BY IDOCK:   -6.84 KCAL/MOL
REMARK 923 INTER-LIGAND FREE ENERGY PREDICTED BY IDOCK:   -6.08 KCAL/MOL
REMARK 924 INTRA-LIGAND FREE ENERGY PREDICTED BY IDOCK:   -0.76 KCAL/MOL
REMARK 927      BINDING AFFINITY PREDICTED BY RF-SCORE:    0.00 PKD
ROOT
HETATM    1  C   UNL     1     -11.078   5.140  72.282  1.00  0.00    -0.176 C  
HETATM    2  C   UNL     1     -11.114   6.170  71.157  1.00  0.00    -0.298 C  
ENDROOT
BRANCH   2   3
HETATM    3  N   UNL     1      -9.936   7.065  71.067  1.00  0.00    -0.189 NA 
BRANCH   3   4
HETATM    4  C   UNL     1      -9.243   7.152  72.377  1.00  0.00    -0.134 C  
BRANCH   4   5
HETATM    5  C   UNL     1      -7.800   7.688  72.337  1.00  0.00    -0.103 C  
HETATM    6  H   UNL     1      -6.754   9.106  73.222  1.00  0.00     0.000 HD 
HETATM    7  O   UNL     1      -7.645   8.777  73.247  1.00  0.00    -0.381 OA 
ENDBRANCH   4   5
ENDBRANCH   3   4
BRANCH   3   8
HETATM    8  C   UNL     1      -9.016   6.560  70.019  1.00  0.00    -0.144 C  
BRANCH   8   9
HETATM    9  C   UNL     1      -9.257   7.120  68.599  1.00  0.00    -0.135 C  
BRANCH   9  10
HETATM   10  C   UNL     1      -8.698   8.532  68.346  1.00  0.00    -0.143 C  
BRANCH  10  11
HETATM   11  C   UNL     1      -9.084   9.123  66.976  1.00  0.00    -0.123 C  
HETATM   12  C   UNL     1      -8.718   8.186  65.823  1.00  0.00    -0.183 C  
BRANCH  11  13
HETATM   13  N   UNL     1     -10.537   9.401  66.930  1.00  0.00    -0.207 NA 
HETATM   14  H   UNL     1     -11.192   8.730  66.528  1.00  0.00     0.000 HD 
BRANCH  13  15
HETATM   15  C   UNL     1     -10.982  10.640  67.469  1.00  0.00    -0.310 A  
HETATM   16  C   UNL     1     -11.215  11.753  66.616  1.00  0.00    -0.383 A  
HETATM   17  C   UNL     1     -10.984  11.742  65.219  1.00  0.00    -0.350 A  
HETATM   18  C   UNL     1     -11.223  12.876  64.439  1.00  0.00    -0.389 A  
HETATM   19  C   UNL     1     -11.681  14.037  65.049  1.00  0.00    -0.364 A  
HETATM   20  C   UNL     1     -11.911  14.068  66.421  1.00  0.00    -0.462 A  
HETATM   21 CL   UNL     1     -11.972  15.447  64.105  1.00  0.00    -0.258 Cl 
HETATM   22  C   UNL     1     -11.697  12.950  67.206  1.00  0.00    -0.373 A  
HETATM   23  N   UNL     1     -11.973  13.063  68.512  1.00  0.00    -0.309 NA 
HETATM   24  C   UNL     1     -11.811  11.973  69.284  1.00  0.00    -0.318 A  
HETATM   25  C   UNL     1     -11.353  10.760  68.808  1.00  0.00    -0.352 A  
ENDBRANCH  13  15
ENDBRANCH  11  13
ENDBRANCH  10  11
ENDBRANCH   9  10
ENDBRANCH   8   9
ENDBRANCH   3   8
ENDBRANCH   2   3
TORSDOF 9
ENDMDL
MODEL      200
REMARK 921   NORMALIZED FREE ENERGY PREDICTED BY IDOCK:   -3.67 KCAL/MOL
REMARK 922        TOTAL FREE ENERGY PREDICTED BY IDOCK:   -6.83 KCAL/MOL
REMARK 923 INTER-LIGAND FREE ENERGY PREDICTED BY IDOCK:   -5.69 KCAL/MOL
REMARK 924 INTRA-LIGAND FREE ENERGY PREDICTED BY IDOCK:   -1.14 KCAL/MOL
REMARK 927      BINDING AFFINITY PREDICTED BY RF-SCORE:    0.00 PKD
ROOT
HETATM    1  C   UNL     1     -11.632  14.952  68.857  1.00  0.00    -0.339 C  
HETATM    2  C   UNL     1     -10.731  16.159  69.099  1.00  0.00    -0.292 C  
ENDROOT
BRANCH   2   3
HETATM    3  N   UNL     1      -9.600  16.318  68.153  1.00  0.00    -0.217 NA 
BRANCH   3   4
HETATM    4  C   UNL     1      -9.888  17.391  67.169  1.00  0.00    -0.278 C  
BRANCH   4   5
HETATM    5  C   UNL     1     -10.525  18.671  67.742  1.00  0.00    -0.411 C  
HETATM    6  H   UNL     1     -11.121  20.423  67.061  1.00  0.00     0.000 HD 
HETATM    7  O   UNL     1     -10.727  19.634  66.708  1.00  0.00    -0.468 OA 
ENDBRANCH   4   5
ENDBRANCH   3   4
BRANCH   3   8
HETATM    8  C   UNL     1      -8.364  16.619  68.914  1.00  0.00    -0.230 C  
BRANCH   8   9
HETATM    9  C   UNL     1      -7.106  15.838  68.473  1.00  0.00    -0.118 C  
BRANCH   9  10
HETATM   10  C   UNL     1      -7.356  14.713  67.453  1.00  0.00    -0.195 C  
BRANCH  10  11
HETATM   11  C   UNL     1      -6.748  13.355  67.854  1.00  0.00    -0.150 C  
HETATM   12  C   UNL     1      -6.092  13.405  69.236  1.00  0.00    -0.098 C  
BRANCH  11  13
HETATM   13  N   UNL     1      -7.795  12.307  67.855  1.00  0.00    -0.134 NA 
HETATM   14  H   UNL     1      -8.355  12.119  68.686  1.00  0.00     0.000 HD 
BRANCH  13  15
HETATM   15  C   UNL     1      -7.987  11.575  66.650  1.00  0.00    -0.127 A  
HETATM   16  C   UNL     1      -9.196  11.704  65.915  1.00  0.00    -0.206 A  
HETATM   17  C   UNL     1     -10.293  12.499  66.329  1.00  0.00    -0.269 A  
HETATM   18  C   UNL     1     -11.460  12.572  65.564  1.00  0.00    -0.389 A  
HETATM   19  C   UNL     1     -11.549  11.841  64.387  1.00  0.00    -0.245 A  
HETATM   20  C   UNL     1     -10.483  11.052  63.966  1.00  0.00    -0.433 A  
HETATM   21 CL   UNL     1     -12.983  11.911  63.437  1.00  0.00    -0.484 Cl 
HETATM   22  C   UNL     1      -9.314  10.980  64.701  1.00  0.00    -0.205 A  
HETATM   23  N   UNL     1      -8.330  10.219  64.205  1.00  0.00    -0.163 NA 
HETATM   24  C   UNL     1      -7.170  10.171  64.884  1.00  0.00    -0.131 A  
HETATM   25  C   UNL     1      -6.951  10.842  66.072  1.00  0.00    -0.104 A  
ENDBRANCH  13  15
ENDBRANCH  11  13
ENDBRANCH  10  11
ENDBRANCH   9  10
ENDBRANCH   8   9
ENDBRANCH   3   8
ENDBRANCH   2   3
TORSDOF 9
ENDMDL
MODEL      201
REMARK 921   NORMALIZED FREE ENERGY PREDICTED BY IDOCK:   -3.67 KCAL/MOL
REMARK 922        TOTAL FREE ENERGY PREDICTED BY IDOCK:   -6.82 KCAL/MOL
REMARK 923 INTER-LIGAND FREE ENERGY PREDICTED BY IDOCK:   -5.75 KCAL/MOL
REMARK 924 INTRA-LIGAND FREE ENERGY PREDICTED BY IDOCK:   -1.07 KCAL/MOL
REMARK 927      BINDING AFFINITY PREDICTED BY RF-SCORE:    0.00 PKD
ROOT
HETATM    1  C   UNL     1     -10.828  16.786  69.024  1.00  0.00    -0.291 C  
HETATM    2  C   UNL     1     -10.241  18.000  68.308  1.00  0.00    -0.395 C  
ENDROOT
BRANCH   2   3
HETATM    3  N   UNL     1      -8.948  17.777  67.619  1.00  0.00    -0.247 NA 
BRANCH   3   4
HETATM    4  C   UNL     1      -8.705  18.837  66.608  1.00  0.00    -0.303 C  
BRANCH   4   5
HETATM    5  C   UNL     1      -7.803  20.000  67.062  1.00  0.00    -0.310 C  
HETATM    6  H   UNL     1      -6.443  21.179  66.257  1.00  0.00     0.000 HD 
HETATM    7  O   UNL     1      -6.999  20.462  65.977  1.00  0.00    -0.258 OA 
ENDBRANCH   4   5
ENDBRANCH   3   4
BRANCH   3   8
HETATM    8  C   UNL     1      -7.857  17.746  68.622  1.00  0.00    -0.278 C  
BRANCH   8   9
HETATM    9  C   UNL     1      -7.102  16.404  68.740  1.00  0.00    -0.180 C  
BRANCH   9  10
HETATM   10  C   UNL     1      -7.324  15.421  67.577  1.00  0.00    -0.222 C  
BRANCH  10  11
HETATM   11  C   UNL     1      -7.421  13.945  68.011  1.00  0.00    -0.135 C  
HETATM   12  C   UNL     1      -6.252  13.533  68.909  1.00  0.00    -0.093 C  
BRANCH  11  13
HETATM   13  N   UNL     1      -8.691  13.708  68.734  1.00  0.00    -0.370 NA 
HETATM   14  H   UNL     1      -8.839  14.068  69.677  1.00  0.00     0.000 HD 
BRANCH  13  15
HETATM   15  C   UNL     1      -9.695  12.959  68.061  1.00  0.00    -0.224 A  
HETATM   16  C   UNL     1      -9.801  11.556  68.261  1.00  0.00    -0.203 A  
HETATM   17  C   UNL     1      -8.919  10.803  69.074  1.00  0.00    -0.141 A  
HETATM   18  C   UNL     1      -9.072   9.422  69.219  1.00  0.00    -0.152 A  
HETATM   19  C   UNL     1     -10.098   8.776  68.541  1.00  0.00    -0.189 A  
HETATM   20  C   UNL     1     -10.973   9.499  67.735  1.00  0.00    -0.165 A  
HETATM   21 CL   UNL     1     -10.296   7.074  68.699  1.00  0.00    -0.185 Cl 
HETATM   22  C   UNL     1     -10.847  10.868  67.593  1.00  0.00    -0.266 A  
HETATM   23  N   UNL     1     -11.752  11.485  66.821  1.00  0.00    -0.479 NA 
HETATM   24  C   UNL     1     -11.671  12.823  66.706  1.00  0.00    -0.392 A  
HETATM   25  C   UNL     1     -10.695  13.585  67.318  1.00  0.00    -0.272 A  
ENDBRANCH  13  15
ENDBRANCH  11  13
ENDBRANCH  10  11
ENDBRANCH   9  10
ENDBRANCH   8   9
ENDBRANCH   3   8
ENDBRANCH   2   3
TORSDOF 9
ENDMDL
MODEL      202
REMARK 921   NORMALIZED FREE ENERGY PREDICTED BY IDOCK:   -3.67 KCAL/MOL
REMARK 922        TOTAL FREE ENERGY PREDICTED BY IDOCK:   -6.82 KCAL/MOL
REMARK 923 INTER-LIGAND FREE ENERGY PREDICTED BY IDOCK:   -5.87 KCAL/MOL
REMARK 924 INTRA-LIGAND FREE ENERGY PREDICTED BY IDOCK:   -0.95 KCAL/MOL
REMARK 927      BINDING AFFINITY PREDICTED BY RF-SCORE:    0.00 PKD
ROOT
HETATM    1  C   UNL     1     -10.342  16.182  65.677  1.00  0.00    -0.405 C  
HETATM    2  C   UNL     1      -9.756  15.318  66.791  1.00  0.00    -0.236 C  
ENDROOT
BRANCH   2   3
HETATM    3  N   UNL     1      -8.335  15.576  67.124  1.00  0.00    -0.195 NA 
BRANCH   3   4
HETATM    4  C   UNL     1      -8.227  16.400  68.354  1.00  0.00    -0.190 C  
BRANCH   4   5
HETATM    5  C   UNL     1      -8.026  17.911  68.131  1.00  0.00    -0.265 C  
HETATM    6  H   UNL     1      -9.085  19.561  68.347  1.00  0.00     0.000 HD 
HETATM    7  O   UNL     1      -9.209  18.629  68.484  1.00  0.00    -0.328 OA 
ENDBRANCH   4   5
ENDBRANCH   3   4
BRANCH   3   8
HETATM    8  C   UNL     1      -7.628  14.283  67.292  1.00  0.00    -0.092 C  
BRANCH   8   9
HETATM    9  C   UNL     1      -8.268  13.304  68.300  1.00  0.00    -0.156 C  
BRANCH   9  10
HETATM   10  C   UNL     1      -8.376  11.845  67.821  1.00  0.00    -0.149 C  
BRANCH  10  11
HETATM   11  C   UNL     1      -9.135  11.675  66.491  1.00  0.00    -0.197 C  
HETATM   12  C   UNL     1      -8.441  10.681  65.557  1.00  0.00    -0.177 C  
BRANCH  11  13
HETATM   13  N   UNL     1     -10.517  11.211  66.747  1.00  0.00    -0.241 NA 
HETATM   14  H   UNL     1     -11.220  11.204  66.007  1.00  0.00     0.000 HD 
BRANCH  13  15
HETATM   15  C   UNL     1     -10.826  10.776  68.066  1.00  0.00    -0.255 A  
HETATM   16  C   UNL     1     -11.505  11.639  68.968  1.00  0.00    -0.356 A  
HETATM   17  C   UNL     1     -11.872  12.973  68.663  1.00  0.00    -0.353 A  
HETATM   18  C   UNL     1     -12.529  13.772  69.601  1.00  0.00    -0.176 A  
HETATM   19  C   UNL     1     -12.811  13.254  70.859  1.00  0.00    -0.181 A  
HETATM   20  C   UNL     1     -12.455  11.947  71.177  1.00  0.00    -0.365 A  
HETATM   21 CL   UNL     1     -13.611  14.229  72.031  1.00  0.00    -0.474 Cl 
HETATM   22  C   UNL     1     -11.821  11.136  70.256  1.00  0.00    -0.366 A  
HETATM   23  N   UNL     1     -11.542   9.882  70.640  1.00  0.00    -0.311 NA 
HETATM   24  C   UNL     1     -10.963   9.065  69.742  1.00  0.00    -0.166 A  
HETATM   25  C   UNL     1     -10.620   9.455  68.463  1.00  0.00    -0.234 A  
ENDBRANCH  13  15
ENDBRANCH  11  13
ENDBRANCH  10  11
ENDBRANCH   9  10
ENDBRANCH   8   9
ENDBRANCH   3   8
ENDBRANCH   2   3
TORSDOF 9
ENDMDL
MODEL      203
REMARK 921   NORMALIZED FREE ENERGY PREDICTED BY IDOCK:   -3.65 KCAL/MOL
REMARK 922        TOTAL FREE ENERGY PREDICTED BY IDOCK:   -6.80 KCAL/MOL
REMARK 923 INTER-LIGAND FREE ENERGY PREDICTED BY IDOCK:   -6.76 KCAL/MOL
REMARK 924 INTRA-LIGAND FREE ENERGY PREDICTED BY IDOCK:   -0.03 KCAL/MOL
REMARK 927      BINDING AFFINITY PREDICTED BY RF-SCORE:    0.00 PKD
ROOT
HETATM    1  C   UNL     1      -6.042  19.143  67.697  1.00  0.00    -0.214 C  
HETATM    2  C   UNL     1      -7.137  19.996  68.333  1.00  0.00    -0.275 C  
ENDROOT
BRANCH   2   3
HETATM    3  N   UNL     1      -8.491  19.393  68.352  1.00  0.00    -0.345 NA 
BRANCH   3   4
HETATM    4  C   UNL     1      -9.451  20.238  67.597  1.00  0.00    -0.374 C  
BRANCH   4   5
HETATM    5  C   UNL     1      -9.550  19.952  66.087  1.00  0.00    -0.397 C  
HETATM    6  H   UNL     1     -10.958  19.476  64.792  1.00  0.00     0.000 HD 
HETATM    7  O   UNL     1     -10.897  19.652  65.723  1.00  0.00    -0.468 OA 
ENDBRANCH   4   5
ENDBRANCH   3   4
BRANCH   3   8
HETATM    8  C   UNL     1      -8.428  18.027  67.778  1.00  0.00    -0.247 C  
BRANCH   8   9
HETATM    9  C   UNL     1      -9.170  16.935  68.580  1.00  0.00    -0.265 C  
BRANCH   9  10
HETATM   10  C   UNL     1      -9.831  15.833  67.735  1.00  0.00    -0.224 C  
BRANCH  10  11
HETATM   11  C   UNL     1      -8.876  15.146  66.739  1.00  0.00    -0.271 C  
HETATM   12  C   UNL     1      -7.716  14.442  67.449  1.00  0.00    -0.207 C  
BRANCH  11  13
HETATM   13  N   UNL     1      -9.614  14.155  65.923  1.00  0.00    -0.495 NA 
HETATM   14  H   UNL     1      -9.557  14.159  64.905  1.00  0.00     0.000 HD 
BRANCH  13  15
HETATM   15  C   UNL     1     -10.405  13.198  66.618  1.00  0.00    -0.265 A  
HETATM   16  C   UNL     1     -10.098  11.813  66.533  1.00  0.00    -0.232 A  
HETATM   17  C   UNL     1      -9.051  11.282  65.740  1.00  0.00    -0.216 A  
HETATM   18  C   UNL     1      -8.809   9.907  65.693  1.00  0.00    -0.184 A  
HETATM   19  C   UNL     1      -9.619   9.047  66.424  1.00  0.00    -0.244 A  
HETATM   20  C   UNL     1     -10.654   9.551  67.206  1.00  0.00    -0.317 A  
HETATM   21 CL   UNL     1      -9.342   7.349  66.369  1.00  0.00    -0.219 Cl 
HETATM   22  C   UNL     1     -10.897  10.910  67.279  1.00  0.00    -0.287 A  
HETATM   23  N   UNL     1     -11.895  11.306  68.080  1.00  0.00    -0.607 NA 
HETATM   24  C   UNL     1     -12.120  12.628  68.196  1.00  0.00    -0.075 A  
HETATM   25  C   UNL     1     -11.396  13.589  67.518  1.00  0.00    -0.335 A  
ENDBRANCH  13  15
ENDBRANCH  11  13
ENDBRANCH  10  11
ENDBRANCH   9  10
ENDBRANCH   8   9
ENDBRANCH   3   8
ENDBRANCH   2   3
TORSDOF 9
ENDMDL
MODEL      204
REMARK 921   NORMALIZED FREE ENERGY PREDICTED BY IDOCK:   -3.64 KCAL/MOL
REMARK 922        TOTAL FREE ENERGY PREDICTED BY IDOCK:   -6.79 KCAL/MOL
REMARK 923 INTER-LIGAND FREE ENERGY PREDICTED BY IDOCK:   -5.93 KCAL/MOL
REMARK 924 INTRA-LIGAND FREE ENERGY PREDICTED BY IDOCK:   -0.86 KCAL/MOL
REMARK 927      BINDING AFFINITY PREDICTED BY RF-SCORE:    0.00 PKD
ROOT
HETATM    1  C   UNL     1      -7.569   9.391  70.325  1.00  0.00    -0.143 C  
HETATM    2  C   UNL     1      -7.500   7.950  70.822  1.00  0.00    -0.072 C  
ENDROOT
BRANCH   2   3
HETATM    3  N   UNL     1      -8.742   7.156  70.665  1.00  0.00    -0.147 NA 
BRANCH   3   4
HETATM    4  C   UNL     1      -8.896   6.199  71.789  1.00  0.00    -0.138 C  
BRANCH   4   5
HETATM    5  C   UNL     1      -7.655   6.010  72.682  1.00  0.00    -0.099 C  
HETATM    6  H   UNL     1      -7.184   6.258  74.581  1.00  0.00     0.000 HD 
HETATM    7  O   UNL     1      -7.949   6.375  74.030  1.00  0.00    -0.101 OA 
ENDBRANCH   4   5
ENDBRANCH   3   4
BRANCH   3   8
HETATM    8  C   UNL     1      -9.904   8.073  70.591  1.00  0.00    -0.184 C  
BRANCH   8   9
HETATM    9  C   UNL     1     -11.047   7.778  71.587  1.00  0.00    -0.275 C  
BRANCH   9  10
HETATM   10  C   UNL     1     -12.465   7.813  70.991  1.00  0.00    -0.171 C  
BRANCH  10  11
HETATM   11  C   UNL     1     -13.218   9.135  71.239  1.00  0.00    -0.238 C  
HETATM   12  C   UNL     1     -14.405   8.950  72.188  1.00  0.00    -0.418 C  
BRANCH  11  13
HETATM   13  N   UNL     1     -12.300  10.147  71.807  1.00  0.00    -0.365 NA 
HETATM   14  H   UNL     1     -11.636   9.907  72.543  1.00  0.00     0.000 HD 
BRANCH  13  15
HETATM   15  C   UNL     1     -12.381  11.468  71.284  1.00  0.00    -0.209 A  
HETATM   16  C   UNL     1     -11.934  11.748  69.965  1.00  0.00    -0.421 A  
HETATM   17  C   UNL     1     -11.343  10.787  69.109  1.00  0.00    -0.348 A  
HETATM   18  C   UNL     1     -10.913  11.133  67.825  1.00  0.00    -0.315 A  
HETATM   19  C   UNL     1     -11.055  12.444  67.389  1.00  0.00    -0.272 A  
HETATM   20  C   UNL     1     -11.630  13.402  68.217  1.00  0.00    -0.379 A  
HETATM   21 CL   UNL     1     -10.521  12.889  65.814  1.00  0.00    -0.285 Cl 
HETATM   22  C   UNL     1     -12.077  13.075  69.484  1.00  0.00    -0.230 A  
HETATM   23  N   UNL     1     -12.645  14.055  70.200  1.00  0.00    -0.308 NA 
HETATM   24  C   UNL     1     -13.123  13.746  71.418  1.00  0.00    -0.337 A  
HETATM   25  C   UNL     1     -13.039  12.485  71.976  1.00  0.00    -0.472 A  
ENDBRANCH  13  15
ENDBRANCH  11  13
ENDBRANCH  10  11
ENDBRANCH   9  10
ENDBRANCH   8   9
ENDBRANCH   3   8
ENDBRANCH   2   3
TORSDOF 9
ENDMDL
MODEL      205
REMARK 921   NORMALIZED FREE ENERGY PREDICTED BY IDOCK:   -3.64 KCAL/MOL
REMARK 922        TOTAL FREE ENERGY PREDICTED BY IDOCK:   -6.78 KCAL/MOL
REMARK 923 INTER-LIGAND FREE ENERGY PREDICTED BY IDOCK:   -5.68 KCAL/MOL
REMARK 924 INTRA-LIGAND FREE ENERGY PREDICTED BY IDOCK:   -1.10 KCAL/MOL
REMARK 927      BINDING AFFINITY PREDICTED BY RF-SCORE:    0.00 PKD
ROOT
HETATM    1  C   UNL     1     -10.257  11.007  67.365  1.00  0.00    -0.229 C  
HETATM    2  C   UNL     1     -10.063  12.303  68.146  1.00  0.00    -0.211 C  
ENDROOT
BRANCH   2   3
HETATM    3  N   UNL     1     -11.069  12.573  69.201  1.00  0.00    -0.227 NA 
BRANCH   3   4
HETATM    4  C   UNL     1     -11.904  13.746  68.840  1.00  0.00    -0.360 C  
BRANCH   4   5
HETATM    5  C   UNL     1     -11.804  14.956  69.787  1.00  0.00    -0.315 C  
HETATM    6  H   UNL     1     -12.857  15.733  71.262  1.00  0.00     0.000 HD 
HETATM    7  O   UNL     1     -12.919  14.987  70.678  1.00  0.00    -0.364 OA 
ENDBRANCH   4   5
ENDBRANCH   3   4
BRANCH   3   8
HETATM    8  C   UNL     1     -11.910  11.368  69.397  1.00  0.00    -0.351 C  
BRANCH   8   9
HETATM    9  C   UNL     1     -12.327  11.080  70.857  1.00  0.00    -0.503 C  
BRANCH   9  10
HETATM   10  C   UNL     1     -11.542   9.956  71.555  1.00  0.00    -0.375 C  
BRANCH  10  11
HETATM   11  C   UNL     1     -12.265   8.596  71.563  1.00  0.00    -0.318 C  
HETATM   12  C   UNL     1     -13.787   8.754  71.507  1.00  0.00    -0.391 C  
BRANCH  11  13
HETATM   13  N   UNL     1     -11.823   7.775  70.413  1.00  0.00    -0.484 NA 
HETATM   14  H   UNL     1     -12.268   7.861  69.499  1.00  0.00     0.000 HD 
BRANCH  13  15
HETATM   15  C   UNL     1     -10.754   6.862  70.635  1.00  0.00    -0.236 A  
HETATM   16  C   UNL     1      -9.646   6.823  69.745  1.00  0.00    -0.153 A  
HETATM   17  C   UNL     1      -9.539   7.619  68.579  1.00  0.00    -0.149 A  
HETATM   18  C   UNL     1      -8.426   7.523  67.740  1.00  0.00    -0.118 A  
HETATM   19  C   UNL     1      -7.417   6.619  68.049  1.00  0.00    -0.098 A  
HETATM   20  C   UNL     1      -7.507   5.827  69.189  1.00  0.00    -0.084 A  
HETATM   21 CL   UNL     1      -6.043   6.480  67.021  1.00  0.00    -0.024 Cl 
HETATM   22  C   UNL     1      -8.592   5.921  70.040  1.00  0.00    -0.130 A  
HETATM   23  N   UNL     1      -8.580   5.140  71.129  1.00  0.00    -0.121 NA 
HETATM   24  C   UNL     1      -9.608   5.249  71.990  1.00  0.00    -0.153 A  
HETATM   25  C   UNL     1     -10.679   6.099  71.799  1.00  0.00    -0.289 A  
ENDBRANCH  13  15
ENDBRANCH  11  13
ENDBRANCH  10  11
ENDBRANCH   9  10
ENDBRANCH   8   9
ENDBRANCH   3   8
ENDBRANCH   2   3
TORSDOF 9
ENDMDL
MODEL      206
REMARK 921   NORMALIZED FREE ENERGY PREDICTED BY IDOCK:   -3.62 KCAL/MOL
REMARK 922        TOTAL FREE ENERGY PREDICTED BY IDOCK:   -6.75 KCAL/MOL
REMARK 923 INTER-LIGAND FREE ENERGY PREDICTED BY IDOCK:   -6.17 KCAL/MOL
REMARK 924 INTRA-LIGAND FREE ENERGY PREDICTED BY IDOCK:   -0.58 KCAL/MOL
REMARK 927      BINDING AFFINITY PREDICTED BY RF-SCORE:    0.00 PKD
ROOT
HETATM    1  C   UNL     1     -10.733  16.211  67.461  1.00  0.00    -0.304 C  
HETATM    2  C   UNL     1     -10.896  15.053  66.480  1.00  0.00    -0.320 C  
ENDROOT
BRANCH   2   3
HETATM    3  N   UNL     1     -12.115  14.228  66.656  1.00  0.00    -0.436 NA 
BRANCH   3   4
HETATM    4  C   UNL     1     -12.753  13.951  65.345  1.00  0.00    -0.490 C  
BRANCH   4   5
HETATM    5  C   UNL     1     -11.788  13.709  64.169  1.00  0.00    -0.422 C  
HETATM    6  H   UNL     1     -11.838  12.813  62.414  1.00  0.00     0.000 HD 
HETATM    7  O   UNL     1     -12.433  12.961  63.139  1.00  0.00    -0.641 OA 
ENDBRANCH   4   5
ENDBRANCH   3   4
BRANCH   3   8
HETATM    8  C   UNL     1     -11.756  12.965  67.345  1.00  0.00    -0.372 C  
BRANCH   8   9
HETATM    9  C   UNL     1     -11.994  12.951  68.871  1.00  0.00    -0.291 C  
BRANCH   9  10
HETATM   10  C   UNL     1     -11.346  11.776  69.626  1.00  0.00    -0.287 C  
BRANCH  10  11
HETATM   11  C   UNL     1     -10.731  10.702  68.708  1.00  0.00    -0.215 C  
HETATM   12  C   UNL     1      -9.213  10.600  68.881  1.00  0.00    -0.189 C  
BRANCH  11  13
HETATM   13  N   UNL     1     -11.337   9.381  68.990  1.00  0.00    -0.441 NA 
HETATM   14  H   UNL     1     -12.264   9.302  69.408  1.00  0.00     0.000 HD 
BRANCH  13  15
HETATM   15  C   UNL     1     -10.575   8.228  68.652  1.00  0.00    -0.108 A  
HETATM   16  C   UNL     1      -9.996   7.425  69.672  1.00  0.00    -0.182 A  
HETATM   17  C   UNL     1     -10.078   7.721  71.055  1.00  0.00    -0.199 A  
HETATM   18  C   UNL     1      -9.475   6.894  72.006  1.00  0.00    -0.147 A  
HETATM   19  C   UNL     1      -8.770   5.774  71.585  1.00  0.00    -0.136 A  
HETATM   20  C   UNL     1      -8.676   5.469  70.231  1.00  0.00    -0.134 A  
HETATM   21 CL   UNL     1      -8.012   4.750  72.743  1.00  0.00    -0.096 Cl 
HETATM   22  C   UNL     1      -9.280   6.266  69.277  1.00  0.00    -0.133 A  
HETATM   23  N   UNL     1      -9.162   5.880  67.999  1.00  0.00    -0.113 NA 
HETATM   24  C   UNL     1      -9.780   6.619  67.060  1.00  0.00    -0.157 A  
HETATM   25  C   UNL     1     -10.504   7.761  67.340  1.00  0.00    -0.362 A  
ENDBRANCH  13  15
ENDBRANCH  11  13
ENDBRANCH  10  11
ENDBRANCH   9  10
ENDBRANCH   8   9
ENDBRANCH   3   8
ENDBRANCH   2   3
TORSDOF 9
ENDMDL
MODEL      207
REMARK 921   NORMALIZED FREE ENERGY PREDICTED BY IDOCK:   -3.61 KCAL/MOL
REMARK 922        TOTAL FREE ENERGY PREDICTED BY IDOCK:   -6.74 KCAL/MOL
REMARK 923 INTER-LIGAND FREE ENERGY PREDICTED BY IDOCK:   -5.69 KCAL/MOL
REMARK 924 INTRA-LIGAND FREE ENERGY PREDICTED BY IDOCK:   -1.05 KCAL/MOL
REMARK 927      BINDING AFFINITY PREDICTED BY RF-SCORE:    0.00 PKD
ROOT
HETATM    1  C   UNL     1     -11.859  12.512  65.448  1.00  0.00    -0.479 C  
HETATM    2  C   UNL     1     -10.739  11.575  65.004  1.00  0.00    -0.290 C  
ENDROOT
BRANCH   2   3
HETATM    3  N   UNL     1     -10.066  10.820  66.087  1.00  0.00    -0.234 NA 
BRANCH   3   4
HETATM    4  C   UNL     1      -8.794  11.482  66.474  1.00  0.00    -0.190 C  
BRANCH   4   5
HETATM    5  C   UNL     1      -8.868  12.403  67.707  1.00  0.00    -0.176 C  
HETATM    6  H   UNL     1      -9.104  14.327  68.067  1.00  0.00     0.000 HD 
HETATM    7  O   UNL     1      -9.058  13.759  67.307  1.00  0.00    -0.211 OA 
ENDBRANCH   4   5
ENDBRANCH   3   4
BRANCH   3   8
HETATM    8  C   UNL     1     -10.978  10.712  67.251  1.00  0.00    -0.284 C  
BRANCH   8   9
HETATM    9  C   UNL     1     -10.734   9.499  68.175  1.00  0.00    -0.247 C  
BRANCH   9  10
HETATM   10  C   UNL     1     -10.135   8.259  67.487  1.00  0.00    -0.287 C  
BRANCH  10  11
HETATM   11  C   UNL     1     -10.893   6.950  67.780  1.00  0.00    -0.241 C  
HETATM   12  C   UNL     1     -10.881   5.998  66.581  1.00  0.00    -0.289 C  
BRANCH  11  13
HETATM   13  N   UNL     1     -10.295   6.263  68.947  1.00  0.00    -0.183 NA 
HETATM   14  H   UNL     1      -9.599   5.526  68.829  1.00  0.00     0.000 HD 
BRANCH  13  15
HETATM   15  C   UNL     1     -10.729   6.672  70.239  1.00  0.00    -0.246 A  
HETATM   16  C   UNL     1      -9.786   7.104  71.211  1.00  0.00    -0.178 A  
HETATM   17  C   UNL     1      -8.385   7.115  71.005  1.00  0.00    -0.124 A  
HETATM   18  C   UNL     1      -7.512   7.543  72.008  1.00  0.00    -0.081 A  
HETATM   19  C   UNL     1      -8.028   7.948  73.232  1.00  0.00    -0.161 A  
HETATM   20  C   UNL     1      -9.401   7.941  73.454  1.00  0.00    -0.348 A  
HETATM   21 CL   UNL     1      -6.966   8.468  74.483  1.00  0.00    -0.215 Cl 
HETATM   22  C   UNL     1     -10.282   7.538  72.467  1.00  0.00    -0.232 A  
HETATM   23  N   UNL     1     -11.588   7.592  72.759  1.00  0.00    -0.319 NA 
HETATM   24  C   UNL     1     -12.461   7.245  71.797  1.00  0.00    -0.343 A  
HETATM   25  C   UNL     1     -12.083   6.814  70.540  1.00  0.00    -0.332 A  
ENDBRANCH  13  15
ENDBRANCH  11  13
ENDBRANCH  10  11
ENDBRANCH   9  10
ENDBRANCH   8   9
ENDBRANCH   3   8
ENDBRANCH   2   3
TORSDOF 9
ENDMDL
MODEL      208
REMARK 921   NORMALIZED FREE ENERGY PREDICTED BY IDOCK:   -3.61 KCAL/MOL
REMARK 922        TOTAL FREE ENERGY PREDICTED BY IDOCK:   -6.74 KCAL/MOL
REMARK 923 INTER-LIGAND FREE ENERGY PREDICTED BY IDOCK:   -5.82 KCAL/MOL
REMARK 924 INTRA-LIGAND FREE ENERGY PREDICTED BY IDOCK:   -0.91 KCAL/MOL
REMARK 927      BINDING AFFINITY PREDICTED BY RF-SCORE:    0.00 PKD
ROOT
HETATM    1  C   UNL     1      -9.541  15.412  66.359  1.00  0.00    -0.319 C  
HETATM    2  C   UNL     1      -9.540  14.397  67.498  1.00  0.00    -0.215 C  
ENDROOT
BRANCH   2   3
HETATM    3  N   UNL     1      -9.629  12.974  67.091  1.00  0.00    -0.223 NA 
BRANCH   3   4
HETATM    4  C   UNL     1     -10.503  12.824  65.900  1.00  0.00    -0.277 C  
BRANCH   4   5
HETATM    5  C   UNL     1     -11.988  12.539  66.192  1.00  0.00    -0.366 C  
HETATM    6  H   UNL     1     -13.616  12.132  65.156  1.00  0.00     0.000 HD 
HETATM    7  O   UNL     1     -12.700  12.308  64.977  1.00  0.00    -0.581 OA 
ENDBRANCH   4   5
ENDBRANCH   3   4
BRANCH   3   8
HETATM    8  C   UNL     1      -8.267  12.457  66.814  1.00  0.00    -0.025 C  
BRANCH   8   9
HETATM    9  C   UNL     1      -8.063  10.949  67.080  1.00  0.00    -0.131 C  
BRANCH   9  10
HETATM   10  C   UNL     1      -8.592  10.011  65.981  1.00  0.00    -0.148 C  
BRANCH  10  11
HETATM   11  C   UNL     1      -9.173   8.686  66.512  1.00  0.00    -0.187 C  
HETATM   12  C   UNL     1      -8.678   7.479  65.710  1.00  0.00    -0.142 C  
BRANCH  11  13
HETATM   13  N   UNL     1      -8.808   8.502  67.935  1.00  0.00    -0.137 NA 
HETATM   14  H   UNL     1      -7.886   8.765  68.284  1.00  0.00     0.000 HD 
BRANCH  13  15
HETATM   15  C   UNL     1      -9.795   7.944  68.795  1.00  0.00    -0.167 A  
HETATM   16  C   UNL     1     -10.659   8.789  69.542  1.00  0.00    -0.224 A  
HETATM   17  C   UNL     1     -10.582  10.203  69.537  1.00  0.00    -0.269 A  
HETATM   18  C   UNL     1     -11.456  10.976  70.305  1.00  0.00    -0.363 A  
HETATM   19  C   UNL     1     -12.406  10.344  71.098  1.00  0.00    -0.400 A  
HETATM   20  C   UNL     1     -12.494   8.955  71.118  1.00  0.00    -0.260 A  
HETATM   21 CL   UNL     1     -13.484  11.280  72.059  1.00  0.00    -0.417 Cl 
HETATM   22  C   UNL     1     -11.649   8.175  70.352  1.00  0.00    -0.060 A  
HETATM   23  N   UNL     1     -11.825   6.848  70.411  1.00  0.00    -0.329 NA 
HETATM   24  C   UNL     1     -11.040   6.075  69.639  1.00  0.00    -0.404 A  
HETATM   25  C   UNL     1     -10.052   6.573  68.814  1.00  0.00    -0.178 A  
ENDBRANCH  13  15
ENDBRANCH  11  13
ENDBRANCH  10  11
ENDBRANCH   9  10
ENDBRANCH   8   9
ENDBRANCH   3   8
ENDBRANCH   2   3
TORSDOF 9
ENDMDL
MODEL      209
REMARK 921   NORMALIZED FREE ENERGY PREDICTED BY IDOCK:   -3.59 KCAL/MOL
REMARK 922        TOTAL FREE ENERGY PREDICTED BY IDOCK:   -6.71 KCAL/MOL
REMARK 923 INTER-LIGAND FREE ENERGY PREDICTED BY IDOCK:   -6.54 KCAL/MOL
REMARK 924 INTRA-LIGAND FREE ENERGY PREDICTED BY IDOCK:   -0.17 KCAL/MOL
REMARK 927      BINDING AFFINITY PREDICTED BY RF-SCORE:    0.00 PKD
ROOT
HETATM    1  C   UNL     1      -7.758  11.678  67.765  1.00  0.00    -0.126 C  
HETATM    2  C   UNL     1      -8.114  10.296  67.224  1.00  0.00    -0.120 C  
ENDROOT
BRANCH   2   3
HETATM    3  N   UNL     1      -8.948  10.280  65.999  1.00  0.00    -0.149 NA 
BRANCH   3   4
HETATM    4  C   UNL     1      -8.480   9.228  65.061  1.00  0.00    -0.163 C  
BRANCH   4   5
HETATM    5  C   UNL     1      -8.670   9.535  63.564  1.00  0.00    -0.220 C  
HETATM    6  H   UNL     1      -8.009  10.860  62.261  1.00  0.00     0.000 HD 
HETATM    7  O   UNL     1      -7.892  10.671  63.184  1.00  0.00    -0.106 OA 
ENDBRANCH   4   5
ENDBRANCH   3   4
BRANCH   3   8
HETATM    8  C   UNL     1     -10.366  10.058  66.374  1.00  0.00    -0.179 C  
BRANCH   8   9
HETATM    9  C   UNL     1     -11.150  11.326  66.779  1.00  0.00    -0.314 C  
BRANCH   9  10
HETATM   10  C   UNL     1     -10.647  12.638  66.153  1.00  0.00    -0.280 C  
BRANCH  10  11
HETATM   11  C   UNL     1     -10.923  13.889  67.010  1.00  0.00    -0.295 C  
HETATM   12  C   UNL     1     -12.411  14.248  67.041  1.00  0.00    -0.203 C  
BRANCH  11  13
HETATM   13  N   UNL     1     -10.451  13.672  68.397  1.00  0.00    -0.242 NA 
HETATM   14  H   UNL     1      -9.474  13.458  68.597  1.00  0.00     0.000 HD 
BRANCH  13  15
HETATM   15  C   UNL     1     -11.415  13.775  69.438  1.00  0.00    -0.286 A  
HETATM   16  C   UNL     1     -11.811  12.621  70.167  1.00  0.00    -0.326 A  
HETATM   17  C   UNL     1     -11.340  11.313  69.897  1.00  0.00    -0.329 A  
HETATM   18  C   UNL     1     -11.780  10.219  70.646  1.00  0.00    -0.438 A  
HETATM   19  C   UNL     1     -12.706  10.418  71.662  1.00  0.00    -0.455 A  
HETATM   20  C   UNL     1     -13.183  11.695  71.940  1.00  0.00    -0.475 A  
HETATM   21 CL   UNL     1     -13.268   9.079  72.588  1.00  0.00    -0.461 Cl 
HETATM   22  C   UNL     1     -12.747  12.792  71.220  1.00  0.00    -0.269 A  
HETATM   23  N   UNL     1     -13.237  13.987  71.576  1.00  0.00    -0.350 NA 
HETATM   24  C   UNL     1     -12.791  15.070  70.916  1.00  0.00    -0.391 A  
HETATM   25  C   UNL     1     -11.879  15.013  69.880  1.00  0.00    -0.362 A  
ENDBRANCH  13  15
ENDBRANCH  11  13
ENDBRANCH  10  11
ENDBRANCH   9  10
ENDBRANCH   8   9
ENDBRANCH   3   8
ENDBRANCH   2   3
TORSDOF 9
ENDMDL
MODEL      210
REMARK 921   NORMALIZED FREE ENERGY PREDICTED BY IDOCK:   -3.59 KCAL/MOL
REMARK 922        TOTAL FREE ENERGY PREDICTED BY IDOCK:   -6.70 KCAL/MOL
REMARK 923 INTER-LIGAND FREE ENERGY PREDICTED BY IDOCK:   -5.72 KCAL/MOL
REMARK 924 INTRA-LIGAND FREE ENERGY PREDICTED BY IDOCK:   -0.98 KCAL/MOL
REMARK 927      BINDING AFFINITY PREDICTED BY RF-SCORE:    0.00 PKD
ROOT
HETATM    1  C   UNL     1      -8.871  14.976  66.660  1.00  0.00    -0.307 C  
HETATM    2  C   UNL     1      -8.293  14.202  67.841  1.00  0.00    -0.162 C  
ENDROOT
BRANCH   2   3
HETATM    3  N   UNL     1      -6.995  13.530  67.596  1.00  0.00    -0.161 NA 
BRANCH   3   4
HETATM    4  C   UNL     1      -6.037  13.827  68.691  1.00  0.00    -0.088 C  
BRANCH   4   5
HETATM    5  C   UNL     1      -5.199  15.108  68.518  1.00  0.00    -0.100 C  
HETATM    6  H   UNL     1      -4.620  16.271  67.034  1.00  0.00     0.000 HD 
HETATM    7  O   UNL     1      -5.136  15.481  67.141  1.00  0.00    -0.322 OA 
ENDBRANCH   4   5
ENDBRANCH   3   4
BRANCH   3   8
HETATM    8  C   UNL     1      -7.214  12.069  67.471  1.00  0.00    -0.127 C  
BRANCH   8   9
HETATM    9  C   UNL     1      -7.011  11.254  68.767  1.00  0.00    -0.091 C  
BRANCH   9  10
HETATM   10  C   UNL     1      -6.995   9.726  68.587  1.00  0.00    -0.063 C  
BRANCH  10  11
HETATM   11  C   UNL     1      -7.925   9.215  67.469  1.00  0.00    -0.100 C  
HETATM   12  C   UNL     1      -7.390   7.938  66.815  1.00  0.00    -0.089 C  
BRANCH  11  13
HETATM   13  N   UNL     1      -9.277   8.949  68.012  1.00  0.00    -0.139 NA 
HETATM   14  H   UNL     1      -9.547   8.017  68.326  1.00  0.00     0.000 HD 
BRANCH  13  15
HETATM   15  C   UNL     1     -10.182  10.045  68.076  1.00  0.00    -0.181 A  
HETATM   16  C   UNL     1     -10.585  10.715  66.889  1.00  0.00    -0.311 A  
HETATM   17  C   UNL     1     -10.101  10.397  65.597  1.00  0.00    -0.337 A  
HETATM   18  C   UNL     1     -10.531  11.104  64.471  1.00  0.00    -0.415 A  
HETATM   19  C   UNL     1     -11.437  12.145  64.627  1.00  0.00    -0.328 A  
HETATM   20  C   UNL     1     -11.921  12.474  65.889  1.00  0.00    -0.472 A  
HETATM   21 CL   UNL     1     -11.970  13.034  63.252  1.00  0.00    -0.601 Cl 
HETATM   22  C   UNL     1     -11.520  11.775  67.012  1.00  0.00    -0.298 A  
HETATM   23  N   UNL     1     -12.060  12.141  68.182  1.00  0.00    -0.417 NA 
HETATM   24  C   UNL     1     -11.714  11.444  69.279  1.00  0.00    -0.337 A  
HETATM   25  C   UNL     1     -10.818  10.394  69.266  1.00  0.00    -0.280 A  
ENDBRANCH  13  15
ENDBRANCH  11  13
ENDBRANCH  10  11
ENDBRANCH   9  10
ENDBRANCH   8   9
ENDBRANCH   3   8
ENDBRANCH   2   3
TORSDOF 9
ENDMDL
MODEL      211
REMARK 921   NORMALIZED FREE ENERGY PREDICTED BY IDOCK:   -3.58 KCAL/MOL
REMARK 922        TOTAL FREE ENERGY PREDICTED BY IDOCK:   -6.70 KCAL/MOL
REMARK 923 INTER-LIGAND FREE ENERGY PREDICTED BY IDOCK:   -6.36 KCAL/MOL
REMARK 924 INTRA-LIGAND FREE ENERGY PREDICTED BY IDOCK:   -0.34 KCAL/MOL
REMARK 927      BINDING AFFINITY PREDICTED BY RF-SCORE:    0.00 PKD
ROOT
HETATM    1  C   UNL     1      -9.862  11.256  65.788  1.00  0.00    -0.273 C  
HETATM    2  C   UNL     1     -11.265  11.406  66.369  1.00  0.00    -0.183 C  
ENDROOT
BRANCH   2   3
HETATM    3  N   UNL     1     -11.549  10.599  67.580  1.00  0.00    -0.447 NA 
BRANCH   3   4
HETATM    4  C   UNL     1     -10.459   9.621  67.825  1.00  0.00    -0.256 C  
BRANCH   4   5
HETATM    5  C   UNL     1     -10.643   8.238  67.173  1.00  0.00    -0.270 C  
HETATM    6  H   UNL     1      -9.519   6.919  66.232  1.00  0.00     0.000 HD 
HETATM    7  O   UNL     1      -9.406   7.772  66.633  1.00  0.00    -0.168 OA 
ENDBRANCH   4   5
ENDBRANCH   3   4
BRANCH   3   8
HETATM    8  C   UNL     1     -11.716  11.503  68.744  1.00  0.00    -0.334 C  
BRANCH   8   9
HETATM    9  C   UNL     1     -12.008  12.980  68.399  1.00  0.00    -0.309 C  
BRANCH   9  10
HETATM   10  C   UNL     1     -11.374  14.014  69.346  1.00  0.00    -0.317 C  
BRANCH  10  11
HETATM   11  C   UNL     1     -11.561  15.476  68.896  1.00  0.00    -0.373 C  
HETATM   12  C   UNL     1     -10.783  16.454  69.781  1.00  0.00    -0.324 C  
BRANCH  11  13
HETATM   13  N   UNL     1     -11.117  15.640  67.493  1.00  0.00    -0.317 NA 
HETATM   14  H   UNL     1     -11.789  15.713  66.729  1.00  0.00     0.000 HD 
BRANCH  13  15
HETATM   15  C   UNL     1      -9.715  15.690  67.254  1.00  0.00    -0.219 A  
HETATM   16  C   UNL     1      -9.086  16.921  66.922  1.00  0.00    -0.248 A  
HETATM   17  C   UNL     1      -9.779  18.144  66.755  1.00  0.00    -0.324 A  
HETATM   18  C   UNL     1      -9.100  19.317  66.417  1.00  0.00    -0.381 A  
HETATM   19  C   UNL     1      -7.725  19.277  66.226  1.00  0.00    -0.289 A  
HETATM   20  C   UNL     1      -7.028  18.083  66.383  1.00  0.00    -0.278 A  
HETATM   21 CL   UNL     1      -6.874  20.711  65.799  1.00  0.00    -0.228 Cl 
HETATM   22  C   UNL     1      -7.680  16.916  66.734  1.00  0.00    -0.248 A  
HETATM   23  N   UNL     1      -6.924  15.821  66.892  1.00  0.00    -0.238 NA 
HETATM   24  C   UNL     1      -7.536  14.686  67.275  1.00  0.00    -0.143 A  
HETATM   25  C   UNL     1      -8.897  14.586  67.489  1.00  0.00    -0.193 A  
ENDBRANCH  13  15
ENDBRANCH  11  13
ENDBRANCH  10  11
ENDBRANCH   9  10
ENDBRANCH   8   9
ENDBRANCH   3   8
ENDBRANCH   2   3
TORSDOF 9
ENDMDL
MODEL      212
REMARK 921   NORMALIZED FREE ENERGY PREDICTED BY IDOCK:   -3.58 KCAL/MOL
REMARK 922        TOTAL FREE ENERGY PREDICTED BY IDOCK:   -6.69 KCAL/MOL
REMARK 923 INTER-LIGAND FREE ENERGY PREDICTED BY IDOCK:   -5.76 KCAL/MOL
REMARK 924 INTRA-LIGAND FREE ENERGY PREDICTED BY IDOCK:   -0.93 KCAL/MOL
REMARK 927      BINDING AFFINITY PREDICTED BY RF-SCORE:    0.00 PKD
ROOT
HETATM    1  C   UNL     1     -10.760   6.840  67.100  1.00  0.00    -0.441 C  
HETATM    2  C   UNL     1      -9.449   7.471  66.639  1.00  0.00    -0.191 C  
ENDROOT
BRANCH   2   3
HETATM    3  N   UNL     1      -9.246   8.887  67.027  1.00  0.00    -0.133 NA 
BRANCH   3   4
HETATM    4  C   UNL     1     -10.399   9.718  66.598  1.00  0.00    -0.206 C  
BRANCH   4   5
HETATM    5  C   UNL     1     -10.238  10.436  65.245  1.00  0.00    -0.262 C  
HETATM    6  H   UNL     1      -8.999  11.737  64.432  1.00  0.00     0.000 HD 
HETATM    7  O   UNL     1      -9.099  11.295  65.267  1.00  0.00    -0.200 OA 
ENDBRANCH   4   5
ENDBRANCH   3   4
BRANCH   3   8
HETATM    8  C   UNL     1      -9.055   8.971  68.496  1.00  0.00    -0.133 C  
BRANCH   8   9
HETATM    9  C   UNL     1      -8.902  10.398  69.065  1.00  0.00    -0.176 C  
BRANCH   9  10
HETATM   10  C   UNL     1      -7.958  11.323  68.276  1.00  0.00    -0.134 C  
BRANCH  10  11
HETATM   11  C   UNL     1      -8.245  12.825  68.466  1.00  0.00    -0.068 C  
HETATM   12  C   UNL     1      -7.007  13.685  68.199  1.00  0.00    -0.119 C  
BRANCH  11  13
HETATM   13  N   UNL     1      -9.335  13.255  67.561  1.00  0.00    -0.209 NA 
HETATM   14  H   UNL     1      -9.512  12.776  66.679  1.00  0.00     0.000 HD 
BRANCH  13  15
HETATM   15  C   UNL     1     -10.126  14.364  67.974  1.00  0.00    -0.232 A  
HETATM   16  C   UNL     1     -11.074  14.221  69.023  1.00  0.00    -0.284 A  
HETATM   17  C   UNL     1     -11.340  12.998  69.687  1.00  0.00    -0.176 A  
HETATM   18  C   UNL     1     -12.295  12.924  70.705  1.00  0.00    -0.385 A  
HETATM   19  C   UNL     1     -13.003  14.065  71.059  1.00  0.00    -0.308 A  
HETATM   20  C   UNL     1     -12.757  15.274  70.415  1.00  0.00    -0.400 A  
HETATM   21 CL   UNL     1     -14.191  13.990  72.303  1.00  0.00    -0.627 Cl 
HETATM   22  C   UNL     1     -11.805  15.371  69.417  1.00  0.00    -0.351 A  
HETATM   23  N   UNL     1     -11.614  16.580  68.874  1.00  0.00    -0.157 NA 
HETATM   24  C   UNL     1     -10.661  16.702  67.932  1.00  0.00    -0.344 A  
HETATM   25  C   UNL     1      -9.892  15.647  67.482  1.00  0.00    -0.228 A  
ENDBRANCH  13  15
ENDBRANCH  11  13
ENDBRANCH  10  11
ENDBRANCH   9  10
ENDBRANCH   8   9
ENDBRANCH   3   8
ENDBRANCH   2   3
TORSDOF 9
ENDMDL
MODEL      213
REMARK 921   NORMALIZED FREE ENERGY PREDICTED BY IDOCK:   -3.57 KCAL/MOL
REMARK 922        TOTAL FREE ENERGY PREDICTED BY IDOCK:   -6.67 KCAL/MOL
REMARK 923 INTER-LIGAND FREE ENERGY PREDICTED BY IDOCK:   -6.02 KCAL/MOL
REMARK 924 INTRA-LIGAND FREE ENERGY PREDICTED BY IDOCK:   -0.65 KCAL/MOL
REMARK 927      BINDING AFFINITY PREDICTED BY RF-SCORE:    0.00 PKD
ROOT
HETATM    1  C   UNL     1      -9.843  16.450  68.785  1.00  0.00    -0.250 C  
HETATM    2  C   UNL     1     -11.142  16.354  69.581  1.00  0.00    -0.306 C  
ENDROOT
BRANCH   2   3
HETATM    3  N   UNL     1     -11.045  15.663  70.889  1.00  0.00    -0.347 NA 
BRANCH   3   4
HETATM    4  C   UNL     1     -12.156  16.076  71.783  1.00  0.00    -0.499 C  
BRANCH   4   5
HETATM    5  C   UNL     1     -12.194  15.391  73.162  1.00  0.00    -0.456 C  
HETATM    6  H   UNL     1     -13.422  14.219  74.165  1.00  0.00     0.000 HD 
HETATM    7  O   UNL     1     -13.399  14.641  73.315  1.00  0.00    -0.585 OA 
ENDBRANCH   4   5
ENDBRANCH   3   4
BRANCH   3   8
HETATM    8  C   UNL     1     -11.062  14.196  70.670  1.00  0.00     0.445 C  
BRANCH   8   9
HETATM    9  C   UNL     1     -12.225  13.668  69.801  1.00  0.00    -0.350 C  
BRANCH   9  10
HETATM   10  C   UNL     1     -12.158  12.171  69.453  1.00  0.00    -0.247 C  
BRANCH  10  11
HETATM   11  C   UNL     1     -12.098  11.242  70.681  1.00  0.00    -0.383 C  
HETATM   12  C   UNL     1     -13.196  11.562  71.698  1.00  0.00    -0.389 C  
BRANCH  11  13
HETATM   13  N   UNL     1     -12.228   9.829  70.259  1.00  0.00    -0.481 NA 
HETATM   14  H   UNL     1     -13.142   9.409  70.087  1.00  0.00     0.000 HD 
BRANCH  13  15
HETATM   15  C   UNL     1     -11.028   9.080  70.105  1.00  0.00    -0.233 A  
HETATM   16  C   UNL     1     -10.339   9.075  68.862  1.00  0.00    -0.232 A  
HETATM   17  C   UNL     1     -10.796   9.745  67.701  1.00  0.00    -0.301 A  
HETATM   18  C   UNL     1     -10.075   9.689  66.505  1.00  0.00    -0.314 A  
HETATM   19  C   UNL     1      -8.899   8.953  66.453  1.00  0.00    -0.152 A  
HETATM   20  C   UNL     1      -8.436   8.286  67.583  1.00  0.00    -0.130 A  
HETATM   21 CL   UNL     1      -8.003   8.865  64.986  1.00  0.00    -0.118 Cl 
HETATM   22  C   UNL     1      -9.127   8.343  68.779  1.00  0.00    -0.143 A  
HETATM   23  N   UNL     1      -8.591   7.695  69.823  1.00  0.00    -0.134 NA 
HETATM   24  C   UNL     1      -9.228   7.775  71.005  1.00  0.00    -0.151 A  
HETATM   25  C   UNL     1     -10.409   8.465  71.192  1.00  0.00    -0.264 A  
ENDBRANCH  13  15
ENDBRANCH  11  13
ENDBRANCH  10  11
ENDBRANCH   9  10
ENDBRANCH   8   9
ENDBRANCH   3   8
ENDBRANCH   2   3
TORSDOF 9
ENDMDL
MODEL      214
REMARK 921   NORMALIZED FREE ENERGY PREDICTED BY IDOCK:   -3.57 KCAL/MOL
REMARK 922        TOTAL FREE ENERGY PREDICTED BY IDOCK:   -6.67 KCAL/MOL
REMARK 923 INTER-LIGAND FREE ENERGY PREDICTED BY IDOCK:   -5.36 KCAL/MOL
REMARK 924 INTRA-LIGAND FREE ENERGY PREDICTED BY IDOCK:   -1.31 KCAL/MOL
REMARK 927      BINDING AFFINITY PREDICTED BY RF-SCORE:    0.00 PKD
ROOT
HETATM    1  C   UNL     1      -8.844  15.262  66.501  1.00  0.00    -0.335 C  
HETATM    2  C   UNL     1      -8.201  14.117  67.278  1.00  0.00    -0.181 C  
ENDROOT
BRANCH   2   3
HETATM    3  N   UNL     1      -6.735  14.216  67.472  1.00  0.00    -0.252 NA 
BRANCH   3   4
HETATM    4  C   UNL     1      -6.421  14.921  68.741  1.00  0.00    -0.086 C  
BRANCH   4   5
HETATM    5  C   UNL     1      -6.029  16.404  68.602  1.00  0.00    -0.121 C  
HETATM    6  H   UNL     1      -5.766  17.951  69.796  1.00  0.00     0.000 HD 
HETATM    7  O   UNL     1      -6.009  17.037  69.882  1.00  0.00    -0.223 OA 
ENDBRANCH   4   5
ENDBRANCH   3   4
BRANCH   3   8
HETATM    8  C   UNL     1      -6.146  12.855  67.467  1.00  0.00    -0.141 C  
BRANCH   8   9
HETATM    9  C   UNL     1      -6.769  11.860  68.471  1.00  0.00    -0.068 C  
BRANCH   9  10
HETATM   10  C   UNL     1      -6.778  10.389  68.019  1.00  0.00    -0.065 C  
BRANCH  10  11
HETATM   11  C   UNL     1      -7.351  10.170  66.605  1.00  0.00    -0.106 C  
HETATM   12  C   UNL     1      -6.424   9.316  65.736  1.00  0.00    -0.068 C  
BRANCH  11  13
HETATM   13  N   UNL     1      -8.675   9.513  66.687  1.00  0.00    -0.133 NA 
HETATM   14  H   UNL     1      -8.767   8.498  66.646  1.00  0.00     0.000 HD 
BRANCH  13  15
HETATM   15  C   UNL     1      -9.814  10.355  66.824  1.00  0.00    -0.195 A  
HETATM   16  C   UNL     1     -10.520  10.415  68.055  1.00  0.00    -0.232 A  
HETATM   17  C   UNL     1     -10.197   9.634  69.192  1.00  0.00    -0.212 A  
HETATM   18  C   UNL     1     -10.941   9.733  70.370  1.00  0.00    -0.371 A  
HETATM   19  C   UNL     1     -12.023  10.602  70.421  1.00  0.00    -0.346 A  
HETATM   20  C   UNL     1     -12.358  11.375  69.313  1.00  0.00    -0.148 A  
HETATM   21 CL   UNL     1     -12.957  10.729  71.861  1.00  0.00    -0.568 Cl 
HETATM   22  C   UNL     1     -11.623  11.303  68.144  1.00  0.00    -0.289 A  
HETATM   23  N   UNL     1     -11.999  12.105  67.139  1.00  0.00    -0.584 NA 
HETATM   24  C   UNL     1     -11.270  12.079  66.009  1.00  0.00    -0.335 A  
HETATM   25  C   UNL     1     -10.176  11.256  65.823  1.00  0.00    -0.301 A  
ENDBRANCH  13  15
ENDBRANCH  11  13
ENDBRANCH  10  11
ENDBRANCH   9  10
ENDBRANCH   8   9
ENDBRANCH   3   8
ENDBRANCH   2   3
TORSDOF 9
ENDMDL
MODEL      215
REMARK 921   NORMALIZED FREE ENERGY PREDICTED BY IDOCK:   -3.56 KCAL/MOL
REMARK 922        TOTAL FREE ENERGY PREDICTED BY IDOCK:   -6.66 KCAL/MOL
REMARK 923 INTER-LIGAND FREE ENERGY PREDICTED BY IDOCK:   -6.47 KCAL/MOL
REMARK 924 INTRA-LIGAND FREE ENERGY PREDICTED BY IDOCK:   -0.20 KCAL/MOL
REMARK 927      BINDING AFFINITY PREDICTED BY RF-SCORE:    0.00 PKD
ROOT
HETATM    1  C   UNL     1     -10.235  15.917  67.901  1.00  0.00    -0.251 C  
HETATM    2  C   UNL     1     -11.035  15.370  66.722  1.00  0.00    -0.282 C  
ENDROOT
BRANCH   2   3
HETATM    3  N   UNL     1     -12.006  14.298  67.046  1.00  0.00    -0.431 NA 
BRANCH   3   4
HETATM    4  C   UNL     1     -12.590  13.729  65.805  1.00  0.00    -0.480 C  
BRANCH   4   5
HETATM    5  C   UNL     1     -11.907  14.150  64.490  1.00  0.00    -0.436 C  
HETATM    6  H   UNL     1     -12.280  14.024  62.558  1.00  0.00     0.000 HD 
HETATM    7  O   UNL     1     -12.701  13.764  63.369  1.00  0.00    -0.795 OA 
ENDBRANCH   4   5
ENDBRANCH   3   4
BRANCH   3   8
HETATM    8  C   UNL     1     -11.327  13.245  67.839  1.00  0.00    -0.284 C  
BRANCH   8   9
HETATM    9  C   UNL     1     -11.921  11.825  67.704  1.00  0.00    -0.106 C  
BRANCH   9  10
HETATM   10  C   UNL     1     -10.961  10.761  67.145  1.00  0.00    -0.324 C  
BRANCH  10  11
HETATM   11  C   UNL     1     -10.626   9.633  68.139  1.00  0.00    -0.226 C  
HETATM   12  C   UNL     1      -9.395   8.832  67.705  1.00  0.00    -0.157 C  
BRANCH  11  13
HETATM   13  N   UNL     1     -10.384  10.195  69.487  1.00  0.00    -0.225 NA 
HETATM   14  H   UNL     1     -10.807  11.076  69.778  1.00  0.00     0.000 HD 
BRANCH  13  15
HETATM   15  C   UNL     1      -9.538   9.455  70.360  1.00  0.00    -0.266 A  
HETATM   16  C   UNL     1     -10.037   8.320  71.054  1.00  0.00    -0.230 A  
HETATM   17  C   UNL     1     -11.380   7.875  70.981  1.00  0.00    -0.292 A  
HETATM   18  C   UNL     1     -11.808   6.755  71.699  1.00  0.00    -0.370 A  
HETATM   19  C   UNL     1     -10.905   6.079  72.509  1.00  0.00    -0.247 A  
HETATM   20  C   UNL     1      -9.583   6.504  72.596  1.00  0.00    -0.156 A  
HETATM   21 CL   UNL     1     -11.418   4.705  73.410  1.00  0.00    -0.399 Cl 
HETATM   22  C   UNL     1      -9.136   7.599  71.880  1.00  0.00    -0.127 A  
HETATM   23  N   UNL     1      -7.841   7.918  72.001  1.00  0.00    -0.096 NA 
HETATM   24  C   UNL     1      -7.379   8.954  71.279  1.00  0.00    -0.096 A  
HETATM   25  C   UNL     1      -8.171   9.717  70.443  1.00  0.00    -0.194 A  
ENDBRANCH  13  15
ENDBRANCH  11  13
ENDBRANCH  10  11
ENDBRANCH   9  10
ENDBRANCH   8   9
ENDBRANCH   3   8
ENDBRANCH   2   3
TORSDOF 9
ENDMDL
MODEL      216
REMARK 921   NORMALIZED FREE ENERGY PREDICTED BY IDOCK:   -3.54 KCAL/MOL
REMARK 922        TOTAL FREE ENERGY PREDICTED BY IDOCK:   -6.63 KCAL/MOL
REMARK 923 INTER-LIGAND FREE ENERGY PREDICTED BY IDOCK:   -6.01 KCAL/MOL
REMARK 924 INTRA-LIGAND FREE ENERGY PREDICTED BY IDOCK:   -0.63 KCAL/MOL
REMARK 927      BINDING AFFINITY PREDICTED BY RF-SCORE:    0.00 PKD
ROOT
HETATM    1  C   UNL     1      -7.749   8.020  71.145  1.00  0.00    -0.087 C  
HETATM    2  C   UNL     1      -8.736   6.858  71.084  1.00  0.00    -0.135 C  
ENDROOT
BRANCH   2   3
HETATM    3  N   UNL     1      -9.554   6.774  69.851  1.00  0.00    -0.156 NA 
BRANCH   3   4
HETATM    4  C   UNL     1     -10.964   6.442  70.179  1.00  0.00    -0.334 C  
BRANCH   4   5
HETATM    5  C   UNL     1     -11.639   7.353  71.222  1.00  0.00    -0.280 C  
HETATM    6  H   UNL     1     -12.863   7.142  72.753  1.00  0.00     0.000 HD 
HETATM    7  O   UNL     1     -12.447   6.581  72.110  1.00  0.00    -0.285 OA 
ENDBRANCH   4   5
ENDBRANCH   3   4
BRANCH   3   8
HETATM    8  C   UNL     1      -9.473   8.061  69.119  1.00  0.00    -0.155 C  
BRANCH   8   9
HETATM    9  C   UNL     1     -10.382   8.176  67.875  1.00  0.00    -0.280 C  
BRANCH   9  10
HETATM   10  C   UNL     1     -10.157   9.428  67.010  1.00  0.00    -0.304 C  
BRANCH  10  11
HETATM   11  C   UNL     1      -8.739   9.534  66.414  1.00  0.00    -0.135 C  
HETATM   12  C   UNL     1      -8.479   8.459  65.356  1.00  0.00    -0.193 C  
BRANCH  11  13
HETATM   13  N   UNL     1      -8.540  10.868  65.804  1.00  0.00    -0.180 NA 
HETATM   14  H   UNL     1      -7.605  11.246  65.650  1.00  0.00     0.000 HD 
BRANCH  13  15
HETATM   15  C   UNL     1      -9.705  11.601  65.443  1.00  0.00    -0.229 A  
HETATM   16  C   UNL     1     -10.166  12.668  66.261  1.00  0.00    -0.264 A  
HETATM   17  C   UNL     1      -9.562  13.045  67.485  1.00  0.00    -0.204 A  
HETATM   18  C   UNL     1     -10.074  14.098  68.247  1.00  0.00    -0.241 A  
HETATM   19  C   UNL     1     -11.203  14.774  67.804  1.00  0.00    -0.313 A  
HETATM   20  C   UNL     1     -11.812  14.415  66.605  1.00  0.00    -0.417 A  
HETATM   21 CL   UNL     1     -11.854  16.067  68.736  1.00  0.00    -0.319 Cl 
HETATM   22  C   UNL     1     -11.309  13.388  65.828  1.00  0.00    -0.305 A  
HETATM   23  N   UNL     1     -11.942  13.131  64.676  1.00  0.00    -0.368 NA 
HETATM   24  C   UNL     1     -11.442  12.163  63.887  1.00  0.00    -0.440 A  
HETATM   25  C   UNL     1     -10.333  11.408  64.213  1.00  0.00    -0.383 A  
ENDBRANCH  13  15
ENDBRANCH  11  13
ENDBRANCH  10  11
ENDBRANCH   9  10
ENDBRANCH   8   9
ENDBRANCH   3   8
ENDBRANCH   2   3
TORSDOF 9
ENDMDL
MODEL      217
REMARK 921   NORMALIZED FREE ENERGY PREDICTED BY IDOCK:   -3.54 KCAL/MOL
REMARK 922        TOTAL FREE ENERGY PREDICTED BY IDOCK:   -6.63 KCAL/MOL
REMARK 923 INTER-LIGAND FREE ENERGY PREDICTED BY IDOCK:   -6.39 KCAL/MOL
REMARK 924 INTRA-LIGAND FREE ENERGY PREDICTED BY IDOCK:   -0.24 KCAL/MOL
REMARK 927      BINDING AFFINITY PREDICTED BY RF-SCORE:    0.00 PKD
ROOT
HETATM    1  C   UNL     1     -10.920   8.714  71.971  1.00  0.00    -0.432 C  
HETATM    2  C   UNL     1     -11.365   8.492  70.528  1.00  0.00    -0.217 C  
ENDROOT
BRANCH   2   3
HETATM    3  N   UNL     1     -10.448   7.681  69.691  1.00  0.00    -0.231 NA 
BRANCH   3   4
HETATM    4  C   UNL     1     -10.935   6.282  69.586  1.00  0.00    -0.374 C  
BRANCH   4   5
HETATM    5  C   UNL     1     -10.323   5.284  70.587  1.00  0.00    -0.254 C  
HETATM    6  H   UNL     1      -8.524   4.787  71.222  1.00  0.00     0.000 HD 
HETATM    7  O   UNL     1      -8.901   5.402  70.604  1.00  0.00    -0.127 OA 
ENDBRANCH   4   5
ENDBRANCH   3   4
BRANCH   3   8
HETATM    8  C   UNL     1     -10.333   8.301  68.348  1.00  0.00    -0.199 C  
BRANCH   8   9
HETATM    9  C   UNL     1      -9.849   9.767  68.334  1.00  0.00    -0.168 C  
BRANCH   9  10
HETATM   10  C   UNL     1      -9.727  10.406  66.939  1.00  0.00    -0.223 C  
BRANCH  10  11
HETATM   11  C   UNL     1     -10.030  11.917  66.911  1.00  0.00    -0.200 C  
HETATM   12  C   UNL     1     -11.505  12.202  66.619  1.00  0.00    -0.426 C  
BRANCH  11  13
HETATM   13  N   UNL     1      -9.667  12.534  68.207  1.00  0.00    -0.224 NA 
HETATM   14  H   UNL     1      -8.928  12.144  68.792  1.00  0.00     0.000 HD 
BRANCH  13  15
HETATM   15  C   UNL     1     -10.392  13.693  68.603  1.00  0.00    -0.219 A  
HETATM   16  C   UNL     1     -10.155  14.941  67.967  1.00  0.00    -0.221 A  
HETATM   17  C   UNL     1      -9.180  15.144  66.960  1.00  0.00    -0.239 A  
HETATM   18  C   UNL     1      -8.991  16.402  66.383  1.00  0.00    -0.340 A  
HETATM   19  C   UNL     1      -9.762  17.473  66.815  1.00  0.00    -0.295 A  
HETATM   20  C   UNL     1     -10.723  17.293  67.806  1.00  0.00    -0.333 A  
HETATM   21 CL   UNL     1      -9.535  19.033  66.123  1.00  0.00    -0.319 Cl 
HETATM   22  C   UNL     1     -10.936  16.053  68.376  1.00  0.00    -0.331 A  
HETATM   23  N   UNL     1     -11.903  15.966  69.300  1.00  0.00    -0.360 NA 
HETATM   24  C   UNL     1     -12.153  14.758  69.836  1.00  0.00    -0.332 A  
HETATM   25  C   UNL     1     -11.455  13.614  69.502  1.00  0.00    -0.324 A  
ENDBRANCH  13  15
ENDBRANCH  11  13
ENDBRANCH  10  11
ENDBRANCH   9  10
ENDBRANCH   8   9
ENDBRANCH   3   8
ENDBRANCH   2   3
TORSDOF 9
ENDMDL
MODEL      218
REMARK 921   NORMALIZED FREE ENERGY PREDICTED BY IDOCK:   -3.54 KCAL/MOL
REMARK 922        TOTAL FREE ENERGY PREDICTED BY IDOCK:   -6.63 KCAL/MOL
REMARK 923 INTER-LIGAND FREE ENERGY PREDICTED BY IDOCK:   -6.18 KCAL/MOL
REMARK 924 INTRA-LIGAND FREE ENERGY PREDICTED BY IDOCK:   -0.44 KCAL/MOL
REMARK 927      BINDING AFFINITY PREDICTED BY RF-SCORE:    0.00 PKD
ROOT
HETATM    1  C   UNL     1      -9.796  19.401  66.552  1.00  0.00    -0.471 C  
HETATM    2  C   UNL     1     -10.051  18.575  67.809  1.00  0.00    -0.364 C  
ENDROOT
BRANCH   2   3
HETATM    3  N   UNL     1     -10.036  17.104  67.627  1.00  0.00    -0.274 NA 
BRANCH   3   4
HETATM    4  C   UNL     1     -11.062  16.459  68.484  1.00  0.00    -0.357 C  
BRANCH   4   5
HETATM    5  C   UNL     1     -10.536  15.790  69.768  1.00  0.00    -0.317 C  
HETATM    6  H   UNL     1     -11.124  15.580  71.638  1.00  0.00     0.000 HD 
HETATM    7  O   UNL     1     -11.448  15.993  70.847  1.00  0.00    -0.378 OA 
ENDBRANCH   4   5
ENDBRANCH   3   4
BRANCH   3   8
HETATM    8  C   UNL     1     -10.268  16.785  66.197  1.00  0.00    -0.351 C  
BRANCH   8   9
HETATM    9  C   UNL     1     -11.034  15.471  65.927  1.00  0.00    -0.264 C  
BRANCH   9  10
HETATM   10  C   UNL     1     -10.537  14.657  64.719  1.00  0.00    -0.379 C  
BRANCH  10  11
HETATM   11  C   UNL     1     -10.676  13.132  64.890  1.00  0.00    -0.346 C  
HETATM   12  C   UNL     1     -10.385  12.380  63.588  1.00  0.00    -0.434 C  
BRANCH  11  13
HETATM   13  N   UNL     1      -9.752  12.650  65.942  1.00  0.00    -0.359 NA 
HETATM   14  H   UNL     1      -9.009  13.245  66.309  1.00  0.00     0.000 HD 
BRANCH  13  15
HETATM   15  C   UNL     1      -9.943  11.323  66.419  1.00  0.00    -0.215 A  
HETATM   16  C   UNL     1      -9.136  10.259  65.930  1.00  0.00    -0.194 A  
HETATM   17  C   UNL     1      -8.148  10.412  64.927  1.00  0.00    -0.130 A  
HETATM   18  C   UNL     1      -7.397   9.321  64.483  1.00  0.00    -0.101 A  
HETATM   19  C   UNL     1      -7.636   8.065  65.024  1.00  0.00    -0.104 A  
HETATM   20  C   UNL     1      -8.605   7.895  66.009  1.00  0.00    -0.166 A  
HETATM   21 CL   UNL     1      -6.727   6.707  64.481  1.00  0.00    -0.041 Cl 
HETATM   22  C   UNL     1      -9.346   8.966  66.473  1.00  0.00    -0.195 A  
HETATM   23  N   UNL     1     -10.235   8.714  67.442  1.00  0.00    -0.241 NA 
HETATM   24  C   UNL     1     -10.935   9.751  67.936  1.00  0.00    -0.188 A  
HETATM   25  C   UNL     1     -10.803  11.049  67.482  1.00  0.00    -0.314 A  
ENDBRANCH  13  15
ENDBRANCH  11  13
ENDBRANCH  10  11
ENDBRANCH   9  10
ENDBRANCH   8   9
ENDBRANCH   3   8
ENDBRANCH   2   3
TORSDOF 9
ENDMDL
MODEL      219
REMARK 921   NORMALIZED FREE ENERGY PREDICTED BY IDOCK:   -3.53 KCAL/MOL
REMARK 922        TOTAL FREE ENERGY PREDICTED BY IDOCK:   -6.62 KCAL/MOL
REMARK 923 INTER-LIGAND FREE ENERGY PREDICTED BY IDOCK:   -5.81 KCAL/MOL
REMARK 924 INTRA-LIGAND FREE ENERGY PREDICTED BY IDOCK:   -0.81 KCAL/MOL
REMARK 927      BINDING AFFINITY PREDICTED BY RF-SCORE:    0.00 PKD
ROOT
HETATM    1  C   UNL     1     -13.609  13.259  72.234  1.00  0.00    -0.703 C  
HETATM    2  C   UNL     1     -12.638  12.922  71.107  1.00  0.00    -0.281 C  
ENDROOT
BRANCH   2   3
HETATM    3  N   UNL     1     -12.708  11.533  70.592  1.00  0.00    -0.222 NA 
BRANCH   3   4
HETATM    4  C   UNL     1     -11.522  11.226  69.754  1.00  0.00    -0.310 C  
BRANCH   4   5
HETATM    5  C   UNL     1     -11.596  11.702  68.291  1.00  0.00    -0.310 C  
HETATM    6  H   UNL     1     -10.686  13.030  67.151  1.00  0.00     0.000 HD 
HETATM    7  O   UNL     1     -10.641  12.736  68.053  1.00  0.00    -0.214 OA 
ENDBRANCH   4   5
ENDBRANCH   3   4
BRANCH   3   8
HETATM    8  C   UNL     1     -12.803  10.591  71.734  1.00  0.00    -0.454 C  
BRANCH   8   9
HETATM    9  C   UNL     1     -12.483   9.116  71.406  1.00  0.00    -0.396 C  
BRANCH   9  10
HETATM   10  C   UNL     1     -12.042   8.257  72.604  1.00  0.00    -0.326 C  
BRANCH  10  11
HETATM   11  C   UNL     1     -10.552   7.862  72.578  1.00  0.00    -0.315 C  
HETATM   12  C   UNL     1     -10.358   6.348  72.698  1.00  0.00    -0.216 C  
BRANCH  11  13
HETATM   13  N   UNL     1      -9.921   8.330  71.323  1.00  0.00    -0.184 NA 
HETATM   14  H   UNL     1     -10.123   9.254  70.941  1.00  0.00     0.000 HD 
BRANCH  13  15
HETATM   15  C   UNL     1      -9.022   7.439  70.673  1.00  0.00    -0.155 A  
HETATM   16  C   UNL     1      -9.411   6.767  69.482  1.00  0.00    -0.146 A  
HETATM   17  C   UNL     1     -10.693   6.881  68.892  1.00  0.00    -0.254 A  
HETATM   18  C   UNL     1     -11.014   6.183  67.725  1.00  0.00    -0.400 A  
HETATM   19  C   UNL     1     -10.064   5.353  67.145  1.00  0.00    -0.198 A  
HETATM   20  C   UNL     1      -8.800   5.226  67.712  1.00  0.00    -0.105 A  
HETATM   21 CL   UNL     1     -10.446   4.477  65.712  1.00  0.00    -0.301 Cl 
HETATM   22  C   UNL     1      -8.458   5.922  68.857  1.00  0.00    -0.105 A  
HETATM   23  N   UNL     1      -7.210   5.762  69.316  1.00  0.00    -0.065 NA 
HETATM   24  C   UNL     1      -6.847   6.464  70.404  1.00  0.00    -0.058 A  
HETATM   25  C   UNL     1      -7.695   7.316  71.083  1.00  0.00    -0.092 A  
ENDBRANCH  13  15
ENDBRANCH  11  13
ENDBRANCH  10  11
ENDBRANCH   9  10
ENDBRANCH   8   9
ENDBRANCH   3   8
ENDBRANCH   2   3
TORSDOF 9
ENDMDL
MODEL      220
REMARK 921   NORMALIZED FREE ENERGY PREDICTED BY IDOCK:   -3.52 KCAL/MOL
REMARK 922        TOTAL FREE ENERGY PREDICTED BY IDOCK:   -6.60 KCAL/MOL
REMARK 923 INTER-LIGAND FREE ENERGY PREDICTED BY IDOCK:   -6.02 KCAL/MOL
REMARK 924 INTRA-LIGAND FREE ENERGY PREDICTED BY IDOCK:   -0.59 KCAL/MOL
REMARK 927      BINDING AFFINITY PREDICTED BY RF-SCORE:    0.00 PKD
ROOT
HETATM    1  C   UNL     1      -9.309   3.000  68.228  1.00  0.00    -0.253 C  
HETATM    2  C   UNL     1      -9.532   3.015  69.738  1.00  0.00    -0.114 C  
ENDROOT
BRANCH   2   3
HETATM    3  N   UNL     1      -9.670   4.357  70.354  1.00  0.00    -0.200 NA 
BRANCH   3   4
HETATM    4  C   UNL     1      -8.899   4.432  71.620  1.00  0.00    -0.119 C  
BRANCH   4   5
HETATM    5  C   UNL     1      -9.556   5.239  72.756  1.00  0.00    -0.149 C  
HETATM    6  H   UNL     1     -10.407   4.864  74.495  1.00  0.00     0.000 HD 
HETATM    7  O   UNL     1     -10.002   4.367  73.795  1.00  0.00    -0.127 OA 
ENDBRANCH   4   5
ENDBRANCH   3   4
BRANCH   3   8
HETATM    8  C   UNL     1      -9.206   5.387  69.393  1.00  0.00    -0.117 C  
BRANCH   8   9
HETATM    9  C   UNL     1     -10.178   6.566  69.166  1.00  0.00    -0.208 C  
BRANCH   9  10
HETATM   10  C   UNL     1      -9.782   7.886  69.852  1.00  0.00    -0.176 C  
BRANCH  10  11
HETATM   11  C   UNL     1      -9.872   9.122  68.936  1.00  0.00    -0.174 C  
HETATM   12  C   UNL     1      -9.318   8.842  67.537  1.00  0.00    -0.161 C  
BRANCH  11  13
HETATM   13  N   UNL     1     -11.279   9.568  68.817  1.00  0.00    -0.466 NA 
HETATM   14  H   UNL     1     -11.763   9.559  67.919  1.00  0.00     0.000 HD 
BRANCH  13  15
HETATM   15  C   UNL     1     -11.927  10.009  70.005  1.00  0.00    -0.074 A  
HETATM   16  C   UNL     1     -12.107  11.397  70.252  1.00  0.00    -0.459 A  
HETATM   17  C   UNL     1     -11.631  12.422  69.399  1.00  0.00    -0.371 A  
HETATM   18  C   UNL     1     -11.833  13.769  69.708  1.00  0.00    -0.394 A  
HETATM   19  C   UNL     1     -12.498  14.107  70.879  1.00  0.00    -0.365 A  
HETATM   20  C   UNL     1     -12.971  13.113  71.731  1.00  0.00    -0.435 A  
HETATM   21 CL   UNL     1     -12.747  15.762  71.281  1.00  0.00    -0.519 Cl 
HETATM   22  C   UNL     1     -12.796  11.775  71.434  1.00  0.00    -0.335 A  
HETATM   23  N   UNL     1     -13.309  10.888  72.297  1.00  0.00    -0.237 NA 
HETATM   24  C   UNL     1     -13.186   9.581  72.002  1.00  0.00    -0.452 A  
HETATM   25  C   UNL     1     -12.539   9.109  70.876  1.00  0.00    -0.114 A  
ENDBRANCH  13  15
ENDBRANCH  11  13
ENDBRANCH  10  11
ENDBRANCH   9  10
ENDBRANCH   8   9
ENDBRANCH   3   8
ENDBRANCH   2   3
TORSDOF 9
ENDMDL
MODEL      221
REMARK 921   NORMALIZED FREE ENERGY PREDICTED BY IDOCK:   -3.52 KCAL/MOL
REMARK 922        TOTAL FREE ENERGY PREDICTED BY IDOCK:   -6.60 KCAL/MOL
REMARK 923 INTER-LIGAND FREE ENERGY PREDICTED BY IDOCK:   -5.74 KCAL/MOL
REMARK 924 INTRA-LIGAND FREE ENERGY PREDICTED BY IDOCK:   -0.86 KCAL/MOL
REMARK 927      BINDING AFFINITY PREDICTED BY RF-SCORE:    0.00 PKD
ROOT
HETATM    1  C   UNL     1      -6.838  15.700  69.304  1.00  0.00    -0.164 C  
HETATM    2  C   UNL     1      -6.804  14.179  69.191  1.00  0.00    -0.113 C  
ENDROOT
BRANCH   2   3
HETATM    3  N   UNL     1      -6.703  13.639  67.814  1.00  0.00    -0.158 NA 
BRANCH   3   4
HETATM    4  C   UNL     1      -5.703  12.543  67.755  1.00  0.00    -0.116 C  
BRANCH   4   5
HETATM    5  C   UNL     1      -5.969  11.452  66.700  1.00  0.00    -0.147 C  
HETATM    6  H   UNL     1      -5.319  10.989  64.897  1.00  0.00     0.000 HD 
HETATM    7  O   UNL     1      -5.155  11.662  65.547  1.00  0.00    -0.189 OA 
ENDBRANCH   4   5
ENDBRANCH   3   4
BRANCH   3   8
HETATM    8  C   UNL     1      -8.036  13.160  67.376  1.00  0.00    -0.179 C  
BRANCH   8   9
HETATM    9  C   UNL     1      -8.983  12.706  68.509  1.00  0.00    -0.046 C  
BRANCH   9  10
HETATM   10  C   UNL     1     -10.484  12.767  68.175  1.00  0.00    -0.244 C  
BRANCH  10  11
HETATM   11  C   UNL     1     -11.279  11.527  68.627  1.00  0.00    -0.248 C  
HETATM   12  C   UNL     1     -11.269  10.421  67.569  1.00  0.00    -0.254 C  
BRANCH  11  13
HETATM   13  N   UNL     1     -10.718  10.992  69.889  1.00  0.00    -0.463 NA 
HETATM   14  H   UNL     1      -9.788  11.258  70.210  1.00  0.00     0.000 HD 
BRANCH  13  15
HETATM   15  C   UNL     1     -11.531  10.093  70.635  1.00  0.00    -0.349 A  
HETATM   16  C   UNL     1     -11.163   8.727  70.761  1.00  0.00    -0.309 A  
HETATM   17  C   UNL     1     -10.029   8.152  70.136  1.00  0.00    -0.187 A  
HETATM   18  C   UNL     1      -9.730   6.796  70.292  1.00  0.00    -0.179 A  
HETATM   19  C   UNL     1     -10.567   5.998  71.060  1.00  0.00    -0.246 A  
HETATM   20  C   UNL     1     -11.688   6.545  71.679  1.00  0.00    -0.374 A  
HETATM   21 CL   UNL     1     -10.220   4.323  71.255  1.00  0.00    -0.170 Cl 
HETATM   22  C   UNL     1     -11.990   7.887  71.550  1.00  0.00    -0.301 A  
HETATM   23  N   UNL     1     -13.071   8.332  72.204  1.00  0.00    -0.311 NA 
HETATM   24  C   UNL     1     -13.357   9.645  72.125  1.00  0.00    -0.454 A  
HETATM   25  C   UNL     1     -12.613  10.546  71.389  1.00  0.00    -0.539 A  
ENDBRANCH  13  15
ENDBRANCH  11  13
ENDBRANCH  10  11
ENDBRANCH   9  10
ENDBRANCH   8   9
ENDBRANCH   3   8
ENDBRANCH   2   3
TORSDOF 9
ENDMDL
MODEL      222
REMARK 921   NORMALIZED FREE ENERGY PREDICTED BY IDOCK:   -3.50 KCAL/MOL
REMARK 922        TOTAL FREE ENERGY PREDICTED BY IDOCK:   -6.57 KCAL/MOL
REMARK 923 INTER-LIGAND FREE ENERGY PREDICTED BY IDOCK:   -5.49 KCAL/MOL
REMARK 924 INTRA-LIGAND FREE ENERGY PREDICTED BY IDOCK:   -1.08 KCAL/MOL
REMARK 927      BINDING AFFINITY PREDICTED BY RF-SCORE:    0.00 PKD
ROOT
HETATM    1  C   UNL     1     -10.074   7.650  66.597  1.00  0.00    -0.278 C  
HETATM    2  C   UNL     1      -8.678   8.066  66.142  1.00  0.00    -0.154 C  
ENDROOT
BRANCH   2   3
HETATM    3  N   UNL     1      -8.485   9.517  65.905  1.00  0.00    -0.122 NA 
BRANCH   3   4
HETATM    4  C   UNL     1      -7.226   9.988  66.536  1.00  0.00    -0.101 C  
BRANCH   4   5
HETATM    5  C   UNL     1      -6.865   9.328  67.881  1.00  0.00    -0.072 C  
HETATM    6  H   UNL     1      -6.567   9.903  69.743  1.00  0.00     0.000 HD 
HETATM    7  O   UNL     1      -6.789  10.310  68.914  1.00  0.00    -0.056 OA 
ENDBRANCH   4   5
ENDBRANCH   3   4
BRANCH   3   8
HETATM    8  C   UNL     1      -8.472   9.778  64.445  1.00  0.00    -0.179 C  
BRANCH   8   9
HETATM    9  C   UNL     1      -9.759  10.412  63.873  1.00  0.00    -0.367 C  
BRANCH   9  10
HETATM   10  C   UNL     1     -10.755  10.938  64.921  1.00  0.00    -0.240 C  
BRANCH  10  11
HETATM   11  C   UNL     1     -10.967  12.464  64.876  1.00  0.00    -0.302 C  
HETATM   12  C   UNL     1     -12.328  12.837  64.282  1.00  0.00    -0.493 C  
BRANCH  11  13
HETATM   13  N   UNL     1     -10.863  13.035  66.238  1.00  0.00    -0.277 NA 
HETATM   14  H   UNL     1     -11.633  12.964  66.903  1.00  0.00     0.000 HD 
BRANCH  13  15
HETATM   15  C   UNL     1      -9.646  13.687  66.580  1.00  0.00    -0.283 A  
HETATM   16  C   UNL     1      -9.529  15.099  66.466  1.00  0.00    -0.308 A  
HETATM   17  C   UNL     1     -10.555  15.940  65.970  1.00  0.00    -0.331 A  
HETATM   18  C   UNL     1     -10.370  17.322  65.873  1.00  0.00    -0.287 A  
HETATM   19  C   UNL     1      -9.155  17.875  66.254  1.00  0.00    -0.176 A  
HETATM   20  C   UNL     1      -8.134  17.064  66.740  1.00  0.00    -0.277 A  
HETATM   21 CL   UNL     1      -8.906  19.574  66.130  1.00  0.00    -0.368 Cl 
HETATM   22  C   UNL     1      -8.304  15.697  66.860  1.00  0.00    -0.252 A  
HETATM   23  N   UNL     1      -7.279  14.999  67.365  1.00  0.00    -0.204 NA 
HETATM   24  C   UNL     1      -7.442  13.673  67.529  1.00  0.00    -0.170 A  
HETATM   25  C   UNL     1      -8.595  12.996  67.182  1.00  0.00    -0.195 A  
ENDBRANCH  13  15
ENDBRANCH  11  13
ENDBRANCH  10  11
ENDBRANCH   9  10
ENDBRANCH   8   9
ENDBRANCH   3   8
ENDBRANCH   2   3
TORSDOF 9
ENDMDL
MODEL      223
REMARK 921   NORMALIZED FREE ENERGY PREDICTED BY IDOCK:   -3.48 KCAL/MOL
REMARK 922        TOTAL FREE ENERGY PREDICTED BY IDOCK:   -6.54 KCAL/MOL
REMARK 923 INTER-LIGAND FREE ENERGY PREDICTED BY IDOCK:   -5.29 KCAL/MOL
REMARK 924 INTRA-LIGAND FREE ENERGY PREDICTED BY IDOCK:   -1.25 KCAL/MOL
REMARK 927      BINDING AFFINITY PREDICTED BY RF-SCORE:    0.00 PKD
ROOT
HETATM    1  C   UNL     1      -8.072  12.357  67.718  1.00  0.00    -0.162 C  
HETATM    2  C   UNL     1      -9.568  12.456  67.435  1.00  0.00    -0.184 C  
ENDROOT
BRANCH   2   3
HETATM    3  N   UNL     1     -10.417  12.834  68.590  1.00  0.00    -0.237 NA 
BRANCH   3   4
HETATM    4  C   UNL     1     -10.410  14.306  68.785  1.00  0.00    -0.239 C  
BRANCH   4   5
HETATM    5  C   UNL     1     -10.496  15.151  67.500  1.00  0.00    -0.258 C  
HETATM    6  H   UNL     1     -10.686  17.056  67.029  1.00  0.00     0.000 HD 
HETATM    7  O   UNL     1     -10.633  16.535  67.822  1.00  0.00    -0.315 OA 
ENDBRANCH   4   5
ENDBRANCH   3   4
BRANCH   3   8
HETATM    8  C   UNL     1     -11.797  12.339  68.367  1.00  0.00    -0.304 C  
BRANCH   8   9
HETATM    9  C   UNL     1     -12.206  11.112  69.210  1.00  0.00    -0.295 C  
BRANCH   9  10
HETATM   10  C   UNL     1     -11.311  10.822  70.428  1.00  0.00    -0.342 C  
BRANCH  10  11
HETATM   11  C   UNL     1     -11.736   9.583  71.240  1.00  0.00    -0.370 C  
HETATM   12  C   UNL     1     -13.247   9.546  71.481  1.00  0.00    -0.468 C  
BRANCH  11  13
HETATM   13  N   UNL     1     -11.329   8.347  70.535  1.00  0.00    -0.347 NA 
HETATM   14  H   UNL     1     -12.010   7.627  70.291  1.00  0.00     0.000 HD 
BRANCH  13  15
HETATM   15  C   UNL     1      -9.951   8.203  70.211  1.00  0.00    -0.189 A  
HETATM   16  C   UNL     1      -9.520   8.264  68.859  1.00  0.00    -0.151 A  
HETATM   17  C   UNL     1     -10.394   8.414  67.755  1.00  0.00    -0.297 A  
HETATM   18  C   UNL     1      -9.904   8.456  66.447  1.00  0.00    -0.310 A  
HETATM   19  C   UNL     1      -8.539   8.331  66.227  1.00  0.00    -0.138 A  
HETATM   20  C   UNL     1      -7.664   8.180  67.299  1.00  0.00    -0.098 A  
HETATM   21 CL   UNL     1      -7.919   8.370  64.622  1.00  0.00    -0.140 Cl 
HETATM   22  C   UNL     1      -8.129   8.154  68.601  1.00  0.00    -0.124 A  
HETATM   23  N   UNL     1      -7.213   8.034  69.571  1.00  0.00    -0.068 NA 
HETATM   24  C   UNL     1      -7.642   8.050  70.846  1.00  0.00    -0.078 A  
HETATM   25  C   UNL     1      -8.972   8.157  71.203  1.00  0.00    -0.174 A  
ENDBRANCH  13  15
ENDBRANCH  11  13
ENDBRANCH  10  11
ENDBRANCH   9  10
ENDBRANCH   8   9
ENDBRANCH   3   8
ENDBRANCH   2   3
TORSDOF 9
ENDMDL
MODEL      224
REMARK 921   NORMALIZED FREE ENERGY PREDICTED BY IDOCK:   -3.47 KCAL/MOL
REMARK 922        TOTAL FREE ENERGY PREDICTED BY IDOCK:   -6.53 KCAL/MOL
REMARK 923 INTER-LIGAND FREE ENERGY PREDICTED BY IDOCK:   -5.75 KCAL/MOL
REMARK 924 INTRA-LIGAND FREE ENERGY PREDICTED BY IDOCK:   -0.78 KCAL/MOL
REMARK 927      BINDING AFFINITY PREDICTED BY RF-SCORE:    0.00 PKD
ROOT
HETATM    1  C   UNL     1     -10.664   5.378  72.245  1.00  0.00    -0.287 C  
HETATM    2  C   UNL     1     -10.919   6.781  71.702  1.00  0.00    -0.235 C  
ENDROOT
BRANCH   2   3
HETATM    3  N   UNL     1      -9.848   7.774  71.956  1.00  0.00    -0.167 NA 
BRANCH   3   4
HETATM    4  C   UNL     1      -9.408   7.717  73.372  1.00  0.00    -0.285 C  
BRANCH   4   5
HETATM    5  C   UNL     1      -7.884   7.741  73.600  1.00  0.00    -0.154 C  
HETATM    6  H   UNL     1      -6.579   8.869  74.555  1.00  0.00     0.000 HD 
HETATM    7  O   UNL     1      -7.518   8.855  74.414  1.00  0.00    -0.420 OA 
ENDBRANCH   4   5
ENDBRANCH   3   4
BRANCH   3   8
HETATM    8  C   UNL     1      -8.711   7.512  71.040  1.00  0.00    -0.134 C  
BRANCH   8   9
HETATM    9  C   UNL     1      -8.602   8.465  69.829  1.00  0.00    -0.132 C  
BRANCH   9  10
HETATM   10  C   UNL     1      -7.909   9.810  70.111  1.00  0.00    -0.196 C  
BRANCH  10  11
HETATM   11  C   UNL     1      -7.850  10.754  68.894  1.00  0.00    -0.136 C  
HETATM   12  C   UNL     1      -7.739   9.984  67.576  1.00  0.00    -0.091 C  
BRANCH  11  13
HETATM   13  N   UNL     1      -9.057  11.609  68.852  1.00  0.00    -0.396 NA 
HETATM   14  H   UNL     1      -9.890  11.378  69.394  1.00  0.00     0.000 HD 
BRANCH  13  15
HETATM   15  C   UNL     1      -9.008  12.767  68.025  1.00  0.00    -0.196 A  
HETATM   16  C   UNL     1      -9.836  12.864  66.874  1.00  0.00    -0.235 A  
HETATM   17  C   UNL     1     -10.707  11.837  66.437  1.00  0.00    -0.306 A  
HETATM   18  C   UNL     1     -11.486  11.993  65.288  1.00  0.00    -0.358 A  
HETATM   19  C   UNL     1     -11.391  13.169  64.555  1.00  0.00    -0.349 A  
HETATM   20  C   UNL     1     -10.537  14.188  64.968  1.00  0.00    -0.436 A  
HETATM   21 CL   UNL     1     -12.335  13.374  63.130  1.00  0.00    -0.340 Cl 
HETATM   22  C   UNL     1      -9.772  14.058  66.111  1.00  0.00    -0.280 A  
HETATM   23  N   UNL     1      -9.001  15.101  66.448  1.00  0.00    -0.292 NA 
HETATM   24  C   UNL     1      -8.282  15.010  67.581  1.00  0.00    -0.168 A  
HETATM   25  C   UNL     1      -8.277  13.895  68.396  1.00  0.00    -0.153 A  
ENDBRANCH  13  15
ENDBRANCH  11  13
ENDBRANCH  10  11
ENDBRANCH   9  10
ENDBRANCH   8   9
ENDBRANCH   3   8
ENDBRANCH   2   3
TORSDOF 9
ENDMDL
MODEL      225
REMARK 921   NORMALIZED FREE ENERGY PREDICTED BY IDOCK:   -3.47 KCAL/MOL
REMARK 922        TOTAL FREE ENERGY PREDICTED BY IDOCK:   -6.53 KCAL/MOL
REMARK 923 INTER-LIGAND FREE ENERGY PREDICTED BY IDOCK:   -5.69 KCAL/MOL
REMARK 924 INTRA-LIGAND FREE ENERGY PREDICTED BY IDOCK:   -0.84 KCAL/MOL
REMARK 927      BINDING AFFINITY PREDICTED BY RF-SCORE:    0.00 PKD
ROOT
HETATM    1  C   UNL     1     -13.260  12.445  71.970  1.00  0.00    -0.514 C  
HETATM    2  C   UNL     1     -13.448  13.463  70.849  1.00  0.00     0.279 C  
ENDROOT
BRANCH   2   3
HETATM    3  N   UNL     1     -13.348  14.886  71.250  1.00  0.00    -0.393 NA 
BRANCH   3   4
HETATM    4  C   UNL     1     -12.626  15.017  72.541  1.00  0.00    -0.357 C  
BRANCH   4   5
HETATM    5  C   UNL     1     -13.251  15.987  73.561  1.00  0.00    -0.492 C  
HETATM    6  H   UNL     1     -12.680  16.946  75.187  1.00  0.00     0.000 HD 
HETATM    7  O   UNL     1     -12.294  16.348  74.558  1.00  0.00    -0.689 OA 
ENDBRANCH   4   5
ENDBRANCH   3   4
BRANCH   3   8
HETATM    8  C   UNL     1     -12.660  15.650  70.182  1.00  0.00    -0.206 C  
BRANCH   8   9
HETATM    9  C   UNL     1     -11.848  14.802  69.178  1.00  0.00    -0.340 C  
BRANCH   9  10
HETATM   10  C   UNL     1     -10.334  14.739  69.445  1.00  0.00    -0.171 C  
BRANCH  10  11
HETATM   11  C   UNL     1      -9.497  14.313  68.223  1.00  0.00    -0.209 C  
HETATM   12  C   UNL     1      -8.136  13.742  68.629  1.00  0.00    -0.084 C  
BRANCH  11  13
HETATM   13  N   UNL     1     -10.229  13.298  67.431  1.00  0.00    -0.228 NA 
HETATM   14  H   UNL     1     -11.110  13.522  66.967  1.00  0.00     0.000 HD 
BRANCH  13  15
HETATM   15  C   UNL     1      -9.654  12.000  67.344  1.00  0.00    -0.176 A  
HETATM   16  C   UNL     1     -10.057  10.973  68.240  1.00  0.00    -0.191 A  
HETATM   17  C   UNL     1     -10.989  11.160  69.290  1.00  0.00    -0.300 A  
HETATM   18  C   UNL     1     -11.333  10.109  70.144  1.00  0.00    -0.372 A  
HETATM   19  C   UNL     1     -10.738   8.866  69.969  1.00  0.00    -0.228 A  
HETATM   20  C   UNL     1      -9.817   8.665  68.945  1.00  0.00    -0.184 A  
HETATM   21 CL   UNL     1     -11.143   7.563  71.018  1.00  0.00    -0.264 Cl 
HETATM   22  C   UNL     1      -9.478   9.688  68.079  1.00  0.00    -0.132 A  
HETATM   23  N   UNL     1      -8.605   9.396  67.105  1.00  0.00    -0.127 NA 
HETATM   24  C   UNL     1      -8.295  10.367  66.228  1.00  0.00    -0.146 A  
HETATM   25  C   UNL     1      -8.807  11.648  66.293  1.00  0.00    -0.164 A  
ENDBRANCH  13  15
ENDBRANCH  11  13
ENDBRANCH  10  11
ENDBRANCH   9  10
ENDBRANCH   8   9
ENDBRANCH   3   8
ENDBRANCH   2   3
TORSDOF 9
ENDMDL
MODEL      226
REMARK 921   NORMALIZED FREE ENERGY PREDICTED BY IDOCK:   -3.47 KCAL/MOL
REMARK 922        TOTAL FREE ENERGY PREDICTED BY IDOCK:   -6.52 KCAL/MOL
REMARK 923 INTER-LIGAND FREE ENERGY PREDICTED BY IDOCK:   -5.90 KCAL/MOL
REMARK 924 INTRA-LIGAND FREE ENERGY PREDICTED BY IDOCK:   -0.63 KCAL/MOL
REMARK 927      BINDING AFFINITY PREDICTED BY RF-SCORE:    0.00 PKD
ROOT
HETATM    1  C   UNL     1      -5.332  19.609  70.578  1.00  0.00    -0.256 C  
HETATM    2  C   UNL     1      -6.504  20.124  69.748  1.00  0.00    -0.291 C  
ENDROOT
BRANCH   2   3
HETATM    3  N   UNL     1      -7.252  19.097  68.984  1.00  0.00    -0.341 NA 
BRANCH   3   4
HETATM    4  C   UNL     1      -7.699  19.639  67.676  1.00  0.00    -0.275 C  
BRANCH   4   5
HETATM    5  C   UNL     1      -9.215  19.579  67.410  1.00  0.00    -0.315 C  
HETATM    6  H   UNL     1     -10.788  18.679  68.186  1.00  0.00     0.000 HD 
HETATM    7  O   UNL     1      -9.853  18.715  68.350  1.00  0.00    -0.343 OA 
ENDBRANCH   4   5
ENDBRANCH   3   4
BRANCH   3   8
HETATM    8  C   UNL     1      -6.391  17.904  68.794  1.00  0.00    -0.217 C  
BRANCH   8   9
HETATM    9  C   UNL     1      -6.947  16.586  69.375  1.00  0.00    -0.202 C  
BRANCH   9  10
HETATM   10  C   UNL     1      -8.045  15.908  68.536  1.00  0.00    -0.157 C  
BRANCH  10  11
HETATM   11  C   UNL     1      -7.608  14.584  67.880  1.00  0.00    -0.145 C  
HETATM   12  C   UNL     1      -6.111  14.320  68.062  1.00  0.00    -0.153 C  
BRANCH  11  13
HETATM   13  N   UNL     1      -8.369  13.453  68.457  1.00  0.00    -0.286 NA 
HETATM   14  H   UNL     1      -8.745  13.495  69.404  1.00  0.00     0.000 HD 
BRANCH  13  15
HETATM   15  C   UNL     1      -8.556  12.306  67.635  1.00  0.00    -0.169 A  
HETATM   16  C   UNL     1      -9.549  12.304  66.618  1.00  0.00    -0.227 A  
HETATM   17  C   UNL     1     -10.438  13.380  66.378  1.00  0.00    -0.286 A  
HETATM   18  C   UNL     1     -11.400  13.309  65.367  1.00  0.00    -0.317 A  
HETATM   19  C   UNL     1     -11.494  12.157  64.597  1.00  0.00    -0.328 A  
HETATM   20  C   UNL     1     -10.631  11.088  64.821  1.00  0.00    -0.350 A  
HETATM   21 CL   UNL     1     -12.681  12.048  63.354  1.00  0.00    -0.651 Cl 
HETATM   22  C   UNL     1      -9.662  11.148  65.804  1.00  0.00    -0.225 A  
HETATM   23  N   UNL     1      -8.857  10.084  65.929  1.00  0.00    -0.140 NA 
HETATM   24  C   UNL     1      -7.880  10.141  66.852  1.00  0.00    -0.107 A  
HETATM   25  C   UNL     1      -7.682  11.221  67.690  1.00  0.00    -0.115 A  
ENDBRANCH  13  15
ENDBRANCH  11  13
ENDBRANCH  10  11
ENDBRANCH   9  10
ENDBRANCH   8   9
ENDBRANCH   3   8
ENDBRANCH   2   3
TORSDOF 9
ENDMDL
MODEL      227
REMARK 921   NORMALIZED FREE ENERGY PREDICTED BY IDOCK:   -3.47 KCAL/MOL
REMARK 922        TOTAL FREE ENERGY PREDICTED BY IDOCK:   -6.52 KCAL/MOL
REMARK 923 INTER-LIGAND FREE ENERGY PREDICTED BY IDOCK:   -5.82 KCAL/MOL
REMARK 924 INTRA-LIGAND FREE ENERGY PREDICTED BY IDOCK:   -0.69 KCAL/MOL
REMARK 927      BINDING AFFINITY PREDICTED BY RF-SCORE:    0.00 PKD
ROOT
HETATM    1  C   UNL     1     -10.550   8.605  71.736  1.00  0.00    -0.395 C  
HETATM    2  C   UNL     1      -9.250   9.014  71.048  1.00  0.00    -0.264 C  
ENDROOT
BRANCH   2   3
HETATM    3  N   UNL     1      -9.143   8.658  69.613  1.00  0.00    -0.147 NA 
BRANCH   3   4
HETATM    4  C   UNL     1      -9.161   7.184  69.437  1.00  0.00    -0.148 C  
BRANCH   4   5
HETATM    5  C   UNL     1     -10.468   6.595  68.872  1.00  0.00    -0.212 C  
HETATM    6  H   UNL     1     -11.876   5.352  69.473  1.00  0.00     0.000 HD 
HETATM    7  O   UNL     1     -11.070   5.715  69.821  1.00  0.00    -0.328 OA 
ENDBRANCH   4   5
ENDBRANCH   3   4
BRANCH   3   8
HETATM    8  C   UNL     1     -10.256   9.292  68.866  1.00  0.00    -0.202 C  
BRANCH   8   9
HETATM    9  C   UNL     1      -9.865   9.947  67.523  1.00  0.00    -0.209 C  
BRANCH   9  10
HETATM   10  C   UNL     1     -10.900  10.928  66.945  1.00  0.00    -0.307 C  
BRANCH  10  11
HETATM   11  C   UNL     1     -10.301  11.992  66.005  1.00  0.00    -0.238 C  
HETATM   12  C   UNL     1     -10.867  11.891  64.586  1.00  0.00    -0.363 C  
BRANCH  11  13
HETATM   13  N   UNL     1     -10.567  13.349  66.534  1.00  0.00    -0.285 NA 
HETATM   14  H   UNL     1     -11.495  13.768  66.476  1.00  0.00     0.000 HD 
BRANCH  13  15
HETATM   15  C   UNL     1      -9.475  14.045  67.126  1.00  0.00    -0.241 A  
HETATM   16  C   UNL     1      -9.632  15.386  67.568  1.00  0.00    -0.206 A  
HETATM   17  C   UNL     1     -10.824  16.135  67.416  1.00  0.00    -0.265 A  
HETATM   18  C   UNL     1     -10.908  17.456  67.864  1.00  0.00    -0.270 A  
HETATM   19  C   UNL     1      -9.798  18.047  68.453  1.00  0.00    -0.366 A  
HETATM   20  C   UNL     1      -8.616  17.327  68.608  1.00  0.00    -0.265 A  
HETATM   21 CL   UNL     1      -9.879  19.677  69.001  1.00  0.00    -0.501 Cl 
HETATM   22  C   UNL     1      -8.521  16.014  68.186  1.00  0.00    -0.169 A  
HETATM   23  N   UNL     1      -7.355  15.390  68.402  1.00  0.00    -0.111 NA 
HETATM   24  C   UNL     1      -7.257  14.099  68.038  1.00  0.00    -0.143 A  
HETATM   25  C   UNL     1      -8.280  13.395  67.434  1.00  0.00    -0.188 A  
ENDBRANCH  13  15
ENDBRANCH  11  13
ENDBRANCH  10  11
ENDBRANCH   9  10
ENDBRANCH   8   9
ENDBRANCH   3   8
ENDBRANCH   2   3
TORSDOF 9
ENDMDL
MODEL      228
REMARK 921   NORMALIZED FREE ENERGY PREDICTED BY IDOCK:   -3.46 KCAL/MOL
REMARK 922        TOTAL FREE ENERGY PREDICTED BY IDOCK:   -6.51 KCAL/MOL
REMARK 923 INTER-LIGAND FREE ENERGY PREDICTED BY IDOCK:   -5.82 KCAL/MOL
REMARK 924 INTRA-LIGAND FREE ENERGY PREDICTED BY IDOCK:   -0.69 KCAL/MOL
REMARK 927      BINDING AFFINITY PREDICTED BY RF-SCORE:    0.00 PKD
ROOT
HETATM    1  C   UNL     1      -9.920   7.499  70.748  1.00  0.00    -0.182 C  
HETATM    2  C   UNL     1      -8.739   8.246  70.135  1.00  0.00    -0.133 C  
ENDROOT
BRANCH   2   3
HETATM    3  N   UNL     1      -8.888   9.718  70.042  1.00  0.00    -0.221 NA 
BRANCH   3   4
HETATM    4  C   UNL     1      -7.595  10.353  69.685  1.00  0.00    -0.153 C  
BRANCH   4   5
HETATM    5  C   UNL     1      -6.644   9.498  68.826  1.00  0.00    -0.051 C  
HETATM    6  H   UNL     1      -5.764   9.635  67.066  1.00  0.00     0.000 HD 
HETATM    7  O   UNL     1      -6.350  10.162  67.596  1.00  0.00    -0.058 OA 
ENDBRANCH   4   5
ENDBRANCH   3   4
BRANCH   3   8
HETATM    8  C   UNL     1      -9.929  10.042  69.036  1.00  0.00    -0.196 C  
BRANCH   8   9
HETATM    9  C   UNL     1     -11.081  10.940  69.540  1.00  0.00    -0.326 C  
BRANCH   9  10
HETATM   10  C   UNL     1     -11.135  12.348  68.922  1.00  0.00    -0.307 C  
BRANCH  10  11
HETATM   11  C   UNL     1     -12.354  13.181  69.363  1.00  0.00    -0.003 C  
HETATM   12  C   UNL     1     -12.595  13.093  70.872  1.00  0.00    -0.377 C  
BRANCH  11  13
HETATM   13  N   UNL     1     -12.166  14.601  68.988  1.00  0.00    -0.562 NA 
HETATM   14  H   UNL     1     -12.395  15.355  69.635  1.00  0.00     0.000 HD 
BRANCH  13  15
HETATM   15  C   UNL     1     -11.653  14.869  67.688  1.00  0.00    -0.339 A  
HETATM   16  C   UNL     1     -10.446  15.602  67.529  1.00  0.00    -0.285 A  
HETATM   17  C   UNL     1      -9.706  16.153  68.604  1.00  0.00    -0.227 A  
HETATM   18  C   UNL     1      -8.531  16.874  68.377  1.00  0.00    -0.239 A  
HETATM   19  C   UNL     1      -8.092  17.066  67.074  1.00  0.00    -0.205 A  
HETATM   20  C   UNL     1      -8.807  16.536  66.005  1.00  0.00    -0.267 A  
HETATM   21 CL   UNL     1      -6.652  17.961  66.775  1.00  0.00    -0.201 Cl 
HETATM   22  C   UNL     1      -9.962  15.805  66.211  1.00  0.00    -0.295 A  
HETATM   23  N   UNL     1     -10.568  15.307  65.125  1.00  0.00    -0.411 NA 
HETATM   24  C   UNL     1     -11.670  14.557  65.309  1.00  0.00    -0.361 A  
HETATM   25  C   UNL     1     -12.218  14.297  66.550  1.00  0.00    -0.419 A  
ENDBRANCH  13  15
ENDBRANCH  11  13
ENDBRANCH  10  11
ENDBRANCH   9  10
ENDBRANCH   8   9
ENDBRANCH   3   8
ENDBRANCH   2   3
TORSDOF 9
ENDMDL
MODEL      229
REMARK 921   NORMALIZED FREE ENERGY PREDICTED BY IDOCK:   -3.46 KCAL/MOL
REMARK 922        TOTAL FREE ENERGY PREDICTED BY IDOCK:   -6.51 KCAL/MOL
REMARK 923 INTER-LIGAND FREE ENERGY PREDICTED BY IDOCK:   -5.15 KCAL/MOL
REMARK 924 INTRA-LIGAND FREE ENERGY PREDICTED BY IDOCK:   -1.36 KCAL/MOL
REMARK 927      BINDING AFFINITY PREDICTED BY RF-SCORE:    0.00 PKD
ROOT
HETATM    1  C   UNL     1     -10.463   7.243  67.364  1.00  0.00    -0.359 C  
HETATM    2  C   UNL     1      -9.005   6.836  67.552  1.00  0.00    -0.115 C  
ENDROOT
BRANCH   2   3
HETATM    3  N   UNL     1      -8.046   7.950  67.743  1.00  0.00    -0.127 NA 
BRANCH   3   4
HETATM    4  C   UNL     1      -7.145   7.674  68.890  1.00  0.00    -0.079 C  
BRANCH   4   5
HETATM    5  C   UNL     1      -6.635   8.911  69.653  1.00  0.00    -0.043 C  
HETATM    6  H   UNL     1      -7.334  10.677  70.182  1.00  0.00     0.000 HD 
HETATM    7  O   UNL     1      -7.648   9.915  69.711  1.00  0.00    -0.113 OA 
ENDBRANCH   4   5
ENDBRANCH   3   4
BRANCH   3   8
HETATM    8  C   UNL     1      -7.267   8.146  66.496  1.00  0.00    -0.080 C  
BRANCH   8   9
HETATM    9  C   UNL     1      -6.896   9.609  66.169  1.00  0.00    -0.091 C  
BRANCH   9  10
HETATM   10  C   UNL     1      -7.713  10.256  65.035  1.00  0.00    -0.129 C  
BRANCH  10  11
HETATM   11  C   UNL     1      -8.928  11.068  65.522  1.00  0.00    -0.194 C  
HETATM   12  C   UNL     1     -10.237  10.289  65.373  1.00  0.00    -0.312 C  
BRANCH  11  13
HETATM   13  N   UNL     1      -8.754  11.449  66.942  1.00  0.00    -0.159 NA 
HETATM   14  H   UNL     1      -8.016  11.038  67.514  1.00  0.00     0.000 HD 
BRANCH  13  15
HETATM   15  C   UNL     1      -9.656  12.411  67.475  1.00  0.00    -0.185 A  
HETATM   16  C   UNL     1     -10.510  12.073  68.560  1.00  0.00    -0.244 A  
HETATM   17  C   UNL     1     -10.571  10.785  69.147  1.00  0.00    -0.254 A  
HETATM   18  C   UNL     1     -11.442  10.516  70.205  1.00  0.00    -0.416 A  
HETATM   19  C   UNL     1     -12.271  11.525  70.678  1.00  0.00    -0.378 A  
HETATM   20  C   UNL     1     -12.227  12.796  70.112  1.00  0.00    -0.320 A  
HETATM   21 CL   UNL     1     -13.358  11.208  71.975  1.00  0.00    -0.506 Cl 
HETATM   22  C   UNL     1     -11.359  13.085  69.075  1.00  0.00    -0.289 A  
HETATM   23  N   UNL     1     -11.364  14.342  68.612  1.00  0.00    -0.258 NA 
HETATM   24  C   UNL     1     -10.496  14.653  67.632  1.00  0.00    -0.243 A  
HETATM   25  C   UNL     1      -9.624  13.744  67.066  1.00  0.00    -0.251 A  
ENDBRANCH  13  15
ENDBRANCH  11  13
ENDBRANCH  10  11
ENDBRANCH   9  10
ENDBRANCH   8   9
ENDBRANCH   3   8
ENDBRANCH   2   3
TORSDOF 9
ENDMDL
MODEL      230
REMARK 921   NORMALIZED FREE ENERGY PREDICTED BY IDOCK:   -3.46 KCAL/MOL
REMARK 922        TOTAL FREE ENERGY PREDICTED BY IDOCK:   -6.51 KCAL/MOL
REMARK 923 INTER-LIGAND FREE ENERGY PREDICTED BY IDOCK:   -6.02 KCAL/MOL
REMARK 924 INTRA-LIGAND FREE ENERGY PREDICTED BY IDOCK:   -0.49 KCAL/MOL
REMARK 927      BINDING AFFINITY PREDICTED BY RF-SCORE:    0.00 PKD
ROOT
HETATM    1  C   UNL     1     -12.124  16.159  72.380  1.00  0.00    -0.630 C  
HETATM    2  C   UNL     1     -11.645  14.981  71.537  1.00  0.00    -0.353 C  
ENDROOT
BRANCH   2   3
HETATM    3  N   UNL     1     -11.765  15.149  70.069  1.00  0.00    -0.284 NA 
BRANCH   3   4
HETATM    4  C   UNL     1     -10.490  15.647  69.493  1.00  0.00    -0.270 C  
BRANCH   4   5
HETATM    5  C   UNL     1     -10.591  16.942  68.664  1.00  0.00    -0.360 C  
HETATM    6  H   UNL     1     -10.566  17.448  66.759  1.00  0.00     0.000 HD 
HETATM    7  O   UNL     1     -10.504  16.649  67.270  1.00  0.00    -0.315 OA 
ENDBRANCH   4   5
ENDBRANCH   3   4
BRANCH   3   8
HETATM    8  C   UNL     1     -12.149  13.855  69.456  1.00  0.00    -0.342 C  
BRANCH   8   9
HETATM    9  C   UNL     1     -11.793  13.697  67.961  1.00  0.00    -0.397 C  
BRANCH   9  10
HETATM   10  C   UNL     1     -11.537  12.252  67.496  1.00  0.00    -0.422 C  
BRANCH  10  11
HETATM   11  C   UNL     1     -10.076  11.790  67.658  1.00  0.00    -0.193 C  
HETATM   12  C   UNL     1      -9.091  12.959  67.575  1.00  0.00    -0.191 C  
BRANCH  11  13
HETATM   13  N   UNL     1      -9.899  11.101  68.956  1.00  0.00    -0.359 NA 
HETATM   14  H   UNL     1     -10.422  11.387  69.783  1.00  0.00     0.000 HD 
BRANCH  13  15
HETATM   15  C   UNL     1      -8.968  10.025  69.003  1.00  0.00    -0.163 A  
HETATM   16  C   UNL     1      -9.250   8.802  68.337  1.00  0.00    -0.137 A  
HETATM   17  C   UNL     1     -10.455   8.539  67.641  1.00  0.00    -0.308 A  
HETATM   18  C   UNL     1     -10.672   7.308  67.016  1.00  0.00    -0.406 A  
HETATM   19  C   UNL     1      -9.696   6.323  67.094  1.00  0.00    -0.139 A  
HETATM   20  C   UNL     1      -8.507   6.563  67.776  1.00  0.00    -0.118 A  
HETATM   21 CL   UNL     1      -9.952   4.797  66.339  1.00  0.00    -0.232 Cl 
HETATM   22  C   UNL     1      -8.267   7.780  68.385  1.00  0.00    -0.124 A  
HETATM   23  N   UNL     1      -7.083   7.932  68.994  1.00  0.00    -0.068 NA 
HETATM   24  C   UNL     1      -6.814   9.125  69.555  1.00  0.00    -0.048 A  
HETATM   25  C   UNL     1      -7.699  10.185  69.559  1.00  0.00    -0.155 A  
ENDBRANCH  13  15
ENDBRANCH  11  13
ENDBRANCH  10  11
ENDBRANCH   9  10
ENDBRANCH   8   9
ENDBRANCH   3   8
ENDBRANCH   2   3
TORSDOF 9
ENDMDL
MODEL      231
REMARK 921   NORMALIZED FREE ENERGY PREDICTED BY IDOCK:   -3.45 KCAL/MOL
REMARK 922        TOTAL FREE ENERGY PREDICTED BY IDOCK:   -6.49 KCAL/MOL
REMARK 923 INTER-LIGAND FREE ENERGY PREDICTED BY IDOCK:   -6.00 KCAL/MOL
REMARK 924 INTRA-LIGAND FREE ENERGY PREDICTED BY IDOCK:   -0.49 KCAL/MOL
REMARK 927      BINDING AFFINITY PREDICTED BY RF-SCORE:    0.00 PKD
ROOT
HETATM    1  C   UNL     1     -11.407   6.898  72.120  1.00  0.00    -0.302 C  
HETATM    2  C   UNL     1      -9.923   6.922  71.767  1.00  0.00    -0.173 C  
ENDROOT
BRANCH   2   3
HETATM    3  N   UNL     1      -9.496   8.014  70.861  1.00  0.00    -0.159 NA 
BRANCH   3   4
HETATM    4  C   UNL     1      -9.802   7.673  69.449  1.00  0.00    -0.171 C  
BRANCH   4   5
HETATM    5  C   UNL     1      -8.621   7.775  68.465  1.00  0.00    -0.128 C  
HETATM    6  H   UNL     1      -8.206   8.733  66.792  1.00  0.00     0.000 HD 
HETATM    7  O   UNL     1      -8.935   8.670  67.399  1.00  0.00    -0.132 OA 
ENDBRANCH   4   5
ENDBRANCH   3   4
BRANCH   3   8
HETATM    8  C   UNL     1     -10.173   9.273  71.257  1.00  0.00    -0.313 C  
BRANCH   8   9
HETATM    9  C   UNL     1     -11.114   9.882  70.195  1.00  0.00    -0.353 C  
BRANCH   9  10
HETATM   10  C   UNL     1     -10.737  11.295  69.716  1.00  0.00     0.007 C  
BRANCH  10  11
HETATM   11  C   UNL     1     -11.871  12.330  69.857  1.00  0.00    -0.311 C  
HETATM   12  C   UNL     1     -12.597  12.206  71.199  1.00  0.00    -0.360 C  
BRANCH  11  13
HETATM   13  N   UNL     1     -11.329  13.702  69.726  1.00  0.00    -0.458 NA 
HETATM   14  H   UNL     1     -11.559  14.429  70.403  1.00  0.00     0.000 HD 
BRANCH  13  15
HETATM   15  C   UNL     1     -10.476  13.964  68.618  1.00  0.00    -0.246 A  
HETATM   16  C   UNL     1     -10.953  13.805  67.289  1.00  0.00    -0.302 A  
HETATM   17  C   UNL     1     -12.251  13.340  66.965  1.00  0.00    -0.310 A  
HETATM   18  C   UNL     1     -12.654  13.196  65.635  1.00  0.00    -0.414 A  
HETATM   19  C   UNL     1     -11.760  13.499  64.616  1.00  0.00    -0.381 A  
HETATM   20  C   UNL     1     -10.480  13.954  64.916  1.00  0.00    -0.446 A  
HETATM   21 CL   UNL     1     -12.236  13.317  62.971  1.00  0.00    -0.285 Cl 
HETATM   22  C   UNL     1     -10.069  14.119  66.225  1.00  0.00    -0.300 A  
HETATM   23  N   UNL     1      -8.830  14.590  66.419  1.00  0.00    -0.125 NA 
HETATM   24  C   UNL     1      -8.429  14.798  67.686  1.00  0.00    -0.177 A  
HETATM   25  C   UNL     1      -9.213  14.529  68.790  1.00  0.00    -0.162 A  
ENDBRANCH  13  15
ENDBRANCH  11  13
ENDBRANCH  10  11
ENDBRANCH   9  10
ENDBRANCH   8   9
ENDBRANCH   3   8
ENDBRANCH   2   3
TORSDOF 9
ENDMDL
MODEL      232
REMARK 921   NORMALIZED FREE ENERGY PREDICTED BY IDOCK:   -3.45 KCAL/MOL
REMARK 922        TOTAL FREE ENERGY PREDICTED BY IDOCK:   -6.49 KCAL/MOL
REMARK 923 INTER-LIGAND FREE ENERGY PREDICTED BY IDOCK:   -5.78 KCAL/MOL
REMARK 924 INTRA-LIGAND FREE ENERGY PREDICTED BY IDOCK:   -0.71 KCAL/MOL
REMARK 927      BINDING AFFINITY PREDICTED BY RF-SCORE:    0.00 PKD
ROOT
HETATM    1  C   UNL     1      -7.902   5.098  72.290  1.00  0.00    -0.101 C  
HETATM    2  C   UNL     1      -8.762   6.005  71.416  1.00  0.00    -0.132 C  
ENDROOT
BRANCH   2   3
HETATM    3  N   UNL     1      -9.580   5.320  70.388  1.00  0.00    -0.168 NA 
BRANCH   3   4
HETATM    4  C   UNL     1     -10.940   5.912  70.321  1.00  0.00    -0.320 C  
BRANCH   4   5
HETATM    5  C   UNL     1     -11.129   7.241  71.076  1.00  0.00    -0.258 C  
HETATM    6  H   UNL     1     -12.217   7.914  72.577  1.00  0.00     0.000 HD 
HETATM    7  O   UNL     1     -12.101   7.094  72.111  1.00  0.00    -0.292 OA 
ENDBRANCH   4   5
ENDBRANCH   3   4
BRANCH   3   8
HETATM    8  C   UNL     1      -8.899   5.417  69.074  1.00  0.00    -0.100 C  
BRANCH   8   9
HETATM    9  C   UNL     1      -8.405   6.827  68.685  1.00  0.00    -0.120 C  
BRANCH   9  10
HETATM   10  C   UNL     1      -7.969   6.990  67.218  1.00  0.00    -0.111 C  
BRANCH  10  11
HETATM   11  C   UNL     1      -8.993   7.730  66.336  1.00  0.00    -0.163 C  
HETATM   12  C   UNL     1     -10.355   7.859  67.024  1.00  0.00    -0.411 C  
BRANCH  11  13
HETATM   13  N   UNL     1      -8.494   9.082  65.997  1.00  0.00    -0.124 NA 
HETATM   14  H   UNL     1      -7.818   9.561  66.591  1.00  0.00     0.000 HD 
BRANCH  13  15
HETATM   15  C   UNL     1      -8.996   9.684  64.810  1.00  0.00    -0.225 A  
HETATM   16  C   UNL     1      -9.914  10.766  64.885  1.00  0.00    -0.374 A  
HETATM   17  C   UNL     1     -10.429  11.285  66.098  1.00  0.00    -0.305 A  
HETATM   18  C   UNL     1     -11.338  12.345  66.101  1.00  0.00    -0.398 A  
HETATM   19  C   UNL     1     -11.755  12.888  64.892  1.00  0.00    -0.348 A  
HETATM   20  C   UNL     1     -11.262  12.389  63.690  1.00  0.00    -0.544 A  
HETATM   21 CL   UNL     1     -12.884  14.188  64.876  1.00  0.00    -0.277 Cl 
HETATM   22  C   UNL     1     -10.349  11.352  63.668  1.00  0.00    -0.410 A  
HETATM   23  N   UNL     1      -9.906  10.956  62.467  1.00  0.00    -0.128 NA 
HETATM   24  C   UNL     1      -8.985   9.977  62.429  1.00  0.00    -0.270 A  
HETATM   25  C   UNL     1      -8.493   9.346  63.554  1.00  0.00    -0.202 A  
ENDBRANCH  13  15
ENDBRANCH  11  13
ENDBRANCH  10  11
ENDBRANCH   9  10
ENDBRANCH   8   9
ENDBRANCH   3   8
ENDBRANCH   2   3
TORSDOF 9
ENDMDL
MODEL      233
REMARK 921   NORMALIZED FREE ENERGY PREDICTED BY IDOCK:   -3.45 KCAL/MOL
REMARK 922        TOTAL FREE ENERGY PREDICTED BY IDOCK:   -6.49 KCAL/MOL
REMARK 923 INTER-LIGAND FREE ENERGY PREDICTED BY IDOCK:   -6.16 KCAL/MOL
REMARK 924 INTRA-LIGAND FREE ENERGY PREDICTED BY IDOCK:   -0.33 KCAL/MOL
REMARK 927      BINDING AFFINITY PREDICTED BY RF-SCORE:    0.00 PKD
ROOT
HETATM    1  C   UNL     1      -8.054  14.220  67.482  1.00  0.00    -0.200 C  
HETATM    2  C   UNL     1      -9.304  14.548  66.671  1.00  0.00    -0.281 C  
ENDROOT
BRANCH   2   3
HETATM    3  N   UNL     1     -10.436  15.122  67.437  1.00  0.00    -0.259 NA 
BRANCH   3   4
HETATM    4  C   UNL     1     -10.631  16.552  67.090  1.00  0.00    -0.270 C  
BRANCH   4   5
HETATM    5  C   UNL     1      -9.910  17.036  65.818  1.00  0.00    -0.102 C  
HETATM    6  H   UNL     1     -10.372  17.374  63.931  1.00  0.00     0.000 HD 
HETATM    7  O   UNL     1     -10.816  17.076  64.715  1.00  0.00    -0.820 OA 
ENDBRANCH   4   5
ENDBRANCH   3   4
BRANCH   3   8
HETATM    8  C   UNL     1     -11.664  14.340  67.158  1.00  0.00    -0.404 C  
BRANCH   8   9
HETATM    9  C   UNL     1     -11.553  12.819  67.408  1.00  0.00    -0.415 C  
BRANCH   9  10
HETATM   10  C   UNL     1     -11.252  12.413  68.862  1.00  0.00    -0.330 C  
BRANCH  10  11
HETATM   11  C   UNL     1     -11.457  10.913  69.150  1.00  0.00    -0.303 C  
HETATM   12  C   UNL     1     -11.049  10.039  67.961  1.00  0.00    -0.263 C  
BRANCH  11  13
HETATM   13  N   UNL     1     -10.670  10.509  70.337  1.00  0.00    -0.436 NA 
HETATM   14  H   UNL     1     -10.912  10.840  71.271  1.00  0.00     0.000 HD 
BRANCH  13  15
HETATM   15  C   UNL     1      -9.564   9.640  70.122  1.00  0.00    -0.254 A  
HETATM   16  C   UNL     1      -9.702   8.239  70.314  1.00  0.00    -0.177 A  
HETATM   17  C   UNL     1     -10.890   7.615  70.769  1.00  0.00    -0.246 A  
HETATM   18  C   UNL     1     -10.954   6.231  70.947  1.00  0.00    -0.344 A  
HETATM   19  C   UNL     1      -9.830   5.458  70.689  1.00  0.00    -0.191 A  
HETATM   20  C   UNL     1      -8.654   6.053  70.245  1.00  0.00    -0.143 A  
HETATM   21 CL   UNL     1      -9.889   3.752  70.914  1.00  0.00    -0.240 Cl 
HETATM   22  C   UNL     1      -8.576   7.419  70.046  1.00  0.00    -0.140 A  
HETATM   23  N   UNL     1      -7.412   7.901  69.588  1.00  0.00    -0.090 NA 
HETATM   24  C   UNL     1      -7.332   9.222  69.348  1.00  0.00    -0.077 A  
HETATM   25  C   UNL     1      -8.370  10.105  69.571  1.00  0.00    -0.178 A  
ENDBRANCH  13  15
ENDBRANCH  11  13
ENDBRANCH  10  11
ENDBRANCH   9  10
ENDBRANCH   8   9
ENDBRANCH   3   8
ENDBRANCH   2   3
TORSDOF 9
ENDMDL
MODEL      234
REMARK 921   NORMALIZED FREE ENERGY PREDICTED BY IDOCK:   -3.45 KCAL/MOL
REMARK 922        TOTAL FREE ENERGY PREDICTED BY IDOCK:   -6.49 KCAL/MOL
REMARK 923 INTER-LIGAND FREE ENERGY PREDICTED BY IDOCK:   -5.76 KCAL/MOL
REMARK 924 INTRA-LIGAND FREE ENERGY PREDICTED BY IDOCK:   -0.72 KCAL/MOL
REMARK 927      BINDING AFFINITY PREDICTED BY RF-SCORE:    0.00 PKD
ROOT
HETATM    1  C   UNL     1      -9.075   2.984  69.518  1.00  0.00    -0.198 C  
HETATM    2  C   UNL     1      -8.837   4.288  70.273  1.00  0.00    -0.084 C  
ENDROOT
BRANCH   2   3
HETATM    3  N   UNL     1     -10.014   5.181  70.402  1.00  0.00    -0.226 NA 
BRANCH   3   4
HETATM    4  C   UNL     1     -10.094   5.747  71.772  1.00  0.00    -0.187 C  
BRANCH   4   5
HETATM    5  C   UNL     1     -11.468   5.640  72.460  1.00  0.00    -0.279 C  
HETATM    6  H   UNL     1     -12.307   4.529  73.856  1.00  0.00     0.000 HD 
HETATM    7  O   UNL     1     -11.460   4.594  73.432  1.00  0.00    -0.328 OA 
ENDBRANCH   4   5
ENDBRANCH   3   4
BRANCH   3   8
HETATM    8  C   UNL     1      -9.922   6.261  69.390  1.00  0.00    -0.159 C  
BRANCH   8   9
HETATM    9  C   UNL     1     -11.194   6.486  68.543  1.00  0.00    -0.287 C  
BRANCH   9  10
HETATM   10  C   UNL     1     -10.955   7.076  67.142  1.00  0.00    -0.393 C  
BRANCH  10  11
HETATM   11  C   UNL     1      -9.996   8.282  67.124  1.00  0.00    -0.239 C  
HETATM   12  C   UNL     1      -9.285   8.431  65.776  1.00  0.00    -0.175 C  
BRANCH  11  13
HETATM   13  N   UNL     1     -10.738   9.530  67.417  1.00  0.00    -0.324 NA 
HETATM   14  H   UNL     1     -11.747   9.523  67.569  1.00  0.00     0.000 HD 
BRANCH  13  15
HETATM   15  C   UNL     1      -9.987  10.737  67.478  1.00  0.00    -0.174 A  
HETATM   16  C   UNL     1     -10.396  11.877  66.734  1.00  0.00    -0.238 A  
HETATM   17  C   UNL     1     -11.512  11.894  65.862  1.00  0.00    -0.340 A  
HETATM   18  C   UNL     1     -11.853  13.047  65.151  1.00  0.00    -0.404 A  
HETATM   19  C   UNL     1     -11.075  14.189  65.291  1.00  0.00    -0.331 A  
HETATM   20  C   UNL     1      -9.974  14.190  66.141  1.00  0.00    -0.328 A  
HETATM   21 CL   UNL     1     -11.475  15.615  64.414  1.00  0.00    -0.346 Cl 
HETATM   22  C   UNL     1      -9.631  13.064  66.866  1.00  0.00    -0.243 A  
HETATM   23  N   UNL     1      -8.573  13.165  67.682  1.00  0.00    -0.179 NA 
HETATM   24  C   UNL     1      -8.250  12.092  68.427  1.00  0.00    -0.145 A  
HETATM   25  C   UNL     1      -8.933  10.893  68.377  1.00  0.00    -0.154 A  
ENDBRANCH  13  15
ENDBRANCH  11  13
ENDBRANCH  10  11
ENDBRANCH   9  10
ENDBRANCH   8   9
ENDBRANCH   3   8
ENDBRANCH   2   3
TORSDOF 9
ENDMDL
MODEL      235
REMARK 921   NORMALIZED FREE ENERGY PREDICTED BY IDOCK:   -3.44 KCAL/MOL
REMARK 922        TOTAL FREE ENERGY PREDICTED BY IDOCK:   -6.48 KCAL/MOL
REMARK 923 INTER-LIGAND FREE ENERGY PREDICTED BY IDOCK:   -5.87 KCAL/MOL
REMARK 924 INTRA-LIGAND FREE ENERGY PREDICTED BY IDOCK:   -0.61 KCAL/MOL
REMARK 927      BINDING AFFINITY PREDICTED BY RF-SCORE:    0.00 PKD
ROOT
HETATM    1  C   UNL     1      -8.378   9.889  64.531  1.00  0.00    -0.168 C  
HETATM    2  C   UNL     1      -9.449  10.664  65.293  1.00  0.00    -0.221 C  
ENDROOT
BRANCH   2   3
HETATM    3  N   UNL     1     -10.366   9.846  66.123  1.00  0.00    -0.199 NA 
BRANCH   3   4
HETATM    4  C   UNL     1      -9.673   8.634  66.628  1.00  0.00    -0.247 C  
BRANCH   4   5
HETATM    5  C   UNL     1      -9.185   8.702  68.087  1.00  0.00    -0.137 C  
HETATM    6  H   UNL     1      -7.467   8.915  69.032  1.00  0.00     0.000 HD 
HETATM    7  O   UNL     1      -7.768   8.872  68.132  1.00  0.00    -0.098 OA 
ENDBRANCH   4   5
ENDBRANCH   3   4
BRANCH   3   8
HETATM    8  C   UNL     1     -10.875  10.668  67.247  1.00  0.00    -0.287 C  
BRANCH   8   9
HETATM    9  C   UNL     1     -11.474  12.035  66.850  1.00  0.00    -0.402 C  
BRANCH   9  10
HETATM   10  C   UNL     1     -11.677  13.026  68.011  1.00  0.00    -0.397 C  
BRANCH  10  11
HETATM   11  C   UNL     1     -11.768  14.500  67.570  1.00  0.00    -0.386 C  
HETATM   12  C   UNL     1     -11.912  15.448  68.763  1.00  0.00    -0.278 C  
BRANCH  11  13
HETATM   13  N   UNL     1     -10.563  14.877  66.797  1.00  0.00    -0.298 NA 
HETATM   14  H   UNL     1     -10.072  14.198  66.215  1.00  0.00     0.000 HD 
BRANCH  13  15
HETATM   15  C   UNL     1     -10.119  16.226  66.897  1.00  0.00    -0.278 A  
HETATM   16  C   UNL     1      -9.007  16.557  67.718  1.00  0.00    -0.202 A  
HETATM   17  C   UNL     1      -8.305  15.621  68.515  1.00  0.00    -0.166 A  
HETATM   18  C   UNL     1      -7.225  16.016  69.309  1.00  0.00    -0.226 A  
HETATM   19  C   UNL     1      -6.846  17.352  69.327  1.00  0.00    -0.200 A  
HETATM   20  C   UNL     1      -7.526  18.286  68.552  1.00  0.00    -0.300 A  
HETATM   21 CL   UNL     1      -5.525  17.858  70.307  1.00  0.00    -0.243 Cl 
HETATM   22  C   UNL     1      -8.585  17.911  67.747  1.00  0.00    -0.242 A  
HETATM   23  N   UNL     1      -9.162  18.873  67.013  1.00  0.00    -0.296 NA 
HETATM   24  C   UNL     1     -10.167  18.518  66.192  1.00  0.00    -0.398 A  
HETATM   25  C   UNL     1     -10.648  17.228  66.086  1.00  0.00    -0.204 A  
ENDBRANCH  13  15
ENDBRANCH  11  13
ENDBRANCH  10  11
ENDBRANCH   9  10
ENDBRANCH   8   9
ENDBRANCH   3   8
ENDBRANCH   2   3
TORSDOF 9
ENDMDL
MODEL      236
REMARK 921   NORMALIZED FREE ENERGY PREDICTED BY IDOCK:   -3.44 KCAL/MOL
REMARK 922        TOTAL FREE ENERGY PREDICTED BY IDOCK:   -6.48 KCAL/MOL
REMARK 923 INTER-LIGAND FREE ENERGY PREDICTED BY IDOCK:   -5.68 KCAL/MOL
REMARK 924 INTRA-LIGAND FREE ENERGY PREDICTED BY IDOCK:   -0.80 KCAL/MOL
REMARK 927      BINDING AFFINITY PREDICTED BY RF-SCORE:    0.00 PKD
ROOT
HETATM    1  C   UNL     1     -12.471  15.852  72.065  1.00  0.00    -0.534 C  
HETATM    2  C   UNL     1     -11.890  14.762  71.169  1.00  0.00    -0.334 C  
ENDROOT
BRANCH   2   3
HETATM    3  N   UNL     1     -11.674  15.142  69.752  1.00  0.00    -0.297 NA 
BRANCH   3   4
HETATM    4  C   UNL     1     -10.234  15.396  69.492  1.00  0.00    -0.270 C  
BRANCH   4   5
HETATM    5  C   UNL     1      -9.893  16.786  68.922  1.00  0.00    -0.264 C  
HETATM    6  H   UNL     1     -10.237  17.797  67.264  1.00  0.00     0.000 HD 
HETATM    7  O   UNL     1     -10.447  16.940  67.615  1.00  0.00    -0.315 OA 
ENDBRANCH   4   5
ENDBRANCH   3   4
BRANCH   3   8
HETATM    8  C   UNL     1     -12.186  14.064  68.872  1.00  0.00    -0.226 C  
BRANCH   8   9
HETATM    9  C   UNL     1     -11.106  13.176  68.215  1.00  0.00    -0.295 C  
BRANCH   9  10
HETATM   10  C   UNL     1     -11.593  11.797  67.733  1.00  0.00    -0.374 C  
BRANCH  10  11
HETATM   11  C   UNL     1     -11.040  10.615  68.552  1.00  0.00    -0.263 C  
HETATM   12  C   UNL     1     -11.818  10.404  69.854  1.00  0.00    -0.314 C  
BRANCH  11  13
HETATM   13  N   UNL     1     -11.094   9.370  67.753  1.00  0.00    -0.487 NA 
HETATM   14  H   UNL     1     -11.964   9.051  67.326  1.00  0.00     0.000 HD 
BRANCH  13  15
HETATM   15  C   UNL     1      -9.883   8.638  67.603  1.00  0.00    -0.180 A  
HETATM   16  C   UNL     1      -9.134   8.726  66.398  1.00  0.00    -0.221 A  
HETATM   17  C   UNL     1      -9.538   9.478  65.268  1.00  0.00    -0.314 A  
HETATM   18  C   UNL     1      -8.759   9.512  64.109  1.00  0.00    -0.239 A  
HETATM   19  C   UNL     1      -7.577   8.784  64.061  1.00  0.00    -0.123 A  
HETATM   20  C   UNL     1      -7.166   8.037  65.160  1.00  0.00    -0.065 A  
HETATM   21 CL   UNL     1      -6.610   8.807  62.637  1.00  0.00    -0.095 Cl 
HETATM   22  C   UNL     1      -7.915   8.005  66.322  1.00  0.00    -0.105 A  
HETATM   23  N   UNL     1      -7.427   7.283  67.340  1.00  0.00    -0.094 NA 
HETATM   24  C   UNL     1      -8.121   7.275  68.492  1.00  0.00    -0.125 A  
HETATM   25  C   UNL     1      -9.314   7.946  68.671  1.00  0.00    -0.145 A  
ENDBRANCH  13  15
ENDBRANCH  11  13
ENDBRANCH  10  11
ENDBRANCH   9  10
ENDBRANCH   8   9
ENDBRANCH   3   8
ENDBRANCH   2   3
TORSDOF 9
ENDMDL
MODEL      237
REMARK 921   NORMALIZED FREE ENERGY PREDICTED BY IDOCK:   -3.44 KCAL/MOL
REMARK 922        TOTAL FREE ENERGY PREDICTED BY IDOCK:   -6.48 KCAL/MOL
REMARK 923 INTER-LIGAND FREE ENERGY PREDICTED BY IDOCK:   -5.82 KCAL/MOL
REMARK 924 INTRA-LIGAND FREE ENERGY PREDICTED BY IDOCK:   -0.66 KCAL/MOL
REMARK 927      BINDING AFFINITY PREDICTED BY RF-SCORE:    0.00 PKD
ROOT
HETATM    1  C   UNL     1     -10.314  16.559  69.704  1.00  0.00    -0.221 C  
HETATM    2  C   UNL     1     -11.575  15.815  69.275  1.00  0.00    -0.373 C  
ENDROOT
BRANCH   2   3
HETATM    3  N   UNL     1     -12.097  14.822  70.244  1.00  0.00    -0.301 NA 
BRANCH   3   4
HETATM    4  C   UNL     1     -13.364  15.301  70.853  1.00  0.00    -0.419 C  
BRANCH   4   5
HETATM    5  C   UNL     1     -13.508  15.066  72.368  1.00  0.00    -0.430 C  
HETATM    6  H   UNL     1     -13.988  13.573  73.563  1.00  0.00     0.000 HD 
HETATM    7  O   UNL     1     -13.899  13.718  72.629  1.00  0.00    -0.691 OA 
ENDBRANCH   4   5
ENDBRANCH   3   4
BRANCH   3   8
HETATM    8  C   UNL     1     -12.303  13.525  69.554  1.00  0.00    -0.147 C  
BRANCH   8   9
HETATM    9  C   UNL     1     -11.807  13.465  68.093  1.00  0.00    -0.396 C  
BRANCH   9  10
HETATM   10  C   UNL     1     -10.575  12.574  67.853  1.00  0.00    -0.233 C  
BRANCH  10  11
HETATM   11  C   UNL     1     -10.912  11.158  67.348  1.00  0.00    -0.290 C  
HETATM   12  C   UNL     1     -10.975  11.093  65.820  1.00  0.00    -0.160 C  
BRANCH  11  13
HETATM   13  N   UNL     1      -9.901  10.190  67.830  1.00  0.00    -0.149 NA 
HETATM   14  H   UNL     1      -9.037  10.024  67.314  1.00  0.00     0.000 HD 
BRANCH  13  15
HETATM   15  C   UNL     1     -10.184   9.501  69.043  1.00  0.00    -0.200 A  
HETATM   16  C   UNL     1      -9.465   8.324  69.386  1.00  0.00    -0.159 A  
HETATM   17  C   UNL     1      -8.480   7.729  68.560  1.00  0.00    -0.129 A  
HETATM   18  C   UNL     1      -7.817   6.564  68.953  1.00  0.00    -0.110 A  
HETATM   19  C   UNL     1      -8.142   5.972  70.167  1.00  0.00    -0.114 A  
HETATM   20  C   UNL     1      -9.109   6.541  70.991  1.00  0.00    -0.150 A  
HETATM   21 CL   UNL     1      -7.343   4.530  70.663  1.00  0.00    -0.048 Cl 
HETATM   22  C   UNL     1      -9.762   7.703  70.626  1.00  0.00    -0.174 A  
HETATM   23  N   UNL     1     -10.656   8.196  71.494  1.00  0.00    -0.220 NA 
HETATM   24  C   UNL     1     -11.271   9.349  71.176  1.00  0.00    -0.357 A  
HETATM   25  C   UNL     1     -11.049  10.034  69.997  1.00  0.00    -0.350 A  
ENDBRANCH  13  15
ENDBRANCH  11  13
ENDBRANCH  10  11
ENDBRANCH   9  10
ENDBRANCH   8   9
ENDBRANCH   3   8
ENDBRANCH   2   3
TORSDOF 9
ENDMDL
MODEL      238
REMARK 921   NORMALIZED FREE ENERGY PREDICTED BY IDOCK:   -3.42 KCAL/MOL
REMARK 922        TOTAL FREE ENERGY PREDICTED BY IDOCK:   -6.45 KCAL/MOL
REMARK 923 INTER-LIGAND FREE ENERGY PREDICTED BY IDOCK:   -4.90 KCAL/MOL
REMARK 924 INTRA-LIGAND FREE ENERGY PREDICTED BY IDOCK:   -1.55 KCAL/MOL
REMARK 927      BINDING AFFINITY PREDICTED BY RF-SCORE:    0.00 PKD
ROOT
HETATM    1  C   UNL     1      -8.155  14.212  67.244  1.00  0.00    -0.188 C  
HETATM    2  C   UNL     1      -7.552  12.947  67.847  1.00  0.00    -0.138 C  
ENDROOT
BRANCH   2   3
HETATM    3  N   UNL     1      -6.393  12.376  67.120  1.00  0.00    -0.161 NA 
BRANCH   3   4
HETATM    4  C   UNL     1      -5.353  11.914  68.073  1.00  0.00    -0.049 C  
BRANCH   4   5
HETATM    5  C   UNL     1      -5.511  12.404  69.524  1.00  0.00    -0.079 C  
HETATM    6  H   UNL     1      -5.967  11.622  71.276  1.00  0.00     0.000 HD 
HETATM    7  O   UNL     1      -5.869  11.320  70.381  1.00  0.00    -0.130 OA 
ENDBRANCH   4   5
ENDBRANCH   3   4
BRANCH   3   8
HETATM    8  C   UNL     1      -6.855  11.258  66.262  1.00  0.00    -0.001 C  
BRANCH   8   9
HETATM    9  C   UNL     1      -6.618   9.843  66.833  1.00  0.00    -0.067 C  
BRANCH   9  10
HETATM   10  C   UNL     1      -7.481   8.730  66.212  1.00  0.00    -0.087 C  
BRANCH  10  11
HETATM   11  C   UNL     1      -8.446   9.222  65.115  1.00  0.00    -0.159 C  
HETATM   12  C   UNL     1      -8.356   8.368  63.847  1.00  0.00    -0.063 C  
BRANCH  11  13
HETATM   13  N   UNL     1      -9.840   9.199  65.613  1.00  0.00    -0.459 NA 
HETATM   14  H   UNL     1     -10.343   8.322  65.740  1.00  0.00     0.000 HD 
BRANCH  13  15
HETATM   15  C   UNL     1     -10.448  10.452  65.907  1.00  0.00    -0.125 A  
HETATM   16  C   UNL     1     -10.908  10.737  67.221  1.00  0.00    -0.344 A  
HETATM   17  C   UNL     1     -10.852   9.818  68.296  1.00  0.00    -0.256 A  
HETATM   18  C   UNL     1     -11.334  10.159  69.563  1.00  0.00    -0.260 A  
HETATM   19  C   UNL     1     -11.890  11.415  69.764  1.00  0.00    -0.364 A  
HETATM   20  C   UNL     1     -11.956  12.331  68.718  1.00  0.00    -0.281 A  
HETATM   21 CL   UNL     1     -12.498  11.849  71.315  1.00  0.00    -0.378 Cl 
HETATM   22  C   UNL     1     -11.469  12.018  67.463  1.00  0.00    -0.333 A  
HETATM   23  N   UNL     1     -11.548  12.971  66.525  1.00  0.00    -0.338 NA 
HETATM   24  C   UNL     1     -11.040  12.699  65.309  1.00  0.00    -0.295 A  
HETATM   25  C   UNL     1     -10.469  11.487  64.973  1.00  0.00    -0.344 A  
ENDBRANCH  13  15
ENDBRANCH  11  13
ENDBRANCH  10  11
ENDBRANCH   9  10
ENDBRANCH   8   9
ENDBRANCH   3   8
ENDBRANCH   2   3
TORSDOF 9
ENDMDL
MODEL      239
REMARK 921   NORMALIZED FREE ENERGY PREDICTED BY IDOCK:   -3.41 KCAL/MOL
REMARK 922        TOTAL FREE ENERGY PREDICTED BY IDOCK:   -6.43 KCAL/MOL
REMARK 923 INTER-LIGAND FREE ENERGY PREDICTED BY IDOCK:   -5.74 KCAL/MOL
REMARK 924 INTRA-LIGAND FREE ENERGY PREDICTED BY IDOCK:   -0.69 KCAL/MOL
REMARK 927      BINDING AFFINITY PREDICTED BY RF-SCORE:    0.00 PKD
ROOT
HETATM    1  C   UNL     1      -9.756   4.745  69.194  1.00  0.00    -0.258 C  
HETATM    2  C   UNL     1      -9.232   6.060  69.763  1.00  0.00    -0.143 C  
ENDROOT
BRANCH   2   3
HETATM    3  N   UNL     1      -9.939   7.283  69.311  1.00  0.00    -0.167 NA 
BRANCH   3   4
HETATM    4  C   UNL     1     -11.085   7.585  70.205  1.00  0.00    -0.248 C  
BRANCH   4   5
HETATM    5  C   UNL     1     -10.915   7.162  71.677  1.00  0.00    -0.228 C  
HETATM    6  H   UNL     1     -11.258   7.937  73.457  1.00  0.00     0.000 HD 
HETATM    7  O   UNL     1     -11.363   8.198  72.549  1.00  0.00    -0.363 OA 
ENDBRANCH   4   5
ENDBRANCH   3   4
BRANCH   3   8
HETATM    8  C   UNL     1      -8.984   8.417  69.277  1.00  0.00    -0.150 C  
BRANCH   8   9
HETATM    9  C   UNL     1      -9.304   9.523  68.247  1.00  0.00    -0.139 C  
BRANCH   9  10
HETATM   10  C   UNL     1      -9.376  10.950  68.817  1.00  0.00    -0.190 C  
BRANCH  10  11
HETATM   11  C   UNL     1     -10.650  11.721  68.421  1.00  0.00    -0.216 C  
HETATM   12  C   UNL     1     -11.898  11.160  69.108  1.00  0.00    -0.419 C  
BRANCH  11  13
HETATM   13  N   UNL     1     -10.510  13.153  68.770  1.00  0.00    -0.376 NA 
HETATM   14  H   UNL     1     -10.427  13.457  69.740  1.00  0.00     0.000 HD 
BRANCH  13  15
HETATM   15  C   UNL     1     -10.497  14.088  67.697  1.00  0.00    -0.245 A  
HETATM   16  C   UNL     1      -9.538  15.137  67.670  1.00  0.00    -0.206 A  
HETATM   17  C   UNL     1      -8.584  15.365  68.692  1.00  0.00    -0.179 A  
HETATM   18  C   UNL     1      -7.676  16.423  68.607  1.00  0.00    -0.204 A  
HETATM   19  C   UNL     1      -7.720  17.272  67.510  1.00  0.00    -0.176 A  
HETATM   20  C   UNL     1      -8.652  17.066  66.497  1.00  0.00    -0.305 A  
HETATM   21 CL   UNL     1      -6.615  18.587  67.394  1.00  0.00    -0.196 Cl 
HETATM   22  C   UNL     1      -9.547  16.014  66.555  1.00  0.00    -0.261 A  
HETATM   23  N   UNL     1     -10.388  15.874  65.522  1.00  0.00    -0.384 NA 
HETATM   24  C   UNL     1     -11.238  14.832  65.540  1.00  0.00    -0.346 A  
HETATM   25  C   UNL     1     -11.305  13.919  66.574  1.00  0.00    -0.340 A  
ENDBRANCH  13  15
ENDBRANCH  11  13
ENDBRANCH  10  11
ENDBRANCH   9  10
ENDBRANCH   8   9
ENDBRANCH   3   8
ENDBRANCH   2   3
TORSDOF 9
ENDMDL
MODEL      240
REMARK 921   NORMALIZED FREE ENERGY PREDICTED BY IDOCK:   -3.39 KCAL/MOL
REMARK 922        TOTAL FREE ENERGY PREDICTED BY IDOCK:   -6.40 KCAL/MOL
REMARK 923 INTER-LIGAND FREE ENERGY PREDICTED BY IDOCK:   -5.60 KCAL/MOL
REMARK 924 INTRA-LIGAND FREE ENERGY PREDICTED BY IDOCK:   -0.80 KCAL/MOL
REMARK 927      BINDING AFFINITY PREDICTED BY RF-SCORE:    0.00 PKD
ROOT
HETATM    1  C   UNL     1      -6.593  13.840  69.250  1.00  0.00    -0.113 C  
HETATM    2  C   UNL     1      -7.061  15.232  69.666  1.00  0.00    -0.187 C  
ENDROOT
BRANCH   2   3
HETATM    3  N   UNL     1      -8.107  15.841  68.810  1.00  0.00    -0.165 NA 
BRANCH   3   4
HETATM    4  C   UNL     1      -7.490  16.630  67.713  1.00  0.00    -0.155 C  
BRANCH   4   5
HETATM    5  C   UNL     1      -7.594  18.161  67.852  1.00  0.00    -0.233 C  
HETATM    6  H   UNL     1      -6.500  19.735  67.389  1.00  0.00     0.000 HD 
HETATM    7  O   UNL     1      -6.436  18.791  67.304  1.00  0.00    -0.190 OA 
ENDBRANCH   4   5
ENDBRANCH   3   4
BRANCH   3   8
HETATM    8  C   UNL     1      -8.978  14.772  68.263  1.00  0.00    -0.181 C  
BRANCH   8   9
HETATM    9  C   UNL     1     -10.462  15.157  68.076  1.00  0.00    -0.247 C  
BRANCH   9  10
HETATM   10  C   UNL     1     -11.421  13.979  67.832  1.00  0.00    -0.347 C  
BRANCH  10  11
HETATM   11  C   UNL     1     -11.438  12.937  68.968  1.00  0.00    -0.308 C  
HETATM   12  C   UNL     1     -12.206  13.438  70.195  1.00  0.00    -0.385 C  
BRANCH  11  13
HETATM   13  N   UNL     1     -12.053  11.676  68.496  1.00  0.00    -0.499 NA 
HETATM   14  H   UNL     1     -13.045  11.625  68.262  1.00  0.00     0.000 HD 
BRANCH  13  15
HETATM   15  C   UNL     1     -11.205  10.540  68.381  1.00  0.00    -0.279 A  
HETATM   16  C   UNL     1     -11.196   9.544  69.395  1.00  0.00    -0.066 A  
HETATM   17  C   UNL     1     -11.960   9.619  70.585  1.00  0.00    -0.304 A  
HETATM   18  C   UNL     1     -11.896   8.608  71.548  1.00  0.00    -0.366 A  
HETATM   19  C   UNL     1     -11.057   7.522  71.340  1.00  0.00    -0.238 A  
HETATM   20  C   UNL     1     -10.296   7.433  70.178  1.00  0.00    -0.219 A  
HETATM   21 CL   UNL     1     -10.957   6.273  72.521  1.00  0.00    -0.270 Cl 
HETATM   22  C   UNL     1     -10.359   8.414  69.207  1.00  0.00    -0.214 A  
HETATM   23  N   UNL     1      -9.615   8.230  68.108  1.00  0.00    -0.147 NA 
HETATM   24  C   UNL     1      -9.696   9.153  67.133  1.00  0.00    -0.182 A  
HETATM   25  C   UNL     1     -10.483  10.285  67.216  1.00  0.00    -0.307 A  
ENDBRANCH  13  15
ENDBRANCH  11  13
ENDBRANCH  10  11
ENDBRANCH   9  10
ENDBRANCH   8   9
ENDBRANCH   3   8
ENDBRANCH   2   3
TORSDOF 9
ENDMDL
MODEL      241
REMARK 921   NORMALIZED FREE ENERGY PREDICTED BY IDOCK:   -3.39 KCAL/MOL
REMARK 922        TOTAL FREE ENERGY PREDICTED BY IDOCK:   -6.40 KCAL/MOL
REMARK 923 INTER-LIGAND FREE ENERGY PREDICTED BY IDOCK:   -5.60 KCAL/MOL
REMARK 924 INTRA-LIGAND FREE ENERGY PREDICTED BY IDOCK:   -0.79 KCAL/MOL
REMARK 927      BINDING AFFINITY PREDICTED BY RF-SCORE:    0.00 PKD
ROOT
HETATM    1  C   UNL     1     -11.033   9.335  71.231  1.00  0.00    -0.421 C  
HETATM    2  C   UNL     1      -9.644   9.433  70.605  1.00  0.00    -0.268 C  
ENDROOT
BRANCH   2   3
HETATM    3  N   UNL     1      -9.541   8.983  69.197  1.00  0.00    -0.159 NA 
BRANCH   3   4
HETATM    4  C   UNL     1      -9.681   7.508  69.107  1.00  0.00    -0.166 C  
BRANCH   4   5
HETATM    5  C   UNL     1      -8.718   6.690  69.989  1.00  0.00    -0.141 C  
HETATM    6  H   UNL     1      -8.836   5.169  71.238  1.00  0.00     0.000 HD 
HETATM    7  O   UNL     1      -9.430   5.673  70.694  1.00  0.00    -0.158 OA 
ENDBRANCH   4   5
ENDBRANCH   3   4
BRANCH   3   8
HETATM    8  C   UNL     1     -10.583   9.661  68.388  1.00  0.00    -0.225 C  
BRANCH   8   9
HETATM    9  C   UNL     1     -10.081  10.342  67.095  1.00  0.00    -0.259 C  
BRANCH   9  10
HETATM   10  C   UNL     1     -10.924  11.534  66.610  1.00  0.00    -0.349 C  
BRANCH  10  11
HETATM   11  C   UNL     1     -10.596  11.993  65.176  1.00  0.00    -0.288 C  
HETATM   12  C   UNL     1     -11.839  12.014  64.282  1.00  0.00    -0.431 C  
BRANCH  11  13
HETATM   13  N   UNL     1      -9.996  13.346  65.198  1.00  0.00    -0.538 NA 
HETATM   14  H   UNL     1      -9.466  13.704  64.403  1.00  0.00     0.000 HD 
BRANCH  13  15
HETATM   15  C   UNL     1     -10.189  14.127  66.372  1.00  0.00    -0.290 A  
HETATM   16  C   UNL     1      -9.139  14.274  67.318  1.00  0.00    -0.221 A  
HETATM   17  C   UNL     1      -7.879  13.638  67.207  1.00  0.00    -0.109 A  
HETATM   18  C   UNL     1      -6.893  13.816  68.181  1.00  0.00    -0.122 A  
HETATM   19  C   UNL     1      -7.162  14.617  69.283  1.00  0.00    -0.156 A  
HETATM   20  C   UNL     1      -8.396  15.247  69.411  1.00  0.00    -0.232 A  
HETATM   21 CL   UNL     1      -5.963  14.839  70.499  1.00  0.00    -0.162 Cl 
HETATM   22  C   UNL     1      -9.377  15.097  68.449  1.00  0.00    -0.197 A  
HETATM   23  N   UNL     1     -10.523  15.764  68.640  1.00  0.00    -0.224 NA 
HETATM   24  C   UNL     1     -11.473  15.664  67.693  1.00  0.00    -0.167 A  
HETATM   25  C   UNL     1     -11.339  14.894  66.554  1.00  0.00    -0.319 A  
ENDBRANCH  13  15
ENDBRANCH  11  13
ENDBRANCH  10  11
ENDBRANCH   9  10
ENDBRANCH   8   9
ENDBRANCH   3   8
ENDBRANCH   2   3
TORSDOF 9
ENDMDL
MODEL      242
REMARK 921   NORMALIZED FREE ENERGY PREDICTED BY IDOCK:   -3.38 KCAL/MOL
REMARK 922        TOTAL FREE ENERGY PREDICTED BY IDOCK:   -6.39 KCAL/MOL
REMARK 923 INTER-LIGAND FREE ENERGY PREDICTED BY IDOCK:   -6.31 KCAL/MOL
REMARK 924 INTRA-LIGAND FREE ENERGY PREDICTED BY IDOCK:   -0.08 KCAL/MOL
REMARK 927      BINDING AFFINITY PREDICTED BY RF-SCORE:    0.00 PKD
ROOT
HETATM    1  C   UNL     1     -12.354  13.485  63.940  1.00  0.00    -0.397 C  
HETATM    2  C   UNL     1     -10.901  13.295  64.364  1.00  0.00    -0.403 C  
ENDROOT
BRANCH   2   3
HETATM    3  N   UNL     1     -10.556  13.794  65.717  1.00  0.00    -0.286 NA 
BRANCH   3   4
HETATM    4  C   UNL     1     -10.128  15.215  65.657  1.00  0.00    -0.363 C  
BRANCH   4   5
HETATM    5  C   UNL     1      -9.922  15.909  67.017  1.00  0.00    -0.247 C  
HETATM    6  H   UNL     1     -10.685  17.444  67.991  1.00  0.00     0.000 HD 
HETATM    7  O   UNL     1     -10.812  17.016  67.152  1.00  0.00    -0.224 OA 
ENDBRANCH   4   5
ENDBRANCH   3   4
BRANCH   3   8
HETATM    8  C   UNL     1     -11.727  13.634  66.612  1.00  0.00    -0.388 C  
BRANCH   8   9
HETATM    9  C   UNL     1     -11.640  12.462  67.615  1.00  0.00    -0.421 C  
BRANCH   9  10
HETATM   10  C   UNL     1     -10.982  11.181  67.073  1.00  0.00    -0.348 C  
BRANCH  10  11
HETATM   11  C   UNL     1     -11.108   9.965  68.011  1.00  0.00    -0.158 C  
HETATM   12  C   UNL     1     -10.176   8.822  67.598  1.00  0.00    -0.298 C  
BRANCH  11  13
HETATM   13  N   UNL     1     -10.798  10.360  69.404  1.00  0.00    -0.231 NA 
HETATM   14  H   UNL     1     -11.231  11.179  69.831  1.00  0.00     0.000 HD 
BRANCH  13  15
HETATM   15  C   UNL     1      -9.874   9.550  70.121  1.00  0.00    -0.244 A  
HETATM   16  C   UNL     1     -10.324   8.409  70.839  1.00  0.00    -0.234 A  
HETATM   17  C   UNL     1     -11.683   8.024  70.942  1.00  0.00    -0.265 A  
HETATM   18  C   UNL     1     -12.058   6.894  71.674  1.00  0.00    -0.394 A  
HETATM   19  C   UNL     1     -11.083   6.148  72.324  1.00  0.00    -0.277 A  
HETATM   20  C   UNL     1      -9.743   6.514  72.236  1.00  0.00    -0.159 A  
HETATM   21 CL   UNL     1     -11.529   4.761  73.239  1.00  0.00    -0.411 Cl 
HETATM   22  C   UNL     1      -9.351   7.617  71.502  1.00  0.00    -0.136 A  
HETATM   23  N   UNL     1      -8.037   7.877  71.449  1.00  0.00    -0.097 NA 
HETATM   24  C   UNL     1      -7.633   8.922  70.705  1.00  0.00    -0.099 A  
HETATM   25  C   UNL     1      -8.498   9.750  70.017  1.00  0.00    -0.229 A  
ENDBRANCH  13  15
ENDBRANCH  11  13
ENDBRANCH  10  11
ENDBRANCH   9  10
ENDBRANCH   8   9
ENDBRANCH   3   8
ENDBRANCH   2   3
TORSDOF 9
ENDMDL
MODEL      243
REMARK 921   NORMALIZED FREE ENERGY PREDICTED BY IDOCK:   -3.38 KCAL/MOL
REMARK 922        TOTAL FREE ENERGY PREDICTED BY IDOCK:   -6.39 KCAL/MOL
REMARK 923 INTER-LIGAND FREE ENERGY PREDICTED BY IDOCK:   -5.40 KCAL/MOL
REMARK 924 INTRA-LIGAND FREE ENERGY PREDICTED BY IDOCK:   -0.98 KCAL/MOL
REMARK 927      BINDING AFFINITY PREDICTED BY RF-SCORE:    0.00 PKD
ROOT
HETATM    1  C   UNL     1     -11.956  13.339  69.717  1.00  0.00    -0.391 C  
HETATM    2  C   UNL     1     -11.535  14.380  68.685  1.00  0.00    -0.287 C  
ENDROOT
BRANCH   2   3
HETATM    3  N   UNL     1     -10.430  13.981  67.782  1.00  0.00    -0.234 NA 
BRANCH   3   4
HETATM    4  C   UNL     1      -9.345  14.994  67.802  1.00  0.00    -0.186 C  
BRANCH   4   5
HETATM    5  C   UNL     1      -9.602  16.265  66.970  1.00  0.00    -0.231 C  
HETATM    6  H   UNL     1      -8.634  17.341  65.631  1.00  0.00     0.000 HD 
HETATM    7  O   UNL     1      -8.476  16.557  66.144  1.00  0.00    -0.311 OA 
ENDBRANCH   4   5
ENDBRANCH   3   4
BRANCH   3   8
HETATM    8  C   UNL     1      -9.916  12.652  68.194  1.00  0.00    -0.225 C  
BRANCH   8   9
HETATM    9  C   UNL     1      -8.908  12.000  67.222  1.00  0.00    -0.183 C  
BRANCH   9  10
HETATM   10  C   UNL     1      -8.852  10.462  67.267  1.00  0.00    -0.135 C  
BRANCH  10  11
HETATM   11  C   UNL     1      -7.676   9.900  68.088  1.00  0.00    -0.082 C  
HETATM   12  C   UNL     1      -6.567  10.936  68.287  1.00  0.00    -0.058 C  
BRANCH  11  13
HETATM   13  N   UNL     1      -8.151   9.441  69.413  1.00  0.00    -0.098 NA 
HETATM   14  H   UNL     1      -7.814   9.871  70.274  1.00  0.00     0.000 HD 
BRANCH  13  15
HETATM   15  C   UNL     1      -9.095   8.377  69.435  1.00  0.00    -0.154 A  
HETATM   16  C   UNL     1     -10.303   8.503  70.173  1.00  0.00    -0.214 A  
HETATM   17  C   UNL     1     -10.635   9.632  70.961  1.00  0.00    -0.362 A  
HETATM   18  C   UNL     1     -11.837   9.686  71.672  1.00  0.00    -0.457 A  
HETATM   19  C   UNL     1     -12.711   8.609  71.616  1.00  0.00    -0.341 A  
HETATM   20  C   UNL     1     -12.400   7.490  70.849  1.00  0.00    -0.198 A  
HETATM   21 CL   UNL     1     -14.191   8.655  72.494  1.00  0.00    -0.436 Cl 
HETATM   22  C   UNL     1     -11.224   7.425  70.125  1.00  0.00    -0.218 A  
HETATM   23  N   UNL     1     -11.022   6.322  69.392  1.00  0.00    -0.338 NA 
HETATM   24  C   UNL     1      -9.904   6.260  68.647  1.00  0.00    -0.136 A  
HETATM   25  C   UNL     1      -8.947   7.255  68.619  1.00  0.00    -0.128 A  
ENDBRANCH  13  15
ENDBRANCH  11  13
ENDBRANCH  10  11
ENDBRANCH   9  10
ENDBRANCH   8   9
ENDBRANCH   3   8
ENDBRANCH   2   3
TORSDOF 9
ENDMDL
MODEL      244
REMARK 921   NORMALIZED FREE ENERGY PREDICTED BY IDOCK:   -3.38 KCAL/MOL
REMARK 922        TOTAL FREE ENERGY PREDICTED BY IDOCK:   -6.39 KCAL/MOL
REMARK 923 INTER-LIGAND FREE ENERGY PREDICTED BY IDOCK:   -5.92 KCAL/MOL
REMARK 924 INTRA-LIGAND FREE ENERGY PREDICTED BY IDOCK:   -0.47 KCAL/MOL
REMARK 927      BINDING AFFINITY PREDICTED BY RF-SCORE:    0.00 PKD
ROOT
HETATM    1  C   UNL     1      -7.607   8.762  66.999  1.00  0.00    -0.088 C  
HETATM    2  C   UNL     1      -7.573   7.378  67.641  1.00  0.00    -0.106 C  
ENDROOT
BRANCH   2   3
HETATM    3  N   UNL     1      -8.766   7.011  68.441  1.00  0.00    -0.125 NA 
BRANCH   3   4
HETATM    4  C   UNL     1      -8.625   5.639  68.990  1.00  0.00    -0.105 C  
BRANCH   4   5
HETATM    5  C   UNL     1      -8.819   4.491  67.981  1.00  0.00    -0.107 C  
HETATM    6  H   UNL     1      -7.741   3.017  67.239  1.00  0.00     0.000 HD 
HETATM    7  O   UNL     1      -7.621   3.725  67.860  1.00  0.00    -0.066 OA 
ENDBRANCH   4   5
ENDBRANCH   3   4
BRANCH   3   8
HETATM    8  C   UNL     1      -8.948   7.999  69.532  1.00  0.00    -0.148 C  
BRANCH   8   9
HETATM    9  C   UNL     1     -10.384   8.541  69.703  1.00  0.00    -0.218 C  
BRANCH   9  10
HETATM   10  C   UNL     1     -10.709   9.809  68.893  1.00  0.00    -0.241 C  
BRANCH  10  11
HETATM   11  C   UNL     1     -11.659  10.787  69.611  1.00  0.00    -0.316 C  
HETATM   12  C   UNL     1     -11.913  10.378  71.064  1.00  0.00    -0.481 C  
BRANCH  11  13
HETATM   13  N   UNL     1     -11.097  12.156  69.587  1.00  0.00    -0.474 NA 
HETATM   14  H   UNL     1     -10.544  12.516  70.365  1.00  0.00     0.000 HD 
BRANCH  13  15
HETATM   15  C   UNL     1     -11.358  12.949  68.434  1.00  0.00    -0.294 A  
HETATM   16  C   UNL     1     -11.034  14.332  68.424  1.00  0.00    -0.267 A  
HETATM   17  C   UNL     1     -10.494  15.026  69.534  1.00  0.00    -0.245 A  
HETATM   18  C   UNL     1     -10.208  16.392  69.461  1.00  0.00    -0.244 A  
HETATM   19  C   UNL     1     -10.474  17.081  68.285  1.00  0.00    -0.363 A  
HETATM   20  C   UNL     1     -11.008  16.416  67.185  1.00  0.00    -0.082 A  
HETATM   21 CL   UNL     1     -10.138  18.767  68.180  1.00  0.00    -0.402 Cl 
HETATM   22  C   UNL     1     -11.280  15.062  67.233  1.00  0.00    -0.338 A  
HETATM   23  N   UNL     1     -11.765  14.500  66.118  1.00  0.00    -0.367 NA 
HETATM   24  C   UNL     1     -11.996  13.175  66.133  1.00  0.00    -0.422 A  
HETATM   25  C   UNL     1     -11.785  12.374  67.238  1.00  0.00    -0.419 A  
ENDBRANCH  13  15
ENDBRANCH  11  13
ENDBRANCH  10  11
ENDBRANCH   9  10
ENDBRANCH   8   9
ENDBRANCH   3   8
ENDBRANCH   2   3
TORSDOF 9
ENDMDL
MODEL      245
REMARK 921   NORMALIZED FREE ENERGY PREDICTED BY IDOCK:   -3.36 KCAL/MOL
REMARK 922        TOTAL FREE ENERGY PREDICTED BY IDOCK:   -6.36 KCAL/MOL
REMARK 923 INTER-LIGAND FREE ENERGY PREDICTED BY IDOCK:   -5.58 KCAL/MOL
REMARK 924 INTRA-LIGAND FREE ENERGY PREDICTED BY IDOCK:   -0.78 KCAL/MOL
REMARK 927      BINDING AFFINITY PREDICTED BY RF-SCORE:    0.00 PKD
ROOT
HETATM    1  C   UNL     1     -12.144  13.819  67.378  1.00  0.00    -0.378 C  
HETATM    2  C   UNL     1     -12.539  13.805  65.904  1.00  0.00    -0.447 C  
ENDROOT
BRANCH   2   3
HETATM    3  N   UNL     1     -11.421  13.931  64.939  1.00  0.00    -0.336 NA 
BRANCH   3   4
HETATM    4  C   UNL     1     -10.932  15.331  64.883  1.00  0.00    -0.430 C  
BRANCH   4   5
HETATM    5  C   UNL     1      -9.601  15.604  65.608  1.00  0.00    -0.284 C  
HETATM    6  H   UNL     1      -8.900  16.907  66.911  1.00  0.00     0.000 HD 
HETATM    7  O   UNL     1      -9.721  16.739  66.464  1.00  0.00    -0.255 OA 
ENDBRANCH   4   5
ENDBRANCH   3   4
BRANCH   3   8
HETATM    8  C   UNL     1     -10.329  13.007  65.330  1.00  0.00    -0.304 C  
BRANCH   8   9
HETATM    9  C   UNL     1     -10.369  11.613  64.666  1.00  0.00    -0.341 C  
BRANCH   9  10
HETATM   10  C   UNL     1     -10.160  10.424  65.620  1.00  0.00    -0.337 C  
BRANCH  10  11
HETATM   11  C   UNL     1      -9.356   9.261  65.008  1.00  0.00    -0.127 C  
HETATM   12  C   UNL     1      -8.362   9.745  63.948  1.00  0.00    -0.173 C  
BRANCH  11  13
HETATM   13  N   UNL     1      -8.616   8.538  66.067  1.00  0.00    -0.135 NA 
HETATM   14  H   UNL     1      -8.285   7.584  65.925  1.00  0.00     0.000 HD 
BRANCH  13  15
HETATM   15  C   UNL     1      -8.388   9.228  67.291  1.00  0.00    -0.125 A  
HETATM   16  C   UNL     1      -9.055   8.824  68.479  1.00  0.00    -0.138 A  
HETATM   17  C   UNL     1     -10.006   7.777  68.536  1.00  0.00    -0.193 A  
HETATM   18  C   UNL     1     -10.634   7.438  69.737  1.00  0.00    -0.245 A  
HETATM   19  C   UNL     1     -10.331   8.152  70.889  1.00  0.00    -0.190 A  
HETATM   20  C   UNL     1      -9.401   9.187  70.852  1.00  0.00    -0.335 A  
HETATM   21 CL   UNL     1     -11.103   7.755  72.376  1.00  0.00    -0.347 Cl 
HETATM   22  C   UNL     1      -8.757   9.525  69.676  1.00  0.00    -0.182 A  
HETATM   23  N   UNL     1      -7.855  10.514  69.740  1.00  0.00    -0.101 NA 
HETATM   24  C   UNL     1      -7.188  10.828  68.615  1.00  0.00    -0.089 A  
HETATM   25  C   UNL     1      -7.399  10.205  67.401  1.00  0.00    -0.089 A  
ENDBRANCH  13  15
ENDBRANCH  11  13
ENDBRANCH  10  11
ENDBRANCH   9  10
ENDBRANCH   8   9
ENDBRANCH   3   8
ENDBRANCH   2   3
TORSDOF 9
ENDMDL
MODEL      246
REMARK 921   NORMALIZED FREE ENERGY PREDICTED BY IDOCK:   -3.36 KCAL/MOL
REMARK 922        TOTAL FREE ENERGY PREDICTED BY IDOCK:   -6.35 KCAL/MOL
REMARK 923 INTER-LIGAND FREE ENERGY PREDICTED BY IDOCK:   -5.07 KCAL/MOL
REMARK 924 INTRA-LIGAND FREE ENERGY PREDICTED BY IDOCK:   -1.28 KCAL/MOL
REMARK 927      BINDING AFFINITY PREDICTED BY RF-SCORE:    0.00 PKD
ROOT
HETATM    1  C   UNL     1     -10.796   6.097  67.151  1.00  0.00    -0.442 C  
HETATM    2  C   UNL     1      -9.888   4.924  67.509  1.00  0.00    -0.167 C  
ENDROOT
BRANCH   2   3
HETATM    3  N   UNL     1      -9.216   5.010  68.827  1.00  0.00    -0.116 NA 
BRANCH   3   4
HETATM    4  C   UNL     1      -8.481   6.293  68.957  1.00  0.00    -0.120 C  
BRANCH   4   5
HETATM    5  C   UNL     1      -6.953   6.175  69.120  1.00  0.00    -0.068 C  
HETATM    6  H   UNL     1      -5.586   4.762  68.978  1.00  0.00     0.000 HD 
HETATM    7  O   UNL     1      -6.527   4.834  68.878  1.00  0.00    -0.034 OA 
ENDBRANCH   4   5
ENDBRANCH   3   4
BRANCH   3   8
HETATM    8  C   UNL     1     -10.227   4.871  69.903  1.00  0.00    -0.229 C  
BRANCH   8   9
HETATM    9  C   UNL     1     -10.314   6.058  70.888  1.00  0.00    -0.277 C  
BRANCH   9  10
HETATM   10  C   UNL     1     -11.609   6.885  70.809  1.00  0.00    -0.397 C  
BRANCH  10  11
HETATM   11  C   UNL     1     -11.379   8.408  70.751  1.00  0.00    -0.265 C  
HETATM   12  C   UNL     1     -10.221   8.849  71.650  1.00  0.00    -0.415 C  
BRANCH  11  13
HETATM   13  N   UNL     1     -11.096   8.829  69.360  1.00  0.00    -0.436 NA 
HETATM   14  H   UNL     1     -11.035   8.150  68.602  1.00  0.00     0.000 HD 
BRANCH  13  15
HETATM   15  C   UNL     1     -10.913  10.221  69.124  1.00  0.00    -0.238 A  
HETATM   16  C   UNL     1      -9.684  10.705  68.599  1.00  0.00    -0.178 A  
HETATM   17  C   UNL     1      -8.562   9.885  68.325  1.00  0.00    -0.115 A  
HETATM   18  C   UNL     1      -7.379  10.429  67.819  1.00  0.00    -0.087 A  
HETATM   19  C   UNL     1      -7.298  11.797  67.597  1.00  0.00    -0.119 A  
HETATM   20  C   UNL     1      -8.389  12.619  67.863  1.00  0.00    -0.172 A  
HETATM   21 CL   UNL     1      -5.844  12.485  66.984  1.00  0.00    -0.017 Cl 
HETATM   22  C   UNL     1      -9.574  12.097  68.348  1.00  0.00    -0.186 A  
HETATM   23  N   UNL     1     -10.581  12.958  68.547  1.00  0.00    -0.251 NA 
HETATM   24  C   UNL     1     -11.755  12.462  68.978  1.00  0.00    -0.323 A  
HETATM   25  C   UNL     1     -11.967  11.125  69.247  1.00  0.00    -0.421 A  
ENDBRANCH  13  15
ENDBRANCH  11  13
ENDBRANCH  10  11
ENDBRANCH   9  10
ENDBRANCH   8   9
ENDBRANCH   3   8
ENDBRANCH   2   3
TORSDOF 9
ENDMDL
MODEL      247
REMARK 921   NORMALIZED FREE ENERGY PREDICTED BY IDOCK:   -3.36 KCAL/MOL
REMARK 922        TOTAL FREE ENERGY PREDICTED BY IDOCK:   -6.35 KCAL/MOL
REMARK 923 INTER-LIGAND FREE ENERGY PREDICTED BY IDOCK:   -5.91 KCAL/MOL
REMARK 924 INTRA-LIGAND FREE ENERGY PREDICTED BY IDOCK:   -0.44 KCAL/MOL
REMARK 927      BINDING AFFINITY PREDICTED BY RF-SCORE:    0.00 PKD
ROOT
HETATM    1  C   UNL     1     -11.642  15.650  70.856  1.00  0.00    -0.424 C  
HETATM    2  C   UNL     1     -11.508  14.787  69.605  1.00  0.00    -0.292 C  
ENDROOT
BRANCH   2   3
HETATM    3  N   UNL     1     -11.552  15.514  68.314  1.00  0.00    -0.359 NA 
BRANCH   3   4
HETATM    4  C   UNL     1     -10.179  15.833  67.847  1.00  0.00    -0.242 C  
BRANCH   4   5
HETATM    5  C   UNL     1      -9.893  17.323  67.582  1.00  0.00    -0.279 C  
HETATM    6  H   UNL     1     -10.168  19.040  68.512  1.00  0.00     0.000 HD 
HETATM    7  O   UNL     1     -10.346  18.121  68.675  1.00  0.00    -0.369 OA 
ENDBRANCH   4   5
ENDBRANCH   3   4
BRANCH   3   8
HETATM    8  C   UNL     1     -12.271  14.691  67.311  1.00  0.00    -0.053 C  
BRANCH   8   9
HETATM    9  C   UNL     1     -11.400  14.127  66.168  1.00  0.00    -0.337 C  
BRANCH   9  10
HETATM   10  C   UNL     1     -12.074  13.051  65.298  1.00  0.00    -0.484 C  
BRANCH  10  11
HETATM   11  C   UNL     1     -11.176  11.835  64.995  1.00  0.00    -0.257 C  
HETATM   12  C   UNL     1     -10.459  11.971  63.649  1.00  0.00    -0.494 C  
BRANCH  11  13
HETATM   13  N   UNL     1     -10.166  11.667  66.064  1.00  0.00    -0.224 NA 
HETATM   14  H   UNL     1      -9.918  12.437  66.685  1.00  0.00     0.000 HD 
BRANCH  13  15
HETATM   15  C   UNL     1      -9.556  10.387  66.190  1.00  0.00    -0.196 A  
HETATM   16  C   UNL     1      -9.829   9.568  67.318  1.00  0.00    -0.228 A  
HETATM   17  C   UNL     1     -10.658   9.959  68.398  1.00  0.00    -0.258 A  
HETATM   18  C   UNL     1     -10.877   9.108  69.484  1.00  0.00    -0.194 A  
HETATM   19  C   UNL     1     -10.258   7.865  69.510  1.00  0.00    -0.208 A  
HETATM   20  C   UNL     1      -9.437   7.465  68.460  1.00  0.00    -0.144 A  
HETATM   21 CL   UNL     1     -10.507   6.807  70.846  1.00  0.00    -0.233 Cl 
HETATM   22  C   UNL     1      -9.223   8.286  67.369  1.00  0.00    -0.141 A  
HETATM   23  N   UNL     1      -8.443   7.807  66.391  1.00  0.00    -0.129 NA 
HETATM   24  C   UNL     1      -8.258   8.575  65.302  1.00  0.00    -0.149 A  
HETATM   25  C   UNL     1      -8.806   9.834  65.152  1.00  0.00    -0.213 A  
ENDBRANCH  13  15
ENDBRANCH  11  13
ENDBRANCH  10  11
ENDBRANCH   9  10
ENDBRANCH   8   9
ENDBRANCH   3   8
ENDBRANCH   2   3
TORSDOF 9
ENDMDL
MODEL      248
REMARK 921   NORMALIZED FREE ENERGY PREDICTED BY IDOCK:   -3.35 KCAL/MOL
REMARK 922        TOTAL FREE ENERGY PREDICTED BY IDOCK:   -6.35 KCAL/MOL
REMARK 923 INTER-LIGAND FREE ENERGY PREDICTED BY IDOCK:   -5.39 KCAL/MOL
REMARK 924 INTRA-LIGAND FREE ENERGY PREDICTED BY IDOCK:   -0.95 KCAL/MOL
REMARK 927      BINDING AFFINITY PREDICTED BY RF-SCORE:    0.00 PKD
ROOT
HETATM    1  C   UNL     1     -12.032  14.677  67.038  1.00  0.00    -0.301 C  
HETATM    2  C   UNL     1     -11.296  13.935  68.150  1.00  0.00    -0.295 C  
ENDROOT
BRANCH   2   3
HETATM    3  N   UNL     1     -11.128  12.476  67.948  1.00  0.00    -0.231 NA 
BRANCH   3   4
HETATM    4  C   UNL     1     -12.149  11.720  68.716  1.00  0.00    -0.144 C  
BRANCH   4   5
HETATM    5  C   UNL     1     -11.795  11.422  70.185  1.00  0.00    -0.355 C  
HETATM    6  H   UNL     1     -12.547  10.366  71.671  1.00  0.00     0.000 HD 
HETATM    7  O   UNL     1     -12.766  10.550  70.765  1.00  0.00    -0.344 OA 
ENDBRANCH   4   5
ENDBRANCH   3   4
BRANCH   3   8
HETATM    8  C   UNL     1     -11.224  12.168  66.500  1.00  0.00    -0.328 C  
BRANCH   8   9
HETATM    9  C   UNL     1      -9.951  11.567  65.864  1.00  0.00    -0.267 C  
BRANCH   9  10
HETATM   10  C   UNL     1     -10.083  10.114  65.376  1.00  0.00    -0.342 C  
BRANCH  10  11
HETATM   11  C   UNL     1      -8.774   9.304  65.454  1.00  0.00    -0.178 C  
HETATM   12  C   UNL     1      -7.559  10.133  65.030  1.00  0.00    -0.141 C  
BRANCH  11  13
HETATM   13  N   UNL     1      -8.561   8.808  66.832  1.00  0.00    -0.114 NA 
HETATM   14  H   UNL     1      -8.096   9.381  67.536  1.00  0.00     0.000 HD 
BRANCH  13  15
HETATM   15  C   UNL     1      -9.033   7.499  67.135  1.00  0.00    -0.126 A  
HETATM   16  C   UNL     1      -9.775   7.259  68.323  1.00  0.00    -0.152 A  
HETATM   17  C   UNL     1     -10.054   8.250  69.296  1.00  0.00    -0.199 A  
HETATM   18  C   UNL     1     -10.781   7.944  70.449  1.00  0.00    -0.233 A  
HETATM   19  C   UNL     1     -11.223   6.643  70.650  1.00  0.00    -0.317 A  
HETATM   20  C   UNL     1     -10.955   5.655  69.707  1.00  0.00    -0.301 A  
HETATM   21 CL   UNL     1     -12.111   6.246  72.070  1.00  0.00    -0.374 Cl 
HETATM   22  C   UNL     1     -10.252   5.943  68.552  1.00  0.00    -0.192 A  
HETATM   23  N   UNL     1     -10.067   4.938  67.686  1.00  0.00    -0.145 NA 
HETATM   24  C   UNL     1      -9.423   5.209  66.537  1.00  0.00    -0.148 A  
HETATM   25  C   UNL     1      -8.923   6.456  66.217  1.00  0.00    -0.166 A  
ENDBRANCH  13  15
ENDBRANCH  11  13
ENDBRANCH  10  11
ENDBRANCH   9  10
ENDBRANCH   8   9
ENDBRANCH   3   8
ENDBRANCH   2   3
TORSDOF 9
ENDMDL
MODEL      249
REMARK 921   NORMALIZED FREE ENERGY PREDICTED BY IDOCK:   -3.34 KCAL/MOL
REMARK 922        TOTAL FREE ENERGY PREDICTED BY IDOCK:   -6.32 KCAL/MOL
REMARK 923 INTER-LIGAND FREE ENERGY PREDICTED BY IDOCK:   -5.44 KCAL/MOL
REMARK 924 INTRA-LIGAND FREE ENERGY PREDICTED BY IDOCK:   -0.88 KCAL/MOL
REMARK 927      BINDING AFFINITY PREDICTED BY RF-SCORE:    0.00 PKD
ROOT
HETATM    1  C   UNL     1      -6.826   9.978  67.760  1.00  0.00    -0.076 C  
HETATM    2  C   UNL     1      -7.728   8.856  67.255  1.00  0.00    -0.092 C  
ENDROOT
BRANCH   2   3
HETATM    3  N   UNL     1      -8.308   9.057  65.905  1.00  0.00    -0.119 NA 
BRANCH   3   4
HETATM    4  C   UNL     1      -7.856   7.989  64.978  1.00  0.00    -0.123 C  
BRANCH   4   5
HETATM    5  C   UNL     1      -7.436   6.663  65.639  1.00  0.00    -0.082 C  
HETATM    6  H   UNL     1      -5.929   5.397  65.519  1.00  0.00     0.000 HD 
HETATM    7  O   UNL     1      -6.188   6.215  65.111  1.00  0.00    -0.032 OA 
ENDBRANCH   4   5
ENDBRANCH   3   4
BRANCH   3   8
HETATM    8  C   UNL     1      -9.788   9.075  66.005  1.00  0.00    -0.242 C  
BRANCH   8   9
HETATM    9  C   UNL     1     -10.415  10.455  66.304  1.00  0.00    -0.229 C  
BRANCH   9  10
HETATM   10  C   UNL     1      -9.579  11.667  65.858  1.00  0.00    -0.250 C  
BRANCH  10  11
HETATM   11  C   UNL     1      -9.885  12.961  66.637  1.00  0.00    -0.250 C  
HETATM   12  C   UNL     1      -9.811  12.751  68.152  1.00  0.00    -0.226 C  
BRANCH  11  13
HETATM   13  N   UNL     1      -8.932  14.027  66.252  1.00  0.00    -0.484 NA 
HETATM   14  H   UNL     1      -7.934  13.836  66.155  1.00  0.00     0.000 HD 
BRANCH  13  15
HETATM   15  C   UNL     1      -9.464  15.327  66.023  1.00  0.00    -0.337 A  
HETATM   16  C   UNL     1      -8.817  16.473  66.558  1.00  0.00    -0.317 A  
HETATM   17  C   UNL     1      -7.663  16.421  67.377  1.00  0.00    -0.180 A  
HETATM   18  C   UNL     1      -7.083  17.588  67.881  1.00  0.00    -0.186 A  
HETATM   19  C   UNL     1      -7.658  18.817  67.584  1.00  0.00    -0.230 A  
HETATM   20  C   UNL     1      -8.794  18.888  66.783  1.00  0.00    -0.315 A  
HETATM   21 CL   UNL     1      -6.962  20.264  68.205  1.00  0.00    -0.320 Cl 
HETATM   22  C   UNL     1      -9.372  17.745  66.262  1.00  0.00    -0.201 A  
HETATM   23  N   UNL     1     -10.445  17.910  65.477  1.00  0.00    -0.631 NA 
HETATM   24  C   UNL     1     -10.995  16.813  64.927  1.00  0.00    -0.087 A  
HETATM   25  C   UNL     1     -10.529  15.532  65.147  1.00  0.00    -0.431 A  
ENDBRANCH  13  15
ENDBRANCH  11  13
ENDBRANCH  10  11
ENDBRANCH   9  10
ENDBRANCH   8   9
ENDBRANCH   3   8
ENDBRANCH   2   3
TORSDOF 9
ENDMDL
MODEL      250
REMARK 921   NORMALIZED FREE ENERGY PREDICTED BY IDOCK:   -3.33 KCAL/MOL
REMARK 922        TOTAL FREE ENERGY PREDICTED BY IDOCK:   -6.30 KCAL/MOL
REMARK 923 INTER-LIGAND FREE ENERGY PREDICTED BY IDOCK:   -5.56 KCAL/MOL
REMARK 924 INTRA-LIGAND FREE ENERGY PREDICTED BY IDOCK:   -0.74 KCAL/MOL
REMARK 927      BINDING AFFINITY PREDICTED BY RF-SCORE:    0.00 PKD
ROOT
HETATM    1  C   UNL     1     -12.130  15.465  69.089  1.00  0.00    -0.270 C  
HETATM    2  C   UNL     1     -11.334  14.826  67.955  1.00  0.00    -0.316 C  
ENDROOT
BRANCH   2   3
HETATM    3  N   UNL     1     -12.033  13.757  67.202  1.00  0.00    -0.403 NA 
BRANCH   3   4
HETATM    4  C   UNL     1     -12.732  14.322  66.020  1.00  0.00    -0.211 C  
BRANCH   4   5
HETATM    5  C   UNL     1     -12.517  13.569  64.693  1.00  0.00    -0.323 C  
HETATM    6  H   UNL     1     -11.924  14.000  62.863  1.00  0.00     0.000 HD 
HETATM    7  O   UNL     1     -12.057  14.464  63.681  1.00  0.00    -0.415 OA 
ENDBRANCH   4   5
ENDBRANCH   3   4
BRANCH   3   8
HETATM    8  C   UNL     1     -11.051  12.726  66.789  1.00  0.00    -0.277 C  
BRANCH   8   9
HETATM    9  C   UNL     1      -9.597  12.973  67.248  1.00  0.00    -0.225 C  
BRANCH   9  10
HETATM   10  C   UNL     1      -8.747  11.706  67.450  1.00  0.00    -0.155 C  
BRANCH  10  11
HETATM   11  C   UNL     1      -9.563  10.457  67.839  1.00  0.00    -0.142 C  
HETATM   12  C   UNL     1      -9.772   9.515  66.650  1.00  0.00    -0.270 C  
BRANCH  11  13
HETATM   13  N   UNL     1      -8.880   9.719  68.925  1.00  0.00    -0.134 NA 
HETATM   14  H   UNL     1      -7.869   9.776  69.050  1.00  0.00     0.000 HD 
BRANCH  13  15
HETATM   15  C   UNL     1      -9.690   8.927  69.786  1.00  0.00    -0.175 A  
HETATM   16  C   UNL     1      -9.584   7.510  69.771  1.00  0.00    -0.163 A  
HETATM   17  C   UNL     1      -8.734   6.789  68.897  1.00  0.00    -0.129 A  
HETATM   18  C   UNL     1      -8.686   5.393  68.927  1.00  0.00    -0.099 A  
HETATM   19  C   UNL     1      -9.496   4.702  69.819  1.00  0.00    -0.168 A  
HETATM   20  C   UNL     1     -10.340   5.394  70.683  1.00  0.00    -0.333 A  
HETATM   21 CL   UNL     1      -9.458   2.982  69.862  1.00  0.00    -0.219 Cl 
HETATM   22  C   UNL     1     -10.389   6.775  70.680  1.00  0.00    -0.201 A  
HETATM   23  N   UNL     1     -11.207   7.357  71.566  1.00  0.00    -0.240 NA 
HETATM   24  C   UNL     1     -11.236   8.701  71.606  1.00  0.00    -0.309 A  
HETATM   25  C   UNL     1     -10.489   9.507  70.770  1.00  0.00    -0.384 A  
ENDBRANCH  13  15
ENDBRANCH  11  13
ENDBRANCH  10  11
ENDBRANCH   9  10
ENDBRANCH   8   9
ENDBRANCH   3   8
ENDBRANCH   2   3
TORSDOF 9
ENDMDL
MODEL      251
REMARK 921   NORMALIZED FREE ENERGY PREDICTED BY IDOCK:   -3.32 KCAL/MOL
REMARK 922        TOTAL FREE ENERGY PREDICTED BY IDOCK:   -6.29 KCAL/MOL
REMARK 923 INTER-LIGAND FREE ENERGY PREDICTED BY IDOCK:   -5.77 KCAL/MOL
REMARK 924 INTRA-LIGAND FREE ENERGY PREDICTED BY IDOCK:   -0.53 KCAL/MOL
REMARK 927      BINDING AFFINITY PREDICTED BY RF-SCORE:    0.00 PKD
ROOT
HETATM    1  C   UNL     1      -9.765  15.741  69.580  1.00  0.00    -0.248 C  
HETATM    2  C   UNL     1     -11.014  15.913  70.440  1.00  0.00    -0.350 C  
ENDROOT
BRANCH   2   3
HETATM    3  N   UNL     1     -11.626  14.661  70.944  1.00  0.00    -0.262 NA 
BRANCH   3   4
HETATM    4  C   UNL     1     -13.105  14.721  70.836  1.00  0.00    -0.363 C  
BRANCH   4   5
HETATM    5  C   UNL     1     -13.882  14.448  72.138  1.00  0.00    -0.477 C  
HETATM    6  H   UNL     1     -13.492  14.371  74.069  1.00  0.00     0.000 HD 
HETATM    7  O   UNL     1     -13.013  14.539  73.267  1.00  0.00    -0.524 OA 
ENDBRANCH   4   5
ENDBRANCH   3   4
BRANCH   3   8
HETATM    8  C   UNL     1     -11.088  13.510  70.178  1.00  0.00     0.412 C  
BRANCH   8   9
HETATM    9  C   UNL     1     -12.007  12.971  69.060  1.00  0.00    -0.312 C  
BRANCH   9  10
HETATM   10  C   UNL     1     -12.181  11.442  69.032  1.00  0.00    -0.200 C  
BRANCH  10  11
HETATM   11  C   UNL     1     -11.963  10.760  70.396  1.00  0.00    -0.357 C  
HETATM   12  C   UNL     1     -13.062  11.120  71.400  1.00  0.00    -0.422 C  
BRANCH  11  13
HETATM   13  N   UNL     1     -11.925   9.289  70.232  1.00  0.00    -0.467 NA 
HETATM   14  H   UNL     1     -12.580   8.807  69.616  1.00  0.00     0.000 HD 
BRANCH  13  15
HETATM   15  C   UNL     1     -10.938   8.576  70.968  1.00  0.00    -0.249 A  
HETATM   16  C   UNL     1     -10.548   7.268  70.569  1.00  0.00    -0.237 A  
HETATM   17  C   UNL     1     -11.123   6.569  69.480  1.00  0.00    -0.425 A  
HETATM   18  C   UNL     1     -10.701   5.279  69.148  1.00  0.00    -0.054 A  
HETATM   19  C   UNL     1      -9.713   4.669  69.909  1.00  0.00    -0.209 A  
HETATM   20  C   UNL     1      -9.139   5.340  70.985  1.00  0.00    -0.171 A  
HETATM   21 CL   UNL     1      -9.188   3.076  69.520  1.00  0.00    -0.204 Cl 
HETATM   22  C   UNL     1      -9.531   6.623  71.318  1.00  0.00    -0.162 A  
HETATM   23  N   UNL     1      -8.903   7.202  72.350  1.00  0.00    -0.127 NA 
HETATM   24  C   UNL     1      -9.242   8.466  72.661  1.00  0.00    -0.254 A  
HETATM   25  C   UNL     1     -10.214   9.184  71.993  1.00  0.00    -0.105 A  
ENDBRANCH  13  15
ENDBRANCH  11  13
ENDBRANCH  10  11
ENDBRANCH   9  10
ENDBRANCH   8   9
ENDBRANCH   3   8
ENDBRANCH   2   3
TORSDOF 9
ENDMDL
MODEL      252
REMARK 921   NORMALIZED FREE ENERGY PREDICTED BY IDOCK:   -3.32 KCAL/MOL
REMARK 922        TOTAL FREE ENERGY PREDICTED BY IDOCK:   -6.29 KCAL/MOL
REMARK 923 INTER-LIGAND FREE ENERGY PREDICTED BY IDOCK:   -5.48 KCAL/MOL
REMARK 924 INTRA-LIGAND FREE ENERGY PREDICTED BY IDOCK:   -0.81 KCAL/MOL
REMARK 927      BINDING AFFINITY PREDICTED BY RF-SCORE:    0.00 PKD
ROOT
HETATM    1  C   UNL     1      -6.263  10.925  67.839  1.00  0.00    -0.054 C  
HETATM    2  C   UNL     1      -7.574  11.518  68.349  1.00  0.00    -0.125 C  
ENDROOT
BRANCH   2   3
HETATM    3  N   UNL     1      -8.704  10.567  68.474  1.00  0.00    -0.133 NA 
BRANCH   3   4
HETATM    4  C   UNL     1      -9.991  11.297  68.594  1.00  0.00    -0.204 C  
BRANCH   4   5
HETATM    5  C   UNL     1     -10.692  11.640  67.266  1.00  0.00    -0.238 C  
HETATM    6  H   UNL     1     -12.369  12.505  66.694  1.00  0.00     0.000 HD 
HETATM    7  O   UNL     1     -11.937  12.292  67.513  1.00  0.00    -0.513 OA 
ENDBRANCH   4   5
ENDBRANCH   3   4
BRANCH   3   8
HETATM    8  C   UNL     1      -8.718   9.665  67.296  1.00  0.00    -0.132 C  
BRANCH   8   9
HETATM    9  C   UNL     1      -8.527   8.164  67.608  1.00  0.00    -0.131 C  
BRANCH   9  10
HETATM   10  C   UNL     1      -9.440   7.600  68.710  1.00  0.00    -0.152 C  
BRANCH  10  11
HETATM   11  C   UNL     1     -10.867   7.264  68.234  1.00  0.00    -0.058 C  
HETATM   12  C   UNL     1     -10.867   6.569  66.869  1.00  0.00    -0.427 C  
BRANCH  11  13
HETATM   13  N   UNL     1     -11.542   6.390  69.220  1.00  0.00    -0.607 NA 
HETATM   14  H   UNL     1     -12.078   5.573  68.925  1.00  0.00     0.000 HD 
BRANCH  13  15
HETATM   15  C   UNL     1     -11.413   6.735  70.594  1.00  0.00    -0.351 A  
HETATM   16  C   UNL     1     -10.622   5.938  71.465  1.00  0.00    -0.300 A  
HETATM   17  C   UNL     1      -9.963   4.748  71.069  1.00  0.00    -0.279 A  
HETATM   18  C   UNL     1      -9.210   4.004  71.980  1.00  0.00    -0.174 A  
HETATM   19  C   UNL     1      -9.119   4.430  73.298  1.00  0.00    -0.114 A  
HETATM   20  C   UNL     1      -9.762   5.595  73.706  1.00  0.00    -0.157 A  
HETATM   21 CL   UNL     1      -8.204   3.520  74.437  1.00  0.00    -0.080 Cl 
HETATM   22  C   UNL     1     -10.498   6.354  72.815  1.00  0.00    -0.214 A  
HETATM   23  N   UNL     1     -11.058   7.475  73.289  1.00  0.00    -0.335 NA 
HETATM   24  C   UNL     1     -11.742   8.248  72.427  1.00  0.00    -0.397 A  
HETATM   25  C   UNL     1     -11.917   7.936  71.093  1.00  0.00    -0.304 A  
ENDBRANCH  13  15
ENDBRANCH  11  13
ENDBRANCH  10  11
ENDBRANCH   9  10
ENDBRANCH   8   9
ENDBRANCH   3   8
ENDBRANCH   2   3
TORSDOF 9
ENDMDL
MODEL      253
REMARK 921   NORMALIZED FREE ENERGY PREDICTED BY IDOCK:   -3.31 KCAL/MOL
REMARK 922        TOTAL FREE ENERGY PREDICTED BY IDOCK:   -6.29 KCAL/MOL
REMARK 923 INTER-LIGAND FREE ENERGY PREDICTED BY IDOCK:   -5.45 KCAL/MOL
REMARK 924 INTRA-LIGAND FREE ENERGY PREDICTED BY IDOCK:   -0.84 KCAL/MOL
REMARK 927      BINDING AFFINITY PREDICTED BY RF-SCORE:    0.00 PKD
ROOT
HETATM    1  C   UNL     1      -8.922  11.129  64.363  1.00  0.00     0.021 C  
HETATM    2  C   UNL     1     -10.042  10.544  65.219  1.00  0.00    -0.300 C  
ENDROOT
BRANCH   2   3
HETATM    3  N   UNL     1      -9.661   9.398  66.079  1.00  0.00    -0.258 NA 
BRANCH   3   4
HETATM    4  C   UNL     1      -8.188   9.213  66.083  1.00  0.00    -0.111 C  
BRANCH   4   5
HETATM    5  C   UNL     1      -7.533   9.090  67.471  1.00  0.00    -0.081 C  
HETATM    6  H   UNL     1      -6.313  10.154  68.598  1.00  0.00     0.000 HD 
HETATM    7  O   UNL     1      -6.717  10.229  67.741  1.00  0.00    -0.072 OA 
ENDBRANCH   4   5
ENDBRANCH   3   4
BRANCH   3   8
HETATM    8  C   UNL     1     -10.166   9.628  67.454  1.00  0.00    -0.227 C  
BRANCH   8   9
HETATM    9  C   UNL     1     -11.289  10.680  67.581  1.00  0.00    -0.284 C  
BRANCH   9  10
HETATM   10  C   UNL     1     -11.036  11.790  68.616  1.00  0.00    -0.289 C  
BRANCH  10  11
HETATM   11  C   UNL     1     -11.585  13.170  68.205  1.00  0.00    -0.339 C  
HETATM   12  C   UNL     1     -11.337  14.231  69.280  1.00  0.00    -0.322 C  
BRANCH  11  13
HETATM   13  N   UNL     1     -10.959  13.612  66.938  1.00  0.00    -0.287 NA 
HETATM   14  H   UNL     1     -11.467  13.576  66.054  1.00  0.00     0.000 HD 
BRANCH  13  15
HETATM   15  C   UNL     1      -9.620  14.089  67.004  1.00  0.00    -0.253 A  
HETATM   16  C   UNL     1      -9.336  15.466  66.794  1.00  0.00    -0.267 A  
HETATM   17  C   UNL     1     -10.315  16.434  66.463  1.00  0.00    -0.306 A  
HETATM   18  C   UNL     1      -9.966  17.772  66.259  1.00  0.00    -0.322 A  
HETATM   19  C   UNL     1      -8.635  18.152  66.368  1.00  0.00    -0.229 A  
HETATM   20  C   UNL     1      -7.659  17.214  66.690  1.00  0.00    -0.299 A  
HETATM   21 CL   UNL     1      -8.185  19.794  66.109  1.00  0.00    -0.362 Cl 
HETATM   22  C   UNL     1      -7.988  15.890  66.912  1.00  0.00    -0.252 A  
HETATM   23  N   UNL     1      -6.988  15.063  67.246  1.00  0.00    -0.244 NA 
HETATM   24  C   UNL     1      -7.295  13.780  67.508  1.00  0.00    -0.162 A  
HETATM   25  C   UNL     1      -8.575  13.269  67.427  1.00  0.00    -0.204 A  
ENDBRANCH  13  15
ENDBRANCH  11  13
ENDBRANCH  10  11
ENDBRANCH   9  10
ENDBRANCH   8   9
ENDBRANCH   3   8
ENDBRANCH   2   3
TORSDOF 9
ENDMDL
MODEL      254
REMARK 921   NORMALIZED FREE ENERGY PREDICTED BY IDOCK:   -3.29 KCAL/MOL
REMARK 922        TOTAL FREE ENERGY PREDICTED BY IDOCK:   -6.24 KCAL/MOL
REMARK 923 INTER-LIGAND FREE ENERGY PREDICTED BY IDOCK:   -5.32 KCAL/MOL
REMARK 924 INTRA-LIGAND FREE ENERGY PREDICTED BY IDOCK:   -0.92 KCAL/MOL
REMARK 927      BINDING AFFINITY PREDICTED BY RF-SCORE:    0.00 PKD
ROOT
HETATM    1  C   UNL     1     -14.324   8.263  71.706  1.00  0.00    -0.574 C  
HETATM    2  C   UNL     1     -13.051   8.642  72.456  1.00  0.00    -0.289 C  
ENDROOT
BRANCH   2   3
HETATM    3  N   UNL     1     -12.141   9.573  71.747  1.00  0.00    -0.386 NA 
BRANCH   3   4
HETATM    4  C   UNL     1     -11.468   8.888  70.615  1.00  0.00    -0.242 C  
BRANCH   4   5
HETATM    5  C   UNL     1     -10.402   7.845  71.003  1.00  0.00    -0.201 C  
HETATM    6  H   UNL     1     -10.366   5.998  71.691  1.00  0.00     0.000 HD 
HETATM    7  O   UNL     1     -11.023   6.641  71.453  1.00  0.00    -0.236 OA 
ENDBRANCH   4   5
ENDBRANCH   3   4
BRANCH   3   8
HETATM    8  C   UNL     1     -12.914  10.745  71.269  1.00  0.00    -0.402 C  
BRANCH   8   9
HETATM    9  C   UNL     1     -12.070  11.932  70.756  1.00  0.00    -0.325 C  
BRANCH   9  10
HETATM   10  C   UNL     1     -12.541  12.549  69.427  1.00  0.00     0.477 C  
BRANCH  10  11
HETATM   11  C   UNL     1     -11.773  13.821  69.017  1.00  0.00    -0.331 C  
HETATM   12  C   UNL     1     -11.590  14.785  70.192  1.00  0.00    -0.338 C  
BRANCH  11  13
HETATM   13  N   UNL     1     -10.442  13.462  68.477  1.00  0.00    -0.251 NA 
HETATM   14  H   UNL     1      -9.584  13.815  68.902  1.00  0.00     0.000 HD 
BRANCH  13  15
HETATM   15  C   UNL     1     -10.408  12.605  67.342  1.00  0.00    -0.220 A  
HETATM   16  C   UNL     1      -9.702  11.373  67.392  1.00  0.00    -0.196 A  
HETATM   17  C   UNL     1      -8.957  10.932  68.513  1.00  0.00    -0.157 A  
HETATM   18  C   UNL     1      -8.276   9.712  68.492  1.00  0.00    -0.105 A  
HETATM   19  C   UNL     1      -8.319   8.928  67.347  1.00  0.00    -0.108 A  
HETATM   20  C   UNL     1      -9.043   9.346  66.234  1.00  0.00    -0.204 A  
HETATM   21 CL   UNL     1      -7.477   7.428  67.300  1.00  0.00    -0.101 Cl 
HETATM   22  C   UNL     1      -9.737  10.542  66.243  1.00  0.00    -0.205 A  
HETATM   23  N   UNL     1     -10.430  10.850  65.138  1.00  0.00    -0.272 NA 
HETATM   24  C   UNL     1     -11.147  11.988  65.144  1.00  0.00    -0.318 A  
HETATM   25  C   UNL     1     -11.184  12.863  66.212  1.00  0.00    -0.337 A  
ENDBRANCH  13  15
ENDBRANCH  11  13
ENDBRANCH  10  11
ENDBRANCH   9  10
ENDBRANCH   8   9
ENDBRANCH   3   8
ENDBRANCH   2   3
TORSDOF 9
ENDMDL
MODEL      255
REMARK 921   NORMALIZED FREE ENERGY PREDICTED BY IDOCK:   -3.28 KCAL/MOL
REMARK 922        TOTAL FREE ENERGY PREDICTED BY IDOCK:   -6.24 KCAL/MOL
REMARK 923 INTER-LIGAND FREE ENERGY PREDICTED BY IDOCK:   -5.82 KCAL/MOL
REMARK 924 INTRA-LIGAND FREE ENERGY PREDICTED BY IDOCK:   -0.41 KCAL/MOL
REMARK 927      BINDING AFFINITY PREDICTED BY RF-SCORE:    0.00 PKD
ROOT
HETATM    1  C   UNL     1     -13.584  15.292  71.695  1.00  0.00    -0.586 C  
HETATM    2  C   UNL     1     -12.144  15.045  71.254  1.00  0.00    -0.328 C  
ENDROOT
BRANCH   2   3
HETATM    3  N   UNL     1     -11.964  14.654  69.836  1.00  0.00    -0.309 NA 
BRANCH   3   4
HETATM    4  C   UNL     1     -10.790  15.347  69.248  1.00  0.00    -0.253 C  
BRANCH   4   5
HETATM    5  C   UNL     1     -11.010  15.973  67.858  1.00  0.00    -0.327 C  
HETATM    6  H   UNL     1      -9.893  16.607  66.361  1.00  0.00     0.000 HD 
HETATM    7  O   UNL     1      -9.758  16.221  67.218  1.00  0.00    -0.232 OA 
ENDBRANCH   4   5
ENDBRANCH   3   4
BRANCH   3   8
HETATM    8  C   UNL     1     -11.805  13.182  69.748  1.00  0.00    -0.316 C  
BRANCH   8   9
HETATM    9  C   UNL     1     -12.159  12.557  68.381  1.00  0.00    -0.123 C  
BRANCH   9  10
HETATM   10  C   UNL     1     -11.117  11.574  67.818  1.00  0.00    -0.319 C  
BRANCH  10  11
HETATM   11  C   UNL     1      -9.670  11.877  68.251  1.00  0.00    -0.200 C  
HETATM   12  C   UNL     1      -8.938  10.621  68.729  1.00  0.00    -0.172 C  
BRANCH  11  13
HETATM   13  N   UNL     1      -8.915  12.475  67.126  1.00  0.00    -0.193 NA 
HETATM   14  H   UNL     1      -8.062  13.011  67.286  1.00  0.00     0.000 HD 
BRANCH  13  15
HETATM   15  C   UNL     1      -9.428  12.272  65.815  1.00  0.00    -0.121 A  
HETATM   16  C   UNL     1      -9.072  11.112  65.074  1.00  0.00    -0.138 A  
HETATM   17  C   UNL     1      -8.169  10.124  65.538  1.00  0.00    -0.156 A  
HETATM   18  C   UNL     1      -7.852   9.012  64.754  1.00  0.00    -0.122 A  
HETATM   19  C   UNL     1      -8.421   8.884  63.493  1.00  0.00    -0.140 A  
HETATM   20  C   UNL     1      -9.307   9.847  63.020  1.00  0.00    -0.226 A  
HETATM   21 CL   UNL     1      -8.033   7.526  62.509  1.00  0.00    -0.136 Cl 
HETATM   22  C   UNL     1      -9.646  10.944  63.788  1.00  0.00    -0.292 A  
HETATM   23  N   UNL     1     -10.530  11.804  63.264  1.00  0.00    -0.404 NA 
HETATM   24  C   UNL     1     -10.903  12.856  64.015  1.00  0.00    -0.410 A  
HETATM   25  C   UNL     1     -10.408  13.107  65.279  1.00  0.00    -0.319 A  
ENDBRANCH  13  15
ENDBRANCH  11  13
ENDBRANCH  10  11
ENDBRANCH   9  10
ENDBRANCH   8   9
ENDBRANCH   3   8
ENDBRANCH   2   3
TORSDOF 9
ENDMDL
MODEL      256
REMARK 921   NORMALIZED FREE ENERGY PREDICTED BY IDOCK:   -3.26 KCAL/MOL
REMARK 922        TOTAL FREE ENERGY PREDICTED BY IDOCK:   -6.21 KCAL/MOL
REMARK 923 INTER-LIGAND FREE ENERGY PREDICTED BY IDOCK:   -5.44 KCAL/MOL
REMARK 924 INTRA-LIGAND FREE ENERGY PREDICTED BY IDOCK:   -0.77 KCAL/MOL
REMARK 927      BINDING AFFINITY PREDICTED BY RF-SCORE:    0.00 PKD
ROOT
HETATM    1  C   UNL     1     -14.149  15.240  71.272  1.00  0.00    -0.527 C  
HETATM    2  C   UNL     1     -12.657  15.556  71.220  1.00  0.00    -0.447 C  
ENDROOT
BRANCH   2   3
HETATM    3  N   UNL     1     -12.040  15.527  69.873  1.00  0.00    -0.359 NA 
BRANCH   3   4
HETATM    4  C   UNL     1     -10.891  16.465  69.803  1.00  0.00    -0.343 C  
BRANCH   4   5
HETATM    5  C   UNL     1     -10.662  17.142  68.438  1.00  0.00    -0.347 C  
HETATM    6  H   UNL     1     -10.134  18.921  67.774  1.00  0.00     0.000 HD 
HETATM    7  O   UNL     1     -10.275  18.504  68.615  1.00  0.00    -0.377 OA 
ENDBRANCH   4   5
ENDBRANCH   3   4
BRANCH   3   8
HETATM    8  C   UNL     1     -11.609  14.143  69.561  1.00  0.00    -0.295 C  
BRANCH   8   9
HETATM    9  C   UNL     1     -11.892  13.669  68.118  1.00  0.00    -0.407 C  
BRANCH   9  10
HETATM   10  C   UNL     1     -10.874  12.669  67.543  1.00  0.00    -0.267 C  
BRANCH  10  11
HETATM   11  C   UNL     1     -10.715  11.384  68.378  1.00  0.00    -0.203 C  
HETATM   12  C   UNL     1     -10.851  10.122  67.522  1.00  0.00    -0.349 C  
BRANCH  11  13
HETATM   13  N   UNL     1      -9.395  11.371  69.049  1.00  0.00    -0.407 NA 
HETATM   14  H   UNL     1      -9.304  11.133  70.036  1.00  0.00     0.000 HD 
BRANCH  13  15
HETATM   15  C   UNL     1      -8.259  11.704  68.259  1.00  0.00    -0.156 A  
HETATM   16  C   UNL     1      -7.627  12.969  68.406  1.00  0.00    -0.133 A  
HETATM   17  C   UNL     1      -8.086  13.987  69.277  1.00  0.00     0.293 A  
HETATM   18  C   UNL     1      -7.424  15.214  69.365  1.00  0.00    -0.204 A  
HETATM   19  C   UNL     1      -6.306  15.443  68.573  1.00  0.00    -0.097 A  
HETATM   20  C   UNL     1      -5.843  14.455  67.709  1.00  0.00    -0.093 A  
HETATM   21 CL   UNL     1      -5.484  16.952  68.661  1.00  0.00    -0.123 Cl 
HETATM   22  C   UNL     1      -6.475  13.229  67.621  1.00  0.00    -0.162 A  
HETATM   23  N   UNL     1      -5.941  12.329  66.784  1.00  0.00    -0.211 NA 
HETATM   24  C   UNL     1      -6.518  11.115  66.717  1.00  0.00    -0.127 A  
HETATM   25  C   UNL     1      -7.638  10.760  67.443  1.00  0.00    -0.099 A  
ENDBRANCH  13  15
ENDBRANCH  11  13
ENDBRANCH  10  11
ENDBRANCH   9  10
ENDBRANCH   8   9
ENDBRANCH   3   8
ENDBRANCH   2   3
TORSDOF 9
ENDMDL
MODEL      257
REMARK 921   NORMALIZED FREE ENERGY PREDICTED BY IDOCK:   -3.26 KCAL/MOL
REMARK 922        TOTAL FREE ENERGY PREDICTED BY IDOCK:   -6.21 KCAL/MOL
REMARK 923 INTER-LIGAND FREE ENERGY PREDICTED BY IDOCK:   -5.40 KCAL/MOL
REMARK 924 INTRA-LIGAND FREE ENERGY PREDICTED BY IDOCK:   -0.81 KCAL/MOL
REMARK 927      BINDING AFFINITY PREDICTED BY RF-SCORE:    0.00 PKD
ROOT
HETATM    1  C   UNL     1     -10.628   5.882  68.012  1.00  0.00    -0.321 C  
HETATM    2  C   UNL     1      -9.807   4.889  68.829  1.00  0.00    -0.161 C  
ENDROOT
BRANCH   2   3
HETATM    3  N   UNL     1      -9.665   5.205  70.270  1.00  0.00    -0.186 NA 
BRANCH   3   4
HETATM    4  C   UNL     1      -8.719   6.332  70.468  1.00  0.00    -0.143 C  
BRANCH   4   5
HETATM    5  C   UNL     1      -7.462   6.012  71.300  1.00  0.00    -0.089 C  
HETATM    6  H   UNL     1      -6.106   4.583  71.385  1.00  0.00     0.000 HD 
HETATM    7  O   UNL     1      -6.881   4.780  70.873  1.00  0.00    -0.034 OA 
ENDBRANCH   4   5
ENDBRANCH   3   4
BRANCH   3   8
HETATM    8  C   UNL     1     -10.997   5.531  70.834  1.00  0.00    -0.124 C  
BRANCH   8   9
HETATM    9  C   UNL     1     -11.088   6.876  71.588  1.00  0.00    -0.271 C  
BRANCH   9  10
HETATM   10  C   UNL     1     -12.040   7.914  70.968  1.00  0.00    -0.246 C  
BRANCH  10  11
HETATM   11  C   UNL     1     -11.323   9.109  70.309  1.00  0.00    -0.188 C  
HETATM   12  C   UNL     1      -9.950   9.371  70.933  1.00  0.00    -0.353 C  
BRANCH  11  13
HETATM   13  N   UNL     1     -11.155   8.868  68.858  1.00  0.00    -0.433 NA 
HETATM   14  H   UNL     1     -11.135   7.922  68.477  1.00  0.00     0.000 HD 
BRANCH  13  15
HETATM   15  C   UNL     1     -11.023  10.009  68.018  1.00  0.00    -0.240 A  
HETATM   16  C   UNL     1     -10.250   9.939  66.827  1.00  0.00    -0.301 A  
HETATM   17  C   UNL     1      -9.531   8.791  66.417  1.00  0.00    -0.291 A  
HETATM   18  C   UNL     1      -8.780   8.793  65.238  1.00  0.00    -0.216 A  
HETATM   19  C   UNL     1      -8.728   9.947  64.467  1.00  0.00    -0.198 A  
HETATM   20  C   UNL     1      -9.426  11.086  64.856  1.00  0.00    -0.270 A  
HETATM   21 CL   UNL     1      -7.800   9.971  63.017  1.00  0.00    -0.138 Cl 
HETATM   22  C   UNL     1     -10.188  11.097  66.010  1.00  0.00    -0.250 A  
HETATM   23  N   UNL     1     -10.849  12.227  66.291  1.00  0.00    -0.268 NA 
HETATM   24  C   UNL     1     -11.629  12.242  67.386  1.00  0.00    -0.355 A  
HETATM   25  C   UNL     1     -11.763  11.169  68.244  1.00  0.00    -0.323 A  
ENDBRANCH  13  15
ENDBRANCH  11  13
ENDBRANCH  10  11
ENDBRANCH   9  10
ENDBRANCH   8   9
ENDBRANCH   3   8
ENDBRANCH   2   3
TORSDOF 9
ENDMDL
MODEL      258
REMARK 921   NORMALIZED FREE ENERGY PREDICTED BY IDOCK:   -3.26 KCAL/MOL
REMARK 922        TOTAL FREE ENERGY PREDICTED BY IDOCK:   -6.20 KCAL/MOL
REMARK 923 INTER-LIGAND FREE ENERGY PREDICTED BY IDOCK:   -4.83 KCAL/MOL
REMARK 924 INTRA-LIGAND FREE ENERGY PREDICTED BY IDOCK:   -1.37 KCAL/MOL
REMARK 927      BINDING AFFINITY PREDICTED BY RF-SCORE:    0.00 PKD
ROOT
HETATM    1  C   UNL     1     -11.075   6.651  66.964  1.00  0.00    -0.395 C  
HETATM    2  C   UNL     1     -10.112   6.753  68.143  1.00  0.00    -0.164 C  
ENDROOT
BRANCH   2   3
HETATM    3  N   UNL     1      -9.379   8.035  68.265  1.00  0.00    -0.140 NA 
BRANCH   3   4
HETATM    4  C   UNL     1      -8.830   8.196  69.635  1.00  0.00    -0.143 C  
BRANCH   4   5
HETATM    5  C   UNL     1      -9.295   9.450  70.399  1.00  0.00    -0.268 C  
HETATM    6  H   UNL     1     -10.493  10.982  70.077  1.00  0.00     0.000 HD 
HETATM    7  O   UNL     1     -10.207  10.209  69.606  1.00  0.00    -0.218 OA 
ENDBRANCH   4   5
ENDBRANCH   3   4
BRANCH   3   8
HETATM    8  C   UNL     1      -8.294   8.079  67.255  1.00  0.00    -0.122 C  
BRANCH   8   9
HETATM    9  C   UNL     1      -7.826   9.492  66.844  1.00  0.00    -0.101 C  
BRANCH   9  10
HETATM   10  C   UNL     1      -8.542  10.092  65.621  1.00  0.00    -0.166 C  
BRANCH  10  11
HETATM   11  C   UNL     1      -9.359  11.361  65.931  1.00  0.00    -0.228 C  
HETATM   12  C   UNL     1     -10.867  11.114  65.829  1.00  0.00    -0.218 C  
BRANCH  11  13
HETATM   13  N   UNL     1      -9.043  11.853  67.291  1.00  0.00    -0.173 NA 
HETATM   14  H   UNL     1      -9.366  11.358  68.122  1.00  0.00     0.000 HD 
BRANCH  13  15
HETATM   15  C   UNL     1      -8.270  13.044  67.392  1.00  0.00    -0.183 A  
HETATM   16  C   UNL     1      -8.905  14.315  67.387  1.00  0.00    -0.211 A  
HETATM   17  C   UNL     1     -10.301  14.503  67.236  1.00  0.00    -0.260 A  
HETATM   18  C   UNL     1     -10.859  15.783  67.228  1.00  0.00    -0.298 A  
HETATM   19  C   UNL     1     -10.029  16.889  67.357  1.00  0.00    -0.269 A  
HETATM   20  C   UNL     1      -8.655  16.724  67.504  1.00  0.00    -0.203 A  
HETATM   21 CL   UNL     1     -10.700  18.475  67.340  1.00  0.00    -0.457 Cl 
HETATM   22  C   UNL     1      -8.086  15.465  67.530  1.00  0.00    -0.167 A  
HETATM   23  N   UNL     1      -6.760  15.401  67.705  1.00  0.00    -0.151 NA 
HETATM   24  C   UNL     1      -6.194  14.182  67.776  1.00  0.00    -0.140 A  
HETATM   25  C   UNL     1      -6.901  13.003  67.654  1.00  0.00    -0.155 A  
ENDBRANCH  13  15
ENDBRANCH  11  13
ENDBRANCH  10  11
ENDBRANCH   9  10
ENDBRANCH   8   9
ENDBRANCH   3   8
ENDBRANCH   2   3
TORSDOF 9
ENDMDL
MODEL      259
REMARK 921   NORMALIZED FREE ENERGY PREDICTED BY IDOCK:   -3.26 KCAL/MOL
REMARK 922        TOTAL FREE ENERGY PREDICTED BY IDOCK:   -6.20 KCAL/MOL
REMARK 923 INTER-LIGAND FREE ENERGY PREDICTED BY IDOCK:   -5.59 KCAL/MOL
REMARK 924 INTRA-LIGAND FREE ENERGY PREDICTED BY IDOCK:   -0.60 KCAL/MOL
REMARK 927      BINDING AFFINITY PREDICTED BY RF-SCORE:    0.00 PKD
ROOT
HETATM    1  C   UNL     1      -6.586  14.265  68.799  1.00  0.00    -0.092 C  
HETATM    2  C   UNL     1      -7.359  12.949  68.833  1.00  0.00    -0.014 C  
ENDROOT
BRANCH   2   3
HETATM    3  N   UNL     1      -6.854  11.883  67.936  1.00  0.00    -0.077 NA 
BRANCH   3   4
HETATM    4  C   UNL     1      -6.811  10.579  68.645  1.00  0.00    -0.054 C  
BRANCH   4   5
HETATM    5  C   UNL     1      -6.422  10.641  70.134  1.00  0.00    -0.152 C  
HETATM    6  H   UNL     1      -7.261  10.223  71.869  1.00  0.00     0.000 HD 
HETATM    7  O   UNL     1      -7.501  10.185  70.951  1.00  0.00    -0.177 OA 
ENDBRANCH   4   5
ENDBRANCH   3   4
BRANCH   3   8
HETATM    8  C   UNL     1      -7.720  11.801  66.735  1.00  0.00    -0.086 C  
BRANCH   8   9
HETATM    9  C   UNL     1      -9.240  11.843  67.009  1.00  0.00    -0.191 C  
BRANCH   9  10
HETATM   10  C   UNL     1      -9.905  13.217  66.817  1.00  0.00    -0.264 C  
BRANCH  10  11
HETATM   11  C   UNL     1     -11.096  13.476  67.761  1.00  0.00    -0.268 C  
HETATM   12  C   UNL     1     -12.266  12.529  67.482  1.00  0.00     0.118 C  
BRANCH  11  13
HETATM   13  N   UNL     1     -10.674  13.319  69.171  1.00  0.00    -0.436 NA 
HETATM   14  H   UNL     1      -9.701  13.442  69.450  1.00  0.00     0.000 HD 
BRANCH  13  15
HETATM   15  C   UNL     1     -11.682  12.988  70.120  1.00  0.00    -0.170 A  
HETATM   16  C   UNL     1     -11.839  11.648  70.565  1.00  0.00    -0.328 A  
HETATM   17  C   UNL     1     -11.073  10.559  70.082  1.00  0.00    -0.369 A  
HETATM   18  C   UNL     1     -11.287   9.261  70.554  1.00  0.00    -0.306 A  
HETATM   19  C   UNL     1     -12.278   9.036  71.501  1.00  0.00    -0.335 A  
HETATM   20  C   UNL     1     -13.043  10.093  71.984  1.00  0.00    -0.538 A  
HETATM   21 CL   UNL     1     -12.562   7.442  72.086  1.00  0.00    -0.228 Cl 
HETATM   22  C   UNL     1     -12.834  11.386  71.542  1.00  0.00    -0.403 A  
HETATM   23  N   UNL     1     -13.596  12.345  72.084  1.00  0.00    -0.434 NA 
HETATM   24  C   UNL     1     -13.378  13.615  71.697  1.00  0.00    -0.346 A  
HETATM   25  C   UNL     1     -12.432  13.976  70.758  1.00  0.00    -0.442 A  
ENDBRANCH  13  15
ENDBRANCH  11  13
ENDBRANCH  10  11
ENDBRANCH   9  10
ENDBRANCH   8   9
ENDBRANCH   3   8
ENDBRANCH   2   3
TORSDOF 9
ENDMDL
MODEL      260
REMARK 921   NORMALIZED FREE ENERGY PREDICTED BY IDOCK:   -3.25 KCAL/MOL
REMARK 922        TOTAL FREE ENERGY PREDICTED BY IDOCK:   -6.18 KCAL/MOL
REMARK 923 INTER-LIGAND FREE ENERGY PREDICTED BY IDOCK:   -5.16 KCAL/MOL
REMARK 924 INTRA-LIGAND FREE ENERGY PREDICTED BY IDOCK:   -1.03 KCAL/MOL
REMARK 927      BINDING AFFINITY PREDICTED BY RF-SCORE:    0.00 PKD
ROOT
HETATM    1  C   UNL     1     -12.669  10.256  71.166  1.00  0.00    -0.502 C  
HETATM    2  C   UNL     1     -11.582  11.046  70.442  1.00  0.00    -0.293 C  
ENDROOT
BRANCH   2   3
HETATM    3  N   UNL     1     -12.017  11.771  69.225  1.00  0.00    -0.307 NA 
BRANCH   3   4
HETATM    4  C   UNL     1     -11.730  13.222  69.348  1.00  0.00    -0.325 C  
BRANCH   4   5
HETATM    5  C   UNL     1     -12.039  13.850  70.721  1.00  0.00    -0.330 C  
HETATM    6  H   UNL     1     -13.234  15.244  71.441  1.00  0.00     0.000 HD 
HETATM    7  O   UNL     1     -13.043  14.857  70.594  1.00  0.00    -0.364 OA 
ENDBRANCH   4   5
ENDBRANCH   3   4
BRANCH   3   8
HETATM    8  C   UNL     1     -11.331  11.197  68.041  1.00  0.00    -0.312 C  
BRANCH   8   9
HETATM    9  C   UNL     1     -11.350  12.078  66.772  1.00  0.00    -0.398 C  
BRANCH   9  10
HETATM   10  C   UNL     1      -9.989  12.261  66.079  1.00  0.00    -0.270 C  
BRANCH  10  11
HETATM   11  C   UNL     1      -9.023  11.075  66.267  1.00  0.00    -0.185 C  
HETATM   12  C   UNL     1      -9.149  10.046  65.141  1.00  0.00    -0.247 C  
BRANCH  11  13
HETATM   13  N   UNL     1      -7.625  11.559  66.323  1.00  0.00    -0.372 NA 
HETATM   14  H   UNL     1      -7.140  11.877  65.484  1.00  0.00     0.000 HD 
BRANCH  13  15
HETATM   15  C   UNL     1      -6.986  11.562  67.595  1.00  0.00    -0.091 A  
HETATM   16  C   UNL     1      -6.606  12.787  68.206  1.00  0.00    -0.085 A  
HETATM   17  C   UNL     1      -6.777  14.058  67.604  1.00  0.00    -0.188 A  
HETATM   18  C   UNL     1      -6.371  15.225  68.257  1.00  0.00    -0.118 A  
HETATM   19  C   UNL     1      -5.777  15.134  69.509  1.00  0.00    -0.102 A  
HETATM   20  C   UNL     1      -5.598  13.893  70.114  1.00  0.00    -0.120 A  
HETATM   21 CL   UNL     1      -5.261  16.560  70.322  1.00  0.00    -0.180 Cl 
HETATM   22  C   UNL     1      -6.009  12.730  69.492  1.00  0.00    -0.112 A  
HETATM   23  N   UNL     1      -5.825  11.584  70.162  1.00  0.00    -0.134 NA 
HETATM   24  C   UNL     1      -6.257  10.446  69.590  1.00  0.00    -0.058 A  
HETATM   25  C   UNL     1      -6.855  10.394  68.346  1.00  0.00    -0.064 A  
ENDBRANCH  13  15
ENDBRANCH  11  13
ENDBRANCH  10  11
ENDBRANCH   9  10
ENDBRANCH   8   9
ENDBRANCH   3   8
ENDBRANCH   2   3
TORSDOF 9
ENDMDL
MODEL      261
REMARK 921   NORMALIZED FREE ENERGY PREDICTED BY IDOCK:   -3.25 KCAL/MOL
REMARK 922        TOTAL FREE ENERGY PREDICTED BY IDOCK:   -6.18 KCAL/MOL
REMARK 923 INTER-LIGAND FREE ENERGY PREDICTED BY IDOCK:   -5.47 KCAL/MOL
REMARK 924 INTRA-LIGAND FREE ENERGY PREDICTED BY IDOCK:   -0.72 KCAL/MOL
REMARK 927      BINDING AFFINITY PREDICTED BY RF-SCORE:    0.00 PKD
ROOT
HETATM    1  C   UNL     1     -11.054  16.257  68.781  1.00  0.00    -0.355 C  
HETATM    2  C   UNL     1     -11.143  15.963  70.276  1.00  0.00    -0.373 C  
ENDROOT
BRANCH   2   3
HETATM    3  N   UNL     1     -11.467  14.563  70.638  1.00  0.00    -0.216 NA 
BRANCH   3   4
HETATM    4  C   UNL     1     -12.937  14.371  70.723  1.00  0.00    -0.326 C  
BRANCH   4   5
HETATM    5  C   UNL     1     -13.459  13.787  72.049  1.00  0.00    -0.470 C  
HETATM    6  H   UNL     1     -13.345  14.223  73.969  1.00  0.00     0.000 HD 
HETATM    7  O   UNL     1     -13.022  14.582  73.151  1.00  0.00    -0.511 OA 
ENDBRANCH   4   5
ENDBRANCH   3   4
BRANCH   3   8
HETATM    8  C   UNL     1     -10.874  13.647  69.633  1.00  0.00     0.169 C  
BRANCH   8   9
HETATM    9  C   UNL     1     -11.867  13.048  68.613  1.00  0.00    -0.353 C  
BRANCH   9  10
HETATM   10  C   UNL     1     -12.329  11.611  68.911  1.00  0.00     0.095 C  
BRANCH  10  11
HETATM   11  C   UNL     1     -11.227  10.705  69.495  1.00  0.00    -0.272 C  
HETATM   12  C   UNL     1     -11.540  10.274  70.931  1.00  0.00    -0.454 C  
BRANCH  11  13
HETATM   13  N   UNL     1     -11.059   9.498  68.655  1.00  0.00    -0.461 NA 
HETATM   14  H   UNL     1     -11.841   8.872  68.463  1.00  0.00     0.000 HD 
BRANCH  13  15
HETATM   15  C   UNL     1      -9.761   9.246  68.127  1.00  0.00    -0.150 A  
HETATM   16  C   UNL     1      -9.443   9.622  66.793  1.00  0.00    -0.209 A  
HETATM   17  C   UNL     1     -10.367  10.207  65.894  1.00  0.00    -0.221 A  
HETATM   18  C   UNL     1      -9.991  10.542  64.591  1.00  0.00    -0.415 A  
HETATM   19  C   UNL     1      -8.694  10.282  64.168  1.00  0.00    -0.204 A  
HETATM   20  C   UNL     1      -7.773   9.705  65.037  1.00  0.00    -0.119 A  
HETATM   21 CL   UNL     1      -8.216  10.679  62.562  1.00  0.00    -0.203 Cl 
HETATM   22  C   UNL     1      -8.122   9.382  66.335  1.00  0.00    -0.108 A  
HETATM   23  N   UNL     1      -7.163   8.857  67.110  1.00  0.00    -0.082 NA 
HETATM   24  C   UNL     1      -7.473   8.577  68.388  1.00  0.00    -0.095 A  
HETATM   25  C   UNL     1      -8.726   8.777  68.934  1.00  0.00    -0.134 A  
ENDBRANCH  13  15
ENDBRANCH  11  13
ENDBRANCH  10  11
ENDBRANCH   9  10
ENDBRANCH   8   9
ENDBRANCH   3   8
ENDBRANCH   2   3
TORSDOF 9
ENDMDL
MODEL      262
REMARK 921   NORMALIZED FREE ENERGY PREDICTED BY IDOCK:   -3.24 KCAL/MOL
REMARK 922        TOTAL FREE ENERGY PREDICTED BY IDOCK:   -6.18 KCAL/MOL
REMARK 923 INTER-LIGAND FREE ENERGY PREDICTED BY IDOCK:   -5.25 KCAL/MOL
REMARK 924 INTRA-LIGAND FREE ENERGY PREDICTED BY IDOCK:   -0.92 KCAL/MOL
REMARK 927      BINDING AFFINITY PREDICTED BY RF-SCORE:    0.00 PKD
ROOT
HETATM    1  C   UNL     1     -13.615  13.653  72.511  1.00  0.00    -0.675 C  
HETATM    2  C   UNL     1     -12.816  13.562  71.214  1.00  0.00    -0.338 C  
ENDROOT
BRANCH   2   3
HETATM    3  N   UNL     1     -12.890  12.264  70.503  1.00  0.00     0.063 NA 
BRANCH   3   4
HETATM    4  C   UNL     1     -11.901  12.216  69.397  1.00  0.00    -0.309 C  
BRANCH   4   5
HETATM    5  C   UNL     1     -12.010  13.343  68.353  1.00  0.00    -0.324 C  
HETATM    6  H   UNL     1     -11.039  13.921  66.737  1.00  0.00     0.000 HD 
HETATM    7  O   UNL     1     -10.971  13.226  67.381  1.00  0.00    -0.263 OA 
ENDBRANCH   4   5
ENDBRANCH   3   4
BRANCH   3   8
HETATM    8  C   UNL     1     -12.655  11.162  71.468  1.00  0.00    -0.325 C  
BRANCH   8   9
HETATM    9  C   UNL     1     -12.103   9.854  70.859  1.00  0.00    -0.431 C  
BRANCH   9  10
HETATM   10  C   UNL     1     -11.370   8.929  71.846  1.00  0.00    -0.446 C  
BRANCH  10  11
HETATM   11  C   UNL     1      -9.873   8.737  71.534  1.00  0.00    -0.301 C  
HETATM   12  C   UNL     1      -9.618   7.484  70.691  1.00  0.00    -0.171 C  
BRANCH  11  13
HETATM   13  N   UNL     1      -9.346   9.918  70.813  1.00  0.00    -0.308 NA 
HETATM   14  H   UNL     1      -9.764  10.841  70.931  1.00  0.00     0.000 HD 
BRANCH  13  15
HETATM   15  C   UNL     1      -8.232   9.713  69.951  1.00  0.00    -0.174 A  
HETATM   16  C   UNL     1      -8.397   9.763  68.540  1.00  0.00    -0.110 A  
HETATM   17  C   UNL     1      -9.642   9.961  67.895  1.00  0.00    -0.157 A  
HETATM   18  C   UNL     1      -9.736   9.988  66.501  1.00  0.00    -0.254 A  
HETATM   19  C   UNL     1      -8.591   9.802  65.738  1.00  0.00    -0.135 A  
HETATM   20  C   UNL     1      -7.359   9.604  66.355  1.00  0.00    -0.094 A  
HETATM   21 CL   UNL     1      -8.689   9.822  64.020  1.00  0.00    -0.211 Cl 
HETATM   22  C   UNL     1      -7.244   9.591  67.732  1.00  0.00    -0.082 A  
HETATM   23  N   UNL     1      -6.015   9.423  68.238  1.00  0.00    -0.044 NA 
HETATM   24  C   UNL     1      -5.877   9.450  69.576  1.00  0.00    -0.033 A  
HETATM   25  C   UNL     1      -6.934   9.616  70.450  1.00  0.00    -0.128 A  
ENDBRANCH  13  15
ENDBRANCH  11  13
ENDBRANCH  10  11
ENDBRANCH   9  10
ENDBRANCH   8   9
ENDBRANCH   3   8
ENDBRANCH   2   3
TORSDOF 9
ENDMDL
MODEL      263
REMARK 921   NORMALIZED FREE ENERGY PREDICTED BY IDOCK:   -3.22 KCAL/MOL
REMARK 922        TOTAL FREE ENERGY PREDICTED BY IDOCK:   -6.14 KCAL/MOL
REMARK 923 INTER-LIGAND FREE ENERGY PREDICTED BY IDOCK:   -5.07 KCAL/MOL
REMARK 924 INTRA-LIGAND FREE ENERGY PREDICTED BY IDOCK:   -1.07 KCAL/MOL
REMARK 927      BINDING AFFINITY PREDICTED BY RF-SCORE:    0.00 PKD
ROOT
HETATM    1  C   UNL     1      -8.591   8.653  71.742  1.00  0.00    -0.240 C  
HETATM    2  C   UNL     1     -10.061   8.930  71.439  1.00  0.00    -0.309 C  
ENDROOT
BRANCH   2   3
HETATM    3  N   UNL     1     -10.987   7.793  71.657  1.00  0.00    -0.231 NA 
BRANCH   3   4
HETATM    4  C   UNL     1     -12.201   8.239  72.386  1.00  0.00    -0.352 C  
BRANCH   4   5
HETATM    5  C   UNL     1     -12.759   9.615  71.976  1.00  0.00    -0.385 C  
HETATM    6  H   UNL     1     -14.340  10.314  71.028  1.00  0.00     0.000 HD 
HETATM    7  O   UNL     1     -13.996   9.465  71.280  1.00  0.00    -0.272 OA 
ENDBRANCH   4   5
ENDBRANCH   3   4
BRANCH   3   8
HETATM    8  C   UNL     1     -11.349   7.197  70.347  1.00  0.00    -0.289 C  
BRANCH   8   9
HETATM    9  C   UNL     1     -10.828   5.763  70.105  1.00  0.00    -0.383 C  
BRANCH   9  10
HETATM   10  C   UNL     1     -10.233   5.507  68.709  1.00  0.00    -0.270 C  
BRANCH  10  11
HETATM   11  C   UNL     1      -8.808   6.063  68.522  1.00  0.00    -0.112 C  
HETATM   12  C   UNL     1      -7.779   4.949  68.317  1.00  0.00    -0.082 C  
BRANCH  11  13
HETATM   13  N   UNL     1      -8.766   6.978  67.358  1.00  0.00    -0.120 NA 
HETATM   14  H   UNL     1      -9.118   6.690  66.445  1.00  0.00     0.000 HD 
BRANCH  13  15
HETATM   15  C   UNL     1      -8.216   8.274  67.566  1.00  0.00    -0.122 A  
HETATM   16  C   UNL     1      -8.785   9.408  66.925  1.00  0.00    -0.137 A  
HETATM   17  C   UNL     1      -9.872   9.343  66.019  1.00  0.00    -0.366 A  
HETATM   18  C   UNL     1     -10.376  10.497  65.415  1.00  0.00    -0.292 A  
HETATM   19  C   UNL     1      -9.790  11.725  65.696  1.00  0.00    -0.237 A  
HETATM   20  C   UNL     1      -8.719  11.807  66.581  1.00  0.00    -0.186 A  
HETATM   21 CL   UNL     1     -10.392  13.156  64.952  1.00  0.00    -0.347 Cl 
HETATM   22  C   UNL     1      -8.218  10.678  67.202  1.00  0.00    -0.121 A  
HETATM   23  N   UNL     1      -7.206  10.856  68.061  1.00  0.00    -0.084 NA 
HETATM   24  C   UNL     1      -6.733   9.775  68.707  1.00  0.00    -0.050 A  
HETATM   25  C   UNL     1      -7.218   8.496  68.513  1.00  0.00    -0.081 A  
ENDBRANCH  13  15
ENDBRANCH  11  13
ENDBRANCH  10  11
ENDBRANCH   9  10
ENDBRANCH   8   9
ENDBRANCH   3   8
ENDBRANCH   2   3
TORSDOF 9
ENDMDL
MODEL      264
REMARK 921   NORMALIZED FREE ENERGY PREDICTED BY IDOCK:   -3.20 KCAL/MOL
REMARK 922        TOTAL FREE ENERGY PREDICTED BY IDOCK:   -6.12 KCAL/MOL
REMARK 923 INTER-LIGAND FREE ENERGY PREDICTED BY IDOCK:   -5.11 KCAL/MOL
REMARK 924 INTRA-LIGAND FREE ENERGY PREDICTED BY IDOCK:   -1.01 KCAL/MOL
REMARK 927      BINDING AFFINITY PREDICTED BY RF-SCORE:    0.00 PKD
ROOT
HETATM    1  C   UNL     1      -6.295   5.018  66.587  1.00  0.00    -0.040 C  
HETATM    2  C   UNL     1      -7.446   5.681  65.836  1.00  0.00    -0.078 C  
ENDROOT
BRANCH   2   3
HETATM    3  N   UNL     1      -7.852   7.018  66.333  1.00  0.00    -0.103 NA 
BRANCH   3   4
HETATM    4  C   UNL     1      -7.636   7.119  67.798  1.00  0.00    -0.111 C  
BRANCH   4   5
HETATM    5  C   UNL     1      -7.394   8.540  68.342  1.00  0.00    -0.094 C  
HETATM    6  H   UNL     1      -7.412   9.444  70.094  1.00  0.00     0.000 HD 
HETATM    7  O   UNL     1      -7.561   8.568  69.759  1.00  0.00    -0.079 OA 
ENDBRANCH   4   5
ENDBRANCH   3   4
BRANCH   3   8
HETATM    8  C   UNL     1      -7.083   8.062  65.614  1.00  0.00    -0.063 C  
BRANCH   8   9
HETATM    9  C   UNL     1      -7.005   7.891  64.081  1.00  0.00    -0.069 C  
BRANCH   9  10
HETATM   10  C   UNL     1      -8.213   8.431  63.296  1.00  0.00    -0.119 C  
BRANCH  10  11
HETATM   11  C   UNL     1      -8.507   9.924  63.544  1.00  0.00    -0.183 C  
HETATM   12  C   UNL     1      -7.674  10.832  62.636  1.00  0.00    -0.080 C  
BRANCH  11  13
HETATM   13  N   UNL     1      -9.943  10.206  63.321  1.00  0.00    -0.497 NA 
HETATM   14  H   UNL     1     -10.481   9.697  62.620  1.00  0.00     0.000 HD 
BRANCH  13  15
HETATM   15  C   UNL     1     -10.542  11.216  64.125  1.00  0.00    -0.368 A  
HETATM   16  C   UNL     1     -10.782  10.987  65.507  1.00  0.00    -0.218 A  
HETATM   17  C   UNL     1     -10.504   9.765  66.167  1.00  0.00    -0.128 A  
HETATM   18  C   UNL     1     -10.775   9.603  67.528  1.00  0.00    -0.321 A  
HETATM   19  C   UNL     1     -11.339  10.653  68.240  1.00  0.00    -0.289 A  
HETATM   20  C   UNL     1     -11.621  11.861  67.608  1.00  0.00    -0.382 A  
HETATM   21 CL   UNL     1     -11.689  10.467  69.915  1.00  0.00    -0.345 Cl 
HETATM   22  C   UNL     1     -11.345  12.045  66.266  1.00  0.00    -0.357 A  
HETATM   23  N   UNL     1     -11.622  13.250  65.748  1.00  0.00    -0.325 NA 
HETATM   24  C   UNL     1     -11.320  13.461  64.455  1.00  0.00    -0.391 A  
HETATM   25  C   UNL     1     -10.766  12.501  63.632  1.00  0.00    -0.469 A  
ENDBRANCH  13  15
ENDBRANCH  11  13
ENDBRANCH  10  11
ENDBRANCH   9  10
ENDBRANCH   8   9
ENDBRANCH   3   8
ENDBRANCH   2   3
TORSDOF 9
ENDMDL
MODEL      265
REMARK 921   NORMALIZED FREE ENERGY PREDICTED BY IDOCK:   -3.18 KCAL/MOL
REMARK 922        TOTAL FREE ENERGY PREDICTED BY IDOCK:   -6.07 KCAL/MOL
REMARK 923 INTER-LIGAND FREE ENERGY PREDICTED BY IDOCK:   -5.85 KCAL/MOL
REMARK 924 INTRA-LIGAND FREE ENERGY PREDICTED BY IDOCK:   -0.23 KCAL/MOL
REMARK 927      BINDING AFFINITY PREDICTED BY RF-SCORE:    0.00 PKD
ROOT
HETATM    1  C   UNL     1      -9.472   4.394  66.872  1.00  0.00    -0.194 C  
HETATM    2  C   UNL     1      -8.843   5.773  66.699  1.00  0.00    -0.121 C  
ENDROOT
BRANCH   2   3
HETATM    3  N   UNL     1      -9.788   6.914  66.684  1.00  0.00    -0.175 NA 
BRANCH   3   4
HETATM    4  C   UNL     1     -11.010   6.592  67.464  1.00  0.00    -0.338 C  
BRANCH   4   5
HETATM    5  C   UNL     1     -10.986   7.009  68.947  1.00  0.00    -0.118 C  
HETATM    6  H   UNL     1     -11.295   6.155  70.697  1.00  0.00     0.000 HD 
HETATM    7  O   UNL     1     -11.310   5.898  69.783  1.00  0.00    -0.371 OA 
ENDBRANCH   4   5
ENDBRANCH   3   4
BRANCH   3   8
HETATM    8  C   UNL     1      -9.115   8.116  67.233  1.00  0.00    -0.138 C  
BRANCH   8   9
HETATM    9  C   UNL     1      -9.398   9.436  66.482  1.00  0.00    -0.222 C  
BRANCH   9  10
HETATM   10  C   UNL     1      -9.946  10.582  67.351  1.00  0.00    -0.214 C  
BRANCH  10  11
HETATM   11  C   UNL     1     -10.743  11.641  66.565  1.00  0.00    -0.272 C  
HETATM   12  C   UNL     1     -11.725  12.402  67.460  1.00  0.00    -0.425 C  
BRANCH  11  13
HETATM   13  N   UNL     1      -9.819  12.610  65.932  1.00  0.00    -0.295 NA 
HETATM   14  H   UNL     1      -9.595  12.556  64.938  1.00  0.00     0.000 HD 
BRANCH  13  15
HETATM   15  C   UNL     1      -9.258  13.617  66.765  1.00  0.00    -0.241 A  
HETATM   16  C   UNL     1      -9.590  14.984  66.563  1.00  0.00    -0.299 A  
HETATM   17  C   UNL     1     -10.432  15.449  65.523  1.00  0.00    -0.402 A  
HETATM   18  C   UNL     1     -10.709  16.811  65.374  1.00  0.00    -0.201 A  
HETATM   19  C   UNL     1     -10.135  17.722  66.251  1.00  0.00    -0.344 A  
HETATM   20  C   UNL     1      -9.303  17.284  67.276  1.00  0.00    -0.237 A  
HETATM   21 CL   UNL     1     -10.457  19.404  66.075  1.00  0.00    -0.590 Cl 
HETATM   22  C   UNL     1      -9.031  15.940  67.450  1.00  0.00    -0.192 A  
HETATM   23  N   UNL     1      -8.244  15.607  68.482  1.00  0.00    -0.146 NA 
HETATM   24  C   UNL     1      -8.003  14.301  68.692  1.00  0.00    -0.139 A  
HETATM   25  C   UNL     1      -8.502  13.293  67.891  1.00  0.00    -0.177 A  
ENDBRANCH  13  15
ENDBRANCH  11  13
ENDBRANCH  10  11
ENDBRANCH   9  10
ENDBRANCH   8   9
ENDBRANCH   3   8
ENDBRANCH   2   3
TORSDOF 9
ENDMDL
MODEL      266
REMARK 921   NORMALIZED FREE ENERGY PREDICTED BY IDOCK:   -3.18 KCAL/MOL
REMARK 922        TOTAL FREE ENERGY PREDICTED BY IDOCK:   -6.07 KCAL/MOL
REMARK 923 INTER-LIGAND FREE ENERGY PREDICTED BY IDOCK:   -4.91 KCAL/MOL
REMARK 924 INTRA-LIGAND FREE ENERGY PREDICTED BY IDOCK:   -1.17 KCAL/MOL
REMARK 927      BINDING AFFINITY PREDICTED BY RF-SCORE:    0.00 PKD
ROOT
HETATM    1  C   UNL     1      -5.342   9.756  66.507  1.00  0.00    -0.044 C  
HETATM    2  C   UNL     1      -6.068   9.586  67.838  1.00  0.00    -0.052 C  
ENDROOT
BRANCH   2   3
HETATM    3  N   UNL     1      -7.112  10.596  68.134  1.00  0.00    -0.080 NA 
BRANCH   3   4
HETATM    4  C   UNL     1      -7.095  10.960  69.573  1.00  0.00    -0.123 C  
BRANCH   4   5
HETATM    5  C   UNL     1      -6.621   9.855  70.537  1.00  0.00    -0.120 C  
HETATM    6  H   UNL     1      -7.448   8.511  71.720  1.00  0.00     0.000 HD 
HETATM    7  O   UNL     1      -7.740   9.193  71.126  1.00  0.00    -0.220 OA 
ENDBRANCH   4   5
ENDBRANCH   3   4
BRANCH   3   8
HETATM    8  C   UNL     1      -6.891  11.793  67.286  1.00  0.00    -0.134 C  
BRANCH   8   9
HETATM    9  C   UNL     1      -7.939  12.917  67.440  1.00  0.00    -0.178 C  
BRANCH   9  10
HETATM   10  C   UNL     1      -8.949  13.036  66.285  1.00  0.00     0.080 C  
BRANCH  10  11
HETATM   11  C   UNL     1     -10.203  12.155  66.454  1.00  0.00    -0.220 C  
HETATM   12  C   UNL     1     -10.609  11.478  65.143  1.00  0.00    -0.350 C  
BRANCH  11  13
HETATM   13  N   UNL     1      -9.962  11.115  67.479  1.00  0.00    -0.180 NA 
HETATM   14  H   UNL     1      -9.239  10.406  67.355  1.00  0.00     0.000 HD 
BRANCH  13  15
HETATM   15  C   UNL     1     -10.779  11.144  68.644  1.00  0.00    -0.198 A  
HETATM   16  C   UNL     1     -10.927   9.982  69.448  1.00  0.00    -0.280 A  
HETATM   17  C   UNL     1     -10.339   8.729  69.145  1.00  0.00    -0.227 A  
HETATM   18  C   UNL     1     -10.534   7.622  69.974  1.00  0.00    -0.229 A  
HETATM   19  C   UNL     1     -11.329   7.750  71.105  1.00  0.00    -0.269 A  
HETATM   20  C   UNL     1     -11.917   8.972  71.418  1.00  0.00    -0.400 A  
HETATM   21 CL   UNL     1     -11.589   6.393  72.133  1.00  0.00    -0.341 Cl 
HETATM   22  C   UNL     1     -11.722  10.083  70.619  1.00  0.00    -0.337 A  
HETATM   23  N   UNL     1     -12.302  11.225  71.012  1.00  0.00    -0.380 NA 
HETATM   24  C   UNL     1     -12.088  12.326  70.270  1.00  0.00    -0.295 A  
HETATM   25  C   UNL     1     -11.327  12.335  69.118  1.00  0.00    -0.330 A  
ENDBRANCH  13  15
ENDBRANCH  11  13
ENDBRANCH  10  11
ENDBRANCH   9  10
ENDBRANCH   8   9
ENDBRANCH   3   8
ENDBRANCH   2   3
TORSDOF 9
ENDMDL
MODEL      267
REMARK 921   NORMALIZED FREE ENERGY PREDICTED BY IDOCK:   -3.17 KCAL/MOL
REMARK 922        TOTAL FREE ENERGY PREDICTED BY IDOCK:   -6.07 KCAL/MOL
REMARK 923 INTER-LIGAND FREE ENERGY PREDICTED BY IDOCK:   -5.95 KCAL/MOL
REMARK 924 INTRA-LIGAND FREE ENERGY PREDICTED BY IDOCK:   -0.12 KCAL/MOL
REMARK 927      BINDING AFFINITY PREDICTED BY RF-SCORE:    0.00 PKD
ROOT
HETATM    1  C   UNL     1     -14.129  15.344  72.131  1.00  0.00    -0.651 C  
HETATM    2  C   UNL     1     -12.873  15.368  71.265  1.00  0.00    -0.452 C  
ENDROOT
BRANCH   2   3
HETATM    3  N   UNL     1     -12.776  14.298  70.244  1.00  0.00    -0.314 NA 
BRANCH   3   4
HETATM    4  C   UNL     1     -11.933  14.738  69.104  1.00  0.00    -0.282 C  
BRANCH   4   5
HETATM    5  C   UNL     1     -11.978  13.840  67.853  1.00  0.00    -0.356 C  
HETATM    6  H   UNL     1     -11.726  14.049  65.909  1.00  0.00     0.000 HD 
HETATM    7  O   UNL     1     -11.699  14.603  66.680  1.00  0.00    -0.372 OA 
ENDBRANCH   4   5
ENDBRANCH   3   4
BRANCH   3   8
HETATM    8  C   UNL     1     -12.219  13.074  70.868  1.00  0.00    -0.220 C  
BRANCH   8   9
HETATM    9  C   UNL     1     -13.028  11.780  70.629  1.00  0.00     0.042 C  
BRANCH   9  10
HETATM   10  C   UNL     1     -12.561  10.554  71.432  1.00  0.00    -0.539 C  
BRANCH  10  11
HETATM   11  C   UNL     1     -11.593   9.632  70.666  1.00  0.00    -0.299 C  
HETATM   12  C   UNL     1     -11.108  10.267  69.360  1.00  0.00    -0.299 C  
BRANCH  11  13
HETATM   13  N   UNL     1     -10.419   9.310  71.509  1.00  0.00    -0.345 NA 
HETATM   14  H   UNL     1     -10.400   9.541  72.502  1.00  0.00     0.000 HD 
BRANCH  13  15
HETATM   15  C   UNL     1      -9.319   8.665  70.877  1.00  0.00    -0.189 A  
HETATM   16  C   UNL     1      -9.401   7.293  70.516  1.00  0.00    -0.158 A  
HETATM   17  C   UNL     1     -10.519   6.468  70.789  1.00  0.00    -0.262 A  
HETATM   18  C   UNL     1     -10.529   5.122  70.416  1.00  0.00    -0.287 A  
HETATM   19  C   UNL     1      -9.419   4.582  69.781  1.00  0.00    -0.177 A  
HETATM   20  C   UNL     1      -8.310   5.377  69.507  1.00  0.00    -0.100 A  
HETATM   21 CL   UNL     1      -9.410   2.923  69.323  1.00  0.00    -0.218 Cl 
HETATM   22  C   UNL     1      -8.288   6.715  69.853  1.00  0.00    -0.132 A  
HETATM   23  N   UNL     1      -7.191   7.411  69.523  1.00  0.00    -0.080 NA 
HETATM   24  C   UNL     1      -7.169   8.724  69.814  1.00  0.00    -0.051 A  
HETATM   25  C   UNL     1      -8.201   9.383  70.453  1.00  0.00    -0.214 A  
ENDBRANCH  13  15
ENDBRANCH  11  13
ENDBRANCH  10  11
ENDBRANCH   9  10
ENDBRANCH   8   9
ENDBRANCH   3   8
ENDBRANCH   2   3
TORSDOF 9
ENDMDL
MODEL      268
REMARK 921   NORMALIZED FREE ENERGY PREDICTED BY IDOCK:   -3.17 KCAL/MOL
REMARK 922        TOTAL FREE ENERGY PREDICTED BY IDOCK:   -6.07 KCAL/MOL
REMARK 923 INTER-LIGAND FREE ENERGY PREDICTED BY IDOCK:   -5.61 KCAL/MOL
REMARK 924 INTRA-LIGAND FREE ENERGY PREDICTED BY IDOCK:   -0.46 KCAL/MOL
REMARK 927      BINDING AFFINITY PREDICTED BY RF-SCORE:    0.00 PKD
ROOT
HETATM    1  C   UNL     1     -10.322  16.285  65.699  1.00  0.00    -0.385 C  
HETATM    2  C   UNL     1      -9.828  15.421  66.856  1.00  0.00    -0.244 C  
ENDROOT
BRANCH   2   3
HETATM    3  N   UNL     1      -8.375  15.494  67.139  1.00  0.00    -0.195 NA 
BRANCH   3   4
HETATM    4  C   UNL     1      -8.124  16.251  68.392  1.00  0.00    -0.183 C  
BRANCH   4   5
HETATM    5  C   UNL     1      -7.663  17.709  68.211  1.00  0.00    -0.253 C  
HETATM    6  H   UNL     1      -8.383  19.511  68.561  1.00  0.00     0.000 HD 
HETATM    7  O   UNL     1      -8.668  18.612  68.673  1.00  0.00    -0.324 OA 
ENDBRANCH   4   5
ENDBRANCH   3   4
BRANCH   3   8
HETATM    8  C   UNL     1      -7.824  14.121  67.235  1.00  0.00    -0.132 C  
BRANCH   8   9
HETATM    9  C   UNL     1      -8.497  13.207  68.282  1.00  0.00    -0.161 C  
BRANCH   9  10
HETATM   10  C   UNL     1      -8.876  11.802  67.783  1.00  0.00    -0.163 C  
BRANCH  10  11
HETATM   11  C   UNL     1      -9.764  11.801  66.523  1.00  0.00    -0.206 C  
HETATM   12  C   UNL     1      -9.144  10.987  65.384  1.00  0.00    -0.213 C  
BRANCH  11  13
HETATM   13  N   UNL     1     -11.100  11.247  66.840  1.00  0.00    -0.293 NA 
HETATM   14  H   UNL     1     -11.837  11.207  66.137  1.00  0.00     0.000 HD 
BRANCH  13  15
HETATM   15  C   UNL     1     -11.312  10.773  68.165  1.00  0.00    -0.308 A  
HETATM   16  C   UNL     1     -11.024   9.422  68.500  1.00  0.00    -0.076 A  
HETATM   17  C   UNL     1     -10.568   8.456  67.570  1.00  0.00    -0.285 A  
HETATM   18  C   UNL     1     -10.314   7.140  67.964  1.00  0.00    -0.238 A  
HETATM   19  C   UNL     1     -10.527   6.772  69.286  1.00  0.00    -0.215 A  
HETATM   20  C   UNL     1     -10.977   7.707  70.213  1.00  0.00    -0.261 A  
HETATM   21 CL   UNL     1     -10.229   5.152  69.787  1.00  0.00    -0.345 Cl 
HETATM   22  C   UNL     1     -11.217   9.018  69.845  1.00  0.00    -0.079 A  
HETATM   23  N   UNL     1     -11.620   9.855  70.810  1.00  0.00    -0.321 NA 
HETATM   24  C   UNL     1     -11.818  11.144  70.480  1.00  0.00    -0.351 A  
HETATM   25  C   UNL     1     -11.652  11.640  69.202  1.00  0.00    -0.378 A  
ENDBRANCH  13  15
ENDBRANCH  11  13
ENDBRANCH  10  11
ENDBRANCH   9  10
ENDBRANCH   8   9
ENDBRANCH   3   8
ENDBRANCH   2   3
TORSDOF 9
ENDMDL
MODEL      269
REMARK 921   NORMALIZED FREE ENERGY PREDICTED BY IDOCK:   -3.17 KCAL/MOL
REMARK 922        TOTAL FREE ENERGY PREDICTED BY IDOCK:   -6.07 KCAL/MOL
REMARK 923 INTER-LIGAND FREE ENERGY PREDICTED BY IDOCK:   -5.57 KCAL/MOL
REMARK 924 INTRA-LIGAND FREE ENERGY PREDICTED BY IDOCK:   -0.49 KCAL/MOL
REMARK 927      BINDING AFFINITY PREDICTED BY RF-SCORE:    0.00 PKD
ROOT
HETATM    1  C   UNL     1     -11.447  13.826  67.769  1.00  0.00    -0.354 C  
HETATM    2  C   UNL     1     -11.282  13.186  69.144  1.00  0.00    -0.247 C  
ENDROOT
BRANCH   2   3
HETATM    3  N   UNL     1     -11.064  11.719  69.149  1.00  0.00    -0.241 NA 
BRANCH   3   4
HETATM    4  C   UNL     1     -12.247  11.017  69.709  1.00  0.00    -0.318 C  
BRANCH   4   5
HETATM    5  C   UNL     1     -13.033  11.787  70.787  1.00  0.00     0.048 C  
HETATM    6  H   UNL     1     -13.630  11.480  72.641  1.00  0.00     0.000 HD 
HETATM    7  O   UNL     1     -13.146  11.006  71.976  1.00  0.00    -0.496 OA 
ENDBRANCH   4   5
ENDBRANCH   3   4
BRANCH   3   8
HETATM    8  C   UNL     1     -10.786  11.261  67.766  1.00  0.00    -0.235 C  
BRANCH   8   9
HETATM    9  C   UNL     1      -9.455  10.500  67.575  1.00  0.00    -0.166 C  
BRANCH   9  10
HETATM   10  C   UNL     1      -9.542   8.973  67.740  1.00  0.00    -0.178 C  
BRANCH  10  11
HETATM   11  C   UNL     1      -9.341   8.485  69.188  1.00  0.00    -0.153 C  
HETATM   12  C   UNL     1      -8.719   9.565  70.077  1.00  0.00    -0.242 C  
BRANCH  11  13
HETATM   13  N   UNL     1     -10.637   8.068  69.771  1.00  0.00    -0.238 NA 
HETATM   14  H   UNL     1     -11.517   8.242  69.285  1.00  0.00     0.000 HD 
BRANCH  13  15
HETATM   15  C   UNL     1     -10.604   7.416  71.035  1.00  0.00    -0.224 A  
HETATM   16  C   UNL     1     -10.256   6.041  71.127  1.00  0.00    -0.257 A  
HETATM   17  C   UNL     1      -9.975   5.220  70.007  1.00  0.00    -0.315 A  
HETATM   18  C   UNL     1      -9.650   3.871  70.167  1.00  0.00    -0.267 A  
HETATM   19  C   UNL     1      -9.618   3.324  71.443  1.00  0.00    -0.160 A  
HETATM   20  C   UNL     1      -9.895   4.115  72.555  1.00  0.00    -0.213 A  
HETATM   21 CL   UNL     1      -9.230   1.661  71.658  1.00  0.00    -0.136 Cl 
HETATM   22  C   UNL     1     -10.201   5.456  72.418  1.00  0.00    -0.195 A  
HETATM   23  N   UNL     1     -10.424   6.147  73.544  1.00  0.00    -0.246 NA 
HETATM   24  C   UNL     1     -10.682   7.462  73.433  1.00  0.00    -0.357 A  
HETATM   25  C   UNL     1     -10.752   8.128  72.225  1.00  0.00    -0.381 A  
ENDBRANCH  13  15
ENDBRANCH  11  13
ENDBRANCH  10  11
ENDBRANCH   9  10
ENDBRANCH   8   9
ENDBRANCH   3   8
ENDBRANCH   2   3
TORSDOF 9
ENDMDL
MODEL      270
REMARK 921   NORMALIZED FREE ENERGY PREDICTED BY IDOCK:   -3.17 KCAL/MOL
REMARK 922        TOTAL FREE ENERGY PREDICTED BY IDOCK:   -6.07 KCAL/MOL
REMARK 923 INTER-LIGAND FREE ENERGY PREDICTED BY IDOCK:   -5.12 KCAL/MOL
REMARK 924 INTRA-LIGAND FREE ENERGY PREDICTED BY IDOCK:   -0.95 KCAL/MOL
REMARK 927      BINDING AFFINITY PREDICTED BY RF-SCORE:    0.00 PKD
ROOT
HETATM    1  C   UNL     1      -8.237  10.443  64.930  1.00  0.00    -0.145 C  
HETATM    2  C   UNL     1      -8.234  11.499  66.031  1.00  0.00     0.089 C  
ENDROOT
BRANCH   2   3
HETATM    3  N   UNL     1      -9.532  11.723  66.711  1.00  0.00    -0.188 NA 
BRANCH   3   4
HETATM    4  C   UNL     1     -10.423  12.565  65.874  1.00  0.00    -0.265 C  
BRANCH   4   5
HETATM    5  C   UNL     1     -10.954  13.847  66.542  1.00  0.00    -0.300 C  
HETATM    6  H   UNL     1     -12.693  14.550  67.151  1.00  0.00     0.000 HD 
HETATM    7  O   UNL     1     -12.365  13.760  66.739  1.00  0.00    -0.403 OA 
ENDBRANCH   4   5
ENDBRANCH   3   4
BRANCH   3   8
HETATM    8  C   UNL     1     -10.165  10.413  67.002  1.00  0.00    -0.225 C  
BRANCH   8   9
HETATM    9  C   UNL     1     -11.302  10.444  68.047  1.00  0.00    -0.277 C  
BRANCH   9  10
HETATM   10  C   UNL     1     -10.862  10.766  69.487  1.00  0.00    -0.288 C  
BRANCH  10  11
HETATM   11  C   UNL     1     -11.495   9.854  70.556  1.00  0.00    -0.318 C  
HETATM   12  C   UNL     1     -12.864  10.366  71.010  1.00  0.00    -0.494 C  
BRANCH  11  13
HETATM   13  N   UNL     1     -11.645   8.478  70.029  1.00  0.00    -0.451 NA 
HETATM   14  H   UNL     1     -12.053   8.303  69.111  1.00  0.00     0.000 HD 
BRANCH  13  15
HETATM   15  C   UNL     1     -11.197   7.411  70.857  1.00  0.00    -0.270 A  
HETATM   16  C   UNL     1      -9.935   6.800  70.622  1.00  0.00    -0.201 A  
HETATM   17  C   UNL     1      -9.073   7.150  69.555  1.00  0.00    -0.146 A  
HETATM   18  C   UNL     1      -7.849   6.501  69.374  1.00  0.00    -0.106 A  
HETATM   19  C   UNL     1      -7.482   5.485  70.246  1.00  0.00    -0.076 A  
HETATM   20  C   UNL     1      -8.318   5.124  71.298  1.00  0.00    -0.118 A  
HETATM   21 CL   UNL     1      -5.982   4.666  70.031  1.00  0.00    -0.017 Cl 
HETATM   22  C   UNL     1      -9.524   5.767  71.504  1.00  0.00    -0.150 A  
HETATM   23  N   UNL     1     -10.251   5.375  72.559  1.00  0.00    -0.189 NA 
HETATM   24  C   UNL     1     -11.407   6.018  72.799  1.00  0.00    -0.242 A  
HETATM   25  C   UNL     1     -11.894   7.038  72.005  1.00  0.00    -0.336 A  
ENDBRANCH  13  15
ENDBRANCH  11  13
ENDBRANCH  10  11
ENDBRANCH   9  10
ENDBRANCH   8   9
ENDBRANCH   3   8
ENDBRANCH   2   3
TORSDOF 9
ENDMDL
MODEL      271
REMARK 921   NORMALIZED FREE ENERGY PREDICTED BY IDOCK:   -3.16 KCAL/MOL
REMARK 922        TOTAL FREE ENERGY PREDICTED BY IDOCK:   -6.05 KCAL/MOL
REMARK 923 INTER-LIGAND FREE ENERGY PREDICTED BY IDOCK:   -4.74 KCAL/MOL
REMARK 924 INTRA-LIGAND FREE ENERGY PREDICTED BY IDOCK:   -1.31 KCAL/MOL
REMARK 927      BINDING AFFINITY PREDICTED BY RF-SCORE:    0.00 PKD
ROOT
HETATM    1  C   UNL     1      -8.842  15.161  66.262  1.00  0.00    -0.211 C  
HETATM    2  C   UNL     1      -8.170  14.426  67.418  1.00  0.00    -0.199 C  
ENDROOT
BRANCH   2   3
HETATM    3  N   UNL     1      -6.691  14.352  67.360  1.00  0.00    -0.275 NA 
BRANCH   3   4
HETATM    4  C   UNL     1      -6.080  15.415  68.197  1.00  0.00    -0.129 C  
BRANCH   4   5
HETATM    5  C   UNL     1      -5.718  16.720  67.463  1.00  0.00    -0.150 C  
HETATM    6  H   UNL     1      -5.159  18.547  67.947  1.00  0.00     0.000 HD 
HETATM    7  O   UNL     1      -5.382  17.743  68.400  1.00  0.00    -0.150 OA 
ENDBRANCH   4   5
ENDBRANCH   3   4
BRANCH   3   8
HETATM    8  C   UNL     1      -6.249  13.009  67.808  1.00  0.00    -0.149 C  
BRANCH   8   9
HETATM    9  C   UNL     1      -6.601  12.648  69.268  1.00  0.00    -0.092 C  
BRANCH   9  10
HETATM   10  C   UNL     1      -6.652  11.142  69.579  1.00  0.00    -0.126 C  
BRANCH  10  11
HETATM   11  C   UNL     1      -6.767  10.246  68.331  1.00  0.00    -0.057 C  
HETATM   12  C   UNL     1      -5.952   8.958  68.471  1.00  0.00    -0.045 C  
BRANCH  11  13
HETATM   13  N   UNL     1      -8.184   9.895  68.083  1.00  0.00    -0.108 NA 
HETATM   14  H   UNL     1      -8.778   9.529  68.827  1.00  0.00     0.000 HD 
BRANCH  13  15
HETATM   15  C   UNL     1      -8.683  10.090  66.765  1.00  0.00    -0.129 A  
HETATM   16  C   UNL     1      -9.732  11.019  66.523  1.00  0.00    -0.230 A  
HETATM   17  C   UNL     1     -10.381  11.762  67.539  1.00  0.00    -0.217 A  
HETATM   18  C   UNL     1     -11.414  12.651  67.233  1.00  0.00    -0.402 A  
HETATM   19  C   UNL     1     -11.820  12.795  65.913  1.00  0.00    -0.437 A  
HETATM   20  C   UNL     1     -11.196  12.071  64.902  1.00  0.00    -0.374 A  
HETATM   21 CL   UNL     1     -13.099  13.879  65.520  1.00  0.00    -0.394 Cl 
HETATM   22  C   UNL     1     -10.161  11.199  65.183  1.00  0.00    -0.281 A  
HETATM   23  N   UNL     1      -9.600  10.567  64.144  1.00  0.00    -0.287 NA 
HETATM   24  C   UNL     1      -8.563   9.747  64.393  1.00  0.00    -0.188 A  
HETATM   25  C   UNL     1      -8.066   9.506  65.659  1.00  0.00    -0.112 A  
ENDBRANCH  13  15
ENDBRANCH  11  13
ENDBRANCH  10  11
ENDBRANCH   9  10
ENDBRANCH   8   9
ENDBRANCH   3   8
ENDBRANCH   2   3
TORSDOF 9
ENDMDL
MODEL      272
REMARK 921   NORMALIZED FREE ENERGY PREDICTED BY IDOCK:   -3.16 KCAL/MOL
REMARK 922        TOTAL FREE ENERGY PREDICTED BY IDOCK:   -6.04 KCAL/MOL
REMARK 923 INTER-LIGAND FREE ENERGY PREDICTED BY IDOCK:   -5.88 KCAL/MOL
REMARK 924 INTRA-LIGAND FREE ENERGY PREDICTED BY IDOCK:   -0.16 KCAL/MOL
REMARK 927      BINDING AFFINITY PREDICTED BY RF-SCORE:    0.00 PKD
ROOT
HETATM    1  C   UNL     1     -13.378  10.290  71.157  1.00  0.00    -0.339 C  
HETATM    2  C   UNL     1     -12.355  11.422  71.176  1.00  0.00    -0.299 C  
ENDROOT
BRANCH   2   3
HETATM    3  N   UNL     1     -12.764  12.670  70.488  1.00  0.00    -0.068 NA 
BRANCH   3   4
HETATM    4  C   UNL     1     -12.873  13.789  71.457  1.00  0.00    -0.362 C  
BRANCH   4   5
HETATM    5  C   UNL     1     -12.973  15.198  70.842  1.00  0.00    -0.429 C  
HETATM    6  H   UNL     1     -11.804  16.772  70.629  1.00  0.00     0.000 HD 
HETATM    7  O   UNL     1     -11.743  15.903  71.008  1.00  0.00    -0.369 OA 
ENDBRANCH   4   5
ENDBRANCH   3   4
BRANCH   3   8
HETATM    8  C   UNL     1     -11.780  12.988  69.425  1.00  0.00    -0.326 C  
BRANCH   8   9
HETATM    9  C   UNL     1     -11.743  12.001  68.238  1.00  0.00    -0.396 C  
BRANCH   9  10
HETATM   10  C   UNL     1     -10.455  11.167  68.115  1.00  0.00    -0.215 C  
BRANCH  10  11
HETATM   11  C   UNL     1     -10.564   9.983  67.135  1.00  0.00    -0.232 C  
HETATM   12  C   UNL     1      -9.227   9.674  66.457  1.00  0.00    -0.197 C  
BRANCH  11  13
HETATM   13  N   UNL     1     -11.034   8.773  67.847  1.00  0.00    -0.491 NA 
HETATM   14  H   UNL     1     -12.028   8.564  67.938  1.00  0.00     0.000 HD 
BRANCH  13  15
HETATM   15  C   UNL     1     -10.043   7.914  68.398  1.00  0.00    -0.194 A  
HETATM   16  C   UNL     1      -9.761   7.941  69.791  1.00  0.00    -0.176 A  
HETATM   17  C   UNL     1     -10.380   8.828  70.706  1.00  0.00    -0.264 A  
HETATM   18  C   UNL     1     -10.048   8.810  72.063  1.00  0.00    -0.397 A  
HETATM   19  C   UNL     1      -9.085   7.919  72.517  1.00  0.00    -0.187 A  
HETATM   20  C   UNL     1      -8.463   7.043  71.632  1.00  0.00    -0.115 A  
HETATM   21 CL   UNL     1      -8.656   7.891  74.184  1.00  0.00    -0.317 Cl 
HETATM   22  C   UNL     1      -8.791   7.034  70.289  1.00  0.00    -0.148 A  
HETATM   23  N   UNL     1      -8.164   6.137  69.517  1.00  0.00    -0.115 NA 
HETATM   24  C   UNL     1      -8.501   6.085  68.216  1.00  0.00    -0.112 A  
HETATM   25  C   UNL     1      -9.435   6.919  67.633  1.00  0.00    -0.133 A  
ENDBRANCH  13  15
ENDBRANCH  11  13
ENDBRANCH  10  11
ENDBRANCH   9  10
ENDBRANCH   8   9
ENDBRANCH   3   8
ENDBRANCH   2   3
TORSDOF 9
ENDMDL
MODEL      273
REMARK 921   NORMALIZED FREE ENERGY PREDICTED BY IDOCK:   -3.16 KCAL/MOL
REMARK 922        TOTAL FREE ENERGY PREDICTED BY IDOCK:   -6.04 KCAL/MOL
REMARK 923 INTER-LIGAND FREE ENERGY PREDICTED BY IDOCK:   -5.67 KCAL/MOL
REMARK 924 INTRA-LIGAND FREE ENERGY PREDICTED BY IDOCK:   -0.37 KCAL/MOL
REMARK 927      BINDING AFFINITY PREDICTED BY RF-SCORE:    0.00 PKD
ROOT
HETATM    1  C   UNL     1      -8.764   8.440  71.658  1.00  0.00    -0.240 C  
HETATM    2  C   UNL     1      -7.759   8.343  70.514  1.00  0.00    -0.080 C  
ENDROOT
BRANCH   2   3
HETATM    3  N   UNL     1      -8.165   8.990  69.244  1.00  0.00    -0.115 NA 
BRANCH   3   4
HETATM    4  C   UNL     1      -9.424   8.392  68.731  1.00  0.00    -0.147 C  
BRANCH   4   5
HETATM    5  C   UNL     1      -9.262   7.376  67.585  1.00  0.00    -0.127 C  
HETATM    6  H   UNL     1     -10.327   6.738  66.053  1.00  0.00     0.000 HD 
HETATM    7  O   UNL     1     -10.427   7.364  66.760  1.00  0.00    -0.296 OA 
ENDBRANCH   4   5
ENDBRANCH   3   4
BRANCH   3   8
HETATM    8  C   UNL     1      -8.328  10.448  69.467  1.00  0.00    -0.113 C  
BRANCH   8   9
HETATM    9  C   UNL     1      -9.020  11.220  68.323  1.00  0.00    -0.172 C  
BRANCH   9  10
HETATM   10  C   UNL     1      -9.356  12.690  68.632  1.00  0.00     0.017 C  
BRANCH  10  11
HETATM   11  C   UNL     1      -9.948  13.464  67.437  1.00  0.00    -0.230 C  
HETATM   12  C   UNL     1      -9.749  12.718  66.115  1.00  0.00    -0.246 C  
BRANCH  11  13
HETATM   13  N   UNL     1     -11.395  13.696  67.646  1.00  0.00    -0.286 NA 
HETATM   14  H   UNL     1     -12.055  13.663  66.869  1.00  0.00     0.000 HD 
BRANCH  13  15
HETATM   15  C   UNL     1     -11.828  13.967  68.974  1.00  0.00    -0.354 A  
HETATM   16  C   UNL     1     -12.189  12.903  69.844  1.00  0.00    -0.258 A  
HETATM   17  C   UNL     1     -12.201  11.539  69.464  1.00  0.00    -0.287 A  
HETATM   18  C   UNL     1     -12.578  10.542  70.367  1.00  0.00    -0.364 A  
HETATM   19  C   UNL     1     -12.963  10.898  71.653  1.00  0.00    -0.464 A  
HETATM   20  C   UNL     1     -12.961  12.233  72.043  1.00  0.00    -0.375 A  
HETATM   21 CL   UNL     1     -13.441   9.683  72.775  1.00  0.00    -0.155 Cl 
HETATM   22  C   UNL     1     -12.574  13.232  71.169  1.00  0.00    -0.325 A  
HETATM   23  N   UNL     1     -12.574  14.486  71.641  1.00  0.00    -0.333 NA 
HETATM   24  C   UNL     1     -12.160  15.466  70.818  1.00  0.00    -0.366 A  
HETATM   25  C   UNL     1     -11.761  15.252  69.513  1.00  0.00    -0.359 A  
ENDBRANCH  13  15
ENDBRANCH  11  13
ENDBRANCH  10  11
ENDBRANCH   9  10
ENDBRANCH   8   9
ENDBRANCH   3   8
ENDBRANCH   2   3
TORSDOF 9
ENDMDL
MODEL      274
REMARK 921   NORMALIZED FREE ENERGY PREDICTED BY IDOCK:   -3.15 KCAL/MOL
REMARK 922        TOTAL FREE ENERGY PREDICTED BY IDOCK:   -6.04 KCAL/MOL
REMARK 923 INTER-LIGAND FREE ENERGY PREDICTED BY IDOCK:   -5.28 KCAL/MOL
REMARK 924 INTRA-LIGAND FREE ENERGY PREDICTED BY IDOCK:   -0.75 KCAL/MOL
REMARK 927      BINDING AFFINITY PREDICTED BY RF-SCORE:    0.00 PKD
ROOT
HETATM    1  C   UNL     1     -10.820  15.942  66.519  1.00  0.00    -0.198 C  
HETATM    2  C   UNL     1     -11.312  14.929  65.489  1.00  0.00    -0.339 C  
ENDROOT
BRANCH   2   3
HETATM    3  N   UNL     1     -12.225  13.881  66.004  1.00  0.00    -0.439 NA 
BRANCH   3   4
HETATM    4  C   UNL     1     -12.476  12.849  64.966  1.00  0.00    -0.492 C  
BRANCH   4   5
HETATM    5  C   UNL     1     -11.815  13.103  63.598  1.00  0.00    -0.488 C  
HETATM    6  H   UNL     1     -10.326  12.351  62.546  1.00  0.00     0.000 HD 
HETATM    7  O   UNL     1     -10.733  12.195  63.390  1.00  0.00    -0.430 OA 
ENDBRANCH   4   5
ENDBRANCH   3   4
BRANCH   3   8
HETATM    8  C   UNL     1     -11.635  13.271  67.220  1.00  0.00    -0.359 C  
BRANCH   8   9
HETATM    9  C   UNL     1     -10.437  12.327  66.975  1.00  0.00    -0.237 C  
BRANCH   9  10
HETATM   10  C   UNL     1      -9.060  12.898  67.360  1.00  0.00    -0.197 C  
BRANCH  10  11
HETATM   11  C   UNL     1      -8.036  11.831  67.792  1.00  0.00    -0.143 C  
HETATM   12  C   UNL     1      -6.608  12.212  67.395  1.00  0.00    -0.147 C  
BRANCH  11  13
HETATM   13  N   UNL     1      -8.092  11.634  69.258  1.00  0.00    -0.346 NA 
HETATM   14  H   UNL     1      -8.425  12.371  69.880  1.00  0.00     0.000 HD 
BRANCH  13  15
HETATM   15  C   UNL     1      -7.662  10.376  69.765  1.00  0.00    -0.116 A  
HETATM   16  C   UNL     1      -8.440   9.207  69.541  1.00  0.00    -0.128 A  
HETATM   17  C   UNL     1      -9.686   9.203  68.868  1.00  0.00    -0.165 A  
HETATM   18  C   UNL     1     -10.406   8.018  68.692  1.00  0.00    -0.224 A  
HETATM   19  C   UNL     1      -9.897   6.830  69.200  1.00  0.00    -0.157 A  
HETATM   20  C   UNL     1      -8.676   6.816  69.867  1.00  0.00    -0.141 A  
HETATM   21 CL   UNL     1     -10.776   5.363  69.002  1.00  0.00    -0.225 Cl 
HETATM   22  C   UNL     1      -7.941   7.975  70.035  1.00  0.00    -0.106 A  
HETATM   23  N   UNL     1      -6.763   7.862  70.663  1.00  0.00    -0.038 NA 
HETATM   24  C   UNL     1      -6.015   8.971  70.799  1.00  0.00    -0.041 A  
HETATM   25  C   UNL     1      -6.406  10.217  70.349  1.00  0.00    -0.127 A  
ENDBRANCH  13  15
ENDBRANCH  11  13
ENDBRANCH  10  11
ENDBRANCH   9  10
ENDBRANCH   8   9
ENDBRANCH   3   8
ENDBRANCH   2   3
TORSDOF 9
ENDMDL
MODEL      275
REMARK 921   NORMALIZED FREE ENERGY PREDICTED BY IDOCK:   -3.13 KCAL/MOL
REMARK 922        TOTAL FREE ENERGY PREDICTED BY IDOCK:   -6.01 KCAL/MOL
REMARK 923 INTER-LIGAND FREE ENERGY PREDICTED BY IDOCK:   -5.08 KCAL/MOL
REMARK 924 INTRA-LIGAND FREE ENERGY PREDICTED BY IDOCK:   -0.93 KCAL/MOL
REMARK 927      BINDING AFFINITY PREDICTED BY RF-SCORE:    0.00 PKD
ROOT
HETATM    1  C   UNL     1      -6.835   8.861  66.916  1.00  0.00    -0.077 C  
HETATM    2  C   UNL     1      -8.061   8.037  66.535  1.00  0.00    -0.103 C  
ENDROOT
BRANCH   2   3
HETATM    3  N   UNL     1      -9.369   8.606  66.937  1.00  0.00    -0.159 NA 
BRANCH   3   4
HETATM    4  C   UNL     1      -9.984   7.793  68.017  1.00  0.00    -0.175 C  
BRANCH   4   5
HETATM    5  C   UNL     1     -11.253   7.012  67.626  1.00  0.00    -0.000 C  
HETATM    6  H   UNL     1     -11.728   5.533  66.412  1.00  0.00     0.000 HD 
HETATM    7  O   UNL     1     -10.946   6.014  66.653  1.00  0.00    -0.293 OA 
ENDBRANCH   4   5
ENDBRANCH   3   4
BRANCH   3   8
HETATM    8  C   UNL     1      -9.179  10.009  67.378  1.00  0.00    -0.137 C  
BRANCH   8   9
HETATM    9  C   UNL     1     -10.399  10.936  67.184  1.00  0.00    -0.262 C  
BRANCH   9  10
HETATM   10  C   UNL     1     -10.390  11.774  65.893  1.00  0.00    -0.280 C  
BRANCH  10  11
HETATM   11  C   UNL     1     -10.763  13.254  66.102  1.00  0.00    -0.279 C  
HETATM   12  C   UNL     1     -12.264  13.499  65.929  1.00  0.00    -0.507 C  
BRANCH  11  13
HETATM   13  N   UNL     1     -10.355  13.698  67.454  1.00  0.00    -0.243 NA 
HETATM   14  H   UNL     1     -10.892  13.438  68.282  1.00  0.00     0.000 HD 
BRANCH  13  15
HETATM   15  C   UNL     1      -9.183  14.500  67.552  1.00  0.00    -0.194 A  
HETATM   16  C   UNL     1      -9.287  15.910  67.692  1.00  0.00    -0.217 A  
HETATM   17  C   UNL     1     -10.514  16.617  67.693  1.00  0.00    -0.320 A  
HETATM   18  C   UNL     1     -10.545  18.008  67.823  1.00  0.00    -0.409 A  
HETATM   19  C   UNL     1      -9.350  18.708  67.938  1.00  0.00    -0.298 A  
HETATM   20  C   UNL     1      -8.135  18.030  67.936  1.00  0.00    -0.243 A  
HETATM   21 CL   UNL     1      -9.369  20.423  68.088  1.00  0.00    -0.217 Cl 
HETATM   22  C   UNL     1      -8.086  16.653  67.825  1.00  0.00    -0.176 A  
HETATM   23  N   UNL     1      -6.874  16.083  67.862  1.00  0.00    -0.131 NA 
HETATM   24  C   UNL     1      -6.809  14.741  67.799  1.00  0.00    -0.177 A  
HETATM   25  C   UNL     1      -7.918  13.927  67.674  1.00  0.00    -0.181 A  
ENDBRANCH  13  15
ENDBRANCH  11  13
ENDBRANCH  10  11
ENDBRANCH   9  10
ENDBRANCH   8   9
ENDBRANCH   3   8
ENDBRANCH   2   3
TORSDOF 9
ENDMDL
MODEL      276
REMARK 921   NORMALIZED FREE ENERGY PREDICTED BY IDOCK:   -3.13 KCAL/MOL
REMARK 922        TOTAL FREE ENERGY PREDICTED BY IDOCK:   -6.01 KCAL/MOL
REMARK 923 INTER-LIGAND FREE ENERGY PREDICTED BY IDOCK:   -5.06 KCAL/MOL
REMARK 924 INTRA-LIGAND FREE ENERGY PREDICTED BY IDOCK:   -0.95 KCAL/MOL
REMARK 927      BINDING AFFINITY PREDICTED BY RF-SCORE:    0.00 PKD
ROOT
HETATM    1  C   UNL     1     -11.990  13.123  68.315  1.00  0.00    -0.328 C  
HETATM    2  C   UNL     1     -11.916  13.393  66.815  1.00  0.00    -0.394 C  
ENDROOT
BRANCH   2   3
HETATM    3  N   UNL     1     -11.747  12.198  65.954  1.00  0.00    -0.482 NA 
BRANCH   3   4
HETATM    4  C   UNL     1     -12.635  12.278  64.767  1.00  0.00    -0.224 C  
BRANCH   4   5
HETATM    5  C   UNL     1     -11.968  12.759  63.465  1.00  0.00    -0.555 C  
HETATM    6  H   UNL     1     -12.007  14.368  62.326  1.00  0.00     0.000 HD 
HETATM    7  O   UNL     1     -12.418  14.071  63.129  1.00  0.00    -0.733 OA 
ENDBRANCH   4   5
ENDBRANCH   3   4
BRANCH   3   8
HETATM    8  C   UNL     1     -10.326  12.088  65.543  1.00  0.00    -0.263 C  
BRANCH   8   9
HETATM    9  C   UNL     1      -9.604  10.798  65.991  1.00  0.00    -0.244 C  
BRANCH   9  10
HETATM   10  C   UNL     1      -9.415  10.645  67.511  1.00  0.00    -0.169 C  
BRANCH  10  11
HETATM   11  C   UNL     1      -8.387   9.568  67.911  1.00  0.00    -0.115 C  
HETATM   12  C   UNL     1      -7.293  10.129  68.823  1.00  0.00    -0.084 C  
BRANCH  11  13
HETATM   13  N   UNL     1      -9.064   8.448  68.603  1.00  0.00    -0.140 NA 
HETATM   14  H   UNL     1      -9.280   8.493  69.599  1.00  0.00     0.000 HD 
BRANCH  13  15
HETATM   15  C   UNL     1      -9.403   7.308  67.822  1.00  0.00    -0.128 A  
HETATM   16  C   UNL     1      -8.542   6.177  67.791  1.00  0.00    -0.114 A  
HETATM   17  C   UNL     1      -7.298   6.110  68.465  1.00  0.00    -0.086 A  
HETATM   18  C   UNL     1      -6.495   4.970  68.383  1.00  0.00    -0.037 A  
HETATM   19  C   UNL     1      -6.917   3.892  67.616  1.00  0.00    -0.055 A  
HETATM   20  C   UNL     1      -8.135   3.942  66.944  1.00  0.00    -0.096 A  
HETATM   21 CL   UNL     1      -5.935   2.484  67.495  1.00  0.00    -0.020 Cl 
HETATM   22  C   UNL     1      -8.952   5.054  67.027  1.00  0.00    -0.112 A  
HETATM   23  N   UNL     1     -10.119   5.001  66.372  1.00  0.00    -0.223 NA 
HETATM   24  C   UNL     1     -10.946   6.057  66.476  1.00  0.00    -0.045 A  
HETATM   25  C   UNL     1     -10.645   7.196  67.198  1.00  0.00    -0.417 A  
ENDBRANCH  13  15
ENDBRANCH  11  13
ENDBRANCH  10  11
ENDBRANCH   9  10
ENDBRANCH   8   9
ENDBRANCH   3   8
ENDBRANCH   2   3
TORSDOF 9
ENDMDL
MODEL      277
REMARK 921   NORMALIZED FREE ENERGY PREDICTED BY IDOCK:   -3.13 KCAL/MOL
REMARK 922        TOTAL FREE ENERGY PREDICTED BY IDOCK:   -6.00 KCAL/MOL
REMARK 923 INTER-LIGAND FREE ENERGY PREDICTED BY IDOCK:   -5.37 KCAL/MOL
REMARK 924 INTRA-LIGAND FREE ENERGY PREDICTED BY IDOCK:   -0.63 KCAL/MOL
REMARK 927      BINDING AFFINITY PREDICTED BY RF-SCORE:    0.00 PKD
ROOT
HETATM    1  C   UNL     1     -13.444  11.247  71.886  1.00  0.00    -0.278 C  
HETATM    2  C   UNL     1     -12.924  12.666  72.095  1.00  0.00    -0.228 C  
ENDROOT
BRANCH   2   3
HETATM    3  N   UNL     1     -12.918  13.533  70.893  1.00  0.00    -0.208 NA 
BRANCH   3   4
HETATM    4  C   UNL     1     -12.518  14.918  71.248  1.00  0.00    -0.329 C  
BRANCH   4   5
HETATM    5  C   UNL     1     -12.147  15.149  72.725  1.00  0.00    -0.381 C  
HETATM    6  H   UNL     1     -11.871  16.688  73.927  1.00  0.00     0.000 HD 
HETATM    7  O   UNL     1     -12.100  16.545  73.016  1.00  0.00    -0.513 OA 
ENDBRANCH   4   5
ENDBRANCH   3   4
BRANCH   3   8
HETATM    8  C   UNL     1     -11.997  12.962  69.881  1.00  0.00    -0.307 C  
BRANCH   8   9
HETATM    9  C   UNL     1     -10.969  13.950  69.287  1.00  0.00    -0.222 C  
BRANCH   9  10
HETATM   10  C   UNL     1     -10.697  13.789  67.781  1.00  0.00    -0.254 C  
BRANCH  10  11
HETATM   11  C   UNL     1      -9.255  14.137  67.362  1.00  0.00    -0.204 C  
HETATM   12  C   UNL     1      -8.506  14.898  68.460  1.00  0.00    -0.163 C  
BRANCH  11  13
HETATM   13  N   UNL     1      -8.507  12.903  67.035  1.00  0.00    -0.320 NA 
HETATM   14  H   UNL     1      -8.310  12.643  66.068  1.00  0.00     0.000 HD 
BRANCH  13  15
HETATM   15  C   UNL     1      -8.073  12.095  68.123  1.00  0.00    -0.161 A  
HETATM   16  C   UNL     1      -8.762  10.895  68.448  1.00  0.00    -0.147 A  
HETATM   17  C   UNL     1      -9.926  10.445  67.777  1.00  0.00    -0.203 A  
HETATM   18  C   UNL     1     -10.562   9.260  68.155  1.00  0.00    -0.248 A  
HETATM   19  C   UNL     1     -10.053   8.522  69.216  1.00  0.00    -0.202 A  
HETATM   20  C   UNL     1      -8.913   8.950  69.888  1.00  0.00    -0.160 A  
HETATM   21 CL   UNL     1     -10.831   7.065  69.701  1.00  0.00    -0.264 Cl 
HETATM   22  C   UNL     1      -8.259  10.111  69.517  1.00  0.00    -0.168 A  
HETATM   23  N   UNL     1      -7.153  10.431  70.202  1.00  0.00    -0.187 NA 
HETATM   24  C   UNL     1      -6.480  11.534  69.827  1.00  0.00    -0.125 A  
HETATM   25  C   UNL     1      -6.882  12.361  68.797  1.00  0.00    -0.092 A  
ENDBRANCH  13  15
ENDBRANCH  11  13
ENDBRANCH  10  11
ENDBRANCH   9  10
ENDBRANCH   8   9
ENDBRANCH   3   8
ENDBRANCH   2   3
TORSDOF 9
ENDMDL
MODEL      278
REMARK 921   NORMALIZED FREE ENERGY PREDICTED BY IDOCK:   -3.12 KCAL/MOL
REMARK 922        TOTAL FREE ENERGY PREDICTED BY IDOCK:   -6.00 KCAL/MOL
REMARK 923 INTER-LIGAND FREE ENERGY PREDICTED BY IDOCK:   -5.59 KCAL/MOL
REMARK 924 INTRA-LIGAND FREE ENERGY PREDICTED BY IDOCK:   -0.41 KCAL/MOL
REMARK 927      BINDING AFFINITY PREDICTED BY RF-SCORE:    0.00 PKD
ROOT
HETATM    1  C   UNL     1     -11.522  15.623  68.393  1.00  0.00    -0.374 C  
HETATM    2  C   UNL     1     -10.892  14.652  67.399  1.00  0.00    -0.298 C  
ENDROOT
BRANCH   2   3
HETATM    3  N   UNL     1     -11.712  13.468  67.048  1.00  0.00    -0.361 NA 
BRANCH   3   4
HETATM    4  C   UNL     1     -12.647  13.788  65.940  1.00  0.00    -0.447 C  
BRANCH   4   5
HETATM    5  C   UNL     1     -12.766  12.720  64.836  1.00  0.00    -0.404 C  
HETATM    6  H   UNL     1     -12.529  12.624  62.881  1.00  0.00     0.000 HD 
HETATM    7  O   UNL     1     -12.456  13.283  63.561  1.00  0.00    -0.728 OA 
ENDBRANCH   4   5
ENDBRANCH   3   4
BRANCH   3   8
HETATM    8  C   UNL     1     -10.818  12.345  66.675  1.00  0.00    -0.246 C  
BRANCH   8   9
HETATM    9  C   UNL     1      -9.336  12.515  67.077  1.00  0.00    -0.210 C  
BRANCH   9  10
HETATM   10  C   UNL     1      -8.500  11.224  67.067  1.00  0.00    -0.150 C  
BRANCH  10  11
HETATM   11  C   UNL     1      -9.338   9.932  67.115  1.00  0.00    -0.146 C  
HETATM   12  C   UNL     1      -9.595   9.362  65.717  1.00  0.00    -0.340 C  
BRANCH  11  13
HETATM   13  N   UNL     1      -8.652   8.907  67.934  1.00  0.00    -0.125 NA 
HETATM   14  H   UNL     1      -7.676   9.016  68.210  1.00  0.00     0.000 HD 
BRANCH  13  15
HETATM   15  C   UNL     1      -9.410   7.767  68.322  1.00  0.00    -0.143 A  
HETATM   16  C   UNL     1      -9.220   6.521  67.665  1.00  0.00    -0.113 A  
HETATM   17  C   UNL     1      -8.335   6.326  66.577  1.00  0.00    -0.114 A  
HETATM   18  C   UNL     1      -8.205   5.075  65.968  1.00  0.00    -0.113 A  
HETATM   19  C   UNL     1      -8.968   4.011  66.429  1.00  0.00    -0.128 A  
HETATM   20  C   UNL     1      -9.845   4.184  67.496  1.00  0.00    -0.139 A  
HETATM   21 CL   UNL     1      -8.828   2.465  65.684  1.00  0.00    -0.125 Cl 
HETATM   22  C   UNL     1      -9.975   5.410  68.121  1.00  0.00    -0.158 A  
HETATM   23  N   UNL     1     -10.821   5.477  69.158  1.00  0.00    -0.207 NA 
HETATM   24  C   UNL     1     -10.928   6.651  69.806  1.00  0.00    -0.313 A  
HETATM   25  C   UNL     1     -10.235   7.789  69.445  1.00  0.00    -0.208 A  
ENDBRANCH  13  15
ENDBRANCH  11  13
ENDBRANCH  10  11
ENDBRANCH   9  10
ENDBRANCH   8   9
ENDBRANCH   3   8
ENDBRANCH   2   3
TORSDOF 9
ENDMDL
MODEL      279
REMARK 921   NORMALIZED FREE ENERGY PREDICTED BY IDOCK:   -3.12 KCAL/MOL
REMARK 922        TOTAL FREE ENERGY PREDICTED BY IDOCK:   -5.99 KCAL/MOL
REMARK 923 INTER-LIGAND FREE ENERGY PREDICTED BY IDOCK:   -5.41 KCAL/MOL
REMARK 924 INTRA-LIGAND FREE ENERGY PREDICTED BY IDOCK:   -0.58 KCAL/MOL
REMARK 927      BINDING AFFINITY PREDICTED BY RF-SCORE:    0.00 PKD
ROOT
HETATM    1  C   UNL     1     -11.725   5.897  72.314  1.00  0.00    -0.309 C  
HETATM    2  C   UNL     1     -10.487   6.266  73.127  1.00  0.00    -0.239 C  
ENDROOT
BRANCH   2   3
HETATM    3  N   UNL     1     -10.034   7.672  73.006  1.00  0.00    -0.257 NA 
BRANCH   3   4
HETATM    4  C   UNL     1      -8.551   7.748  73.033  1.00  0.00    -0.165 C  
BRANCH   4   5
HETATM    5  C   UNL     1      -7.929   8.197  74.369  1.00  0.00    -0.253 C  
HETATM    6  H   UNL     1      -6.125   8.564  75.076  1.00  0.00     0.000 HD 
HETATM    7  O   UNL     1      -6.509   8.286  74.253  1.00  0.00    -0.113 OA 
ENDBRANCH   4   5
ENDBRANCH   3   4
BRANCH   3   8
HETATM    8  C   UNL     1     -10.567   8.253  71.750  1.00  0.00    -0.259 C  
BRANCH   8   9
HETATM    9  C   UNL     1      -9.652   9.285  71.055  1.00  0.00    -0.329 C  
BRANCH   9  10
HETATM   10  C   UNL     1     -10.159   9.805  69.699  1.00  0.00    -0.250 C  
BRANCH  10  11
HETATM   11  C   UNL     1      -9.214  10.816  69.020  1.00  0.00    -0.146 C  
HETATM   12  C   UNL     1      -8.145  10.122  68.172  1.00  0.00    -0.105 C  
BRANCH  11  13
HETATM   13  N   UNL     1      -9.987  11.740  68.159  1.00  0.00    -0.189 NA 
HETATM   14  H   UNL     1     -10.046  11.600  67.151  1.00  0.00     0.000 HD 
BRANCH  13  15
HETATM   15  C   UNL     1     -10.645  12.829  68.797  1.00  0.00    -0.189 A  
HETATM   16  C   UNL     1     -10.105  14.141  68.716  1.00  0.00    -0.199 A  
HETATM   17  C   UNL     1      -8.888  14.458  68.064  1.00  0.00    -0.178 A  
HETATM   18  C   UNL     1      -8.408  15.770  68.031  1.00  0.00    -0.153 A  
HETATM   19  C   UNL     1      -9.130  16.775  68.661  1.00  0.00    -0.254 A  
HETATM   20  C   UNL     1     -10.326  16.482  69.309  1.00  0.00    -0.318 A  
HETATM   21 CL   UNL     1      -8.548  18.395  68.639  1.00  0.00    -0.338 Cl 
HETATM   22  C   UNL     1     -10.826  15.194  69.337  1.00  0.00    -0.262 A  
HETATM   23  N   UNL     1     -11.999  15.010  69.958  1.00  0.00    -0.311 NA 
HETATM   24  C   UNL     1     -12.521  13.770  69.959  1.00  0.00    -0.240 A  
HETATM   25  C   UNL     1     -11.903  12.680  69.379  1.00  0.00    -0.356 A  
ENDBRANCH  13  15
ENDBRANCH  11  13
ENDBRANCH  10  11
ENDBRANCH   9  10
ENDBRANCH   8   9
ENDBRANCH   3   8
ENDBRANCH   2   3
TORSDOF 9
ENDMDL
MODEL      280
REMARK 921   NORMALIZED FREE ENERGY PREDICTED BY IDOCK:   -3.12 KCAL/MOL
REMARK 922        TOTAL FREE ENERGY PREDICTED BY IDOCK:   -5.99 KCAL/MOL
REMARK 923 INTER-LIGAND FREE ENERGY PREDICTED BY IDOCK:   -5.83 KCAL/MOL
REMARK 924 INTRA-LIGAND FREE ENERGY PREDICTED BY IDOCK:   -0.16 KCAL/MOL
REMARK 927      BINDING AFFINITY PREDICTED BY RF-SCORE:    0.00 PKD
ROOT
HETATM    1  C   UNL     1     -14.162  15.013  71.887  1.00  0.00    -0.649 C  
HETATM    2  C   UNL     1     -12.849  14.272  71.653  1.00  0.00    -0.348 C  
ENDROOT
BRANCH   2   3
HETATM    3  N   UNL     1     -12.967  12.945  71.003  1.00  0.00    -0.167 NA 
BRANCH   3   4
HETATM    4  C   UNL     1     -11.821  12.706  70.089  1.00  0.00    -0.249 C  
BRANCH   4   5
HETATM    5  C   UNL     1     -11.954  13.310  68.678  1.00  0.00    -0.310 C  
HETATM    6  H   UNL     1     -12.235  15.093  67.886  1.00  0.00     0.000 HD 
HETATM    7  O   UNL     1     -12.154  14.721  68.756  1.00  0.00    -0.272 OA 
ENDBRANCH   4   5
ENDBRANCH   3   4
BRANCH   3   8
HETATM    8  C   UNL     1     -13.037  11.892  72.046  1.00  0.00    -0.336 C  
BRANCH   8   9
HETATM    9  C   UNL     1     -13.756  10.591  71.628  1.00  0.00    -0.006 C  
BRANCH   9  10
HETATM   10  C   UNL     1     -12.993   9.290  71.934  1.00  0.00    -0.489 C  
BRANCH  10  11
HETATM   11  C   UNL     1     -11.733   9.083  71.071  1.00  0.00    -0.296 C  
HETATM   12  C   UNL     1     -10.467   8.956  71.924  1.00  0.00    -0.415 C  
BRANCH  11  13
HETATM   13  N   UNL     1     -11.877   7.867  70.240  1.00  0.00    -0.471 NA 
HETATM   14  H   UNL     1     -12.708   7.710  69.669  1.00  0.00     0.000 HD 
BRANCH  13  15
HETATM   15  C   UNL     1     -10.809   6.927  70.268  1.00  0.00    -0.257 A  
HETATM   16  C   UNL     1     -10.834   5.839  71.183  1.00  0.00    -0.316 A  
HETATM   17  C   UNL     1     -11.855   5.634  72.142  1.00  0.00    -0.077 A  
HETATM   18  C   UNL     1     -11.812   4.548  73.021  1.00  0.00    -0.009 A  
HETATM   19  C   UNL     1     -10.741   3.666  72.960  1.00  0.00    -0.142 A  
HETATM   20  C   UNL     1      -9.727   3.853  72.026  1.00  0.00    -0.232 A  
HETATM   21 CL   UNL     1     -10.667   2.329  74.042  1.00  0.00    -0.224 Cl 
HETATM   22  C   UNL     1      -9.761   4.911  71.138  1.00  0.00    -0.179 A  
HETATM   23  N   UNL     1      -8.758   4.996  70.254  1.00  0.00    -0.105 NA 
HETATM   24  C   UNL     1      -8.796   5.995  69.354  1.00  0.00    -0.120 A  
HETATM   25  C   UNL     1      -9.797   6.946  69.310  1.00  0.00    -0.159 A  
ENDBRANCH  13  15
ENDBRANCH  11  13
ENDBRANCH  10  11
ENDBRANCH   9  10
ENDBRANCH   8   9
ENDBRANCH   3   8
ENDBRANCH   2   3
TORSDOF 9
ENDMDL
MODEL      281
REMARK 921   NORMALIZED FREE ENERGY PREDICTED BY IDOCK:   -3.11 KCAL/MOL
REMARK 922        TOTAL FREE ENERGY PREDICTED BY IDOCK:   -5.97 KCAL/MOL
REMARK 923 INTER-LIGAND FREE ENERGY PREDICTED BY IDOCK:   -4.93 KCAL/MOL
REMARK 924 INTRA-LIGAND FREE ENERGY PREDICTED BY IDOCK:   -1.04 KCAL/MOL
REMARK 927      BINDING AFFINITY PREDICTED BY RF-SCORE:    0.00 PKD
ROOT
HETATM    1  C   UNL     1     -13.097  11.920  62.883  1.00  0.00     0.624 C  
HETATM    2  C   UNL     1     -11.668  12.225  63.323  1.00  0.00    -0.364 C  
ENDROOT
BRANCH   2   3
HETATM    3  N   UNL     1     -11.528  13.231  64.402  1.00  0.00    -0.362 NA 
BRANCH   3   4
HETATM    4  C   UNL     1     -11.378  14.593  63.831  1.00  0.00     0.497 C  
BRANCH   4   5
HETATM    5  C   UNL     1     -10.904  15.682  64.813  1.00  0.00    -0.355 C  
HETATM    6  H   UNL     1     -10.861  17.652  64.883  1.00  0.00     0.000 HD 
HETATM    7  O   UNL     1     -11.153  16.981  64.277  1.00  0.00    -1.092 OA 
ENDBRANCH   4   5
ENDBRANCH   3   4
BRANCH   3   8
HETATM    8  C   UNL     1     -12.711  13.162  65.294  1.00  0.00    -0.394 C  
BRANCH   8   9
HETATM    9  C   UNL     1     -12.399  13.032  66.801  1.00  0.00    -0.097 C  
BRANCH   9  10
HETATM   10  C   UNL     1     -11.479  11.859  67.183  1.00  0.00    -0.386 C  
BRANCH  10  11
HETATM   11  C   UNL     1     -11.558  11.456  68.668  1.00  0.00    -0.320 C  
HETATM   12  C   UNL     1     -11.339   9.954  68.867  1.00  0.00    -0.060 C  
BRANCH  11  13
HETATM   13  N   UNL     1     -10.548  12.199  69.454  1.00  0.00    -0.434 NA 
HETATM   14  H   UNL     1      -9.730  11.731  69.843  1.00  0.00     0.000 HD 
BRANCH  13  15
HETATM   15  C   UNL     1     -10.765  13.593  69.644  1.00  0.00     0.266 A  
HETATM   16  C   UNL     1      -9.921  14.545  69.010  1.00  0.00    -0.162 A  
HETATM   17  C   UNL     1      -8.804  14.203  68.210  1.00  0.00    -0.187 A  
HETATM   18  C   UNL     1      -8.008  15.191  67.624  1.00  0.00    -0.177 A  
HETATM   19  C   UNL     1      -8.309  16.528  67.845  1.00  0.00    -0.173 A  
HETATM   20  C   UNL     1      -9.402  16.883  68.631  1.00  0.00    -0.268 A  
HETATM   21 CL   UNL     1      -7.333  17.758  67.140  1.00  0.00    -0.201 Cl 
HETATM   22  C   UNL     1     -10.211  15.920  69.205  1.00  0.00    -0.234 A  
HETATM   23  N   UNL     1     -11.257  16.353  69.921  1.00  0.00    -0.307 NA 
HETATM   24  C   UNL     1     -12.080  15.430  70.451  1.00  0.00    -0.372 A  
HETATM   25  C   UNL     1     -11.890  14.069  70.316  1.00  0.00    -0.373 A  
ENDBRANCH  13  15
ENDBRANCH  11  13
ENDBRANCH  10  11
ENDBRANCH   9  10
ENDBRANCH   8   9
ENDBRANCH   3   8
ENDBRANCH   2   3
TORSDOF 9
ENDMDL
MODEL      282
REMARK 921   NORMALIZED FREE ENERGY PREDICTED BY IDOCK:   -3.10 KCAL/MOL
REMARK 922        TOTAL FREE ENERGY PREDICTED BY IDOCK:   -5.96 KCAL/MOL
REMARK 923 INTER-LIGAND FREE ENERGY PREDICTED BY IDOCK:   -5.11 KCAL/MOL
REMARK 924 INTRA-LIGAND FREE ENERGY PREDICTED BY IDOCK:   -0.85 KCAL/MOL
REMARK 927      BINDING AFFINITY PREDICTED BY RF-SCORE:    0.00 PKD
ROOT
HETATM    1  C   UNL     1      -9.148   4.047  63.862  1.00  0.00    -0.139 C  
HETATM    2  C   UNL     1      -9.039   4.924  65.106  1.00  0.00    -0.144 C  
ENDROOT
BRANCH   2   3
HETATM    3  N   UNL     1      -9.028   4.203  66.401  1.00  0.00    -0.118 NA 
BRANCH   3   4
HETATM    4  C   UNL     1      -7.638   4.030  66.892  1.00  0.00    -0.084 C  
BRANCH   4   5
HETATM    5  C   UNL     1      -6.987   5.280  67.513  1.00  0.00    -0.065 C  
HETATM    6  H   UNL     1      -5.205   6.123  67.543  1.00  0.00     0.000 HD 
HETATM    7  O   UNL     1      -5.606   5.352  67.161  1.00  0.00    -0.012 OA 
ENDBRANCH   4   5
ENDBRANCH   3   4
BRANCH   3   8
HETATM    8  C   UNL     1      -9.845   4.952  67.387  1.00  0.00    -0.178 C  
BRANCH   8   9
HETATM    9  C   UNL     1     -10.694   6.103  66.806  1.00  0.00    -0.371 C  
BRANCH   9  10
HETATM   10  C   UNL     1     -10.918   7.297  67.750  1.00  0.00    -0.141 C  
BRANCH  10  11
HETATM   11  C   UNL     1     -10.038   8.523  67.433  1.00  0.00    -0.234 C  
HETATM   12  C   UNL     1      -9.501   8.488  66.000  1.00  0.00    -0.256 C  
BRANCH  11  13
HETATM   13  N   UNL     1     -10.811   9.770  67.628  1.00  0.00    -0.385 NA 
HETATM   14  H   UNL     1     -11.816   9.750  67.804  1.00  0.00     0.000 HD 
BRANCH  13  15
HETATM   15  C   UNL     1     -10.095  10.998  67.562  1.00  0.00    -0.180 A  
HETATM   16  C   UNL     1     -10.578  12.070  66.764  1.00  0.00    -0.260 A  
HETATM   17  C   UNL     1     -11.739  11.995  65.956  1.00  0.00    -0.311 A  
HETATM   18  C   UNL     1     -12.152  13.084  65.185  1.00  0.00    -0.476 A  
HETATM   19  C   UNL     1     -11.403  14.253  65.201  1.00  0.00    -0.345 A  
HETATM   20  C   UNL     1     -10.258  14.345  65.986  1.00  0.00    -0.328 A  
HETATM   21 CL   UNL     1     -11.893  15.602  64.249  1.00  0.00    -0.285 Cl 
HETATM   22  C   UNL     1      -9.843  13.284  66.769  1.00  0.00    -0.264 A  
HETATM   23  N   UNL     1      -8.746  13.471  67.515  1.00  0.00    -0.195 NA 
HETATM   24  C   UNL     1      -8.352  12.465  68.315  1.00  0.00    -0.169 A  
HETATM   25  C   UNL     1      -8.999  11.247  68.388  1.00  0.00    -0.167 A  
ENDBRANCH  13  15
ENDBRANCH  11  13
ENDBRANCH  10  11
ENDBRANCH   9  10
ENDBRANCH   8   9
ENDBRANCH   3   8
ENDBRANCH   2   3
TORSDOF 9
ENDMDL
MODEL      283
REMARK 921   NORMALIZED FREE ENERGY PREDICTED BY IDOCK:   -3.10 KCAL/MOL
REMARK 922        TOTAL FREE ENERGY PREDICTED BY IDOCK:   -5.96 KCAL/MOL
REMARK 923 INTER-LIGAND FREE ENERGY PREDICTED BY IDOCK:   -5.85 KCAL/MOL
REMARK 924 INTRA-LIGAND FREE ENERGY PREDICTED BY IDOCK:   -0.11 KCAL/MOL
REMARK 927      BINDING AFFINITY PREDICTED BY RF-SCORE:    0.00 PKD
ROOT
HETATM    1  C   UNL     1      -6.482  13.415  68.528  1.00  0.00    -0.086 C  
HETATM    2  C   UNL     1      -6.640  12.071  69.234  1.00  0.00    -0.109 C  
ENDROOT
BRANCH   2   3
HETATM    3  N   UNL     1      -7.367  11.027  68.473  1.00  0.00    -0.094 NA 
BRANCH   3   4
HETATM    4  C   UNL     1      -6.986  11.064  67.039  1.00  0.00    -0.117 C  
BRANCH   4   5
HETATM    5  C   UNL     1      -7.393   9.832  66.207  1.00  0.00    -0.099 C  
HETATM    6  H   UNL     1      -8.332   9.476  64.511  1.00  0.00     0.000 HD 
HETATM    7  O   UNL     1      -8.082  10.235  65.024  1.00  0.00    -0.143 OA 
ENDBRANCH   4   5
ENDBRANCH   3   4
BRANCH   3   8
HETATM    8  C   UNL     1      -7.074   9.698  69.062  1.00  0.00    -0.066 C  
BRANCH   8   9
HETATM    9  C   UNL     1      -8.141   9.155  70.038  1.00  0.00    -0.130 C  
BRANCH   9  10
HETATM   10  C   UNL     1      -9.444   8.667  69.382  1.00  0.00    -0.161 C  
BRANCH  10  11
HETATM   11  C   UNL     1     -10.590   8.405  70.380  1.00  0.00    -0.223 C  
HETATM   12  C   UNL     1     -10.210   8.804  71.808  1.00  0.00    -0.408 C  
BRANCH  11  13
HETATM   13  N   UNL     1     -11.800   9.156  69.975  1.00  0.00    -0.439 NA 
HETATM   14  H   UNL     1     -12.717   8.709  69.947  1.00  0.00     0.000 HD 
BRANCH  13  15
HETATM   15  C   UNL     1     -11.633  10.526  69.629  1.00  0.00    -0.271 A  
HETATM   16  C   UNL     1     -12.227  11.546  70.420  1.00  0.00    -0.442 A  
HETATM   17  C   UNL     1     -13.048  11.296  71.547  1.00  0.00    -0.459 A  
HETATM   18  C   UNL     1     -13.612  12.347  72.275  1.00  0.00    -0.371 A  
HETATM   19  C   UNL     1     -13.374  13.656  71.877  1.00  0.00    -0.425 A  
HETATM   20  C   UNL     1     -12.572  13.920  70.771  1.00  0.00    -0.424 A  
HETATM   21 CL   UNL     1     -14.069  14.962  72.757  1.00  0.00    -0.338 Cl 
HETATM   22  C   UNL     1     -11.993  12.894  70.048  1.00  0.00    -0.309 A  
HETATM   23  N   UNL     1     -11.212  13.243  69.016  1.00  0.00    -0.266 NA 
HETATM   24  C   UNL     1     -10.605  12.260  68.328  1.00  0.00    -0.227 A  
HETATM   25  C   UNL     1     -10.763  10.918  68.611  1.00  0.00    -0.238 A  
ENDBRANCH  13  15
ENDBRANCH  11  13
ENDBRANCH  10  11
ENDBRANCH   9  10
ENDBRANCH   8   9
ENDBRANCH   3   8
ENDBRANCH   2   3
TORSDOF 9
ENDMDL
MODEL      284
REMARK 921   NORMALIZED FREE ENERGY PREDICTED BY IDOCK:   -3.07 KCAL/MOL
REMARK 922        TOTAL FREE ENERGY PREDICTED BY IDOCK:   -5.91 KCAL/MOL
REMARK 923 INTER-LIGAND FREE ENERGY PREDICTED BY IDOCK:   -5.12 KCAL/MOL
REMARK 924 INTRA-LIGAND FREE ENERGY PREDICTED BY IDOCK:   -0.79 KCAL/MOL
REMARK 927      BINDING AFFINITY PREDICTED BY RF-SCORE:    0.00 PKD
ROOT
HETATM    1  C   UNL     1     -14.337  15.464  72.068  1.00  0.00    -0.653 C  
HETATM    2  C   UNL     1     -13.029  15.684  71.313  1.00  0.00    -0.492 C  
ENDROOT
BRANCH   2   3
HETATM    3  N   UNL     1     -12.591  14.564  70.446  1.00  0.00    -0.350 NA 
BRANCH   3   4
HETATM    4  C   UNL     1     -11.471  14.988  69.569  1.00  0.00    -0.294 C  
BRANCH   4   5
HETATM    5  C   UNL     1     -11.016  13.957  68.519  1.00  0.00    -0.257 C  
HETATM    6  H   UNL     1      -9.341  13.465  67.602  1.00  0.00     0.000 HD 
HETATM    7  O   UNL     1      -9.622  14.101  68.249  1.00  0.00    -0.214 OA 
ENDBRANCH   4   5
ENDBRANCH   3   4
BRANCH   3   8
HETATM    8  C   UNL     1     -12.189  13.415  71.294  1.00  0.00    -0.069 C  
BRANCH   8   9
HETATM    9  C   UNL     1     -12.931  12.090  71.010  1.00  0.00    -0.175 C  
BRANCH   9  10
HETATM   10  C   UNL     1     -12.247  10.824  71.556  1.00  0.00    -0.302 C  
BRANCH  10  11
HETATM   11  C   UNL     1     -11.919   9.773  70.478  1.00  0.00    -0.206 C  
HETATM   12  C   UNL     1     -11.626  10.416  69.119  1.00  0.00    -0.234 C  
BRANCH  11  13
HETATM   13  N   UNL     1     -10.749   8.965  70.891  1.00  0.00    -0.215 NA 
HETATM   14  H   UNL     1     -10.203   9.208  71.717  1.00  0.00     0.000 HD 
BRANCH  13  15
HETATM   15  C   UNL     1     -10.419   7.838  70.088  1.00  0.00    -0.231 A  
HETATM   16  C   UNL     1      -9.178   7.785  69.397  1.00  0.00    -0.149 A  
HETATM   17  C   UNL     1      -8.224   8.832  69.404  1.00  0.00    -0.108 A  
HETATM   18  C   UNL     1      -7.027   8.720  68.692  1.00  0.00    -0.064 A  
HETATM   19  C   UNL     1      -6.778   7.571  67.954  1.00  0.00    -0.066 A  
HETATM   20  C   UNL     1      -7.705   6.533  67.933  1.00  0.00    -0.104 A  
HETATM   21 CL   UNL     1      -5.313   7.421  67.063  1.00  0.00    -0.022 Cl 
HETATM   22  C   UNL     1      -8.887   6.618  68.645  1.00  0.00    -0.122 A  
HETATM   23  N   UNL     1      -9.707   5.560  68.591  1.00  0.00    -0.134 NA 
HETATM   24  C   UNL     1     -10.842   5.608  69.311  1.00  0.00    -0.239 A  
HETATM   25  C   UNL     1     -11.215   6.693  70.079  1.00  0.00    -0.425 A  
ENDBRANCH  13  15
ENDBRANCH  11  13
ENDBRANCH  10  11
ENDBRANCH   9  10
ENDBRANCH   8   9
ENDBRANCH   3   8
ENDBRANCH   2   3
TORSDOF 9
ENDMDL
MODEL      285
REMARK 921   NORMALIZED FREE ENERGY PREDICTED BY IDOCK:   -3.05 KCAL/MOL
REMARK 922        TOTAL FREE ENERGY PREDICTED BY IDOCK:   -5.89 KCAL/MOL
REMARK 923 INTER-LIGAND FREE ENERGY PREDICTED BY IDOCK:   -4.89 KCAL/MOL
REMARK 924 INTRA-LIGAND FREE ENERGY PREDICTED BY IDOCK:   -1.00 KCAL/MOL
REMARK 927      BINDING AFFINITY PREDICTED BY RF-SCORE:    0.00 PKD
ROOT
HETATM    1  C   UNL     1     -11.185  11.867  67.184  1.00  0.00    -0.377 C  
HETATM    2  C   UNL     1     -10.667  11.424  68.549  1.00  0.00    -0.201 C  
ENDROOT
BRANCH   2   3
HETATM    3  N   UNL     1     -10.053  10.076  68.597  1.00  0.00    -0.165 NA 
BRANCH   3   4
HETATM    4  C   UNL     1     -10.068   9.543  69.983  1.00  0.00    -0.242 C  
BRANCH   4   5
HETATM    5  C   UNL     1     -11.445   9.103  70.515  1.00  0.00    -0.229 C  
HETATM    6  H   UNL     1     -12.728   9.702  71.887  1.00  0.00     0.000 HD 
HETATM    7  O   UNL     1     -11.879   9.973  71.559  1.00  0.00    -0.377 OA 
ENDBRANCH   4   5
ENDBRANCH   3   4
BRANCH   3   8
HETATM    8  C   UNL     1     -10.784   9.171  67.677  1.00  0.00    -0.189 C  
BRANCH   8   9
HETATM    9  C   UNL     1     -10.070   7.841  67.348  1.00  0.00    -0.288 C  
BRANCH   9  10
HETATM   10  C   UNL     1     -10.999   6.652  67.052  1.00  0.00    -0.463 C  
BRANCH  10  11
HETATM   11  C   UNL     1     -10.272   5.297  66.945  1.00  0.00    -0.241 C  
HETATM   12  C   UNL     1      -9.789   5.016  65.520  1.00  0.00    -0.060 C  
BRANCH  11  13
HETATM   13  N   UNL     1      -9.110   5.267  67.862  1.00  0.00    -0.109 NA 
HETATM   14  H   UNL     1      -8.453   6.046  67.911  1.00  0.00     0.000 HD 
BRANCH  13  15
HETATM   15  C   UNL     1      -8.948   4.109  68.672  1.00  0.00    -0.114 A  
HETATM   16  C   UNL     1      -9.418   4.098  70.014  1.00  0.00    -0.260 A  
HETATM   17  C   UNL     1     -10.016   5.212  70.652  1.00  0.00    -0.296 A  
HETATM   18  C   UNL     1     -10.446   5.137  71.979  1.00  0.00    -0.278 A  
HETATM   19  C   UNL     1     -10.269   3.956  72.687  1.00  0.00    -0.167 A  
HETATM   20  C   UNL     1      -9.680   2.852  72.077  1.00  0.00    -0.230 A  
HETATM   21 CL   UNL     1     -10.783   3.849  74.326  1.00  0.00    -0.262 Cl 
HETATM   22  C   UNL     1      -9.264   2.902  70.760  1.00  0.00    -0.135 A  
HETATM   23  N   UNL     1      -8.735   1.782  70.247  1.00  0.00    -0.053 NA 
HETATM   24  C   UNL     1      -8.364   1.799  68.954  1.00  0.00    -0.052 A  
HETATM   25  C   UNL     1      -8.476   2.909  68.141  1.00  0.00    -0.103 A  
ENDBRANCH  13  15
ENDBRANCH  11  13
ENDBRANCH  10  11
ENDBRANCH   9  10
ENDBRANCH   8   9
ENDBRANCH   3   8
ENDBRANCH   2   3
TORSDOF 9
ENDMDL
MODEL      286
REMARK 921   NORMALIZED FREE ENERGY PREDICTED BY IDOCK:   -3.05 KCAL/MOL
REMARK 922        TOTAL FREE ENERGY PREDICTED BY IDOCK:   -5.88 KCAL/MOL
REMARK 923 INTER-LIGAND FREE ENERGY PREDICTED BY IDOCK:   -4.67 KCAL/MOL
REMARK 924 INTRA-LIGAND FREE ENERGY PREDICTED BY IDOCK:   -1.21 KCAL/MOL
REMARK 927      BINDING AFFINITY PREDICTED BY RF-SCORE:    0.00 PKD
ROOT
HETATM    1  C   UNL     1     -11.125  14.787  66.684  1.00  0.00    -0.333 C  
HETATM    2  C   UNL     1     -10.751  14.077  67.982  1.00  0.00    -0.246 C  
ENDROOT
BRANCH   2   3
HETATM    3  N   UNL     1     -10.807  12.596  67.944  1.00  0.00    -0.213 NA 
BRANCH   3   4
HETATM    4  C   UNL     1     -12.010  12.100  68.659  1.00  0.00    -0.237 C  
BRANCH   4   5
HETATM    5  C   UNL     1     -11.809  10.822  69.496  1.00  0.00    -0.308 C  
HETATM    6  H   UNL     1     -10.334   9.937  70.459  1.00  0.00     0.000 HD 
HETATM    7  O   UNL     1     -10.457  10.724  69.943  1.00  0.00    -0.170 OA 
ENDBRANCH   4   5
ENDBRANCH   3   4
BRANCH   3   8
HETATM    8  C   UNL     1     -10.810  12.142  66.532  1.00  0.00    -0.270 C  
BRANCH   8   9
HETATM    9  C   UNL     1      -9.615  11.254  66.119  1.00  0.00    -0.241 C  
BRANCH   9  10
HETATM   10  C   UNL     1      -9.970   9.801  65.759  1.00  0.00    -0.349 C  
BRANCH  10  11
HETATM   11  C   UNL     1      -8.991   8.756  66.328  1.00  0.00    -0.173 C  
HETATM   12  C   UNL     1      -7.591   8.891  65.724  1.00  0.00    -0.090 C  
BRANCH  11  13
HETATM   13  N   UNL     1      -8.896   8.892  67.799  1.00  0.00    -0.135 NA 
HETATM   14  H   UNL     1      -8.454   9.705  68.229  1.00  0.00     0.000 HD 
BRANCH  13  15
HETATM   15  C   UNL     1      -9.446   7.844  68.589  1.00  0.00    -0.149 A  
HETATM   16  C   UNL     1      -8.993   7.632  69.919  1.00  0.00    -0.144 A  
HETATM   17  C   UNL     1      -7.959   8.382  70.532  1.00  0.00    -0.098 A  
HETATM   18  C   UNL     1      -7.554   8.114  71.842  1.00  0.00    -0.115 A  
HETATM   19  C   UNL     1      -8.165   7.085  72.547  1.00  0.00    -0.108 A  
HETATM   20  C   UNL     1      -9.180   6.336  71.960  1.00  0.00    -0.145 A  
HETATM   21 CL   UNL     1      -7.670   6.734  74.158  1.00  0.00    -0.107 Cl 
HETATM   22  C   UNL     1      -9.606   6.597  70.671  1.00  0.00    -0.169 A  
HETATM   23  N   UNL     1     -10.608   5.845  70.198  1.00  0.00    -0.266 NA 
HETATM   24  C   UNL     1     -11.065   6.114  68.962  1.00  0.00    -0.367 A  
HETATM   25  C   UNL     1     -10.541   7.101  68.151  1.00  0.00    -0.241 A  
ENDBRANCH  13  15
ENDBRANCH  11  13
ENDBRANCH  10  11
ENDBRANCH   9  10
ENDBRANCH   8   9
ENDBRANCH   3   8
ENDBRANCH   2   3
TORSDOF 9
ENDMDL
MODEL      287
REMARK 921   NORMALIZED FREE ENERGY PREDICTED BY IDOCK:   -3.04 KCAL/MOL
REMARK 922        TOTAL FREE ENERGY PREDICTED BY IDOCK:   -5.87 KCAL/MOL
REMARK 923 INTER-LIGAND FREE ENERGY PREDICTED BY IDOCK:   -5.52 KCAL/MOL
REMARK 924 INTRA-LIGAND FREE ENERGY PREDICTED BY IDOCK:   -0.35 KCAL/MOL
REMARK 927      BINDING AFFINITY PREDICTED BY RF-SCORE:    0.00 PKD
ROOT
HETATM    1  C   UNL     1      -9.635   2.573  71.183  1.00  0.00    -0.218 C  
HETATM    2  C   UNL     1      -9.271   4.025  70.886  1.00  0.00    -0.133 C  
ENDROOT
BRANCH   2   3
HETATM    3  N   UNL     1     -10.297   5.032  71.248  1.00  0.00    -0.209 NA 
BRANCH   3   4
HETATM    4  C   UNL     1     -10.036   5.581  72.603  1.00  0.00    -0.167 C  
BRANCH   4   5
HETATM    5  C   UNL     1     -10.804   6.867  72.963  1.00  0.00    -0.296 C  
HETATM    6  H   UNL     1     -10.369   8.733  73.429  1.00  0.00     0.000 HD 
HETATM    7  O   UNL     1      -9.895   7.940  73.207  1.00  0.00    -0.293 OA 
ENDBRANCH   4   5
ENDBRANCH   3   4
BRANCH   3   8
HETATM    8  C   UNL     1     -10.302   6.114  70.234  1.00  0.00    -0.214 C  
BRANCH   8   9
HETATM    9  C   UNL     1      -8.915   6.680  69.860  1.00  0.00    -0.144 C  
BRANCH   9  10
HETATM   10  C   UNL     1      -8.676   6.896  68.356  1.00  0.00    -0.124 C  
BRANCH  10  11
HETATM   11  C   UNL     1      -9.074   8.297  67.852  1.00  0.00    -0.133 C  
HETATM   12  C   UNL     1     -10.544   8.360  67.429  1.00  0.00    -0.313 C  
BRANCH  11  13
HETATM   13  N   UNL     1      -8.833   9.307  68.907  1.00  0.00    -0.134 NA 
HETATM   14  H   UNL     1      -7.927   9.386  69.369  1.00  0.00     0.000 HD 
BRANCH  13  15
HETATM   15  C   UNL     1      -9.917  10.163  69.251  1.00  0.00    -0.219 A  
HETATM   16  C   UNL     1     -10.175  11.336  68.491  1.00  0.00    -0.214 A  
HETATM   17  C   UNL     1      -9.377  11.766  67.403  1.00  0.00    -0.174 A  
HETATM   18  C   UNL     1      -9.681  12.937  66.704  1.00  0.00    -0.254 A  
HETATM   19  C   UNL     1     -10.775  13.699  67.095  1.00  0.00    -0.277 A  
HETATM   20  C   UNL     1     -11.568  13.294  68.164  1.00  0.00    -0.373 A  
HETATM   21 CL   UNL     1     -11.157  15.151  66.253  1.00  0.00    -0.333 Cl 
HETATM   22  C   UNL     1     -11.293  12.130  68.856  1.00  0.00    -0.283 A  
HETATM   23  N   UNL     1     -12.128  11.802  69.852  1.00  0.00    -0.303 NA 
HETATM   24  C   UNL     1     -11.901  10.651  70.508  1.00  0.00    -0.357 A  
HETATM   25  C   UNL     1     -10.845   9.806  70.228  1.00  0.00    -0.356 A  
ENDBRANCH  13  15
ENDBRANCH  11  13
ENDBRANCH  10  11
ENDBRANCH   9  10
ENDBRANCH   8   9
ENDBRANCH   3   8
ENDBRANCH   2   3
TORSDOF 9
ENDMDL
MODEL      288
REMARK 921   NORMALIZED FREE ENERGY PREDICTED BY IDOCK:   -3.03 KCAL/MOL
REMARK 922        TOTAL FREE ENERGY PREDICTED BY IDOCK:   -5.84 KCAL/MOL
REMARK 923 INTER-LIGAND FREE ENERGY PREDICTED BY IDOCK:   -5.11 KCAL/MOL
REMARK 924 INTRA-LIGAND FREE ENERGY PREDICTED BY IDOCK:   -0.73 KCAL/MOL
REMARK 927      BINDING AFFINITY PREDICTED BY RF-SCORE:    0.00 PKD
ROOT
HETATM    1  C   UNL     1     -11.423   6.112  70.459  1.00  0.00    -0.330 C  
HETATM    2  C   UNL     1     -10.531   6.492  71.636  1.00  0.00    -0.213 C  
ENDROOT
BRANCH   2   3
HETATM    3  N   UNL     1      -9.707   7.711  71.452  1.00  0.00    -0.163 NA 
BRANCH   3   4
HETATM    4  C   UNL     1      -8.272   7.357  71.313  1.00  0.00    -0.105 C  
BRANCH   4   5
HETATM    5  C   UNL     1      -7.344   7.875  72.428  1.00  0.00    -0.091 C  
HETATM    6  H   UNL     1      -7.502   9.008  74.034  1.00  0.00     0.000 HD 
HETATM    7  O   UNL     1      -8.074   8.689  73.346  1.00  0.00    -0.411 OA 
ENDBRANCH   4   5
ENDBRANCH   3   4
BRANCH   3   8
HETATM    8  C   UNL     1     -10.185   8.449  70.258  1.00  0.00    -0.196 C  
BRANCH   8   9
HETATM    9  C   UNL     1      -9.208   9.506  69.697  1.00  0.00    -0.212 C  
BRANCH   9  10
HETATM   10  C   UNL     1      -8.709   9.245  68.265  1.00  0.00    -0.129 C  
BRANCH  10  11
HETATM   11  C   UNL     1      -7.256   9.694  68.014  1.00  0.00    -0.081 C  
HETATM   12  C   UNL     1      -6.362   8.529  67.580  1.00  0.00    -0.057 C  
BRANCH  11  13
HETATM   13  N   UNL     1      -7.219  10.744  66.971  1.00  0.00    -0.103 NA 
HETATM   14  H   UNL     1      -6.568  11.527  67.031  1.00  0.00     0.000 HD 
BRANCH  13  15
HETATM   15  C   UNL     1      -8.128  10.617  65.884  1.00  0.00    -0.159 A  
HETATM   16  C   UNL     1      -9.274  11.454  65.802  1.00  0.00    -0.223 A  
HETATM   17  C   UNL     1      -9.625  12.412  66.784  1.00  0.00    -0.224 A  
HETATM   18  C   UNL     1     -10.774  13.196  66.648  1.00  0.00    -0.286 A  
HETATM   19  C   UNL     1     -11.591  13.020  65.539  1.00  0.00    -0.347 A  
HETATM   20  C   UNL     1     -11.263  12.080  64.566  1.00  0.00    -0.390 A  
HETATM   21 CL   UNL     1     -13.016  13.969  65.360  1.00  0.00    -0.461 Cl 
HETATM   22  C   UNL     1     -10.122  11.308  64.675  1.00  0.00    -0.290 A  
HETATM   23  N   UNL     1      -9.870  10.451  63.676  1.00  0.00    -0.286 NA 
HETATM   24  C   UNL     1      -8.742   9.721  63.745  1.00  0.00    -0.224 A  
HETATM   25  C   UNL     1      -7.849   9.792  64.795  1.00  0.00    -0.134 A  
ENDBRANCH  13  15
ENDBRANCH  11  13
ENDBRANCH  10  11
ENDBRANCH   9  10
ENDBRANCH   8   9
ENDBRANCH   3   8
ENDBRANCH   2   3
TORSDOF 9
ENDMDL
MODEL      289
REMARK 921   NORMALIZED FREE ENERGY PREDICTED BY IDOCK:   -3.01 KCAL/MOL
REMARK 922        TOTAL FREE ENERGY PREDICTED BY IDOCK:   -5.82 KCAL/MOL
REMARK 923 INTER-LIGAND FREE ENERGY PREDICTED BY IDOCK:   -5.52 KCAL/MOL
REMARK 924 INTRA-LIGAND FREE ENERGY PREDICTED BY IDOCK:   -0.30 KCAL/MOL
REMARK 927      BINDING AFFINITY PREDICTED BY RF-SCORE:    0.00 PKD
ROOT
HETATM    1  C   UNL     1      -5.127   9.573  66.422  1.00  0.00    -0.039 C  
HETATM    2  C   UNL     1      -6.076   9.146  67.538  1.00  0.00    -0.050 C  
ENDROOT
BRANCH   2   3
HETATM    3  N   UNL     1      -7.096  10.147  67.933  1.00  0.00    -0.084 NA 
BRANCH   3   4
HETATM    4  C   UNL     1      -6.862  10.612  69.323  1.00  0.00    -0.086 C  
BRANCH   4   5
HETATM    5  C   UNL     1      -6.183   9.597  70.262  1.00  0.00    -0.070 C  
HETATM    6  H   UNL     1      -5.858   9.406  72.198  1.00  0.00     0.000 HD 
HETATM    7  O   UNL     1      -6.276  10.032  71.619  1.00  0.00    -0.306 OA 
ENDBRANCH   4   5
ENDBRANCH   3   4
BRANCH   3   8
HETATM    8  C   UNL     1      -7.058  11.286  66.984  1.00  0.00    -0.129 C  
BRANCH   8   9
HETATM    9  C   UNL     1      -8.239  12.276  67.089  1.00  0.00    -0.179 C  
BRANCH   9  10
HETATM   10  C   UNL     1      -9.331  12.113  66.016  1.00  0.00    -0.174 C  
BRANCH  10  11
HETATM   11  C   UNL     1     -10.685  12.741  66.399  1.00  0.00    -0.262 C  
HETATM   12  C   UNL     1     -11.867  11.930  65.860  1.00  0.00    -0.101 C  
BRANCH  11  13
HETATM   13  N   UNL     1     -10.803  12.845  67.871  1.00  0.00    -0.221 NA 
HETATM   14  H   UNL     1     -10.995  12.025  68.446  1.00  0.00     0.000 HD 
BRANCH  13  15
HETATM   15  C   UNL     1     -10.638  14.134  68.450  1.00  0.00    -0.259 A  
HETATM   16  C   UNL     1     -11.376  14.504  69.606  1.00  0.00    -0.314 A  
HETATM   17  C   UNL     1     -12.342  13.674  70.227  1.00  0.00    -0.392 A  
HETATM   18  C   UNL     1     -13.042  14.104  71.357  1.00  0.00    -0.428 A  
HETATM   19  C   UNL     1     -12.797  15.371  71.868  1.00  0.00    -0.396 A  
HETATM   20  C   UNL     1     -11.855  16.202  71.269  1.00  0.00    -0.458 A  
HETATM   21 CL   UNL     1     -13.659  15.921  73.254  1.00  0.00    -0.605 Cl 
HETATM   22  C   UNL     1     -11.140  15.787  70.161  1.00  0.00    -0.352 A  
HETATM   23  N   UNL     1     -10.232  16.641  69.669  1.00  0.00    -0.183 NA 
HETATM   24  C   UNL     1      -9.497  16.238  68.617  1.00  0.00    -0.228 A  
HETATM   25  C   UNL     1      -9.646  15.008  68.007  1.00  0.00    -0.208 A  
ENDBRANCH  13  15
ENDBRANCH  11  13
ENDBRANCH  10  11
ENDBRANCH   9  10
ENDBRANCH   8   9
ENDBRANCH   3   8
ENDBRANCH   2   3
TORSDOF 9
ENDMDL
MODEL      290
REMARK 921   NORMALIZED FREE ENERGY PREDICTED BY IDOCK:   -3.00 KCAL/MOL
REMARK 922        TOTAL FREE ENERGY PREDICTED BY IDOCK:   -5.81 KCAL/MOL
REMARK 923 INTER-LIGAND FREE ENERGY PREDICTED BY IDOCK:   -5.48 KCAL/MOL
REMARK 924 INTRA-LIGAND FREE ENERGY PREDICTED BY IDOCK:   -0.32 KCAL/MOL
REMARK 927      BINDING AFFINITY PREDICTED BY RF-SCORE:    0.00 PKD
ROOT
HETATM    1  C   UNL     1      -6.599   4.814  68.952  1.00  0.00    -0.045 C  
HETATM    2  C   UNL     1      -7.212   5.973  69.732  1.00  0.00    -0.074 C  
ENDROOT
BRANCH   2   3
HETATM    3  N   UNL     1      -8.662   6.194  69.521  1.00  0.00    -0.129 NA 
BRANCH   3   4
HETATM    4  C   UNL     1      -9.117   7.407  70.247  1.00  0.00    -0.151 C  
BRANCH   4   5
HETATM    5  C   UNL     1     -10.326   7.212  71.182  1.00  0.00    -0.202 C  
HETATM    6  H   UNL     1     -11.559   8.354  72.214  1.00  0.00     0.000 HD 
HETATM    7  O   UNL     1     -10.813   8.474  71.638  1.00  0.00    -0.245 OA 
ENDBRANCH   4   5
ENDBRANCH   3   4
BRANCH   3   8
HETATM    8  C   UNL     1      -8.934   6.317  68.069  1.00  0.00    -0.114 C  
BRANCH   8   9
HETATM    9  C   UNL     1     -10.328   6.869  67.699  1.00  0.00    -0.260 C  
BRANCH   9  10
HETATM   10  C   UNL     1     -10.328   8.237  66.993  1.00  0.00    -0.393 C  
BRANCH  10  11
HETATM   11  C   UNL     1      -8.921   8.794  66.703  1.00  0.00    -0.139 C  
HETATM   12  C   UNL     1      -8.685   9.006  65.205  1.00  0.00    -0.226 C  
BRANCH  11  13
HETATM   13  N   UNL     1      -8.725  10.081  67.408  1.00  0.00    -0.125 NA 
HETATM   14  H   UNL     1      -7.791  10.438  67.610  1.00  0.00     0.000 HD 
BRANCH  13  15
HETATM   15  C   UNL     1      -9.892  10.798  67.794  1.00  0.00    -0.166 A  
HETATM   16  C   UNL     1     -10.481  11.742  66.909  1.00  0.00    -0.256 A  
HETATM   17  C   UNL     1      -9.949  12.076  65.640  1.00  0.00    -0.270 A  
HETATM   18  C   UNL     1     -10.573  13.023  64.824  1.00  0.00    -0.380 A  
HETATM   19  C   UNL     1     -11.724  13.656  65.272  1.00  0.00    -0.334 A  
HETATM   20  C   UNL     1     -12.259  13.343  66.518  1.00  0.00    -0.414 A  
HETATM   21 CL   UNL     1     -12.500  14.833  64.284  1.00  0.00    -0.396 Cl 
HETATM   22  C   UNL     1     -11.666  12.397  67.333  1.00  0.00    -0.347 A  
HETATM   23  N   UNL     1     -12.267  12.138  68.502  1.00  0.00    -0.233 NA 
HETATM   24  C   UNL     1     -11.727  11.189  69.288  1.00  0.00    -0.331 A  
HETATM   25  C   UNL     1     -10.580  10.491  68.967  1.00  0.00    -0.250 A  
ENDBRANCH  13  15
ENDBRANCH  11  13
ENDBRANCH  10  11
ENDBRANCH   9  10
ENDBRANCH   8   9
ENDBRANCH   3   8
ENDBRANCH   2   3
TORSDOF 9
ENDMDL
MODEL      291
REMARK 921   NORMALIZED FREE ENERGY PREDICTED BY IDOCK:   -2.99 KCAL/MOL
REMARK 922        TOTAL FREE ENERGY PREDICTED BY IDOCK:   -5.80 KCAL/MOL
REMARK 923 INTER-LIGAND FREE ENERGY PREDICTED BY IDOCK:   -5.10 KCAL/MOL
REMARK 924 INTRA-LIGAND FREE ENERGY PREDICTED BY IDOCK:   -0.70 KCAL/MOL
REMARK 927      BINDING AFFINITY PREDICTED BY RF-SCORE:    0.00 PKD
ROOT
HETATM    1  C   UNL     1      -6.328  10.301  67.673  1.00  0.00    -0.058 C  
HETATM    2  C   UNL     1      -6.431   8.785  67.813  1.00  0.00    -0.061 C  
ENDROOT
BRANCH   2   3
HETATM    3  N   UNL     1      -7.298   8.106  66.821  1.00  0.00    -0.082 NA 
BRANCH   3   4
HETATM    4  C   UNL     1      -6.570   6.987  66.170  1.00  0.00    -0.052 C  
BRANCH   4   5
HETATM    5  C   UNL     1      -5.631   6.178  67.085  1.00  0.00    -0.009 C  
HETATM    6  H   UNL     1      -5.801   4.784  68.468  1.00  0.00     0.000 HD 
HETATM    7  O   UNL     1      -6.381   5.283  67.905  1.00  0.00    -0.037 OA 
ENDBRANCH   4   5
ENDBRANCH   3   4
BRANCH   3   8
HETATM    8  C   UNL     1      -8.523   7.614  67.496  1.00  0.00    -0.116 C  
BRANCH   8   9
HETATM    9  C   UNL     1      -9.827   8.357  67.127  1.00  0.00    -0.279 C  
BRANCH   9  10
HETATM   10  C   UNL     1      -9.724   9.304  65.919  1.00  0.00    -0.355 C  
BRANCH  10  11
HETATM   11  C   UNL     1     -10.405  10.670  66.131  1.00  0.00    -0.227 C  
HETATM   12  C   UNL     1     -10.288  11.151  67.580  1.00  0.00    -0.228 C  
BRANCH  11  13
HETATM   13  N   UNL     1      -9.806  11.685  65.236  1.00  0.00    -0.244 NA 
HETATM   14  H   UNL     1      -8.909  11.525  64.778  1.00  0.00     0.000 HD 
BRANCH  13  15
HETATM   15  C   UNL     1     -10.532  12.894  65.041  1.00  0.00    -0.318 A  
HETATM   16  C   UNL     1     -10.124  14.090  65.691  1.00  0.00    -0.342 A  
HETATM   17  C   UNL     1      -9.036  14.169  66.594  1.00  0.00    -0.193 A  
HETATM   18  C   UNL     1      -8.695  15.377  67.208  1.00  0.00    -0.215 A  
HETATM   19  C   UNL     1      -9.447  16.514  66.939  1.00  0.00    -0.237 A  
HETATM   20  C   UNL     1     -10.522  16.454  66.057  1.00  0.00    -0.333 A  
HETATM   21 CL   UNL     1      -9.048  18.008  67.695  1.00  0.00    -0.253 Cl 
HETATM   22  C   UNL     1     -10.863  15.272  65.427  1.00  0.00    -0.387 A  
HETATM   23  N   UNL     1     -11.894  15.315  64.572  1.00  0.00    -0.364 NA 
HETATM   24  C   UNL     1     -12.213  14.184  63.917  1.00  0.00    -0.247 A  
HETATM   25  C   UNL     1     -11.555  12.983  64.098  1.00  0.00    -0.462 A  
ENDBRANCH  13  15
ENDBRANCH  11  13
ENDBRANCH  10  11
ENDBRANCH   9  10
ENDBRANCH   8   9
ENDBRANCH   3   8
ENDBRANCH   2   3
TORSDOF 9
ENDMDL
MODEL      292
REMARK 921   NORMALIZED FREE ENERGY PREDICTED BY IDOCK:   -2.99 KCAL/MOL
REMARK 922        TOTAL FREE ENERGY PREDICTED BY IDOCK:   -5.79 KCAL/MOL
REMARK 923 INTER-LIGAND FREE ENERGY PREDICTED BY IDOCK:   -6.58 KCAL/MOL
REMARK 924 INTRA-LIGAND FREE ENERGY PREDICTED BY IDOCK:    0.78 KCAL/MOL
REMARK 927      BINDING AFFINITY PREDICTED BY RF-SCORE:    0.00 PKD
ROOT
HETATM    1  C   UNL     1     -14.186  15.117  71.905  1.00  0.00    -0.676 C  
HETATM    2  C   UNL     1     -12.854  15.558  71.305  1.00  0.00    -0.475 C  
ENDROOT
BRANCH   2   3
HETATM    3  N   UNL     1     -12.445  14.858  70.065  1.00  0.00    -0.304 NA 
BRANCH   3   4
HETATM    4  C   UNL     1     -11.873  15.817  69.087  1.00  0.00    -0.354 C  
BRANCH   4   5
HETATM    5  C   UNL     1     -10.392  16.185  69.298  1.00  0.00    -0.265 C  
HETATM    6  H   UNL     1      -8.700  15.237  69.654  1.00  0.00     0.000 HD 
HETATM    7  O   UNL     1      -9.613  15.010  69.524  1.00  0.00    -0.175 OA 
ENDBRANCH   4   5
ENDBRANCH   3   4
BRANCH   3   8
HETATM    8  C   UNL     1     -11.461  13.800  70.401  1.00  0.00     0.045 C  
BRANCH   8   9
HETATM    9  C   UNL     1     -11.743  12.412  69.783  1.00  0.00    -0.361 C  
BRANCH   9  10
HETATM   10  C   UNL     1     -10.794  11.994  68.646  1.00  0.00    -0.273 C  
BRANCH  10  11
HETATM   11  C   UNL     1     -11.073  12.697  67.304  1.00  0.00    -0.278 C  
HETATM   12  C   UNL     1      -9.818  13.361  66.731  1.00  0.00    -0.265 C  
BRANCH  11  13
HETATM   13  N   UNL     1     -11.598  11.725  66.318  1.00  0.00    -0.460 NA 
HETATM   14  H   UNL     1     -12.559  11.389  66.365  1.00  0.00     0.000 HD 
BRANCH  13  15
HETATM   15  C   UNL     1     -10.706  11.281  65.302  1.00  0.00    -0.237 A  
HETATM   16  C   UNL     1     -10.007  10.052  65.445  1.00  0.00    -0.364 A  
HETATM   17  C   UNL     1     -10.093   9.222  66.589  1.00  0.00    -0.341 A  
HETATM   18  C   UNL     1      -9.369   8.029  66.670  1.00  0.00    -0.249 A  
HETATM   19  C   UNL     1      -8.540   7.663  65.618  1.00  0.00    -0.123 A  
HETATM   20  C   UNL     1      -8.440   8.468  64.487  1.00  0.00    -0.108 A  
HETATM   21 CL   UNL     1      -7.633   6.203  65.706  1.00  0.00    -0.082 Cl 
HETATM   22  C   UNL     1      -9.162   9.642  64.382  1.00  0.00    -0.200 A  
HETATM   23  N   UNL     1      -9.027  10.339  63.245  1.00  0.00    -0.215 NA 
HETATM   24  C   UNL     1      -9.754  11.462  63.107  1.00  0.00    -0.393 A  
HETATM   25  C   UNL     1     -10.608  11.944  64.079  1.00  0.00    -0.422 A  
ENDBRANCH  13  15
ENDBRANCH  11  13
ENDBRANCH  10  11
ENDBRANCH   9  10
ENDBRANCH   8   9
ENDBRANCH   3   8
ENDBRANCH   2   3
TORSDOF 9
ENDMDL
MODEL      293
REMARK 921   NORMALIZED FREE ENERGY PREDICTED BY IDOCK:   -2.96 KCAL/MOL
REMARK 922        TOTAL FREE ENERGY PREDICTED BY IDOCK:   -5.75 KCAL/MOL
REMARK 923 INTER-LIGAND FREE ENERGY PREDICTED BY IDOCK:   -4.55 KCAL/MOL
REMARK 924 INTRA-LIGAND FREE ENERGY PREDICTED BY IDOCK:   -1.21 KCAL/MOL
REMARK 927      BINDING AFFINITY PREDICTED BY RF-SCORE:    0.00 PKD
ROOT
HETATM    1  C   UNL     1     -14.235   8.188  71.674  1.00  0.00    -0.536 C  
HETATM    2  C   UNL     1     -12.953   8.582  72.403  1.00  0.00    -0.307 C  
ENDROOT
BRANCH   2   3
HETATM    3  N   UNL     1     -11.837   9.038  71.541  1.00  0.00    -0.320 NA 
BRANCH   3   4
HETATM    4  C   UNL     1     -11.123   7.877  70.951  1.00  0.00    -0.255 C  
BRANCH   4   5
HETATM    5  C   UNL     1     -10.653   6.804  71.951  1.00  0.00    -0.209 C  
HETATM    6  H   UNL     1     -10.548   4.836  72.021  1.00  0.00     0.000 HD 
HETATM    7  O   UNL     1     -10.838   5.498  71.405  1.00  0.00    -0.243 OA 
ENDBRANCH   4   5
ENDBRANCH   3   4
BRANCH   3   8
HETATM    8  C   UNL     1     -12.370   9.924  70.477  1.00  0.00    -0.150 C  
BRANCH   8   9
HETATM    9  C   UNL     1     -11.315  10.763  69.724  1.00  0.00    -0.372 C  
BRANCH   9  10
HETATM   10  C   UNL     1     -11.389  10.688  68.188  1.00  0.00    -0.354 C  
BRANCH  10  11
HETATM   11  C   UNL     1     -10.421  11.645  67.465  1.00  0.00    -0.200 C  
HETATM   12  C   UNL     1     -10.644  13.103  67.872  1.00  0.00    -0.243 C  
BRANCH  11  13
HETATM   13  N   UNL     1      -9.019  11.271  67.758  1.00  0.00    -0.138 NA 
HETATM   14  H   UNL     1      -8.350  11.956  68.106  1.00  0.00     0.000 HD 
BRANCH  13  15
HETATM   15  C   UNL     1      -8.644   9.916  67.533  1.00  0.00    -0.122 A  
HETATM   16  C   UNL     1      -8.132   9.126  68.597  1.00  0.00    -0.102 A  
HETATM   17  C   UNL     1      -7.910   9.613  69.909  1.00  0.00    -0.157 A  
HETATM   18  C   UNL     1      -7.392   8.784  70.907  1.00  0.00    -0.087 A  
HETATM   19  C   UNL     1      -7.077   7.466  70.603  1.00  0.00    -0.060 A  
HETATM   20  C   UNL     1      -7.286   6.971  69.319  1.00  0.00    -0.092 A  
HETATM   21 CL   UNL     1      -6.429   6.434  71.818  1.00  0.00    -0.049 Cl 
HETATM   22  C   UNL     1      -7.813   7.771  68.323  1.00  0.00    -0.121 A  
HETATM   23  N   UNL     1      -8.008   7.202  67.126  1.00  0.00    -0.109 NA 
HETATM   24  C   UNL     1      -8.560   7.954  66.156  1.00  0.00    -0.150 A  
HETATM   25  C   UNL     1      -8.911   9.279  66.322  1.00  0.00    -0.172 A  
ENDBRANCH  13  15
ENDBRANCH  11  13
ENDBRANCH  10  11
ENDBRANCH   9  10
ENDBRANCH   8   9
ENDBRANCH   3   8
ENDBRANCH   2   3
TORSDOF 9
ENDMDL
MODEL      294
REMARK 921   NORMALIZED FREE ENERGY PREDICTED BY IDOCK:   -2.95 KCAL/MOL
REMARK 922        TOTAL FREE ENERGY PREDICTED BY IDOCK:   -5.73 KCAL/MOL
REMARK 923 INTER-LIGAND FREE ENERGY PREDICTED BY IDOCK:   -5.40 KCAL/MOL
REMARK 924 INTRA-LIGAND FREE ENERGY PREDICTED BY IDOCK:   -0.34 KCAL/MOL
REMARK 927      BINDING AFFINITY PREDICTED BY RF-SCORE:    0.00 PKD
ROOT
HETATM    1  C   UNL     1     -12.056  12.843  63.861  1.00  0.00    -0.553 C  
HETATM    2  C   UNL     1     -12.411  12.758  65.343  1.00  0.00    -0.470 C  
ENDROOT
BRANCH   2   3
HETATM    3  N   UNL     1     -11.435  13.373  66.274  1.00  0.00    -0.314 NA 
BRANCH   3   4
HETATM    4  C   UNL     1     -12.127  13.935  67.461  1.00  0.00    -0.331 C  
BRANCH   4   5
HETATM    5  C   UNL     1     -11.352  15.016  68.237  1.00  0.00    -0.318 C  
HETATM    6  H   UNL     1     -11.170  15.606  70.110  1.00  0.00     0.000 HD 
HETATM    7  O   UNL     1     -11.648  14.940  69.631  1.00  0.00    -0.268 OA 
ENDBRANCH   4   5
ENDBRANCH   3   4
BRANCH   3   8
HETATM    8  C   UNL     1     -10.435  12.355  66.679  1.00  0.00    -0.229 C  
BRANCH   8   9
HETATM    9  C   UNL     1     -10.469  11.949  68.169  1.00  0.00    -0.225 C  
BRANCH   9  10
HETATM   10  C   UNL     1      -9.202  11.248  68.689  1.00  0.00    -0.163 C  
BRANCH  10  11
HETATM   11  C   UNL     1      -7.942  12.135  68.671  1.00  0.00    -0.063 C  
HETATM   12  C   UNL     1      -7.020  11.800  67.496  1.00  0.00    -0.113 C  
BRANCH  11  13
HETATM   13  N   UNL     1      -8.323  13.564  68.592  1.00  0.00    -0.320 NA 
HETATM   14  H   UNL     1      -9.271  13.846  68.343  1.00  0.00     0.000 HD 
BRANCH  13  15
HETATM   15  C   UNL     1      -7.314  14.525  68.877  1.00  0.00    -0.128 A  
HETATM   16  C   UNL     1      -7.226  15.723  68.117  1.00  0.00    -0.124 A  
HETATM   17  C   UNL     1      -8.068  16.027  67.020  1.00  0.00    -0.257 A  
HETATM   18  C   UNL     1      -7.921  17.220  66.308  1.00  0.00    -0.330 A  
HETATM   19  C   UNL     1      -6.922  18.113  66.673  1.00  0.00    -0.210 A  
HETATM   20  C   UNL     1      -6.083  17.829  67.746  1.00  0.00    -0.161 A  
HETATM   21 CL   UNL     1      -6.719  19.582  65.799  1.00  0.00    -0.259 Cl 
HETATM   22  C   UNL     1      -6.225  16.662  68.474  1.00  0.00    -0.135 A  
HETATM   23  N   UNL     1      -5.392  16.486  69.509  1.00  0.00    -0.137 NA 
HETATM   24  C   UNL     1      -5.543  15.377  70.254  1.00  0.00    -0.142 A  
HETATM   25  C   UNL     1      -6.489  14.404  69.995  1.00  0.00    -0.146 A  
ENDBRANCH  13  15
ENDBRANCH  11  13
ENDBRANCH  10  11
ENDBRANCH   9  10
ENDBRANCH   8   9
ENDBRANCH   3   8
ENDBRANCH   2   3
TORSDOF 9
ENDMDL
MODEL      295
REMARK 921   NORMALIZED FREE ENERGY PREDICTED BY IDOCK:   -2.95 KCAL/MOL
REMARK 922        TOTAL FREE ENERGY PREDICTED BY IDOCK:   -5.73 KCAL/MOL
REMARK 923 INTER-LIGAND FREE ENERGY PREDICTED BY IDOCK:   -5.47 KCAL/MOL
REMARK 924 INTRA-LIGAND FREE ENERGY PREDICTED BY IDOCK:   -0.26 KCAL/MOL
REMARK 927      BINDING AFFINITY PREDICTED BY RF-SCORE:    0.00 PKD
ROOT
HETATM    1  C   UNL     1      -9.666   7.227  73.726  1.00  0.00    -0.344 C  
HETATM    2  C   UNL     1     -10.357   5.976  73.190  1.00  0.00    -0.213 C  
ENDROOT
BRANCH   2   3
HETATM    3  N   UNL     1      -9.482   5.013  72.479  1.00  0.00    -0.141 NA 
BRANCH   3   4
HETATM    4  C   UNL     1      -9.596   3.661  73.080  1.00  0.00    -0.114 C  
BRANCH   4   5
HETATM    5  C   UNL     1     -10.204   2.575  72.172  1.00  0.00    -0.100 C  
HETATM    6  H   UNL     1     -11.415   1.031  72.371  1.00  0.00     0.000 HD 
HETATM    7  O   UNL     1     -11.040   1.701  72.931  1.00  0.00    -0.158 OA 
ENDBRANCH   4   5
ENDBRANCH   3   4
BRANCH   3   8
HETATM    8  C   UNL     1      -9.851   4.984  71.043  1.00  0.00    -0.198 C  
BRANCH   8   9
HETATM    9  C   UNL     1      -8.975   5.855  70.115  1.00  0.00    -0.148 C  
BRANCH   9  10
HETATM   10  C   UNL     1      -9.096   5.543  68.613  1.00  0.00    -0.128 C  
BRANCH  10  11
HETATM   11  C   UNL     1      -9.662   6.704  67.773  1.00  0.00    -0.123 C  
HETATM   12  C   UNL     1     -11.192   6.747  67.810  1.00  0.00    -0.195 C  
BRANCH  11  13
HETATM   13  N   UNL     1      -9.132   7.996  68.265  1.00  0.00    -0.135 NA 
HETATM   14  H   UNL     1      -8.173   8.083  68.600  1.00  0.00     0.000 HD 
BRANCH  13  15
HETATM   15  C   UNL     1     -10.016   9.111  68.252  1.00  0.00    -0.175 A  
HETATM   16  C   UNL     1     -10.249   9.830  67.048  1.00  0.00    -0.292 A  
HETATM   17  C   UNL     1      -9.607   9.544  65.819  1.00  0.00    -0.337 A  
HETATM   18  C   UNL     1      -9.873  10.299  64.674  1.00  0.00    -0.396 A  
HETATM   19  C   UNL     1     -10.770  11.356  64.748  1.00  0.00    -0.298 A  
HETATM   20  C   UNL     1     -11.408  11.654  65.949  1.00  0.00    -0.262 A  
HETATM   21 CL   UNL     1     -11.102  12.304  63.350  1.00  0.00    -0.505 Cl 
HETATM   22  C   UNL     1     -11.171  10.908  67.088  1.00  0.00    -0.184 A  
HETATM   23  N   UNL     1     -11.851  11.248  68.190  1.00  0.00    -0.607 NA 
HETATM   24  C   UNL     1     -11.665  10.506  69.297  1.00  0.00    -0.209 A  
HETATM   25  C   UNL     1     -10.796   9.435  69.362  1.00  0.00    -0.208 A  
ENDBRANCH  13  15
ENDBRANCH  11  13
ENDBRANCH  10  11
ENDBRANCH   9  10
ENDBRANCH   8   9
ENDBRANCH   3   8
ENDBRANCH   2   3
TORSDOF 9
ENDMDL
MODEL      296
REMARK 921   NORMALIZED FREE ENERGY PREDICTED BY IDOCK:   -2.94 KCAL/MOL
REMARK 922        TOTAL FREE ENERGY PREDICTED BY IDOCK:   -5.72 KCAL/MOL
REMARK 923 INTER-LIGAND FREE ENERGY PREDICTED BY IDOCK:   -4.49 KCAL/MOL
REMARK 924 INTRA-LIGAND FREE ENERGY PREDICTED BY IDOCK:   -1.23 KCAL/MOL
REMARK 927      BINDING AFFINITY PREDICTED BY RF-SCORE:    0.00 PKD
ROOT
HETATM    1  C   UNL     1     -13.168   7.512  71.612  1.00  0.00    -0.404 C  
HETATM    2  C   UNL     1     -11.872   8.069  72.194  1.00  0.00    -0.349 C  
ENDROOT
BRANCH   2   3
HETATM    3  N   UNL     1     -10.782   8.312  71.219  1.00  0.00    -0.221 NA 
BRANCH   3   4
HETATM    4  C   UNL     1      -9.553   7.580  71.616  1.00  0.00    -0.150 C  
BRANCH   4   5
HETATM    5  C   UNL     1      -8.352   8.457  72.016  1.00  0.00    -0.171 C  
HETATM    6  H   UNL     1      -7.545   9.137  73.682  1.00  0.00     0.000 HD 
HETATM    7  O   UNL     1      -8.286   8.596  73.435  1.00  0.00    -0.408 OA 
ENDBRANCH   4   5
ENDBRANCH   3   4
BRANCH   3   8
HETATM    8  C   UNL     1     -11.230   7.894  69.868  1.00  0.00    -0.046 C  
BRANCH   8   9
HETATM    9  C   UNL     1     -10.304   8.310  68.704  1.00  0.00    -0.225 C  
BRANCH   9  10
HETATM   10  C   UNL     1     -10.644   7.687  67.339  1.00  0.00    -0.356 C  
BRANCH  10  11
HETATM   11  C   UNL     1      -9.468   7.678  66.342  1.00  0.00    -0.161 C  
HETATM   12  C   UNL     1      -8.843   9.066  66.179  1.00  0.00    -0.195 C  
BRANCH  11  13
HETATM   13  N   UNL     1      -8.424   6.730  66.792  1.00  0.00    -0.115 NA 
HETATM   14  H   UNL     1      -7.565   7.057  67.234  1.00  0.00     0.000 HD 
BRANCH  13  15
HETATM   15  C   UNL     1      -8.668   5.343  66.583  1.00  0.00    -0.115 A  
HETATM   16  C   UNL     1      -8.913   4.482  67.687  1.00  0.00    -0.129 A  
HETATM   17  C   UNL     1      -8.884   4.901  69.039  1.00  0.00    -0.117 A  
HETATM   18  C   UNL     1      -9.123   3.998  70.079  1.00  0.00    -0.187 A  
HETATM   19  C   UNL     1      -9.377   2.666  69.779  1.00  0.00    -0.115 A  
HETATM   20  C   UNL     1      -9.406   2.236  68.456  1.00  0.00    -0.250 A  
HETATM   21 CL   UNL     1      -9.663   1.538  71.047  1.00  0.00    -0.193 Cl 
HETATM   22  C   UNL     1      -9.189   3.118  67.414  1.00  0.00    -0.188 A  
HETATM   23  N   UNL     1      -9.265   2.621  66.171  1.00  0.00    -0.100 NA 
HETATM   24  C   UNL     1      -9.099   3.473  65.144  1.00  0.00    -0.142 A  
HETATM   25  C   UNL     1      -8.831   4.819  65.302  1.00  0.00    -0.149 A  
ENDBRANCH  13  15
ENDBRANCH  11  13
ENDBRANCH  10  11
ENDBRANCH   9  10
ENDBRANCH   8   9
ENDBRANCH   3   8
ENDBRANCH   2   3
TORSDOF 9
ENDMDL
MODEL      297
REMARK 921   NORMALIZED FREE ENERGY PREDICTED BY IDOCK:   -2.94 KCAL/MOL
REMARK 922        TOTAL FREE ENERGY PREDICTED BY IDOCK:   -5.71 KCAL/MOL
REMARK 923 INTER-LIGAND FREE ENERGY PREDICTED BY IDOCK:   -5.11 KCAL/MOL
REMARK 924 INTRA-LIGAND FREE ENERGY PREDICTED BY IDOCK:   -0.61 KCAL/MOL
REMARK 927      BINDING AFFINITY PREDICTED BY RF-SCORE:    0.00 PKD
ROOT
HETATM    1  C   UNL     1     -12.154  14.073  69.712  1.00  0.00    -0.405 C  
HETATM    2  C   UNL     1     -12.268  12.982  70.773  1.00  0.00    -0.272 C  
ENDROOT
BRANCH   2   3
HETATM    3  N   UNL     1     -11.956  11.607  70.316  1.00  0.00    -0.357 NA 
BRANCH   3   4
HETATM    4  C   UNL     1     -12.852  10.622  70.974  1.00  0.00    -0.402 C  
BRANCH   4   5
HETATM    5  C   UNL     1     -12.232   9.241  71.258  1.00  0.00    -0.334 C  
HETATM    6  H   UNL     1     -10.534   8.532  71.966  1.00  0.00     0.000 HD 
HETATM    7  O   UNL     1     -10.916   9.383  71.791  1.00  0.00    -0.363 OA 
ENDBRANCH   4   5
ENDBRANCH   3   4
BRANCH   3   8
HETATM    8  C   UNL     1     -12.091  11.537  68.841  1.00  0.00    -0.206 C  
BRANCH   8   9
HETATM    9  C   UNL     1     -11.178  10.508  68.139  1.00  0.00    -0.357 C  
BRANCH   9  10
HETATM   10  C   UNL     1     -10.678  10.917  66.743  1.00  0.00    -0.309 C  
BRANCH  10  11
HETATM   11  C   UNL     1      -9.928   9.800  65.992  1.00  0.00    -0.272 C  
HETATM   12  C   UNL     1      -9.648  10.176  64.534  1.00  0.00    -0.376 C  
BRANCH  11  13
HETATM   13  N   UNL     1      -8.646   9.501  66.668  1.00  0.00    -0.133 NA 
HETATM   14  H   UNL     1      -7.819  10.079  66.515  1.00  0.00     0.000 HD 
BRANCH  13  15
HETATM   15  C   UNL     1      -8.613   8.376  67.539  1.00  0.00    -0.129 A  
HETATM   16  C   UNL     1      -8.460   7.064  67.014  1.00  0.00    -0.121 A  
HETATM   17  C   UNL     1      -8.381   6.770  65.630  1.00  0.00    -0.147 A  
HETATM   18  C   UNL     1      -8.241   5.454  65.181  1.00  0.00    -0.138 A  
HETATM   19  C   UNL     1      -8.194   4.420  66.106  1.00  0.00    -0.102 A  
HETATM   20  C   UNL     1      -8.273   4.690  67.468  1.00  0.00    -0.101 A  
HETATM   21 CL   UNL     1      -8.033   2.792  65.568  1.00  0.00    -0.085 Cl 
HETATM   22  C   UNL     1      -8.394   5.986  67.933  1.00  0.00    -0.116 A  
HETATM   23  N   UNL     1      -8.433   6.155  69.262  1.00  0.00    -0.119 NA 
HETATM   24  C   UNL     1      -8.508   7.412  69.733  1.00  0.00    -0.136 A  
HETATM   25  C   UNL     1      -8.571   8.530  68.924  1.00  0.00    -0.127 A  
ENDBRANCH  13  15
ENDBRANCH  11  13
ENDBRANCH  10  11
ENDBRANCH   9  10
ENDBRANCH   8   9
ENDBRANCH   3   8
ENDBRANCH   2   3
TORSDOF 9
ENDMDL
MODEL      298
REMARK 921   NORMALIZED FREE ENERGY PREDICTED BY IDOCK:   -2.93 KCAL/MOL
REMARK 922        TOTAL FREE ENERGY PREDICTED BY IDOCK:   -5.70 KCAL/MOL
REMARK 923 INTER-LIGAND FREE ENERGY PREDICTED BY IDOCK:   -5.20 KCAL/MOL
REMARK 924 INTRA-LIGAND FREE ENERGY PREDICTED BY IDOCK:   -0.50 KCAL/MOL
REMARK 927      BINDING AFFINITY PREDICTED BY RF-SCORE:    0.00 PKD
ROOT
HETATM    1  C   UNL     1      -6.891  12.991  68.677  1.00  0.00    -0.099 C  
HETATM    2  C   UNL     1      -6.877  11.618  69.343  1.00  0.00    -0.086 C  
ENDROOT
BRANCH   2   3
HETATM    3  N   UNL     1      -7.749  10.594  68.720  1.00  0.00    -0.108 NA 
BRANCH   3   4
HETATM    4  C   UNL     1      -7.051   9.930  67.590  1.00  0.00    -0.087 C  
BRANCH   4   5
HETATM    5  C   UNL     1      -7.591   8.543  67.194  1.00  0.00    -0.096 C  
HETATM    6  H   UNL     1      -8.118   7.612  65.537  1.00  0.00     0.000 HD 
HETATM    7  O   UNL     1      -7.785   8.468  65.781  1.00  0.00    -0.093 OA 
ENDBRANCH   4   5
ENDBRANCH   3   4
BRANCH   3   8
HETATM    8  C   UNL     1      -8.150   9.602  69.747  1.00  0.00    -0.155 C  
BRANCH   8   9
HETATM    9  C   UNL     1      -9.561   9.798  70.344  1.00  0.00    -0.223 C  
BRANCH   9  10
HETATM   10  C   UNL     1     -10.727   9.549  69.372  1.00  0.00    -0.244 C  
BRANCH  10  11
HETATM   11  C   UNL     1     -12.074  10.128  69.844  1.00  0.00    -0.034 C  
HETATM   12  C   UNL     1     -11.952  10.837  71.196  1.00  0.00    -0.361 C  
BRANCH  11  13
HETATM   13  N   UNL     1     -12.598  11.085  68.844  1.00  0.00    -0.542 NA 
HETATM   14  H   UNL     1     -13.553  11.439  68.898  1.00  0.00     0.000 HD 
BRANCH  13  15
HETATM   15  C   UNL     1     -11.715  11.490  67.804  1.00  0.00    -0.227 A  
HETATM   16  C   UNL     1     -11.298  12.845  67.702  1.00  0.00    -0.349 A  
HETATM   17  C   UNL     1     -11.747  13.878  68.560  1.00  0.00    -0.390 A  
HETATM   18  C   UNL     1     -11.305  15.194  68.397  1.00  0.00    -0.326 A  
HETATM   19  C   UNL     1     -10.423  15.493  67.368  1.00  0.00    -0.281 A  
HETATM   20  C   UNL     1      -9.973  14.491  66.513  1.00  0.00    -0.290 A  
HETATM   21 CL   UNL     1      -9.876  17.110  67.146  1.00  0.00    -0.263 Cl 
HETATM   22  C   UNL     1     -10.386  13.181  66.669  1.00  0.00    -0.265 A  
HETATM   23  N   UNL     1      -9.878  12.279  65.819  1.00  0.00    -0.251 NA 
HETATM   24  C   UNL     1     -10.236  10.992  65.982  1.00  0.00    -0.252 A  
HETATM   25  C   UNL     1     -11.112  10.560  66.958  1.00  0.00    -0.183 A  
ENDBRANCH  13  15
ENDBRANCH  11  13
ENDBRANCH  10  11
ENDBRANCH   9  10
ENDBRANCH   8   9
ENDBRANCH   3   8
ENDBRANCH   2   3
TORSDOF 9
ENDMDL
MODEL      299
REMARK 921   NORMALIZED FREE ENERGY PREDICTED BY IDOCK:   -2.91 KCAL/MOL
REMARK 922        TOTAL FREE ENERGY PREDICTED BY IDOCK:   -5.67 KCAL/MOL
REMARK 923 INTER-LIGAND FREE ENERGY PREDICTED BY IDOCK:   -5.02 KCAL/MOL
REMARK 924 INTRA-LIGAND FREE ENERGY PREDICTED BY IDOCK:   -0.65 KCAL/MOL
REMARK 927      BINDING AFFINITY PREDICTED BY RF-SCORE:    0.00 PKD
ROOT
HETATM    1  C   UNL     1     -12.265  14.441  69.660  1.00  0.00    -0.353 C  
HETATM    2  C   UNL     1     -12.193  13.161  70.488  1.00  0.00    -0.328 C  
ENDROOT
BRANCH   2   3
HETATM    3  N   UNL     1     -11.830  11.933  69.742  1.00  0.00    -0.330 NA 
BRANCH   3   4
HETATM    4  C   UNL     1     -12.641  10.780  70.206  1.00  0.00    -0.276 C  
BRANCH   4   5
HETATM    5  C   UNL     1     -11.867   9.469  70.441  1.00  0.00    -0.124 C  
HETATM    6  H   UNL     1     -10.242   8.898  71.400  1.00  0.00     0.000 HD 
HETATM    7  O   UNL     1     -10.719   9.706  71.255  1.00  0.00    -0.335 OA 
ENDBRANCH   4   5
ENDBRANCH   3   4
BRANCH   3   8
HETATM    8  C   UNL     1     -12.026  12.164  68.290  1.00  0.00    -0.187 C  
BRANCH   8   9
HETATM    9  C   UNL     1     -11.226  11.230  67.356  1.00  0.00    -0.370 C  
BRANCH   9  10
HETATM   10  C   UNL     1     -10.400  11.939  66.268  1.00  0.00    -0.259 C  
BRANCH  10  11
HETATM   11  C   UNL     1     -10.216  11.112  64.980  1.00  0.00    -0.296 C  
HETATM   12  C   UNL     1     -10.538  11.925  63.724  1.00  0.00    -0.475 C  
BRANCH  11  13
HETATM   13  N   UNL     1      -8.825  10.613  64.888  1.00  0.00    -0.193 NA 
HETATM   14  H   UNL     1      -8.360  10.504  63.987  1.00  0.00     0.000 HD 
BRANCH  13  15
HETATM   15  C   UNL     1      -8.164  10.293  66.107  1.00  0.00    -0.138 A  
HETATM   16  C   UNL     1      -8.474   9.091  66.799  1.00  0.00    -0.121 A  
HETATM   17  C   UNL     1      -9.465   8.170  66.380  1.00  0.00    -0.285 A  
HETATM   18  C   UNL     1      -9.728   7.011  67.115  1.00  0.00    -0.206 A  
HETATM   19  C   UNL     1      -9.015   6.768  68.282  1.00  0.00    -0.123 A  
HETATM   20  C   UNL     1      -8.040   7.663  68.710  1.00  0.00    -0.127 A  
HETATM   21 CL   UNL     1      -9.334   5.350  69.205  1.00  0.00    -0.146 Cl 
HETATM   22  C   UNL     1      -7.754   8.807  67.988  1.00  0.00    -0.101 A  
HETATM   23  N   UNL     1      -6.780   9.596  68.459  1.00  0.00    -0.053 NA 
HETATM   24  C   UNL     1      -6.459  10.691  67.747  1.00  0.00    -0.060 A  
HETATM   25  C   UNL     1      -7.094  11.054  66.575  1.00  0.00    -0.136 A  
ENDBRANCH  13  15
ENDBRANCH  11  13
ENDBRANCH  10  11
ENDBRANCH   9  10
ENDBRANCH   8   9
ENDBRANCH   3   8
ENDBRANCH   2   3
TORSDOF 9
ENDMDL
MODEL      300
REMARK 921   NORMALIZED FREE ENERGY PREDICTED BY IDOCK:   -2.91 KCAL/MOL
REMARK 922        TOTAL FREE ENERGY PREDICTED BY IDOCK:   -5.67 KCAL/MOL
REMARK 923 INTER-LIGAND FREE ENERGY PREDICTED BY IDOCK:   -4.84 KCAL/MOL
REMARK 924 INTRA-LIGAND FREE ENERGY PREDICTED BY IDOCK:   -0.83 KCAL/MOL
REMARK 927      BINDING AFFINITY PREDICTED BY RF-SCORE:    0.00 PKD
ROOT
HETATM    1  C   UNL     1      -7.785  11.605  67.142  1.00  0.00    -0.159 C  
HETATM    2  C   UNL     1      -8.669  10.822  68.108  1.00  0.00    -0.130 C  
ENDROOT
BRANCH   2   3
HETATM    3  N   UNL     1      -9.413   9.683  67.519  1.00  0.00    -0.133 NA 
BRANCH   3   4
HETATM    4  C   UNL     1     -10.859  10.002  67.411  1.00  0.00    -0.249 C  
BRANCH   4   5
HETATM    5  C   UNL     1     -11.305  11.318  68.077  1.00  0.00    -0.304 C  
HETATM    6  H   UNL     1     -12.291  12.944  67.558  1.00  0.00     0.000 HD 
HETATM    7  O   UNL     1     -12.016  12.133  67.147  1.00  0.00    -0.580 OA 
ENDBRANCH   4   5
ENDBRANCH   3   4
BRANCH   3   8
HETATM    8  C   UNL     1      -8.844   9.362  66.187  1.00  0.00    -0.151 C  
BRANCH   8   9
HETATM    9  C   UNL     1      -7.969   8.090  66.129  1.00  0.00    -0.103 C  
BRANCH   9  10
HETATM   10  C   UNL     1      -8.551   6.859  66.845  1.00  0.00    -0.116 C  
BRANCH  10  11
HETATM   11  C   UNL     1      -9.474   5.996  65.961  1.00  0.00    -0.037 C  
HETATM   12  C   UNL     1      -8.680   5.081  65.024  1.00  0.00    -0.151 C  
BRANCH  11  13
HETATM   13  N   UNL     1     -10.361   5.166  66.807  1.00  0.00    -0.253 NA 
HETATM   14  H   UNL     1     -11.290   4.889  66.489  1.00  0.00     0.000 HD 
BRANCH  13  15
HETATM   15  C   UNL     1      -9.866   4.771  68.081  1.00  0.00    -0.120 A  
HETATM   16  C   UNL     1     -10.290   5.445  69.258  1.00  0.00    -0.322 A  
HETATM   17  C   UNL     1     -11.165   6.558  69.261  1.00  0.00    -0.390 A  
HETATM   18  C   UNL     1     -11.534   7.183  70.455  1.00  0.00    -0.334 A  
HETATM   19  C   UNL     1     -11.019   6.713  71.657  1.00  0.00    -0.241 A  
HETATM   20  C   UNL     1     -10.155   5.622  71.673  1.00  0.00    -0.245 A  
HETATM   21 CL   UNL     1     -11.454   7.477  73.137  1.00  0.00    -0.257 Cl 
HETATM   22  C   UNL     1      -9.793   4.981  70.503  1.00  0.00    -0.219 A  
HETATM   23  N   UNL     1      -8.980   3.922  70.617  1.00  0.00    -0.085 NA 
HETATM   24  C   UNL     1      -8.651   3.259  69.494  1.00  0.00    -0.066 A  
HETATM   25  C   UNL     1      -9.085   3.626  68.235  1.00  0.00    -0.199 A  
ENDBRANCH  13  15
ENDBRANCH  11  13
ENDBRANCH  10  11
ENDBRANCH   9  10
ENDBRANCH   8   9
ENDBRANCH   3   8
ENDBRANCH   2   3
TORSDOF 9
ENDMDL
MODEL      301
REMARK 921   NORMALIZED FREE ENERGY PREDICTED BY IDOCK:   -2.90 KCAL/MOL
REMARK 922        TOTAL FREE ENERGY PREDICTED BY IDOCK:   -5.65 KCAL/MOL
REMARK 923 INTER-LIGAND FREE ENERGY PREDICTED BY IDOCK:   -5.10 KCAL/MOL
REMARK 924 INTRA-LIGAND FREE ENERGY PREDICTED BY IDOCK:   -0.55 KCAL/MOL
REMARK 927      BINDING AFFINITY PREDICTED BY RF-SCORE:    0.00 PKD
ROOT
HETATM    1  C   UNL     1      -6.095  11.872  66.962  1.00  0.00    -0.149 C  
HETATM    2  C   UNL     1      -7.569  12.072  67.305  1.00  0.00    -0.157 C  
ENDROOT
BRANCH   2   3
HETATM    3  N   UNL     1      -8.488  11.007  66.839  1.00  0.00    -0.135 NA 
BRANCH   3   4
HETATM    4  C   UNL     1      -9.626  11.591  66.086  1.00  0.00    -0.225 C  
BRANCH   4   5
HETATM    5  C   UNL     1     -10.150  12.942  66.607  1.00  0.00    -0.245 C  
HETATM    6  H   UNL     1     -11.726  13.603  67.591  1.00  0.00     0.000 HD 
HETATM    7  O   UNL     1     -11.403  12.770  67.269  1.00  0.00    -0.279 OA 
ENDBRANCH   4   5
ENDBRANCH   3   4
BRANCH   3   8
HETATM    8  C   UNL     1      -7.737  10.045  65.996  1.00  0.00    -0.110 C  
BRANCH   8   9
HETATM    9  C   UNL     1      -7.547   8.638  66.604  1.00  0.00    -0.089 C  
BRANCH   9  10
HETATM   10  C   UNL     1      -8.660   8.181  67.563  1.00  0.00    -0.129 C  
BRANCH  10  11
HETATM   11  C   UNL     1      -9.762   7.339  66.891  1.00  0.00    -0.194 C  
HETATM   12  C   UNL     1      -9.387   5.856  66.816  1.00  0.00    -0.144 C  
BRANCH  11  13
HETATM   13  N   UNL     1     -11.035   7.476  67.636  1.00  0.00    -0.518 NA 
HETATM   14  H   UNL     1     -11.907   7.092  67.270  1.00  0.00     0.000 HD 
BRANCH  13  15
HETATM   15  C   UNL     1     -10.992   8.163  68.881  1.00  0.00     0.154 A  
HETATM   16  C   UNL     1     -10.919   7.438  70.101  1.00  0.00    -0.272 A  
HETATM   17  C   UNL     1     -10.935   6.024  70.183  1.00  0.00    -0.429 A  
HETATM   18  C   UNL     1     -10.871   5.373  71.418  1.00  0.00    -0.210 A  
HETATM   19  C   UNL     1     -10.807   6.126  72.582  1.00  0.00    -0.245 A  
HETATM   20  C   UNL     1     -10.793   7.516  72.521  1.00  0.00    -0.349 A  
HETATM   21 CL   UNL     1     -10.739   5.341  74.113  1.00  0.00    -0.298 Cl 
HETATM   22  C   UNL     1     -10.838   8.178  71.308  1.00  0.00    -0.237 A  
HETATM   23  N   UNL     1     -10.791   9.516  71.343  1.00  0.00    -0.350 NA 
HETATM   24  C   UNL     1     -10.790  10.176  70.171  1.00  0.00    -0.311 A  
HETATM   25  C   UNL     1     -10.861   9.550  68.942  1.00  0.00    -0.177 A  
ENDBRANCH  13  15
ENDBRANCH  11  13
ENDBRANCH  10  11
ENDBRANCH   9  10
ENDBRANCH   8   9
ENDBRANCH   3   8
ENDBRANCH   2   3
TORSDOF 9
ENDMDL
MODEL      302
REMARK 921   NORMALIZED FREE ENERGY PREDICTED BY IDOCK:   -2.89 KCAL/MOL
REMARK 922        TOTAL FREE ENERGY PREDICTED BY IDOCK:   -5.64 KCAL/MOL
REMARK 923 INTER-LIGAND FREE ENERGY PREDICTED BY IDOCK:   -4.56 KCAL/MOL
REMARK 924 INTRA-LIGAND FREE ENERGY PREDICTED BY IDOCK:   -1.08 KCAL/MOL
REMARK 927      BINDING AFFINITY PREDICTED BY RF-SCORE:    0.00 PKD
ROOT
HETATM    1  C   UNL     1     -10.686  10.472  68.690  1.00  0.00    -0.247 C  
HETATM    2  C   UNL     1      -9.268  10.576  68.136  1.00  0.00    -0.148 C  
ENDROOT
BRANCH   2   3
HETATM    3  N   UNL     1      -9.065  10.016  66.778  1.00  0.00    -0.139 NA 
BRANCH   3   4
HETATM    4  C   UNL     1      -7.712   9.417  66.656  1.00  0.00    -0.097 C  
BRANCH   4   5
HETATM    5  C   UNL     1      -6.757  10.118  65.671  1.00  0.00    -0.116 C  
HETATM    6  H   UNL     1      -6.769  10.650  63.772  1.00  0.00     0.000 HD 
HETATM    7  O   UNL     1      -7.357  10.217  64.379  1.00  0.00    -0.139 OA 
ENDBRANCH   4   5
ENDBRANCH   3   4
BRANCH   3   8
HETATM    8  C   UNL     1     -10.115   9.005  66.503  1.00  0.00    -0.283 C  
BRANCH   8   9
HETATM    9  C   UNL     1      -9.752   7.552  66.880  1.00  0.00    -0.272 C  
BRANCH   9  10
HETATM   10  C   UNL     1     -10.907   6.540  66.784  1.00  0.00    -0.345 C  
BRANCH  10  11
HETATM   11  C   UNL     1     -10.460   5.067  66.861  1.00  0.00    -0.186 C  
HETATM   12  C   UNL     1     -10.189   4.476  65.475  1.00  0.00    -0.251 C  
BRANCH  11  13
HETATM   13  N   UNL     1      -9.235   4.948  67.684  1.00  0.00    -0.119 NA 
HETATM   14  H   UNL     1      -8.372   5.427  67.424  1.00  0.00     0.000 HD 
BRANCH  13  15
HETATM   15  C   UNL     1      -9.310   4.138  68.852  1.00  0.00    -0.163 A  
HETATM   16  C   UNL     1      -9.578   4.726  70.118  1.00  0.00    -0.265 A  
HETATM   17  C   UNL     1      -9.736   6.117  70.327  1.00  0.00    -0.195 A  
HETATM   18  C   UNL     1      -9.987   6.631  71.602  1.00  0.00    -0.187 A  
HETATM   19  C   UNL     1     -10.068   5.762  72.683  1.00  0.00    -0.180 A  
HETATM   20  C   UNL     1      -9.913   4.391  72.496  1.00  0.00    -0.225 A  
HETATM   21 CL   UNL     1     -10.367   6.378  74.262  1.00  0.00    -0.346 Cl 
HETATM   22  C   UNL     1      -9.680   3.864  71.240  1.00  0.00    -0.177 A  
HETATM   23  N   UNL     1      -9.573   2.531  71.151  1.00  0.00    -0.152 NA 
HETATM   24  C   UNL     1      -9.390   1.997  69.930  1.00  0.00    -0.094 A  
HETATM   25  C   UNL     1      -9.282   2.746  68.775  1.00  0.00    -0.231 A  
ENDBRANCH  13  15
ENDBRANCH  11  13
ENDBRANCH  10  11
ENDBRANCH   9  10
ENDBRANCH   8   9
ENDBRANCH   3   8
ENDBRANCH   2   3
TORSDOF 9
ENDMDL
MODEL      303
REMARK 921   NORMALIZED FREE ENERGY PREDICTED BY IDOCK:   -2.88 KCAL/MOL
REMARK 922        TOTAL FREE ENERGY PREDICTED BY IDOCK:   -5.63 KCAL/MOL
REMARK 923 INTER-LIGAND FREE ENERGY PREDICTED BY IDOCK:   -5.15 KCAL/MOL
REMARK 924 INTRA-LIGAND FREE ENERGY PREDICTED BY IDOCK:   -0.47 KCAL/MOL
REMARK 927      BINDING AFFINITY PREDICTED BY RF-SCORE:    0.00 PKD
ROOT
HETATM    1  C   UNL     1      -6.192   8.384  70.121  1.00  0.00    -0.031 C  
HETATM    2  C   UNL     1      -7.311   9.411  69.980  1.00  0.00    -0.101 C  
ENDROOT
BRANCH   2   3
HETATM    3  N   UNL     1      -8.191   9.245  68.799  1.00  0.00    -0.111 NA 
BRANCH   3   4
HETATM    4  C   UNL     1      -9.586   8.962  69.221  1.00  0.00    -0.162 C  
BRANCH   4   5
HETATM    5  C   UNL     1     -10.128   7.569  68.849  1.00  0.00    -0.192 C  
HETATM    6  H   UNL     1     -10.027   5.736  69.567  1.00  0.00     0.000 HD 
HETATM    7  O   UNL     1      -9.692   6.594  69.797  1.00  0.00    -0.159 OA 
ENDBRANCH   4   5
ENDBRANCH   3   4
BRANCH   3   8
HETATM    8  C   UNL     1      -8.132  10.472  67.967  1.00  0.00    -0.111 C  
BRANCH   8   9
HETATM    9  C   UNL     1      -9.498  11.039  67.524  1.00  0.00    -0.175 C  
BRANCH   9  10
HETATM   10  C   UNL     1      -9.482  12.508  67.065  1.00  0.00    -0.217 C  
BRANCH  10  11
HETATM   11  C   UNL     1     -10.720  12.925  66.247  1.00  0.00    -0.274 C  
HETATM   12  C   UNL     1     -11.089  11.879  65.192  1.00  0.00    -0.360 C  
BRANCH  11  13
HETATM   13  N   UNL     1     -11.879  13.133  67.145  1.00  0.00    -0.372 NA 
HETATM   14  H   UNL     1     -12.822  12.862  66.865  1.00  0.00     0.000 HD 
BRANCH  13  15
HETATM   15  C   UNL     1     -11.624  13.727  68.413  1.00  0.00    -0.334 A  
HETATM   16  C   UNL     1     -11.216  15.085  68.502  1.00  0.00    -0.298 A  
HETATM   17  C   UNL     1     -10.987  15.918  67.379  1.00  0.00    -0.257 A  
HETATM   18  C   UNL     1     -10.576  17.244  67.537  1.00  0.00    -0.329 A  
HETATM   19  C   UNL     1     -10.374  17.747  68.816  1.00  0.00    -0.332 A  
HETATM   20  C   UNL     1     -10.592  16.942  69.931  1.00  0.00    -0.018 A  
HETATM   21 CL   UNL     1      -9.858  19.375  69.029  1.00  0.00    -0.503 Cl 
HETATM   22  C   UNL     1     -11.015  15.634  69.794  1.00  0.00    -0.304 A  
HETATM   23  N   UNL     1     -11.228  14.943  70.923  1.00  0.00    -0.215 NA 
HETATM   24  C   UNL     1     -11.681  13.681  70.810  1.00  0.00     0.068 A  
HETATM   25  C   UNL     1     -11.913  13.057  69.601  1.00  0.00    -0.367 A  
ENDBRANCH  13  15
ENDBRANCH  11  13
ENDBRANCH  10  11
ENDBRANCH   9  10
ENDBRANCH   8   9
ENDBRANCH   3   8
ENDBRANCH   2   3
TORSDOF 9
ENDMDL
MODEL      304
REMARK 921   NORMALIZED FREE ENERGY PREDICTED BY IDOCK:   -2.86 KCAL/MOL
REMARK 922        TOTAL FREE ENERGY PREDICTED BY IDOCK:   -5.60 KCAL/MOL
REMARK 923 INTER-LIGAND FREE ENERGY PREDICTED BY IDOCK:   -4.89 KCAL/MOL
REMARK 924 INTRA-LIGAND FREE ENERGY PREDICTED BY IDOCK:   -0.70 KCAL/MOL
REMARK 927      BINDING AFFINITY PREDICTED BY RF-SCORE:    0.00 PKD
ROOT
HETATM    1  C   UNL     1     -11.539   6.139  71.031  1.00  0.00    -0.260 C  
HETATM    2  C   UNL     1     -10.268   5.547  71.634  1.00  0.00    -0.209 C  
ENDROOT
BRANCH   2   3
HETATM    3  N   UNL     1      -9.024   5.773  70.861  1.00  0.00    -0.144 NA 
BRANCH   3   4
HETATM    4  C   UNL     1      -9.122   5.149  69.517  1.00  0.00    -0.108 C  
BRANCH   4   5
HETATM    5  C   UNL     1      -9.271   3.616  69.501  1.00  0.00    -0.155 C  
HETATM    6  H   UNL     1      -8.226   2.052  70.093  1.00  0.00     0.000 HD 
HETATM    7  O   UNL     1      -8.134   2.997  70.103  1.00  0.00    -0.042 OA 
ENDBRANCH   4   5
ENDBRANCH   3   4
BRANCH   3   8
HETATM    8  C   UNL     1      -8.775   7.230  70.747  1.00  0.00    -0.146 C  
BRANCH   8   9
HETATM    9  C   UNL     1      -8.554   7.756  69.312  1.00  0.00    -0.138 C  
BRANCH   9  10
HETATM   10  C   UNL     1      -8.348   9.276  69.193  1.00  0.00    -0.127 C  
BRANCH  10  11
HETATM   11  C   UNL     1      -9.517  10.018  68.516  1.00  0.00    -0.148 C  
HETATM   12  C   UNL     1     -10.848   9.762  69.228  1.00  0.00    -0.240 C  
BRANCH  11  13
HETATM   13  N   UNL     1      -9.254  11.475  68.496  1.00  0.00    -0.234 NA 
HETATM   14  H   UNL     1      -8.656  11.916  69.195  1.00  0.00     0.000 HD 
BRANCH  13  15
HETATM   15  C   UNL     1      -9.869  12.234  67.461  1.00  0.00    -0.193 A  
HETATM   16  C   UNL     1     -10.035  13.639  67.602  1.00  0.00    -0.239 A  
HETATM   17  C   UNL     1      -9.666  14.367  68.759  1.00  0.00    -0.190 A  
HETATM   18  C   UNL     1      -9.868  15.748  68.836  1.00  0.00    -0.224 A  
HETATM   19  C   UNL     1     -10.454  16.411  67.766  1.00  0.00    -0.300 A  
HETATM   20  C   UNL     1     -10.825  15.711  66.622  1.00  0.00    -0.266 A  
HETATM   21 CL   UNL     1     -10.720  18.110  67.848  1.00  0.00    -0.387 Cl 
HETATM   22  C   UNL     1     -10.618  14.348  66.520  1.00  0.00    -0.296 A  
HETATM   23  N   UNL     1     -10.979  13.762  65.371  1.00  0.00    -0.300 NA 
HETATM   24  C   UNL     1     -10.746  12.444  65.238  1.00  0.00    -0.287 A  
HETATM   25  C   UNL     1     -10.179  11.664  66.227  1.00  0.00    -0.262 A  
ENDBRANCH  13  15
ENDBRANCH  11  13
ENDBRANCH  10  11
ENDBRANCH   9  10
ENDBRANCH   8   9
ENDBRANCH   3   8
ENDBRANCH   2   3
TORSDOF 9
ENDMDL
MODEL      305
REMARK 921   NORMALIZED FREE ENERGY PREDICTED BY IDOCK:   -2.85 KCAL/MOL
REMARK 922        TOTAL FREE ENERGY PREDICTED BY IDOCK:   -5.58 KCAL/MOL
REMARK 923 INTER-LIGAND FREE ENERGY PREDICTED BY IDOCK:   -5.46 KCAL/MOL
REMARK 924 INTRA-LIGAND FREE ENERGY PREDICTED BY IDOCK:   -0.12 KCAL/MOL
REMARK 927      BINDING AFFINITY PREDICTED BY RF-SCORE:    0.00 PKD
ROOT
HETATM    1  C   UNL     1     -13.067  12.679  64.365  1.00  0.00    -0.071 C  
HETATM    2  C   UNL     1     -11.923  13.329  65.138  1.00  0.00    -0.381 C  
ENDROOT
BRANCH   2   3
HETATM    3  N   UNL     1     -10.657  13.503  64.388  1.00  0.00    -0.419 NA 
BRANCH   3   4
HETATM    4  C   UNL     1      -9.679  14.284  65.186  1.00  0.00     0.059 C  
BRANCH   4   5
HETATM    5  C   UNL     1     -10.102  15.721  65.543  1.00  0.00    -0.351 C  
HETATM    6  H   UNL     1      -9.217  17.417  66.021  1.00  0.00     0.000 HD 
HETATM    7  O   UNL     1      -8.955  16.531  65.802  1.00  0.00    -0.481 OA 
ENDBRANCH   4   5
ENDBRANCH   3   4
BRANCH   3   8
HETATM    8  C   UNL     1     -10.107  12.171  64.037  1.00  0.00    -0.331 C  
BRANCH   8   9
HETATM    9  C   UNL     1     -10.164  11.114  65.161  1.00  0.00    -0.347 C  
BRANCH   9  10
HETATM   10  C   UNL     1      -9.382   9.817  64.885  1.00  0.00    -0.327 C  
BRANCH  10  11
HETATM   11  C   UNL     1      -9.225   8.904  66.116  1.00  0.00    -0.217 C  
HETATM   12  C   UNL     1      -8.193   9.448  67.107  1.00  0.00    -0.113 C  
BRANCH  11  13
HETATM   13  N   UNL     1     -10.525   8.752  66.809  1.00  0.00    -0.255 NA 
HETATM   14  H   UNL     1     -11.399   9.030  66.363  1.00  0.00     0.000 HD 
BRANCH  13  15
HETATM   15  C   UNL     1     -10.505   8.203  68.121  1.00  0.00    -0.170 A  
HETATM   16  C   UNL     1     -10.212   6.827  68.321  1.00  0.00    -0.194 A  
HETATM   17  C   UNL     1      -9.976   5.907  67.269  1.00  0.00    -0.179 A  
HETATM   18  C   UNL     1      -9.704   4.563  67.535  1.00  0.00    -0.213 A  
HETATM   19  C   UNL     1      -9.680   4.120  68.851  1.00  0.00    -0.106 A  
HETATM   20  C   UNL     1      -9.913   5.008  69.897  1.00  0.00    -0.322 A  
HETATM   21 CL   UNL     1      -9.358   2.464  69.196  1.00  0.00    -0.204 Cl 
HETATM   22  C   UNL     1     -10.166   6.345  69.654  1.00  0.00    -0.189 A  
HETATM   23  N   UNL     1     -10.349   7.133  70.723  1.00  0.00    -0.206 NA 
HETATM   24  C   UNL     1     -10.554   8.445  70.508  1.00  0.00    -0.216 A  
HETATM   25  C   UNL     1     -10.611   9.014  69.251  1.00  0.00    -0.226 A  
ENDBRANCH  13  15
ENDBRANCH  11  13
ENDBRANCH  10  11
ENDBRANCH   9  10
ENDBRANCH   8   9
ENDBRANCH   3   8
ENDBRANCH   2   3
TORSDOF 9
ENDMDL
MODEL      306
REMARK 921   NORMALIZED FREE ENERGY PREDICTED BY IDOCK:   -2.84 KCAL/MOL
REMARK 922        TOTAL FREE ENERGY PREDICTED BY IDOCK:   -5.56 KCAL/MOL
REMARK 923 INTER-LIGAND FREE ENERGY PREDICTED BY IDOCK:   -4.74 KCAL/MOL
REMARK 924 INTRA-LIGAND FREE ENERGY PREDICTED BY IDOCK:   -0.82 KCAL/MOL
REMARK 927      BINDING AFFINITY PREDICTED BY RF-SCORE:    0.00 PKD
ROOT
HETATM    1  C   UNL     1     -10.800  16.604  69.349  1.00  0.00    -0.295 C  
HETATM    2  C   UNL     1     -10.927  15.772  70.621  1.00  0.00    -0.320 C  
ENDROOT
BRANCH   2   3
HETATM    3  N   UNL     1     -11.287  14.347  70.423  1.00  0.00    -0.159 NA 
BRANCH   3   4
HETATM    4  C   UNL     1     -12.760  14.168  70.469  1.00  0.00    -0.309 C  
BRANCH   4   5
HETATM    5  C   UNL     1     -13.317  13.531  71.756  1.00  0.00    -0.397 C  
HETATM    6  H   UNL     1     -13.647  14.083  73.620  1.00  0.00     0.000 HD 
HETATM    7  O   UNL     1     -13.304  14.475  72.827  1.00  0.00    -0.458 OA 
ENDBRANCH   4   5
ENDBRANCH   3   4
BRANCH   3   8
HETATM    8  C   UNL     1     -10.740  13.879  69.127  1.00  0.00    -0.147 C  
BRANCH   8   9
HETATM    9  C   UNL     1     -11.778  13.307  68.136  1.00  0.00    -0.397 C  
BRANCH   9  10
HETATM   10  C   UNL     1     -12.009  11.788  68.229  1.00  0.00    -0.236 C  
BRANCH  10  11
HETATM   11  C   UNL     1     -10.937  11.039  69.044  1.00  0.00    -0.233 C  
HETATM   12  C   UNL     1     -11.465  10.581  70.406  1.00  0.00    -0.427 C  
BRANCH  11  13
HETATM   13  N   UNL     1     -10.457   9.857  68.291  1.00  0.00    -0.198 NA 
HETATM   14  H   UNL     1     -11.058   9.373  67.625  1.00  0.00     0.000 HD 
BRANCH  13  15
HETATM   15  C   UNL     1      -9.123   9.425  68.536  1.00  0.00    -0.131 A  
HETATM   16  C   UNL     1      -8.871   8.120  69.039  1.00  0.00    -0.144 A  
HETATM   17  C   UNL     1      -9.887   7.192  69.377  1.00  0.00    -0.161 A  
HETATM   18  C   UNL     1      -9.569   5.928  69.879  1.00  0.00    -0.194 A  
HETATM   19  C   UNL     1      -8.237   5.582  70.063  1.00  0.00    -0.104 A  
HETATM   20  C   UNL     1      -7.226   6.482  69.739  1.00  0.00    -0.078 A  
HETATM   21 CL   UNL     1      -7.828   4.032  70.690  1.00  0.00    -0.051 Cl 
HETATM   22  C   UNL     1      -7.520   7.731  69.226  1.00  0.00    -0.093 A  
HETATM   23  N   UNL     1      -6.483   8.520  68.915  1.00  0.00    -0.048 NA 
HETATM   24  C   UNL     1      -6.748   9.723  68.374  1.00  0.00    -0.060 A  
HETATM   25  C   UNL     1      -8.027  10.194  68.147  1.00  0.00    -0.104 A  
ENDBRANCH  13  15
ENDBRANCH  11  13
ENDBRANCH  10  11
ENDBRANCH   9  10
ENDBRANCH   8   9
ENDBRANCH   3   8
ENDBRANCH   2   3
TORSDOF 9
ENDMDL
MODEL      307
REMARK 921   NORMALIZED FREE ENERGY PREDICTED BY IDOCK:   -2.84 KCAL/MOL
REMARK 922        TOTAL FREE ENERGY PREDICTED BY IDOCK:   -5.56 KCAL/MOL
REMARK 923 INTER-LIGAND FREE ENERGY PREDICTED BY IDOCK:   -5.16 KCAL/MOL
REMARK 924 INTRA-LIGAND FREE ENERGY PREDICTED BY IDOCK:   -0.40 KCAL/MOL
REMARK 927      BINDING AFFINITY PREDICTED BY RF-SCORE:    0.00 PKD
ROOT
HETATM    1  C   UNL     1     -13.890  15.015  71.619  1.00  0.00    -0.571 C  
HETATM    2  C   UNL     1     -12.520  15.196  70.971  1.00  0.00    -0.357 C  
ENDROOT
BRANCH   2   3
HETATM    3  N   UNL     1     -12.291  14.422  69.727  1.00  0.00    -0.314 NA 
BRANCH   3   4
HETATM    4  C   UNL     1     -11.407  15.173  68.800  1.00  0.00    -0.300 C  
BRANCH   4   5
HETATM    5  C   UNL     1      -9.978  14.620  68.643  1.00  0.00    -0.234 C  
HETATM    6  H   UNL     1      -8.331  15.113  67.678  1.00  0.00     0.000 HD 
HETATM    7  O   UNL     1      -9.212  15.454  67.774  1.00  0.00    -0.182 OA 
ENDBRANCH   4   5
ENDBRANCH   3   4
BRANCH   3   8
HETATM    8  C   UNL     1     -11.697  13.107  70.070  1.00  0.00    -0.221 C  
BRANCH   8   9
HETATM    9  C   UNL     1     -12.390  11.881  69.434  1.00  0.00    -0.056 C  
BRANCH   9  10
HETATM   10  C   UNL     1     -11.525  10.611  69.345  1.00  0.00    -0.356 C  
BRANCH  10  11
HETATM   11  C   UNL     1     -10.941  10.347  67.943  1.00  0.00    -0.297 C  
HETATM   12  C   UNL     1      -9.420  10.523  67.912  1.00  0.00    -0.157 C  
BRANCH  11  13
HETATM   13  N   UNL     1     -11.277   8.975  67.500  1.00  0.00    -0.264 NA 
HETATM   14  H   UNL     1     -12.240   8.700  67.308  1.00  0.00     0.000 HD 
BRANCH  13  15
HETATM   15  C   UNL     1     -10.201   8.055  67.355  1.00  0.00    -0.261 A  
HETATM   16  C   UNL     1      -9.921   7.108  68.377  1.00  0.00    -0.166 A  
HETATM   17  C   UNL     1     -10.627   7.034  69.603  1.00  0.00    -0.253 A  
HETATM   18  C   UNL     1     -10.292   6.084  70.571  1.00  0.00    -0.279 A  
HETATM   19  C   UNL     1      -9.241   5.209  70.332  1.00  0.00    -0.148 A  
HETATM   20  C   UNL     1      -8.534   5.268  69.135  1.00  0.00    -0.098 A  
HETATM   21 CL   UNL     1      -8.808   4.039  71.519  1.00  0.00    -0.137 Cl 
HETATM   22  C   UNL     1      -8.861   6.190  68.158  1.00  0.00    -0.112 A  
HETATM   23  N   UNL     1      -8.147   6.155  67.025  1.00  0.00    -0.105 NA 
HETATM   24  C   UNL     1      -8.479   7.016  66.047  1.00  0.00    -0.139 A  
HETATM   25  C   UNL     1      -9.495   7.944  66.157  1.00  0.00    -0.158 A  
ENDBRANCH  13  15
ENDBRANCH  11  13
ENDBRANCH  10  11
ENDBRANCH   9  10
ENDBRANCH   8   9
ENDBRANCH   3   8
ENDBRANCH   2   3
TORSDOF 9
ENDMDL
MODEL      308
REMARK 921   NORMALIZED FREE ENERGY PREDICTED BY IDOCK:   -2.82 KCAL/MOL
REMARK 922        TOTAL FREE ENERGY PREDICTED BY IDOCK:   -5.53 KCAL/MOL
REMARK 923 INTER-LIGAND FREE ENERGY PREDICTED BY IDOCK:   -4.64 KCAL/MOL
REMARK 924 INTRA-LIGAND FREE ENERGY PREDICTED BY IDOCK:   -0.90 KCAL/MOL
REMARK 927      BINDING AFFINITY PREDICTED BY RF-SCORE:    0.00 PKD
ROOT
HETATM    1  C   UNL     1     -11.274  11.267  68.014  1.00  0.00    -0.351 C  
HETATM    2  C   UNL     1     -10.252  10.567  68.905  1.00  0.00    -0.208 C  
ENDROOT
BRANCH   2   3
HETATM    3  N   UNL     1      -9.093   9.965  68.204  1.00  0.00    -0.121 NA 
BRANCH   3   4
HETATM    4  C   UNL     1      -8.294   9.130  69.135  1.00  0.00    -0.123 C  
BRANCH   4   5
HETATM    5  C   UNL     1      -6.885   9.658  69.465  1.00  0.00    -0.056 C  
HETATM    6  H   UNL     1      -6.033  10.724  70.889  1.00  0.00     0.000 HD 
HETATM    7  O   UNL     1      -6.902  10.398  70.685  1.00  0.00    -0.328 OA 
ENDBRANCH   4   5
ENDBRANCH   3   4
BRANCH   3   8
HETATM    8  C   UNL     1      -9.579   9.158  67.058  1.00  0.00    -0.170 C  
BRANCH   8   9
HETATM    9  C   UNL     1      -9.145   7.676  67.059  1.00  0.00    -0.157 C  
BRANCH   9  10
HETATM   10  C   UNL     1     -10.271   6.661  66.794  1.00  0.00    -0.263 C  
BRANCH  10  11
HETATM   11  C   UNL     1     -10.174   5.379  67.643  1.00  0.00    -0.186 C  
HETATM   12  C   UNL     1      -9.711   4.176  66.816  1.00  0.00    -0.234 C  
BRANCH  11  13
HETATM   13  N   UNL     1      -9.232   5.581  68.768  1.00  0.00    -0.120 NA 
HETATM   14  H   UNL     1      -8.270   5.878  68.607  1.00  0.00     0.000 HD 
BRANCH  13  15
HETATM   15  C   UNL     1      -9.725   5.344  70.082  1.00  0.00    -0.188 A  
HETATM   16  C   UNL     1     -10.676   6.226  70.663  1.00  0.00    -0.321 A  
HETATM   17  C   UNL     1     -11.157   7.398  70.031  1.00  0.00    -0.238 A  
HETATM   18  C   UNL     1     -12.085   8.229  70.664  1.00  0.00     0.039 A  
HETATM   19  C   UNL     1     -12.530   7.906  71.939  1.00  0.00    -0.321 A  
HETATM   20  C   UNL     1     -12.065   6.759  72.577  1.00  0.00    -0.016 A  
HETATM   21 CL   UNL     1     -13.665   8.924  72.738  1.00  0.00    -0.389 Cl 
HETATM   22  C   UNL     1     -11.160   5.917  71.960  1.00  0.00    -0.274 A  
HETATM   23  N   UNL     1     -10.791   4.820  72.636  1.00  0.00    -0.200 NA 
HETATM   24  C   UNL     1      -9.944   3.967  72.034  1.00  0.00    -0.170 A  
HETATM   25  C   UNL     1      -9.419   4.172  70.773  1.00  0.00    -0.242 A  
ENDBRANCH  13  15
ENDBRANCH  11  13
ENDBRANCH  10  11
ENDBRANCH   9  10
ENDBRANCH   8   9
ENDBRANCH   3   8
ENDBRANCH   2   3
TORSDOF 9
ENDMDL
MODEL      309
REMARK 921   NORMALIZED FREE ENERGY PREDICTED BY IDOCK:   -2.82 KCAL/MOL
REMARK 922        TOTAL FREE ENERGY PREDICTED BY IDOCK:   -5.53 KCAL/MOL
REMARK 923 INTER-LIGAND FREE ENERGY PREDICTED BY IDOCK:   -5.21 KCAL/MOL
REMARK 924 INTRA-LIGAND FREE ENERGY PREDICTED BY IDOCK:   -0.32 KCAL/MOL
REMARK 927      BINDING AFFINITY PREDICTED BY RF-SCORE:    0.00 PKD
ROOT
HETATM    1  C   UNL     1     -10.284   5.093  71.621  1.00  0.00    -0.276 C  
HETATM    2  C   UNL     1     -10.642   6.517  72.037  1.00  0.00    -0.217 C  
ENDROOT
BRANCH   2   3
HETATM    3  N   UNL     1     -11.608   7.219  71.159  1.00  0.00    -0.281 NA 
BRANCH   3   4
HETATM    4  C   UNL     1     -12.339   8.266  71.917  1.00  0.00    -0.338 C  
BRANCH   4   5
HETATM    5  C   UNL     1     -12.000   9.722  71.543  1.00  0.00    -0.407 C  
HETATM    6  H   UNL     1     -12.880  11.484  71.635  1.00  0.00     0.000 HD 
HETATM    7  O   UNL     1     -13.089  10.587  71.865  1.00  0.00    -0.457 OA 
ENDBRANCH   4   5
ENDBRANCH   3   4
BRANCH   3   8
HETATM    8  C   UNL     1     -10.885   7.811  70.008  1.00  0.00    -0.241 C  
BRANCH   8   9
HETATM    9  C   UNL     1      -9.708   6.973  69.462  1.00  0.00    -0.160 C  
BRANCH   9  10
HETATM   10  C   UNL     1      -8.470   7.780  69.031  1.00  0.00    -0.132 C  
BRANCH  10  11
HETATM   11  C   UNL     1      -8.590   9.296  69.282  1.00  0.00    -0.139 C  
HETATM   12  C   UNL     1      -7.566   9.791  70.307  1.00  0.00    -0.184 C  
BRANCH  11  13
HETATM   13  N   UNL     1      -8.403  10.040  68.016  1.00  0.00    -0.116 NA 
HETATM   14  H   UNL     1      -7.633   9.823  67.383  1.00  0.00     0.000 HD 
BRANCH  13  15
HETATM   15  C   UNL     1      -9.339  11.070  67.720  1.00  0.00    -0.158 A  
HETATM   16  C   UNL     1      -9.037  12.426  68.021  1.00  0.00    -0.195 A  
HETATM   17  C   UNL     1      -7.848  12.847  68.664  1.00  0.00    -0.044 A  
HETATM   18  C   UNL     1      -7.618  14.197  68.942  1.00  0.00    -0.098 A  
HETATM   19  C   UNL     1      -8.579  15.137  68.594  1.00  0.00    -0.172 A  
HETATM   20  C   UNL     1      -9.755  14.741  67.964  1.00  0.00    -0.213 A  
HETATM   21 CL   UNL     1      -8.317  16.804  68.938  1.00  0.00    -0.244 Cl 
HETATM   22  C   UNL     1      -9.992  13.412  67.666  1.00  0.00    -0.229 A  
HETATM   23  N   UNL     1     -11.138  13.126  67.032  1.00  0.00    -0.273 NA 
HETATM   24  C   UNL     1     -11.366  11.844  66.696  1.00  0.00    -0.337 A  
HETATM   25  C   UNL     1     -10.499  10.811  66.990  1.00  0.00    -0.297 A  
ENDBRANCH  13  15
ENDBRANCH  11  13
ENDBRANCH  10  11
ENDBRANCH   9  10
ENDBRANCH   8   9
ENDBRANCH   3   8
ENDBRANCH   2   3
TORSDOF 9
ENDMDL
MODEL      310
REMARK 921   NORMALIZED FREE ENERGY PREDICTED BY IDOCK:   -2.80 KCAL/MOL
REMARK 922        TOTAL FREE ENERGY PREDICTED BY IDOCK:   -5.51 KCAL/MOL
REMARK 923 INTER-LIGAND FREE ENERGY PREDICTED BY IDOCK:   -4.47 KCAL/MOL
REMARK 924 INTRA-LIGAND FREE ENERGY PREDICTED BY IDOCK:   -1.04 KCAL/MOL
REMARK 927      BINDING AFFINITY PREDICTED BY RF-SCORE:    0.00 PKD
ROOT
HETATM    1  C   UNL     1     -11.197  15.064  66.623  1.00  0.00    -0.311 C  
HETATM    2  C   UNL     1     -10.924  14.310  67.920  1.00  0.00    -0.267 C  
ENDROOT
BRANCH   2   3
HETATM    3  N   UNL     1     -10.779  12.840  67.791  1.00  0.00    -0.217 NA 
BRANCH   3   4
HETATM    4  C   UNL     1     -11.749  12.140  68.670  1.00  0.00    -0.330 C  
BRANCH   4   5
HETATM    5  C   UNL     1     -11.396  10.684  69.030  1.00  0.00    -0.277 C  
HETATM    6  H   UNL     1      -9.762   9.625  69.344  1.00  0.00     0.000 HD 
HETATM    7  O   UNL     1      -9.980  10.522  69.122  1.00  0.00    -0.204 OA 
ENDBRANCH   4   5
ENDBRANCH   3   4
BRANCH   3   8
HETATM    8  C   UNL     1     -10.977  12.451  66.374  1.00  0.00    -0.276 C  
BRANCH   8   9
HETATM    9  C   UNL     1      -9.729  11.888  65.660  1.00  0.00    -0.248 C  
BRANCH   9  10
HETATM   10  C   UNL     1      -9.865  10.449  65.133  1.00  0.00    -0.378 C  
BRANCH  10  11
HETATM   11  C   UNL     1      -8.606   9.583  65.339  1.00  0.00    -0.155 C  
HETATM   12  C   UNL     1      -7.322  10.413  65.278  1.00  0.00    -0.108 C  
BRANCH  11  13
HETATM   13  N   UNL     1      -8.671   8.891  66.647  1.00  0.00    -0.125 NA 
HETATM   14  H   UNL     1      -8.238   9.290  67.480  1.00  0.00     0.000 HD 
BRANCH  13  15
HETATM   15  C   UNL     1      -9.361   7.647  66.694  1.00  0.00    -0.190 A  
HETATM   16  C   UNL     1      -8.766   6.474  66.157  1.00  0.00    -0.153 A  
HETATM   17  C   UNL     1      -7.507   6.451  65.508  1.00  0.00    -0.083 A  
HETATM   18  C   UNL     1      -6.984   5.262  64.992  1.00  0.00    -0.057 A  
HETATM   19  C   UNL     1      -7.718   4.089  65.105  1.00  0.00    -0.082 A  
HETATM   20  C   UNL     1      -8.958   4.093  65.737  1.00  0.00    -0.129 A  
HETATM   21 CL   UNL     1      -7.094   2.618  64.466  1.00  0.00    -0.048 Cl 
HETATM   22  C   UNL     1      -9.484   5.256  66.269  1.00  0.00    -0.156 A  
HETATM   23  N   UNL     1     -10.670   5.160  66.885  1.00  0.00    -0.170 NA 
HETATM   24  C   UNL     1     -11.178   6.273  67.445  1.00  0.00    -0.141 A  
HETATM   25  C   UNL     1     -10.556   7.505  67.398  1.00  0.00    -0.364 A  
ENDBRANCH  13  15
ENDBRANCH  11  13
ENDBRANCH  10  11
ENDBRANCH   9  10
ENDBRANCH   8   9
ENDBRANCH   3   8
ENDBRANCH   2   3
TORSDOF 9
ENDMDL
MODEL      311
REMARK 921   NORMALIZED FREE ENERGY PREDICTED BY IDOCK:   -2.80 KCAL/MOL
REMARK 922        TOTAL FREE ENERGY PREDICTED BY IDOCK:   -5.49 KCAL/MOL
REMARK 923 INTER-LIGAND FREE ENERGY PREDICTED BY IDOCK:   -3.90 KCAL/MOL
REMARK 924 INTRA-LIGAND FREE ENERGY PREDICTED BY IDOCK:   -1.60 KCAL/MOL
REMARK 927      BINDING AFFINITY PREDICTED BY RF-SCORE:    0.00 PKD
ROOT
HETATM    1  C   UNL     1      -6.675   4.579  69.796  1.00  0.00    -0.037 C  
HETATM    2  C   UNL     1      -7.730   5.475  70.437  1.00  0.00    -0.085 C  
ENDROOT
BRANCH   2   3
HETATM    3  N   UNL     1      -9.108   5.322  69.912  1.00  0.00    -0.127 NA 
BRANCH   3   4
HETATM    4  C   UNL     1      -9.841   6.612  69.983  1.00  0.00    -0.165 C  
BRANCH   4   5
HETATM    5  C   UNL     1     -11.090   6.622  70.884  1.00  0.00    -0.286 C  
HETATM    6  H   UNL     1     -12.528   7.887  71.354  1.00  0.00     0.000 HD 
HETATM    7  O   UNL     1     -11.758   7.881  70.798  1.00  0.00    -0.284 OA 
ENDBRANCH   4   5
ENDBRANCH   3   4
BRANCH   3   8
HETATM    8  C   UNL     1      -9.048   4.828  68.515  1.00  0.00    -0.117 C  
BRANCH   8   9
HETATM    9  C   UNL     1     -10.397   4.799  67.763  1.00  0.00    -0.012 C  
BRANCH   9  10
HETATM   10  C   UNL     1     -10.343   5.265  66.298  1.00  0.00    -0.287 C  
BRANCH  10  11
HETATM   11  C   UNL     1      -8.922   5.576  65.789  1.00  0.00    -0.154 C  
HETATM   12  C   UNL     1      -8.604   4.836  64.487  1.00  0.00    -0.144 C  
BRANCH  11  13
HETATM   13  N   UNL     1      -8.765   7.031  65.568  1.00  0.00    -0.334 NA 
HETATM   14  H   UNL     1      -9.017   7.462  64.678  1.00  0.00     0.000 HD 
BRANCH  13  15
HETATM   15  C   UNL     1      -8.249   7.803  66.646  1.00  0.00    -0.123 A  
HETATM   16  C   UNL     1      -9.059   8.781  67.283  1.00  0.00    -0.151 A  
HETATM   17  C   UNL     1     -10.381   9.097  66.882  1.00  0.00    -0.321 A  
HETATM   18  C   UNL     1     -11.120  10.080  67.545  1.00  0.00    -0.190 A  
HETATM   19  C   UNL     1     -10.543  10.767  68.605  1.00  0.00    -0.199 A  
HETATM   20  C   UNL     1      -9.244  10.473  69.011  1.00  0.00    -0.193 A  
HETATM   21 CL   UNL     1     -11.435  11.988  69.427  1.00  0.00    -0.352 Cl 
HETATM   22  C   UNL     1      -8.504   9.492  68.377  1.00  0.00    -0.119 A  
HETATM   23  N   UNL     1      -7.274   9.256  68.854  1.00  0.00    -0.072 NA 
HETATM   24  C   UNL     1      -6.555   8.276  68.278  1.00  0.00    -0.060 A  
HETATM   25  C   UNL     1      -7.005   7.523  67.212  1.00  0.00    -0.083 A  
ENDBRANCH  13  15
ENDBRANCH  11  13
ENDBRANCH  10  11
ENDBRANCH   9  10
ENDBRANCH   8   9
ENDBRANCH   3   8
ENDBRANCH   2   3
TORSDOF 9
ENDMDL
MODEL      312
REMARK 921   NORMALIZED FREE ENERGY PREDICTED BY IDOCK:   -2.78 KCAL/MOL
REMARK 922        TOTAL FREE ENERGY PREDICTED BY IDOCK:   -5.47 KCAL/MOL
REMARK 923 INTER-LIGAND FREE ENERGY PREDICTED BY IDOCK:   -4.67 KCAL/MOL
REMARK 924 INTRA-LIGAND FREE ENERGY PREDICTED BY IDOCK:   -0.80 KCAL/MOL
REMARK 927      BINDING AFFINITY PREDICTED BY RF-SCORE:    0.00 PKD
ROOT
HETATM    1  C   UNL     1     -12.149  13.020  68.263  1.00  0.00    -0.197 C  
HETATM    2  C   UNL     1     -12.162  13.317  66.766  1.00  0.00    -0.280 C  
ENDROOT
BRANCH   2   3
HETATM    3  N   UNL     1     -11.845  12.172  65.880  1.00  0.00    -0.546 NA 
BRANCH   3   4
HETATM    4  C   UNL     1     -12.630  12.250  64.623  1.00  0.00    -0.289 C  
BRANCH   4   5
HETATM    5  C   UNL     1     -11.979  13.045  63.476  1.00  0.00    -0.545 C  
HETATM    6  H   UNL     1     -12.303  14.739  62.519  1.00  0.00     0.000 HD 
HETATM    7  O   UNL     1     -12.705  14.249  63.226  1.00  0.00    -0.665 OA 
ENDBRANCH   4   5
ENDBRANCH   3   4
BRANCH   3   8
HETATM    8  C   UNL     1     -10.390  12.162  65.593  1.00  0.00    -0.257 C  
BRANCH   8   9
HETATM    9  C   UNL     1      -9.600  10.987  66.209  1.00  0.00    -0.231 C  
BRANCH   9  10
HETATM   10  C   UNL     1     -10.283   9.611  66.107  1.00  0.00    -0.276 C  
BRANCH  10  11
HETATM   11  C   UNL     1      -9.573   8.498  66.902  1.00  0.00    -0.197 C  
HETATM   12  C   UNL     1     -10.511   7.822  67.906  1.00  0.00    -0.263 C  
BRANCH  11  13
HETATM   13  N   UNL     1      -9.037   7.473  65.978  1.00  0.00    -0.323 NA 
HETATM   14  H   UNL     1      -9.582   7.137  65.185  1.00  0.00     0.000 HD 
BRANCH  13  15
HETATM   15  C   UNL     1      -7.730   6.975  66.243  1.00  0.00    -0.094 A  
HETATM   16  C   UNL     1      -7.555   5.709  66.864  1.00  0.00    -0.096 A  
HETATM   17  C   UNL     1      -8.622   4.888  67.303  1.00  0.00    -0.104 A  
HETATM   18  C   UNL     1      -8.379   3.657  67.918  1.00  0.00    -0.101 A  
HETATM   19  C   UNL     1      -7.069   3.241  68.114  1.00  0.00    -0.050 A  
HETATM   20  C   UNL     1      -6.008   4.035  67.691  1.00  0.00    -0.027 A  
HETATM   21 CL   UNL     1      -6.752   1.731  68.878  1.00  0.00    -0.029 Cl 
HETATM   22  C   UNL     1      -6.229   5.248  67.066  1.00  0.00    -0.031 A  
HETATM   23  N   UNL     1      -5.148   5.932  66.667  1.00  0.00    -0.005 NA 
HETATM   24  C   UNL     1      -5.345   7.094  66.019  1.00  0.00    -0.024 A  
HETATM   25  C   UNL     1      -6.593   7.628  65.767  1.00  0.00    -0.045 A  
ENDBRANCH  13  15
ENDBRANCH  11  13
ENDBRANCH  10  11
ENDBRANCH   9  10
ENDBRANCH   8   9
ENDBRANCH   3   8
ENDBRANCH   2   3
TORSDOF 9
ENDMDL
MODEL      313
REMARK 921   NORMALIZED FREE ENERGY PREDICTED BY IDOCK:   -2.78 KCAL/MOL
REMARK 922        TOTAL FREE ENERGY PREDICTED BY IDOCK:   -5.47 KCAL/MOL
REMARK 923 INTER-LIGAND FREE ENERGY PREDICTED BY IDOCK:   -4.95 KCAL/MOL
REMARK 924 INTRA-LIGAND FREE ENERGY PREDICTED BY IDOCK:   -0.52 KCAL/MOL
REMARK 927      BINDING AFFINITY PREDICTED BY RF-SCORE:    0.00 PKD
ROOT
HETATM    1  C   UNL     1     -10.453   8.458  72.087  1.00  0.00    -0.396 C  
HETATM    2  C   UNL     1     -10.115   8.329  70.605  1.00  0.00    -0.191 C  
ENDROOT
BRANCH   2   3
HETATM    3  N   UNL     1     -10.188   9.583  69.818  1.00  0.00    -0.212 NA 
BRANCH   3   4
HETATM    4  C   UNL     1     -10.920  10.632  70.571  1.00  0.00     0.020 C  
BRANCH   4   5
HETATM    5  C   UNL     1     -12.421  10.763  70.250  1.00  0.00    -0.317 C  
HETATM    6  H   UNL     1     -13.569  10.716  68.647  1.00  0.00     0.000 HD 
HETATM    7  O   UNL     1     -12.643  10.636  68.846  1.00  0.00    -0.200 OA 
ENDBRANCH   4   5
ENDBRANCH   3   4
BRANCH   3   8
HETATM    8  C   UNL     1      -8.815  10.035  69.486  1.00  0.00    -0.195 C  
BRANCH   8   9
HETATM    9  C   UNL     1      -8.546  10.296  67.987  1.00  0.00    -0.118 C  
BRANCH   9  10
HETATM   10  C   UNL     1      -8.084  11.722  67.641  1.00  0.00    -0.144 C  
BRANCH  10  11
HETATM   11  C   UNL     1      -8.222  12.726  68.801  1.00  0.00     0.117 C  
HETATM   12  C   UNL     1      -6.987  13.622  68.935  1.00  0.00    -0.110 C  
BRANCH  11  13
HETATM   13  N   UNL     1      -9.415  13.579  68.600  1.00  0.00    -0.386 NA 
HETATM   14  H   UNL     1     -10.105  13.708  69.339  1.00  0.00     0.000 HD 
BRANCH  13  15
HETATM   15  C   UNL     1      -9.560  14.210  67.332  1.00  0.00    -0.229 A  
HETATM   16  C   UNL     1     -10.371  13.622  66.324  1.00  0.00    -0.293 A  
HETATM   17  C   UNL     1     -11.037  12.380  66.468  1.00  0.00    -0.346 A  
HETATM   18  C   UNL     1     -11.811  11.853  65.432  1.00  0.00    -0.149 A  
HETATM   19  C   UNL     1     -11.915  12.551  64.236  1.00  0.00    -0.408 A  
HETATM   20  C   UNL     1     -11.265  13.772  64.075  1.00  0.00    -0.114 A  
HETATM   21 CL   UNL     1     -12.856  11.911  62.944  1.00  0.00    -0.081 Cl 
HETATM   22  C   UNL     1     -10.509  14.317  65.096  1.00  0.00    -0.411 A  
HETATM   23  N   UNL     1      -9.944  15.510  64.863  1.00  0.00    -0.262 NA 
HETATM   24  C   UNL     1      -9.240  16.076  65.859  1.00  0.00    -0.286 A  
HETATM   25  C   UNL     1      -9.050  15.486  67.093  1.00  0.00    -0.233 A  
ENDBRANCH  13  15
ENDBRANCH  11  13
ENDBRANCH  10  11
ENDBRANCH   9  10
ENDBRANCH   8   9
ENDBRANCH   3   8
ENDBRANCH   2   3
TORSDOF 9
ENDMDL
MODEL      314
REMARK 921   NORMALIZED FREE ENERGY PREDICTED BY IDOCK:   -2.75 KCAL/MOL
REMARK 922        TOTAL FREE ENERGY PREDICTED BY IDOCK:   -5.43 KCAL/MOL
REMARK 923 INTER-LIGAND FREE ENERGY PREDICTED BY IDOCK:   -4.65 KCAL/MOL
REMARK 924 INTRA-LIGAND FREE ENERGY PREDICTED BY IDOCK:   -0.78 KCAL/MOL
REMARK 927      BINDING AFFINITY PREDICTED BY RF-SCORE:    0.00 PKD
ROOT
HETATM    1  C   UNL     1     -12.090  13.077  68.100  1.00  0.00    -0.201 C  
HETATM    2  C   UNL     1     -11.557  13.595  66.767  1.00  0.00    -0.364 C  
ENDROOT
BRANCH   2   3
HETATM    3  N   UNL     1     -10.617  12.696  66.057  1.00  0.00    -0.266 NA 
BRANCH   3   4
HETATM    4  C   UNL     1     -10.782  12.822  64.587  1.00  0.00    -0.337 C  
BRANCH   4   5
HETATM    5  C   UNL     1     -12.136  13.381  64.111  1.00  0.00    -0.433 C  
HETATM    6  H   UNL     1     -13.687  12.736  63.079  1.00  0.00     0.000 HD 
HETATM    7  O   UNL     1     -12.852  12.392  63.372  1.00  0.00    -0.732 OA 
ENDBRANCH   4   5
ENDBRANCH   3   4
BRANCH   3   8
HETATM    8  C   UNL     1      -9.227  13.021  66.461  1.00  0.00    -0.181 C  
BRANCH   8   9
HETATM    9  C   UNL     1      -8.534  11.970  67.355  1.00  0.00    -0.170 C  
BRANCH   9  10
HETATM   10  C   UNL     1      -8.952  10.511  67.100  1.00  0.00    -0.147 C  
BRANCH  10  11
HETATM   11  C   UNL     1      -8.858   9.604  68.343  1.00  0.00    -0.123 C  
HETATM   12  C   UNL     1      -9.771  10.085  69.475  1.00  0.00    -0.253 C  
BRANCH  11  13
HETATM   13  N   UNL     1      -9.221   8.213  67.989  1.00  0.00    -0.133 NA 
HETATM   14  H   UNL     1     -10.031   8.009  67.404  1.00  0.00     0.000 HD 
BRANCH  13  15
HETATM   15  C   UNL     1      -8.394   7.173  68.499  1.00  0.00    -0.125 A  
HETATM   16  C   UNL     1      -8.742   6.504  69.704  1.00  0.00    -0.139 A  
HETATM   17  C   UNL     1      -9.867   6.835  70.497  1.00  0.00    -0.187 A  
HETATM   18  C   UNL     1     -10.145   6.143  71.679  1.00  0.00    -0.218 A  
HETATM   19  C   UNL     1      -9.295   5.124  72.088  1.00  0.00    -0.139 A  
HETATM   20  C   UNL     1      -8.182   4.787  71.322  1.00  0.00    -0.102 A  
HETATM   21 CL   UNL     1      -9.616   4.268  73.546  1.00  0.00    -0.127 Cl 
HETATM   22  C   UNL     1      -7.901   5.449  70.142  1.00  0.00    -0.081 A  
HETATM   23  N   UNL     1      -6.826   5.037  69.455  1.00  0.00    -0.051 NA 
HETATM   24  C   UNL     1      -6.561   5.641  68.283  1.00  0.00    -0.049 A  
HETATM   25  C   UNL     1      -7.319   6.673  67.766  1.00  0.00    -0.096 A  
ENDBRANCH  13  15
ENDBRANCH  11  13
ENDBRANCH  10  11
ENDBRANCH   9  10
ENDBRANCH   8   9
ENDBRANCH   3   8
ENDBRANCH   2   3
TORSDOF 9
ENDMDL
MODEL      315
REMARK 921   NORMALIZED FREE ENERGY PREDICTED BY IDOCK:   -2.75 KCAL/MOL
REMARK 922        TOTAL FREE ENERGY PREDICTED BY IDOCK:   -5.42 KCAL/MOL
REMARK 923 INTER-LIGAND FREE ENERGY PREDICTED BY IDOCK:   -5.69 KCAL/MOL
REMARK 924 INTRA-LIGAND FREE ENERGY PREDICTED BY IDOCK:    0.26 KCAL/MOL
REMARK 927      BINDING AFFINITY PREDICTED BY RF-SCORE:    0.00 PKD
ROOT
HETATM    1  C   UNL     1      -8.261  16.296  67.119  1.00  0.00    -0.219 C  
HETATM    2  C   UNL     1      -9.073  16.421  65.833  1.00  0.00    -0.182 C  
ENDROOT
BRANCH   2   3
HETATM    3  N   UNL     1     -10.507  16.060  65.942  1.00  0.00    -0.346 NA 
BRANCH   3   4
HETATM    4  C   UNL     1     -10.896  15.128  64.853  1.00  0.00    -0.418 C  
BRANCH   4   5
HETATM    5  C   UNL     1     -12.057  15.596  63.956  1.00  0.00     0.125 C  
HETATM    6  H   UNL     1     -13.435  14.763  62.818  1.00  0.00     0.000 HD 
HETATM    7  O   UNL     1     -12.719  14.474  63.371  1.00  0.00    -0.627 OA 
ENDBRANCH   4   5
ENDBRANCH   3   4
BRANCH   3   8
HETATM    8  C   UNL     1     -10.761  15.453  67.271  1.00  0.00    -0.307 C  
BRANCH   8   9
HETATM    9  C   UNL     1     -11.116  13.950  67.256  1.00  0.00    -0.312 C  
BRANCH   9  10
HETATM   10  C   UNL     1      -9.966  13.007  66.861  1.00  0.00    -0.243 C  
BRANCH  10  11
HETATM   11  C   UNL     1      -9.987  11.650  67.592  1.00  0.00    -0.188 C  
HETATM   12  C   UNL     1      -9.076  11.647  68.823  1.00  0.00    -0.029 C  
BRANCH  11  13
HETATM   13  N   UNL     1     -11.367  11.318  68.012  1.00  0.00    -0.294 NA 
HETATM   14  H   UNL     1     -12.176  11.676  67.506  1.00  0.00     0.000 HD 
BRANCH  13  15
HETATM   15  C   UNL     1     -11.517  10.477  69.151  1.00  0.00    -0.247 A  
HETATM   16  C   UNL     1     -11.113   9.116  69.099  1.00  0.00     0.036 A  
HETATM   17  C   UNL     1     -10.595   8.488  67.940  1.00  0.00    -0.219 A  
HETATM   18  C   UNL     1     -10.226   7.141  67.954  1.00  0.00    -0.231 A  
HETATM   19  C   UNL     1     -10.386   6.403  69.119  1.00  0.00    -0.208 A  
HETATM   20  C   UNL     1     -10.897   7.002  70.267  1.00  0.00    -0.283 A  
HETATM   21 CL   UNL     1      -9.947   4.738  69.151  1.00  0.00    -0.257 Cl 
HETATM   22  C   UNL     1     -11.250   8.338  70.277  1.00  0.00    -0.176 A  
HETATM   23  N   UNL     1     -11.705   8.838  71.434  1.00  0.00    -0.288 NA 
HETATM   24  C   UNL     1     -12.014  10.146  71.475  1.00  0.00    -0.317 A  
HETATM   25  C   UNL     1     -11.911  10.990  70.387  1.00  0.00    -0.459 A  
ENDBRANCH  13  15
ENDBRANCH  11  13
ENDBRANCH  10  11
ENDBRANCH   9  10
ENDBRANCH   8   9
ENDBRANCH   3   8
ENDBRANCH   2   3
TORSDOF 9
ENDMDL
MODEL      316
REMARK 921   NORMALIZED FREE ENERGY PREDICTED BY IDOCK:   -2.73 KCAL/MOL
REMARK 922        TOTAL FREE ENERGY PREDICTED BY IDOCK:   -5.40 KCAL/MOL
REMARK 923 INTER-LIGAND FREE ENERGY PREDICTED BY IDOCK:   -5.26 KCAL/MOL
REMARK 924 INTRA-LIGAND FREE ENERGY PREDICTED BY IDOCK:   -0.14 KCAL/MOL
REMARK 927      BINDING AFFINITY PREDICTED BY RF-SCORE:    0.00 PKD
ROOT
HETATM    1  C   UNL     1      -8.864   1.474  69.970  1.00  0.00    -0.112 C  
HETATM    2  C   UNL     1      -8.459   2.945  69.985  1.00  0.00    -0.050 C  
ENDROOT
BRANCH   2   3
HETATM    3  N   UNL     1      -9.310   3.838  70.807  1.00  0.00    -0.133 NA 
BRANCH   3   4
HETATM    4  C   UNL     1      -8.833   3.867  72.213  1.00  0.00    -0.105 C  
BRANCH   4   5
HETATM    5  C   UNL     1      -9.423   2.789  73.141  1.00  0.00    -0.090 C  
HETATM    6  H   UNL     1     -10.498   2.730  74.794  1.00  0.00     0.000 HD 
HETATM    7  O   UNL     1     -10.134   3.394  74.221  1.00  0.00    -0.121 OA 
ENDBRANCH   4   5
ENDBRANCH   3   4
BRANCH   3   8
HETATM    8  C   UNL     1      -9.301   5.200  70.220  1.00  0.00    -0.156 C  
BRANCH   8   9
HETATM    9  C   UNL     1     -10.344   6.179  70.802  1.00  0.00    -0.266 C  
BRANCH   9  10
HETATM   10  C   UNL     1      -9.773   7.502  71.343  1.00  0.00    -0.180 C  
BRANCH  10  11
HETATM   11  C   UNL     1      -9.793   8.658  70.324  1.00  0.00    -0.178 C  
HETATM   12  C   UNL     1      -8.404   8.934  69.741  1.00  0.00    -0.125 C  
BRANCH  11  13
HETATM   13  N   UNL     1     -10.726   8.348  69.217  1.00  0.00    -0.366 NA 
HETATM   14  H   UNL     1     -11.560   7.781  69.370  1.00  0.00     0.000 HD 
BRANCH  13  15
HETATM   15  C   UNL     1     -10.413   8.874  67.933  1.00  0.00    -0.223 A  
HETATM   16  C   UNL     1     -10.758  10.212  67.600  1.00  0.00    -0.339 A  
HETATM   17  C   UNL     1     -11.461  11.086  68.464  1.00  0.00    -0.379 A  
HETATM   18  C   UNL     1     -11.779  12.389  68.069  1.00  0.00    -0.414 A  
HETATM   19  C   UNL     1     -11.412  12.825  66.803  1.00  0.00    -0.343 A  
HETATM   20  C   UNL     1     -10.722  11.979  65.940  1.00  0.00    -0.314 A  
HETATM   21 CL   UNL     1     -11.804  14.423  66.297  1.00  0.00    -0.395 Cl 
HETATM   22  C   UNL     1     -10.385  10.694  66.319  1.00  0.00    -0.234 A  
HETATM   23  N   UNL     1      -9.695   9.960  65.434  1.00  0.00    -0.290 NA 
HETATM   24  C   UNL     1      -9.321   8.722  65.802  1.00  0.00    -0.191 A  
HETATM   25  C   UNL     1      -9.629   8.162  67.026  1.00  0.00    -0.253 A  
ENDBRANCH  13  15
ENDBRANCH  11  13
ENDBRANCH  10  11
ENDBRANCH   9  10
ENDBRANCH   8   9
ENDBRANCH   3   8
ENDBRANCH   2   3
TORSDOF 9
ENDMDL
MODEL      317
REMARK 921   NORMALIZED FREE ENERGY PREDICTED BY IDOCK:   -2.73 KCAL/MOL
REMARK 922        TOTAL FREE ENERGY PREDICTED BY IDOCK:   -5.40 KCAL/MOL
REMARK 923 INTER-LIGAND FREE ENERGY PREDICTED BY IDOCK:   -4.70 KCAL/MOL
REMARK 924 INTRA-LIGAND FREE ENERGY PREDICTED BY IDOCK:   -0.69 KCAL/MOL
REMARK 927      BINDING AFFINITY PREDICTED BY RF-SCORE:    0.00 PKD
ROOT
HETATM    1  C   UNL     1      -7.452  10.786  66.274  1.00  0.00    -0.138 C  
HETATM    2  C   UNL     1      -8.751   9.992  66.365  1.00  0.00    -0.129 C  
ENDROOT
BRANCH   2   3
HETATM    3  N   UNL     1      -9.962  10.778  66.703  1.00  0.00    -0.199 NA 
BRANCH   3   4
HETATM    4  C   UNL     1     -10.702  11.155  65.472  1.00  0.00    -0.185 C  
BRANCH   4   5
HETATM    5  C   UNL     1     -11.319  12.566  65.469  1.00  0.00    -0.331 C  
HETATM    6  H   UNL     1     -10.675  14.430  65.476  1.00  0.00     0.000 HD 
HETATM    7  O   UNL     1     -10.295  13.560  65.478  1.00  0.00    -0.285 OA 
ENDBRANCH   4   5
ENDBRANCH   3   4
BRANCH   3   8
HETATM    8  C   UNL     1     -10.824   9.984  67.612  1.00  0.00    -0.278 C  
BRANCH   8   9
HETATM    9  C   UNL     1     -10.113   8.839  68.368  1.00  0.00    -0.217 C  
BRANCH   9  10
HETATM   10  C   UNL     1      -9.621   9.191  69.783  1.00  0.00    -0.191 C  
BRANCH  10  11
HETATM   11  C   UNL     1      -9.285   7.966  70.654  1.00  0.00    -0.157 C  
HETATM   12  C   UNL     1      -8.743   8.369  72.028  1.00  0.00    -0.267 C  
BRANCH  11  13
HETATM   13  N   UNL     1     -10.489   7.125  70.839  1.00  0.00    -0.209 NA 
HETATM   14  H   UNL     1     -11.426   7.529  70.823  1.00  0.00     0.000 HD 
BRANCH  13  15
HETATM   15  C   UNL     1     -10.287   5.730  71.040  1.00  0.00    -0.230 A  
HETATM   16  C   UNL     1      -9.883   4.899  69.961  1.00  0.00    -0.304 A  
HETATM   17  C   UNL     1      -9.705   5.358  68.633  1.00  0.00    -0.187 A  
HETATM   18  C   UNL     1      -9.316   4.484  67.614  1.00  0.00    -0.176 A  
HETATM   19  C   UNL     1      -9.118   3.141  67.908  1.00  0.00    -0.177 A  
HETATM   20  C   UNL     1      -9.291   2.672  69.207  1.00  0.00    -0.188 A  
HETATM   21 CL   UNL     1      -8.649   2.048  66.663  1.00  0.00    -0.105 Cl 
HETATM   22  C   UNL     1      -9.658   3.525  70.230  1.00  0.00    -0.162 A  
HETATM   23  N   UNL     1      -9.773   2.992  71.454  1.00  0.00    -0.157 NA 
HETATM   24  C   UNL     1     -10.088   3.815  72.471  1.00  0.00    -0.167 A  
HETATM   25  C   UNL     1     -10.321   5.167  72.315  1.00  0.00    -0.267 A  
ENDBRANCH  13  15
ENDBRANCH  11  13
ENDBRANCH  10  11
ENDBRANCH   9  10
ENDBRANCH   8   9
ENDBRANCH   3   8
ENDBRANCH   2   3
TORSDOF 9
ENDMDL
MODEL      318
REMARK 921   NORMALIZED FREE ENERGY PREDICTED BY IDOCK:   -2.72 KCAL/MOL
REMARK 922        TOTAL FREE ENERGY PREDICTED BY IDOCK:   -5.38 KCAL/MOL
REMARK 923 INTER-LIGAND FREE ENERGY PREDICTED BY IDOCK:   -4.55 KCAL/MOL
REMARK 924 INTRA-LIGAND FREE ENERGY PREDICTED BY IDOCK:   -0.83 KCAL/MOL
REMARK 927      BINDING AFFINITY PREDICTED BY RF-SCORE:    0.00 PKD
ROOT
HETATM    1  C   UNL     1     -11.924  11.355  68.941  1.00  0.00    -0.371 C  
HETATM    2  C   UNL     1     -11.107  10.729  67.815  1.00  0.00    -0.318 C  
ENDROOT
BRANCH   2   3
HETATM    3  N   UNL     1     -10.868  11.594  66.636  1.00  0.00    -0.271 NA 
BRANCH   3   4
HETATM    4  C   UNL     1      -9.801  12.587  66.923  1.00  0.00    -0.227 C  
BRANCH   4   5
HETATM    5  C   UNL     1     -10.198  14.065  66.746  1.00  0.00    -0.264 C  
HETATM    6  H   UNL     1     -10.229  15.392  65.288  1.00  0.00     0.000 HD 
HETATM    7  O   UNL     1      -9.984  14.481  65.397  1.00  0.00    -0.352 OA 
ENDBRANCH   4   5
ENDBRANCH   3   4
BRANCH   3   8
HETATM    8  C   UNL     1     -10.502  10.750  65.473  1.00  0.00    -0.194 C  
BRANCH   8   9
HETATM    9  C   UNL     1      -9.174  11.120  64.776  1.00  0.00    -0.157 C  
BRANCH   9  10
HETATM   10  C   UNL     1      -8.150   9.977  64.663  1.00  0.00    -0.155 C  
BRANCH  10  11
HETATM   11  C   UNL     1      -8.630   8.642  65.264  1.00  0.00    -0.180 C  
HETATM   12  C   UNL     1      -7.907   7.441  64.647  1.00  0.00    -0.123 C  
BRANCH  11  13
HETATM   13  N   UNL     1      -8.413   8.633  66.729  1.00  0.00    -0.114 NA 
HETATM   14  H   UNL     1      -7.769   9.287  67.173  1.00  0.00     0.000 HD 
BRANCH  13  15
HETATM   15  C   UNL     1      -9.141   7.676  67.490  1.00  0.00    -0.125 A  
HETATM   16  C   UNL     1      -8.731   7.345  68.810  1.00  0.00    -0.128 A  
HETATM   17  C   UNL     1      -7.578   7.878  69.438  1.00  0.00    -0.103 A  
HETATM   18  C   UNL     1      -7.225   7.501  70.736  1.00  0.00    -0.067 A  
HETATM   19  C   UNL     1      -8.009   6.577  71.414  1.00  0.00    -0.108 A  
HETATM   20  C   UNL     1      -9.143   6.040  70.812  1.00  0.00    -0.161 A  
HETATM   21 CL   UNL     1      -7.583   6.093  73.010  1.00  0.00    -0.097 Cl 
HETATM   22  C   UNL     1      -9.518   6.414  69.535  1.00  0.00    -0.145 A  
HETATM   23  N   UNL     1     -10.640   5.869  69.047  1.00  0.00    -0.263 NA 
HETATM   24  C   UNL     1     -11.044   6.253  67.822  1.00  0.00    -0.258 A  
HETATM   25  C   UNL     1     -10.353   7.156  67.038  1.00  0.00    -0.368 A  
ENDBRANCH  13  15
ENDBRANCH  11  13
ENDBRANCH  10  11
ENDBRANCH   9  10
ENDBRANCH   8   9
ENDBRANCH   3   8
ENDBRANCH   2   3
TORSDOF 9
ENDMDL
MODEL      319
REMARK 921   NORMALIZED FREE ENERGY PREDICTED BY IDOCK:   -2.70 KCAL/MOL
REMARK 922        TOTAL FREE ENERGY PREDICTED BY IDOCK:   -5.36 KCAL/MOL
REMARK 923 INTER-LIGAND FREE ENERGY PREDICTED BY IDOCK:   -4.80 KCAL/MOL
REMARK 924 INTRA-LIGAND FREE ENERGY PREDICTED BY IDOCK:   -0.56 KCAL/MOL
REMARK 927      BINDING AFFINITY PREDICTED BY RF-SCORE:    0.00 PKD
ROOT
HETATM    1  C   UNL     1     -13.644  13.640  72.412  1.00  0.00    -0.703 C  
HETATM    2  C   UNL     1     -12.764  13.476  71.176  1.00  0.00    -0.344 C  
ENDROOT
BRANCH   2   3
HETATM    3  N   UNL     1     -12.851  12.162  70.495  1.00  0.00     0.045 NA 
BRANCH   3   4
HETATM    4  C   UNL     1     -11.664  11.942  69.630  1.00  0.00    -0.343 C  
BRANCH   4   5
HETATM    5  C   UNL     1     -11.905  12.086  68.115  1.00  0.00    -0.286 C  
HETATM    6  H   UNL     1     -10.830  12.016  66.464  1.00  0.00     0.000 HD 
HETATM    7  O   UNL     1     -10.681  11.928  67.398  1.00  0.00    -0.218 OA 
ENDBRANCH   4   5
ENDBRANCH   3   4
BRANCH   3   8
HETATM    8  C   UNL     1     -12.967  11.089  71.512  1.00  0.00    -0.448 C  
BRANCH   8   9
HETATM    9  C   UNL     1     -12.358   9.727  71.112  1.00  0.00    -0.451 C  
BRANCH   9  10
HETATM   10  C   UNL     1     -12.152   8.733  72.269  1.00  0.00    -0.423 C  
BRANCH  10  11
HETATM   11  C   UNL     1     -10.681   8.557  72.691  1.00  0.00    -0.135 C  
HETATM   12  C   UNL     1     -10.512   7.453  73.739  1.00  0.00    -0.258 C  
BRANCH  11  13
HETATM   13  N   UNL     1      -9.846   8.233  71.512  1.00  0.00    -0.175 NA 
HETATM   14  H   UNL     1     -10.133   8.497  70.570  1.00  0.00     0.000 HD 
BRANCH  13  15
HETATM   15  C   UNL     1      -8.626   7.538  71.747  1.00  0.00    -0.115 A  
HETATM   16  C   UNL     1      -8.423   6.239  71.207  1.00  0.00    -0.124 A  
HETATM   17  C   UNL     1      -9.398   5.530  70.463  1.00  0.00    -0.195 A  
HETATM   18  C   UNL     1      -9.137   4.249  69.969  1.00  0.00    -0.175 A  
HETATM   19  C   UNL     1      -7.907   3.657  70.228  1.00  0.00    -0.047 A  
HETATM   20  C   UNL     1      -6.939   4.338  70.960  1.00  0.00    -0.036 A  
HETATM   21 CL   UNL     1      -7.573   2.076  69.636  1.00  0.00    -0.043 Cl 
HETATM   22  C   UNL     1      -7.173   5.612  71.441  1.00  0.00    -0.077 A  
HETATM   23  N   UNL     1      -6.173   6.202  72.110  1.00  0.00    -0.041 NA 
HETATM   24  C   UNL     1      -6.367   7.459  72.549  1.00  0.00    -0.051 A  
HETATM   25  C   UNL     1      -7.544   8.158  72.369  1.00  0.00    -0.153 A  
ENDBRANCH  13  15
ENDBRANCH  11  13
ENDBRANCH  10  11
ENDBRANCH   9  10
ENDBRANCH   8   9
ENDBRANCH   3   8
ENDBRANCH   2   3
TORSDOF 9
ENDMDL
MODEL      320
REMARK 921   NORMALIZED FREE ENERGY PREDICTED BY IDOCK:   -2.69 KCAL/MOL
REMARK 922        TOTAL FREE ENERGY PREDICTED BY IDOCK:   -5.33 KCAL/MOL
REMARK 923 INTER-LIGAND FREE ENERGY PREDICTED BY IDOCK:   -6.47 KCAL/MOL
REMARK 924 INTRA-LIGAND FREE ENERGY PREDICTED BY IDOCK:    1.13 KCAL/MOL
REMARK 927      BINDING AFFINITY PREDICTED BY RF-SCORE:    0.00 PKD
ROOT
HETATM    1  C   UNL     1     -14.250  15.287  72.100  1.00  0.00    -0.667 C  
HETATM    2  C   UNL     1     -12.797  15.668  71.831  1.00  0.00    -0.449 C  
ENDROOT
BRANCH   2   3
HETATM    3  N   UNL     1     -12.205  15.111  70.592  1.00  0.00    -0.322 NA 
BRANCH   3   4
HETATM    4  C   UNL     1     -10.802  15.571  70.429  1.00  0.00    -0.335 C  
BRANCH   4   5
HETATM    5  C   UNL     1     -10.526  16.451  69.195  1.00  0.00    -0.303 C  
HETATM    6  H   UNL     1     -11.390  16.832  67.464  1.00  0.00     0.000 HD 
HETATM    7  O   UNL     1     -11.560  16.289  68.225  1.00  0.00    -0.301 OA 
ENDBRANCH   4   5
ENDBRANCH   3   4
BRANCH   3   8
HETATM    8  C   UNL     1     -12.271  13.630  70.639  1.00  0.00    -0.360 C  
BRANCH   8   9
HETATM    9  C   UNL     1     -12.004  12.911  69.298  1.00  0.00    -0.313 C  
BRANCH   9  10
HETATM   10  C   UNL     1     -12.022  11.374  69.361  1.00  0.00    -0.407 C  
BRANCH  10  11
HETATM   11  C   UNL     1     -12.195  10.806  70.783  1.00  0.00    -0.381 C  
HETATM   12  C   UNL     1     -13.391   9.855  70.881  1.00  0.00    -0.256 C  
BRANCH  11  13
HETATM   13  N   UNL     1     -10.970  10.083  71.197  1.00  0.00    -0.279 NA 
HETATM   14  H   UNL     1     -10.110  10.583  71.420  1.00  0.00     0.000 HD 
BRANCH  13  15
HETATM   15  C   UNL     1     -11.044   8.664  71.270  1.00  0.00    -0.272 A  
HETATM   16  C   UNL     1      -9.868   7.876  71.147  1.00  0.00    -0.190 A  
HETATM   17  C   UNL     1      -8.580   8.409  70.897  1.00  0.00    -0.167 A  
HETATM   18  C   UNL     1      -7.465   7.576  70.775  1.00  0.00    -0.076 A  
HETATM   19  C   UNL     1      -7.628   6.201  70.885  1.00  0.00    -0.097 A  
HETATM   20  C   UNL     1      -8.886   5.658  71.128  1.00  0.00    -0.141 A  
HETATM   21 CL   UNL     1      -6.267   5.158  70.727  1.00  0.00    -0.022 Cl 
HETATM   22  C   UNL     1      -9.997   6.468  71.268  1.00  0.00    -0.181 A  
HETATM   23  N   UNL     1     -11.163   5.861  71.529  1.00  0.00    -0.257 NA 
HETATM   24  C   UNL     1     -12.247   6.636  71.712  1.00  0.00    -0.353 A  
HETATM   25  C   UNL     1     -12.227   8.014  71.620  1.00  0.00    -0.340 A  
ENDBRANCH  13  15
ENDBRANCH  11  13
ENDBRANCH  10  11
ENDBRANCH   9  10
ENDBRANCH   8   9
ENDBRANCH   3   8
ENDBRANCH   2   3
TORSDOF 9
ENDMDL
MODEL      321
REMARK 921   NORMALIZED FREE ENERGY PREDICTED BY IDOCK:   -2.69 KCAL/MOL
REMARK 922        TOTAL FREE ENERGY PREDICTED BY IDOCK:   -5.33 KCAL/MOL
REMARK 923 INTER-LIGAND FREE ENERGY PREDICTED BY IDOCK:   -4.97 KCAL/MOL
REMARK 924 INTRA-LIGAND FREE ENERGY PREDICTED BY IDOCK:   -0.35 KCAL/MOL
REMARK 927      BINDING AFFINITY PREDICTED BY RF-SCORE:    0.00 PKD
ROOT
HETATM    1  C   UNL     1      -5.495  12.442  67.466  1.00  0.00    -0.124 C  
HETATM    2  C   UNL     1      -5.720  10.993  67.888  1.00  0.00    -0.042 C  
ENDROOT
BRANCH   2   3
HETATM    3  N   UNL     1      -6.410  10.134  66.896  1.00  0.00    -0.067 NA 
BRANCH   3   4
HETATM    4  C   UNL     1      -5.912  10.414  65.526  1.00  0.00    -0.123 C  
BRANCH   4   5
HETATM    5  C   UNL     1      -6.340   9.408  64.440  1.00  0.00    -0.084 C  
HETATM    6  H   UNL     1      -7.117   9.473  62.629  1.00  0.00     0.000 HD 
HETATM    7  O   UNL     1      -6.853  10.094  63.299  1.00  0.00    -0.130 OA 
ENDBRANCH   4   5
ENDBRANCH   3   4
BRANCH   3   8
HETATM    8  C   UNL     1      -6.200   8.710  67.252  1.00  0.00    -0.056 C  
BRANCH   8   9
HETATM    9  C   UNL     1      -7.288   8.084  68.152  1.00  0.00    -0.096 C  
BRANCH   9  10
HETATM   10  C   UNL     1      -8.603   7.721  67.438  1.00  0.00    -0.125 C  
BRANCH  10  11
HETATM   11  C   UNL     1      -9.791   7.485  68.392  1.00  0.00    -0.164 C  
HETATM   12  C   UNL     1      -9.464   7.899  69.829  1.00  0.00    -0.163 C  
BRANCH  11  13
HETATM   13  N   UNL     1     -10.975   8.243  67.929  1.00  0.00    -0.476 NA 
HETATM   14  H   UNL     1     -11.921   7.887  68.069  1.00  0.00     0.000 HD 
BRANCH  13  15
HETATM   15  C   UNL     1     -10.741   9.489  67.282  1.00  0.00    -0.199 A  
HETATM   16  C   UNL     1     -11.081  10.709  67.927  1.00  0.00    -0.371 A  
HETATM   17  C   UNL     1     -11.705  10.787  69.196  1.00  0.00    -0.368 A  
HETATM   18  C   UNL     1     -12.022  12.021  69.769  1.00  0.00    -0.370 A  
HETATM   19  C   UNL     1     -11.734  13.188  69.075  1.00  0.00    -0.321 A  
HETATM   20  C   UNL     1     -11.124  13.132  67.825  1.00  0.00    -0.287 A  
HETATM   21 CL   UNL     1     -12.128  14.717  69.761  1.00  0.00    -0.357 Cl 
HETATM   22  C   UNL     1     -10.787  11.921  67.250  1.00  0.00    -0.247 A  
HETATM   23  N   UNL     1     -10.176  11.963  66.059  1.00  0.00    -0.222 NA 
HETATM   24  C   UNL     1      -9.802  10.796  65.503  1.00  0.00    -0.255 A  
HETATM   25  C   UNL     1     -10.036   9.564  66.082  1.00  0.00    -0.326 A  
ENDBRANCH  13  15
ENDBRANCH  11  13
ENDBRANCH  10  11
ENDBRANCH   9  10
ENDBRANCH   8   9
ENDBRANCH   3   8
ENDBRANCH   2   3
TORSDOF 9
ENDMDL
MODEL      322
REMARK 921   NORMALIZED FREE ENERGY PREDICTED BY IDOCK:   -2.67 KCAL/MOL
REMARK 922        TOTAL FREE ENERGY PREDICTED BY IDOCK:   -5.31 KCAL/MOL
REMARK 923 INTER-LIGAND FREE ENERGY PREDICTED BY IDOCK:   -4.76 KCAL/MOL
REMARK 924 INTRA-LIGAND FREE ENERGY PREDICTED BY IDOCK:   -0.55 KCAL/MOL
REMARK 927      BINDING AFFINITY PREDICTED BY RF-SCORE:    0.00 PKD
ROOT
HETATM    1  C   UNL     1     -12.884  12.411  64.211  1.00  0.00    -0.356 C  
HETATM    2  C   UNL     1     -11.958  13.528  63.738  1.00  0.00    -0.422 C  
ENDROOT
BRANCH   2   3
HETATM    3  N   UNL     1     -10.682  13.662  64.480  1.00  0.00    -0.415 NA 
BRANCH   3   4
HETATM    4  C   UNL     1     -10.626  14.963  65.193  1.00  0.00    -0.428 C  
BRANCH   4   5
HETATM    5  C   UNL     1      -9.399  15.177  66.100  1.00  0.00    -0.311 C  
HETATM    6  H   UNL     1      -7.931  16.482  66.268  1.00  0.00     0.000 HD 
HETATM    7  O   UNL     1      -8.687  16.351  65.709  1.00  0.00    -0.432 OA 
ENDBRANCH   4   5
ENDBRANCH   3   4
BRANCH   3   8
HETATM    8  C   UNL     1     -10.548  12.534  65.434  1.00  0.00    -0.281 C  
BRANCH   8   9
HETATM    9  C   UNL     1      -9.665  11.361  64.954  1.00  0.00    -0.283 C  
BRANCH   9  10
HETATM   10  C   UNL     1      -9.017  10.526  66.072  1.00  0.00    -0.185 C  
BRANCH  10  11
HETATM   11  C   UNL     1      -7.558  10.914  66.381  1.00  0.00    -0.146 C  
HETATM   12  C   UNL     1      -7.428  11.642  67.722  1.00  0.00    -0.111 C  
BRANCH  11  13
HETATM   13  N   UNL     1      -6.702   9.706  66.404  1.00  0.00    -0.074 NA 
HETATM   14  H   UNL     1      -5.886   9.646  67.014  1.00  0.00     0.000 HD 
BRANCH  13  15
HETATM   15  C   UNL     1      -7.063   8.634  65.541  1.00  0.00    -0.083 A  
HETATM   16  C   UNL     1      -7.665   7.459  66.067  1.00  0.00    -0.095 A  
HETATM   17  C   UNL     1      -7.900   7.240  67.447  1.00  0.00    -0.112 A  
HETATM   18  C   UNL     1      -8.487   6.055  67.899  1.00  0.00    -0.115 A  
HETATM   19  C   UNL     1      -8.830   5.072  66.981  1.00  0.00    -0.106 A  
HETATM   20  C   UNL     1      -8.604   5.268  65.622  1.00  0.00    -0.143 A  
HETATM   21 CL   UNL     1      -9.544   3.601  67.521  1.00  0.00    -0.234 Cl 
HETATM   22  C   UNL     1      -8.040   6.440  65.154  1.00  0.00    -0.136 A  
HETATM   23  N   UNL     1      -7.887   6.554  63.828  1.00  0.00    -0.114 NA 
HETATM   24  C   UNL     1      -7.380   7.706  63.352  1.00  0.00    -0.090 A  
HETATM   25  C   UNL     1      -6.988   8.759  64.154  1.00  0.00    -0.089 A  
ENDBRANCH  13  15
ENDBRANCH  11  13
ENDBRANCH  10  11
ENDBRANCH   9  10
ENDBRANCH   8   9
ENDBRANCH   3   8
ENDBRANCH   2   3
TORSDOF 9
ENDMDL
MODEL      323
REMARK 921   NORMALIZED FREE ENERGY PREDICTED BY IDOCK:   -2.66 KCAL/MOL
REMARK 922        TOTAL FREE ENERGY PREDICTED BY IDOCK:   -5.28 KCAL/MOL
REMARK 923 INTER-LIGAND FREE ENERGY PREDICTED BY IDOCK:   -4.79 KCAL/MOL
REMARK 924 INTRA-LIGAND FREE ENERGY PREDICTED BY IDOCK:   -0.49 KCAL/MOL
REMARK 927      BINDING AFFINITY PREDICTED BY RF-SCORE:    0.00 PKD
ROOT
HETATM    1  C   UNL     1     -10.686  13.312  65.687  1.00  0.00    -0.292 C  
HETATM    2  C   UNL     1     -10.685  13.495  67.202  1.00  0.00    -0.279 C  
ENDROOT
BRANCH   2   3
HETATM    3  N   UNL     1      -9.918  14.658  67.708  1.00  0.00    -0.223 NA 
BRANCH   3   4
HETATM    4  C   UNL     1     -10.484  15.138  68.994  1.00  0.00    -0.248 C  
BRANCH   4   5
HETATM    5  C   UNL     1     -11.911  14.655  69.319  1.00  0.00    -0.321 C  
HETATM    6  H   UNL     1     -13.479  15.329  70.305  1.00  0.00     0.000 HD 
HETATM    7  O   UNL     1     -12.600  15.627  70.105  1.00  0.00    -0.367 OA 
ENDBRANCH   4   5
ENDBRANCH   3   4
BRANCH   3   8
HETATM    8  C   UNL     1      -8.495  14.273  67.871  1.00  0.00    -0.168 C  
BRANCH   8   9
HETATM    9  C   UNL     1      -8.244  12.785  68.201  1.00  0.00    -0.167 C  
BRANCH   9  10
HETATM   10  C   UNL     1      -7.399  12.016  67.170  1.00  0.00    -0.134 C  
BRANCH  10  11
HETATM   11  C   UNL     1      -6.232  11.219  67.783  1.00  0.00    -0.052 C  
HETATM   12  C   UNL     1      -5.941  11.643  69.225  1.00  0.00    -0.071 C  
BRANCH  11  13
HETATM   13  N   UNL     1      -6.534   9.770  67.759  1.00  0.00    -0.057 NA 
HETATM   14  H   UNL     1      -5.795   9.072  67.847  1.00  0.00     0.000 HD 
BRANCH  13  15
HETATM   15  C   UNL     1      -7.897   9.390  67.608  1.00  0.00    -0.095 A  
HETATM   16  C   UNL     1      -8.715   9.175  68.750  1.00  0.00    -0.132 A  
HETATM   17  C   UNL     1      -8.249   9.265  70.085  1.00  0.00    -0.176 A  
HETATM   18  C   UNL     1      -9.105   9.029  71.164  1.00  0.00    -0.316 A  
HETATM   19  C   UNL     1     -10.429   8.687  70.922  1.00  0.00    -0.214 A  
HETATM   20  C   UNL     1     -10.903   8.591  69.617  1.00  0.00    -0.157 A  
HETATM   21 CL   UNL     1     -11.494   8.384  72.240  1.00  0.00    -0.436 Cl 
HETATM   22  C   UNL     1     -10.076   8.837  68.537  1.00  0.00    -0.189 A  
HETATM   23  N   UNL     1     -10.626   8.751  67.318  1.00  0.00    -0.276 NA 
HETATM   24  C   UNL     1      -9.847   9.028  66.257  1.00  0.00    -0.291 A  
HETATM   25  C   UNL     1      -8.513   9.371  66.357  1.00  0.00    -0.131 A  
ENDBRANCH  13  15
ENDBRANCH  11  13
ENDBRANCH  10  11
ENDBRANCH   9  10
ENDBRANCH   8   9
ENDBRANCH   3   8
ENDBRANCH   2   3
TORSDOF 9
ENDMDL
MODEL      324
REMARK 921   NORMALIZED FREE ENERGY PREDICTED BY IDOCK:   -2.65 KCAL/MOL
REMARK 922        TOTAL FREE ENERGY PREDICTED BY IDOCK:   -5.27 KCAL/MOL
REMARK 923 INTER-LIGAND FREE ENERGY PREDICTED BY IDOCK:   -5.87 KCAL/MOL
REMARK 924 INTRA-LIGAND FREE ENERGY PREDICTED BY IDOCK:    0.60 KCAL/MOL
REMARK 927      BINDING AFFINITY PREDICTED BY RF-SCORE:    0.00 PKD
ROOT
HETATM    1  C   UNL     1     -13.080  10.817  71.636  1.00  0.00    -0.551 C  
HETATM    2  C   UNL     1     -12.242  11.921  70.999  1.00  0.00    -0.169 C  
ENDROOT
BRANCH   2   3
HETATM    3  N   UNL     1     -12.871  13.263  70.956  1.00  0.00    -0.275 NA 
BRANCH   3   4
HETATM    4  C   UNL     1     -12.961  13.842  72.320  1.00  0.00    -0.358 C  
BRANCH   4   5
HETATM    5  C   UNL     1     -13.718  15.179  72.430  1.00  0.00    -0.496 C  
HETATM    6  H   UNL     1     -14.493  16.511  71.199  1.00  0.00     0.000 HD 
HETATM    7  O   UNL     1     -14.026  15.687  71.132  1.00  0.00    -0.564 OA 
ENDBRANCH   4   5
ENDBRANCH   3   4
BRANCH   3   8
HETATM    8  C   UNL     1     -12.084  14.145  70.060  1.00  0.00    -0.346 C  
BRANCH   8   9
HETATM    9  C   UNL     1     -12.344  13.957  68.549  1.00  0.00    -0.018 C  
BRANCH   9  10
HETATM   10  C   UNL     1     -11.122  13.522  67.721  1.00  0.00    -0.291 C  
BRANCH  10  11
HETATM   11  C   UNL     1     -10.521  12.170  68.151  1.00  0.00    -0.211 C  
HETATM   12  C   UNL     1     -10.076  11.331  66.950  1.00  0.00    -0.246 C  
BRANCH  11  13
HETATM   13  N   UNL     1      -9.360  12.388  69.043  1.00  0.00    -0.299 NA 
HETATM   14  H   UNL     1      -9.416  12.196  70.043  1.00  0.00     0.000 HD 
BRANCH  13  15
HETATM   15  C   UNL     1      -8.162  12.875  68.448  1.00  0.00    -0.121 A  
HETATM   16  C   UNL     1      -7.898  14.271  68.404  1.00  0.00    -0.140 A  
HETATM   17  C   UNL     1      -8.791  15.261  68.881  1.00  0.00    -0.209 A  
HETATM   18  C   UNL     1      -8.474  16.619  68.797  1.00  0.00    -0.255 A  
HETATM   19  C   UNL     1      -7.270  17.003  68.222  1.00  0.00    -0.196 A  
HETATM   20  C   UNL     1      -6.381  16.044  67.744  1.00  0.00    -0.166 A  
HETATM   21 CL   UNL     1      -6.867  18.672  68.100  1.00  0.00    -0.235 Cl 
HETATM   22  C   UNL     1      -6.670  14.695  67.834  1.00  0.00    -0.162 A  
HETATM   23  N   UNL     1      -5.744  13.843  67.376  1.00  0.00    -0.326 NA 
HETATM   24  C   UNL     1      -5.989  12.526  67.494  1.00  0.00    -0.152 A  
HETATM   25  C   UNL     1      -7.149  12.010  68.037  1.00  0.00    -0.086 A  
ENDBRANCH  13  15
ENDBRANCH  11  13
ENDBRANCH  10  11
ENDBRANCH   9  10
ENDBRANCH   8   9
ENDBRANCH   3   8
ENDBRANCH   2   3
TORSDOF 9
ENDMDL
MODEL      325
REMARK 921   NORMALIZED FREE ENERGY PREDICTED BY IDOCK:   -2.63 KCAL/MOL
REMARK 922        TOTAL FREE ENERGY PREDICTED BY IDOCK:   -5.24 KCAL/MOL
REMARK 923 INTER-LIGAND FREE ENERGY PREDICTED BY IDOCK:   -5.12 KCAL/MOL
REMARK 924 INTRA-LIGAND FREE ENERGY PREDICTED BY IDOCK:   -0.12 KCAL/MOL
REMARK 927      BINDING AFFINITY PREDICTED BY RF-SCORE:    0.00 PKD
ROOT
HETATM    1  C   UNL     1     -12.337  12.907  63.867  1.00  0.00    -0.476 C  
HETATM    2  C   UNL     1     -10.834  13.069  64.079  1.00  0.00    -0.377 C  
ENDROOT
BRANCH   2   3
HETATM    3  N   UNL     1     -10.434  13.878  65.255  1.00  0.00    -0.349 NA 
BRANCH   3   4
HETATM    4  C   UNL     1     -10.622  15.325  64.982  1.00  0.00    -0.418 C  
BRANCH   4   5
HETATM    5  C   UNL     1     -10.342  16.271  66.165  1.00  0.00    -0.341 C  
HETATM    6  H   UNL     1     -10.161  18.212  66.458  1.00  0.00     0.000 HD 
HETATM    7  O   UNL     1     -10.333  17.630  65.728  1.00  0.00    -0.558 OA 
ENDBRANCH   4   5
ENDBRANCH   3   4
BRANCH   3   8
HETATM    8  C   UNL     1     -11.230  13.457  66.433  1.00  0.00    -0.304 C  
BRANCH   8   9
HETATM    9  C   UNL     1     -10.523  12.477  67.395  1.00  0.00    -0.231 C  
BRANCH   9  10
HETATM   10  C   UNL     1     -11.123  11.061  67.449  1.00  0.00    -0.370 C  
BRANCH  10  11
HETATM   11  C   UNL     1     -10.651  10.224  68.654  1.00  0.00    -0.208 C  
HETATM   12  C   UNL     1     -10.986   8.740  68.489  1.00  0.00     0.096 C  
BRANCH  11  13
HETATM   13  N   UNL     1      -9.190  10.371  68.838  1.00  0.00    -0.168 NA 
HETATM   14  H   UNL     1      -8.755  11.290  68.920  1.00  0.00     0.000 HD 
BRANCH  13  15
HETATM   15  C   UNL     1      -8.416   9.178  68.896  1.00  0.00    -0.129 A  
HETATM   16  C   UNL     1      -8.273   8.473  70.121  1.00  0.00    -0.121 A  
HETATM   17  C   UNL     1      -8.821   8.906  71.353  1.00  0.00    -0.283 A  
HETATM   18  C   UNL     1      -8.633   8.170  72.525  1.00  0.00    -0.255 A  
HETATM   19  C   UNL     1      -7.882   7.002  72.482  1.00  0.00    -0.093 A  
HETATM   20  C   UNL     1      -7.333   6.562  71.282  1.00  0.00    -0.080 A  
HETATM   21 CL   UNL     1      -7.631   6.088  73.919  1.00  0.00    -0.092 Cl 
HETATM   22  C   UNL     1      -7.523   7.268  70.109  1.00  0.00    -0.088 A  
HETATM   23  N   UNL     1      -6.983   6.755  68.995  1.00  0.00    -0.079 NA 
HETATM   24  C   UNL     1      -7.194   7.406  67.837  1.00  0.00    -0.091 A  
HETATM   25  C   UNL     1      -7.912   8.581  67.741  1.00  0.00    -0.107 A  
ENDBRANCH  13  15
ENDBRANCH  11  13
ENDBRANCH  10  11
ENDBRANCH   9  10
ENDBRANCH   8   9
ENDBRANCH   3   8
ENDBRANCH   2   3
TORSDOF 9
ENDMDL
MODEL      326
REMARK 921   NORMALIZED FREE ENERGY PREDICTED BY IDOCK:   -2.63 KCAL/MOL
REMARK 922        TOTAL FREE ENERGY PREDICTED BY IDOCK:   -5.24 KCAL/MOL
REMARK 923 INTER-LIGAND FREE ENERGY PREDICTED BY IDOCK:   -5.19 KCAL/MOL
REMARK 924 INTRA-LIGAND FREE ENERGY PREDICTED BY IDOCK:   -0.05 KCAL/MOL
REMARK 927      BINDING AFFINITY PREDICTED BY RF-SCORE:    0.00 PKD
ROOT
HETATM    1  C   UNL     1     -12.269  12.406  64.685  1.00  0.00    -0.499 C  
HETATM    2  C   UNL     1     -10.900  11.747  64.546  1.00  0.00    -0.321 C  
ENDROOT
BRANCH   2   3
HETATM    3  N   UNL     1     -10.228  11.388  65.818  1.00  0.00    -0.239 NA 
BRANCH   3   4
HETATM    4  C   UNL     1      -9.074  12.287  66.072  1.00  0.00    -0.012 C  
BRANCH   4   5
HETATM    5  C   UNL     1      -9.357  13.496  66.984  1.00  0.00    -0.247 C  
HETATM    6  H   UNL     1      -9.833  15.396  66.764  1.00  0.00     0.000 HD 
HETATM    7  O   UNL     1      -9.658  14.651  66.202  1.00  0.00    -0.296 OA 
ENDBRANCH   4   5
ENDBRANCH   3   4
BRANCH   3   8
HETATM    8  C   UNL     1     -11.208  11.461  66.928  1.00  0.00    -0.264 C  
BRANCH   8   9
HETATM    9  C   UNL     1     -11.149  10.299  67.943  1.00  0.00    -0.341 C  
BRANCH   9  10
HETATM   10  C   UNL     1     -10.416   9.037  67.455  1.00  0.00    -0.338 C  
BRANCH  10  11
HETATM   11  C   UNL     1     -10.759   7.763  68.252  1.00  0.00    -0.036 C  
HETATM   12  C   UNL     1     -11.023   6.566  67.336  1.00  0.00    -0.458 C  
BRANCH  11  13
HETATM   13  N   UNL     1      -9.655   7.427  69.179  1.00  0.00    -0.156 NA 
HETATM   14  H   UNL     1      -9.143   8.153  69.680  1.00  0.00     0.000 HD 
BRANCH  13  15
HETATM   15  C   UNL     1      -9.336   6.049  69.341  1.00  0.00    -0.131 A  
HETATM   16  C   UNL     1      -9.806   5.331  70.473  1.00  0.00    -0.274 A  
HETATM   17  C   UNL     1     -10.559   5.912  71.523  1.00  0.00    -0.300 A  
HETATM   18  C   UNL     1     -10.981   5.150  72.615  1.00  0.00    -0.303 A  
HETATM   19  C   UNL     1     -10.644   3.804  72.677  1.00  0.00    -0.072 A  
HETATM   20  C   UNL     1      -9.902   3.216  71.657  1.00  0.00    -0.216 A  
HETATM   21 CL   UNL     1     -11.147   2.852  74.021  1.00  0.00    -0.235 Cl 
HETATM   22  C   UNL     1      -9.490   3.951  70.560  1.00  0.00    -0.181 A  
HETATM   23  N   UNL     1      -8.806   3.296  69.612  1.00  0.00    -0.078 NA 
HETATM   24  C   UNL     1      -8.434   3.984  68.518  1.00  0.00    -0.091 A  
HETATM   25  C   UNL     1      -8.697   5.327  68.334  1.00  0.00    -0.099 A  
ENDBRANCH  13  15
ENDBRANCH  11  13
ENDBRANCH  10  11
ENDBRANCH   9  10
ENDBRANCH   8   9
ENDBRANCH   3   8
ENDBRANCH   2   3
TORSDOF 9
ENDMDL
MODEL      327
REMARK 921   NORMALIZED FREE ENERGY PREDICTED BY IDOCK:   -2.63 KCAL/MOL
REMARK 922        TOTAL FREE ENERGY PREDICTED BY IDOCK:   -5.23 KCAL/MOL
REMARK 923 INTER-LIGAND FREE ENERGY PREDICTED BY IDOCK:   -5.07 KCAL/MOL
REMARK 924 INTRA-LIGAND FREE ENERGY PREDICTED BY IDOCK:   -0.16 KCAL/MOL
REMARK 927      BINDING AFFINITY PREDICTED BY RF-SCORE:    0.00 PKD
ROOT
HETATM    1  C   UNL     1     -10.261   6.749  73.634  1.00  0.00    -0.354 C  
HETATM    2  C   UNL     1     -10.618   5.283  73.410  1.00  0.00    -0.257 C  
ENDROOT
BRANCH   2   3
HETATM    3  N   UNL     1      -9.520   4.424  72.906  1.00  0.00    -0.129 NA 
BRANCH   3   4
HETATM    4  C   UNL     1      -9.591   3.073  73.517  1.00  0.00    -0.095 C  
BRANCH   4   5
HETATM    5  C   UNL     1     -10.660   2.129  72.934  1.00  0.00    -0.152 C  
HETATM    6  H   UNL     1     -12.146   1.027  73.615  1.00  0.00     0.000 HD 
HETATM    7  O   UNL     1     -11.487   1.609  73.974  1.00  0.00    -0.157 OA 
ENDBRANCH   4   5
ENDBRANCH   3   4
BRANCH   3   8
HETATM    8  C   UNL     1      -9.605   4.337  71.427  1.00  0.00    -0.169 C  
BRANCH   8   9
HETATM    9  C   UNL     1      -8.669   5.291  70.653  1.00  0.00    -0.136 C  
BRANCH   9  10
HETATM   10  C   UNL     1      -8.974   5.436  69.151  1.00  0.00    -0.120 C  
BRANCH  10  11
HETATM   11  C   UNL     1      -9.596   6.792  68.765  1.00  0.00    -0.132 C  
HETATM   12  C   UNL     1     -11.084   6.667  68.428  1.00  0.00    -0.281 C  
BRANCH  11  13
HETATM   13  N   UNL     1      -9.432   7.763  69.870  1.00  0.00    -0.161 NA 
HETATM   14  H   UNL     1      -8.566   7.814  70.406  1.00  0.00     0.000 HD 
BRANCH  13  15
HETATM   15  C   UNL     1     -10.531   8.621  70.154  1.00  0.00    -0.217 A  
HETATM   16  C   UNL     1     -10.757   9.784  69.369  1.00  0.00    -0.250 A  
HETATM   17  C   UNL     1      -9.911  10.202  68.312  1.00  0.00    -0.168 A  
HETATM   18  C   UNL     1     -10.185  11.364  67.587  1.00  0.00    -0.204 A  
HETATM   19  C   UNL     1     -11.296  12.128  67.919  1.00  0.00    -0.300 A  
HETATM   20  C   UNL     1     -12.137  11.734  68.956  1.00  0.00    -0.276 A  
HETATM   21 CL   UNL     1     -11.643  13.569  67.042  1.00  0.00    -0.367 Cl 
HETATM   22  C   UNL     1     -11.891  10.579  69.673  1.00  0.00    -0.234 A  
HETATM   23  N   UNL     1     -12.770  10.262  70.634  1.00  0.00    -0.322 NA 
HETATM   24  C   UNL     1     -12.571   9.119  71.314  1.00  0.00    -0.288 A  
HETATM   25  C   UNL     1     -11.502   8.273  71.092  1.00  0.00    -0.307 A  
ENDBRANCH  13  15
ENDBRANCH  11  13
ENDBRANCH  10  11
ENDBRANCH   9  10
ENDBRANCH   8   9
ENDBRANCH   3   8
ENDBRANCH   2   3
TORSDOF 9
ENDMDL
MODEL      328
REMARK 921   NORMALIZED FREE ENERGY PREDICTED BY IDOCK:   -2.62 KCAL/MOL
REMARK 922        TOTAL FREE ENERGY PREDICTED BY IDOCK:   -5.22 KCAL/MOL
REMARK 923 INTER-LIGAND FREE ENERGY PREDICTED BY IDOCK:   -4.24 KCAL/MOL
REMARK 924 INTRA-LIGAND FREE ENERGY PREDICTED BY IDOCK:   -0.98 KCAL/MOL
REMARK 927      BINDING AFFINITY PREDICTED BY RF-SCORE:    0.00 PKD
ROOT
HETATM    1  C   UNL     1     -11.180  12.040  65.006  1.00  0.00    -0.374 C  
HETATM    2  C   UNL     1     -10.906  12.770  66.318  1.00  0.00    -0.275 C  
ENDROOT
BRANCH   2   3
HETATM    3  N   UNL     1     -10.280  14.108  66.190  1.00  0.00    -0.295 NA 
BRANCH   3   4
HETATM    4  C   UNL     1     -10.763  15.016  67.261  1.00  0.00    -0.298 C  
BRANCH   4   5
HETATM    5  C   UNL     1     -10.610  16.522  66.980  1.00  0.00    -0.255 C  
HETATM    6  H   UNL     1     -10.801  18.210  67.981  1.00  0.00     0.000 HD 
HETATM    7  O   UNL     1     -10.896  17.281  68.154  1.00  0.00    -0.375 OA 
ENDBRANCH   4   5
ENDBRANCH   3   4
BRANCH   3   8
HETATM    8  C   UNL     1      -8.805  13.966  66.246  1.00  0.00     0.240 C  
BRANCH   8   9
HETATM    9  C   UNL     1      -8.281  12.836  67.160  1.00  0.00    -0.146 C  
BRANCH   9  10
HETATM   10  C   UNL     1      -6.772  12.878  67.460  1.00  0.00    -0.156 C  
BRANCH  10  11
HETATM   11  C   UNL     1      -6.413  12.555  68.923  1.00  0.00    -0.091 C  
HETATM   12  C   UNL     1      -6.150  13.821  69.743  1.00  0.00    -0.127 C  
BRANCH  11  13
HETATM   13  N   UNL     1      -7.506  11.787  69.560  1.00  0.00    -0.333 NA 
HETATM   14  H   UNL     1      -8.406  12.219  69.768  1.00  0.00     0.000 HD 
BRANCH  13  15
HETATM   15  C   UNL     1      -7.250  10.422  69.870  1.00  0.00    -0.153 A  
HETATM   16  C   UNL     1      -8.280   9.451  69.744  1.00  0.00    -0.146 A  
HETATM   17  C   UNL     1      -9.611   9.753  69.366  1.00  0.00    -0.218 A  
HETATM   18  C   UNL     1     -10.580   8.750  69.272  1.00  0.00    -0.210 A  
HETATM   19  C   UNL     1     -10.233   7.439  69.570  1.00  0.00    -0.204 A  
HETATM   20  C   UNL     1      -8.931   7.123  69.947  1.00  0.00    -0.142 A  
HETATM   21 CL   UNL     1     -11.416   6.192  69.471  1.00  0.00    -0.451 Cl 
HETATM   22  C   UNL     1      -7.955   8.099  70.028  1.00  0.00    -0.105 A  
HETATM   23  N   UNL     1      -6.723   7.700  70.369  1.00  0.00    -0.042 NA 
HETATM   24  C   UNL     1      -5.751   8.629  70.412  1.00  0.00    -0.027 A  
HETATM   25  C   UNL     1      -5.962   9.968  70.148  1.00  0.00    -0.063 A  
ENDBRANCH  13  15
ENDBRANCH  11  13
ENDBRANCH  10  11
ENDBRANCH   9  10
ENDBRANCH   8   9
ENDBRANCH   3   8
ENDBRANCH   2   3
TORSDOF 9
ENDMDL
MODEL      329
REMARK 921   NORMALIZED FREE ENERGY PREDICTED BY IDOCK:   -2.61 KCAL/MOL
REMARK 922        TOTAL FREE ENERGY PREDICTED BY IDOCK:   -5.22 KCAL/MOL
REMARK 923 INTER-LIGAND FREE ENERGY PREDICTED BY IDOCK:   -4.33 KCAL/MOL
REMARK 924 INTRA-LIGAND FREE ENERGY PREDICTED BY IDOCK:   -0.89 KCAL/MOL
REMARK 927      BINDING AFFINITY PREDICTED BY RF-SCORE:    0.00 PKD
ROOT
HETATM    1  C   UNL     1      -7.205  10.488  67.027  1.00  0.00    -0.098 C  
HETATM    2  C   UNL     1      -8.280  10.143  66.000  1.00  0.00    -0.131 C  
ENDROOT
BRANCH   2   3
HETATM    3  N   UNL     1      -8.440  11.108  64.887  1.00  0.00     0.116 NA 
BRANCH   3   4
HETATM    4  C   UNL     1      -7.868  10.558  63.632  1.00  0.00     0.003 C  
BRANCH   4   5
HETATM    5  C   UNL     1      -7.660   9.032  63.604  1.00  0.00    -0.115 C  
HETATM    6  H   UNL     1      -8.035   7.541  62.370  1.00  0.00     0.000 HD 
HETATM    7  O   UNL     1      -8.163   8.482  62.387  1.00  0.00    -0.164 OA 
ENDBRANCH   4   5
ENDBRANCH   3   4
BRANCH   3   8
HETATM    8  C   UNL     1      -9.878  11.425  64.715  1.00  0.00    -0.259 C  
BRANCH   8   9
HETATM    9  C   UNL     1     -10.437  12.508  65.663  1.00  0.00    -0.299 C  
BRANCH   9  10
HETATM   10  C   UNL     1      -9.985  13.947  65.358  1.00  0.00    -0.274 C  
BRANCH  10  11
HETATM   11  C   UNL     1      -9.641  14.777  66.610  1.00  0.00    -0.272 C  
HETATM   12  C   UNL     1      -8.553  14.112  67.458  1.00  0.00    -0.196 C  
BRANCH  11  13
HETATM   13  N   UNL     1      -9.186  16.130  66.217  1.00  0.00    -0.303 NA 
HETATM   14  H   UNL     1      -8.730  16.296  65.320  1.00  0.00     0.000 HD 
BRANCH  13  15
HETATM   15  C   UNL     1      -9.412  17.188  67.141  1.00  0.00    -0.248 A  
HETATM   16  C   UNL     1      -8.358  18.075  67.491  1.00  0.00    -0.233 A  
HETATM   17  C   UNL     1      -7.031  17.955  67.010  1.00  0.00    -0.209 A  
HETATM   18  C   UNL     1      -6.038  18.856  67.403  1.00  0.00    -0.175 A  
HETATM   19  C   UNL     1      -6.356  19.875  68.292  1.00  0.00    -0.260 A  
HETATM   20  C   UNL     1      -7.654  20.006  68.777  1.00  0.00    -0.142 A  
HETATM   21 CL   UNL     1      -5.142  20.987  68.795  1.00  0.00    -0.331 Cl 
HETATM   22  C   UNL     1      -8.653  19.134  68.386  1.00  0.00    -0.352 A  
HETATM   23  N   UNL     1      -9.879  19.354  68.881  1.00  0.00    -0.444 NA 
HETATM   24  C   UNL     1     -10.873  18.542  68.478  1.00  0.00     0.365 A  
HETATM   25  C   UNL     1     -10.692  17.486  67.607  1.00  0.00    -0.306 A  
ENDBRANCH  13  15
ENDBRANCH  11  13
ENDBRANCH  10  11
ENDBRANCH   9  10
ENDBRANCH   8   9
ENDBRANCH   3   8
ENDBRANCH   2   3
TORSDOF 9
ENDMDL
MODEL      330
REMARK 921   NORMALIZED FREE ENERGY PREDICTED BY IDOCK:   -2.60 KCAL/MOL
REMARK 922        TOTAL FREE ENERGY PREDICTED BY IDOCK:   -5.20 KCAL/MOL
REMARK 923 INTER-LIGAND FREE ENERGY PREDICTED BY IDOCK:   -4.83 KCAL/MOL
REMARK 924 INTRA-LIGAND FREE ENERGY PREDICTED BY IDOCK:   -0.37 KCAL/MOL
REMARK 927      BINDING AFFINITY PREDICTED BY RF-SCORE:    0.00 PKD
ROOT
HETATM    1  C   UNL     1      -8.420  20.318  67.451  1.00  0.00    -0.405 C  
HETATM    2  C   UNL     1      -7.685  19.180  66.749  1.00  0.00    -0.246 C  
ENDROOT
BRANCH   2   3
HETATM    3  N   UNL     1      -7.509  17.941  67.543  1.00  0.00    -0.203 NA 
BRANCH   3   4
HETATM    4  C   UNL     1      -6.123  17.847  68.066  1.00  0.00    -0.169 C  
BRANCH   4   5
HETATM    5  C   UNL     1      -5.993  17.685  69.592  1.00  0.00    -0.254 C  
HETATM    6  H   UNL     1      -5.608  16.231  70.867  1.00  0.00     0.000 HD 
HETATM    7  O   UNL     1      -5.688  16.331  69.926  1.00  0.00    -0.162 OA 
ENDBRANCH   4   5
ENDBRANCH   3   4
BRANCH   3   8
HETATM    8  C   UNL     1      -8.492  17.927  68.653  1.00  0.00    -0.266 C  
BRANCH   8   9
HETATM    9  C   UNL     1      -9.667  16.938  68.487  1.00  0.00    -0.264 C  
BRANCH   9  10
HETATM   10  C   UNL     1      -9.397  15.507  68.985  1.00  0.00    -0.235 C  
BRANCH  10  11
HETATM   11  C   UNL     1     -10.170  14.418  68.216  1.00  0.00    -0.241 C  
HETATM   12  C   UNL     1     -10.053  14.592  66.700  1.00  0.00    -0.275 C  
BRANCH  11  13
HETATM   13  N   UNL     1      -9.667  13.076  68.588  1.00  0.00    -0.403 NA 
HETATM   14  H   UNL     1     -10.161  12.492  69.263  1.00  0.00     0.000 HD 
BRANCH  13  15
HETATM   15  C   UNL     1      -8.467  12.633  67.964  1.00  0.00    -0.177 A  
HETATM   16  C   UNL     1      -8.473  11.486  67.125  1.00  0.00    -0.158 A  
HETATM   17  C   UNL     1      -9.617  10.685  66.888  1.00  0.00    -0.200 A  
HETATM   18  C   UNL     1      -9.551   9.561  66.060  1.00  0.00    -0.316 A  
HETATM   19  C   UNL     1      -8.340   9.218  65.473  1.00  0.00    -0.133 A  
HETATM   20  C   UNL     1      -7.205   9.992  65.696  1.00  0.00    -0.120 A  
HETATM   21 CL   UNL     1      -8.239   7.831  64.458  1.00  0.00    -0.103 Cl 
HETATM   22  C   UNL     1      -7.255  11.116  66.499  1.00  0.00    -0.124 A  
HETATM   23  N   UNL     1      -6.121  11.818  66.634  1.00  0.00    -0.143 NA 
HETATM   24  C   UNL     1      -6.161  12.939  67.376  1.00  0.00    -0.103 A  
HETATM   25  C   UNL     1      -7.296  13.388  68.023  1.00  0.00    -0.129 A  
ENDBRANCH  13  15
ENDBRANCH  11  13
ENDBRANCH  10  11
ENDBRANCH   9  10
ENDBRANCH   8   9
ENDBRANCH   3   8
ENDBRANCH   2   3
TORSDOF 9
ENDMDL
MODEL      331
REMARK 921   NORMALIZED FREE ENERGY PREDICTED BY IDOCK:   -2.54 KCAL/MOL
REMARK 922        TOTAL FREE ENERGY PREDICTED BY IDOCK:   -5.10 KCAL/MOL
REMARK 923 INTER-LIGAND FREE ENERGY PREDICTED BY IDOCK:   -4.38 KCAL/MOL
REMARK 924 INTRA-LIGAND FREE ENERGY PREDICTED BY IDOCK:   -0.72 KCAL/MOL
REMARK 927      BINDING AFFINITY PREDICTED BY RF-SCORE:    0.00 PKD
ROOT
HETATM    1  C   UNL     1     -10.365   8.772  71.854  1.00  0.00    -0.414 C  
HETATM    2  C   UNL     1      -9.855   7.945  70.678  1.00  0.00    -0.185 C  
ENDROOT
BRANCH   2   3
HETATM    3  N   UNL     1     -10.038   8.552  69.338  1.00  0.00    -0.199 NA 
BRANCH   3   4
HETATM    4  C   UNL     1     -10.978   9.699  69.407  1.00  0.00    -0.190 C  
BRANCH   4   5
HETATM    5  C   UNL     1     -10.856  10.732  68.270  1.00  0.00    -0.229 C  
HETATM    6  H   UNL     1     -12.073  11.720  67.074  1.00  0.00     0.000 HD 
HETATM    7  O   UNL     1     -12.148  11.083  67.774  1.00  0.00    -0.534 OA 
ENDBRANCH   4   5
ENDBRANCH   3   4
BRANCH   3   8
HETATM    8  C   UNL     1      -8.721   8.981  68.809  1.00  0.00    -0.136 C  
BRANCH   8   9
HETATM    9  C   UNL     1      -7.595   7.927  68.899  1.00  0.00    -0.100 C  
BRANCH   9  10
HETATM   10  C   UNL     1      -7.535   6.928  67.729  1.00  0.00    -0.098 C  
BRANCH  10  11
HETATM   11  C   UNL     1      -8.565   7.202  66.616  1.00  0.00    -0.124 C  
HETATM   12  C   UNL     1      -7.957   7.045  65.220  1.00  0.00    -0.127 C  
BRANCH  11  13
HETATM   13  N   UNL     1      -9.716   6.279  66.747  1.00  0.00    -0.152 NA 
HETATM   14  H   UNL     1     -10.674   6.628  66.777  1.00  0.00     0.000 HD 
BRANCH  13  15
HETATM   15  C   UNL     1      -9.430   4.887  66.828  1.00  0.00    -0.148 A  
HETATM   16  C   UNL     1      -9.526   4.205  68.071  1.00  0.00    -0.215 A  
HETATM   17  C   UNL     1      -9.849   4.836  69.297  1.00  0.00    -0.269 A  
HETATM   18  C   UNL     1      -9.915   4.107  70.488  1.00  0.00    -0.177 A  
HETATM   19  C   UNL     1      -9.644   2.745  70.468  1.00  0.00    -0.088 A  
HETATM   20  C   UNL     1      -9.322   2.109  69.273  1.00  0.00    -0.176 A  
HETATM   21 CL   UNL     1      -9.711   1.833  71.927  1.00  0.00    -0.187 Cl 
HETATM   22  C   UNL     1      -9.268   2.810  68.083  1.00  0.00    -0.202 A  
HETATM   23  N   UNL     1      -8.979   2.111  66.977  1.00  0.00    -0.135 NA 
HETATM   24  C   UNL     1      -8.964   2.768  65.804  1.00  0.00    -0.143 A  
HETATM   25  C   UNL     1      -9.206   4.123  65.684  1.00  0.00    -0.149 A  
ENDBRANCH  13  15
ENDBRANCH  11  13
ENDBRANCH  10  11
ENDBRANCH   9  10
ENDBRANCH   8   9
ENDBRANCH   3   8
ENDBRANCH   2   3
TORSDOF 9
ENDMDL
MODEL      332
REMARK 921   NORMALIZED FREE ENERGY PREDICTED BY IDOCK:   -2.54 KCAL/MOL
REMARK 922        TOTAL FREE ENERGY PREDICTED BY IDOCK:   -5.10 KCAL/MOL
REMARK 923 INTER-LIGAND FREE ENERGY PREDICTED BY IDOCK:   -5.91 KCAL/MOL
REMARK 924 INTRA-LIGAND FREE ENERGY PREDICTED BY IDOCK:    0.81 KCAL/MOL
REMARK 927      BINDING AFFINITY PREDICTED BY RF-SCORE:    0.00 PKD
ROOT
HETATM    1  C   UNL     1     -10.054  16.349  69.450  1.00  0.00    -0.243 C  
HETATM    2  C   UNL     1     -10.827  15.611  70.539  1.00  0.00    -0.326 C  
ENDROOT
BRANCH   2   3
HETATM    3  N   UNL     1     -11.416  14.310  70.140  1.00  0.00    -0.230 NA 
BRANCH   3   4
HETATM    4  C   UNL     1     -12.865  14.271  70.462  1.00  0.00    -0.275 C  
BRANCH   4   5
HETATM    5  C   UNL     1     -13.226  13.711  71.851  1.00  0.00    -0.411 C  
HETATM    6  H   UNL     1     -14.512  14.119  73.289  1.00  0.00     0.000 HD 
HETATM    7  O   UNL     1     -14.289  14.465  72.432  1.00  0.00    -0.505 OA 
ENDBRANCH   4   5
ENDBRANCH   3   4
BRANCH   3   8
HETATM    8  C   UNL     1     -11.194  14.096  68.689  1.00  0.00    -0.266 C  
BRANCH   8   9
HETATM    9  C   UNL     1     -12.329  14.588  67.764  1.00  0.00     0.032 C  
BRANCH   9  10
HETATM   10  C   UNL     1     -12.408  13.893  66.394  1.00  0.00    -0.468 C  
BRANCH  10  11
HETATM   11  C   UNL     1     -11.243  12.925  66.112  1.00  0.00    -0.292 C  
HETATM   12  C   UNL     1      -9.893  13.513  66.533  1.00  0.00    -0.292 C  
BRANCH  11  13
HETATM   13  N   UNL     1     -11.456  11.647  66.828  1.00  0.00    -0.481 NA 
HETATM   14  H   UNL     1     -12.300  11.480  67.374  1.00  0.00     0.000 HD 
BRANCH  13  15
HETATM   15  C   UNL     1     -10.434  10.662  66.721  1.00  0.00    -0.247 A  
HETATM   16  C   UNL     1      -9.997   9.953  67.873  1.00  0.00    -0.190 A  
HETATM   17  C   UNL     1     -10.482  10.192  69.182  1.00  0.00    -0.242 A  
HETATM   18  C   UNL     1     -10.000   9.466  70.273  1.00  0.00    -0.284 A  
HETATM   19  C   UNL     1      -9.018   8.504  70.072  1.00  0.00    -0.142 A  
HETATM   20  C   UNL     1      -8.527   8.257  68.793  1.00  0.00    -0.125 A  
HETATM   21 CL   UNL     1      -8.405   7.607  71.407  1.00  0.00    -0.106 Cl 
HETATM   22  C   UNL     1      -9.004   8.954  67.699  1.00  0.00    -0.134 A  
HETATM   23  N   UNL     1      -8.496   8.629  66.502  1.00  0.00    -0.111 NA 
HETATM   24  C   UNL     1      -8.979   9.267  65.421  1.00  0.00    -0.207 A  
HETATM   25  C   UNL     1      -9.947  10.250  65.482  1.00  0.00    -0.364 A  
ENDBRANCH  13  15
ENDBRANCH  11  13
ENDBRANCH  10  11
ENDBRANCH   9  10
ENDBRANCH   8   9
ENDBRANCH   3   8
ENDBRANCH   2   3
TORSDOF 9
ENDMDL
MODEL      333
REMARK 921   NORMALIZED FREE ENERGY PREDICTED BY IDOCK:   -2.53 KCAL/MOL
REMARK 922        TOTAL FREE ENERGY PREDICTED BY IDOCK:   -5.09 KCAL/MOL
REMARK 923 INTER-LIGAND FREE ENERGY PREDICTED BY IDOCK:   -5.70 KCAL/MOL
REMARK 924 INTRA-LIGAND FREE ENERGY PREDICTED BY IDOCK:    0.61 KCAL/MOL
REMARK 927      BINDING AFFINITY PREDICTED BY RF-SCORE:    0.00 PKD
ROOT
HETATM    1  C   UNL     1      -9.331   3.416  63.978  1.00  0.00    -0.129 C  
HETATM    2  C   UNL     1      -9.297   4.653  64.870  1.00  0.00    -0.123 C  
ENDROOT
BRANCH   2   3
HETATM    3  N   UNL     1      -8.626   4.483  66.181  1.00  0.00    -0.113 NA 
BRANCH   3   4
HETATM    4  C   UNL     1      -7.699   5.611  66.445  1.00  0.00    -0.099 C  
BRANCH   4   5
HETATM    5  C   UNL     1      -6.198   5.262  66.425  1.00  0.00    -0.035 C  
HETATM    6  H   UNL     1      -5.024   3.966  65.515  1.00  0.00     0.000 HD 
HETATM    7  O   UNL     1      -5.949   4.181  65.527  1.00  0.00    -0.022 OA 
ENDBRANCH   4   5
ENDBRANCH   3   4
BRANCH   3   8
HETATM    8  C   UNL     1      -9.652   4.384  67.248  1.00  0.00    -0.189 C  
BRANCH   8   9
HETATM    9  C   UNL     1     -10.763   5.456  67.201  1.00  0.00    -0.206 C  
BRANCH   9  10
HETATM   10  C   UNL     1     -10.849   6.367  68.439  1.00  0.00    -0.383 C  
BRANCH  10  11
HETATM   11  C   UNL     1     -10.312   7.793  68.208  1.00  0.00    -0.198 C  
HETATM   12  C   UNL     1     -10.192   8.127  66.719  1.00  0.00    -0.372 C  
BRANCH  11  13
HETATM   13  N   UNL     1     -11.200   8.785  68.855  1.00  0.00    -0.331 NA 
HETATM   14  H   UNL     1     -11.915   8.499  69.524  1.00  0.00     0.000 HD 
BRANCH  13  15
HETATM   15  C   UNL     1     -11.016  10.152  68.505  1.00  0.00    -0.232 A  
HETATM   16  C   UNL     1     -11.537  11.182  69.333  1.00  0.00    -0.388 A  
HETATM   17  C   UNL     1     -12.300  10.948  70.503  1.00  0.00    -0.463 A  
HETATM   18  C   UNL     1     -12.793  12.009  71.266  1.00  0.00    -0.364 A  
HETATM   19  C   UNL     1     -12.543  13.314  70.861  1.00  0.00    -0.306 A  
HETATM   20  C   UNL     1     -11.798  13.563  69.712  1.00  0.00    -0.395 A  
HETATM   21 CL   UNL     1     -13.152  14.633  71.784  1.00  0.00    -0.393 Cl 
HETATM   22  C   UNL     1     -11.288  12.527  68.954  1.00  0.00    -0.297 A  
HETATM   23  N   UNL     1     -10.558  12.860  67.881  1.00  0.00    -0.217 NA 
HETATM   24  C   UNL     1     -10.017  11.865  67.155  1.00  0.00    -0.194 A  
HETATM   25  C   UNL     1     -10.195  10.526  67.442  1.00  0.00    -0.253 A  
ENDBRANCH  13  15
ENDBRANCH  11  13
ENDBRANCH  10  11
ENDBRANCH   9  10
ENDBRANCH   8   9
ENDBRANCH   3   8
ENDBRANCH   2   3
TORSDOF 9
ENDMDL
MODEL      334
REMARK 921   NORMALIZED FREE ENERGY PREDICTED BY IDOCK:   -2.51 KCAL/MOL
REMARK 922        TOTAL FREE ENERGY PREDICTED BY IDOCK:   -5.06 KCAL/MOL
REMARK 923 INTER-LIGAND FREE ENERGY PREDICTED BY IDOCK:   -6.62 KCAL/MOL
REMARK 924 INTRA-LIGAND FREE ENERGY PREDICTED BY IDOCK:    1.56 KCAL/MOL
REMARK 927      BINDING AFFINITY PREDICTED BY RF-SCORE:    0.00 PKD
ROOT
HETATM    1  C   UNL     1      -8.048  19.347  68.533  1.00  0.00    -0.396 C  
HETATM    2  C   UNL     1      -6.884  18.686  67.799  1.00  0.00    -0.214 C  
ENDROOT
BRANCH   2   3
HETATM    3  N   UNL     1      -7.227  17.484  67.003  1.00  0.00    -0.171 NA 
BRANCH   3   4
HETATM    4  C   UNL     1      -6.150  16.466  67.102  1.00  0.00    -0.147 C  
BRANCH   4   5
HETATM    5  C   UNL     1      -6.434  15.282  68.046  1.00  0.00    -0.140 C  
HETATM    6  H   UNL     1      -6.506  13.316  67.923  1.00  0.00     0.000 HD 
HETATM    7  O   UNL     1      -6.331  14.046  67.341  1.00  0.00    -0.323 OA 
ENDBRANCH   4   5
ENDBRANCH   3   4
BRANCH   3   8
HETATM    8  C   UNL     1      -8.518  16.931  67.479  1.00  0.00    -0.194 C  
BRANCH   8   9
HETATM    9  C   UNL     1      -8.510  16.372  68.919  1.00  0.00    -0.247 C  
BRANCH   9  10
HETATM   10  C   UNL     1      -9.539  15.263  69.199  1.00  0.00    -0.243 C  
BRANCH  10  11
HETATM   11  C   UNL     1     -10.938  15.785  69.579  1.00  0.00    -0.295 C  
HETATM   12  C   UNL     1     -11.234  17.147  68.946  1.00  0.00     0.221 C  
BRANCH  11  13
HETATM   13  N   UNL     1     -11.977  14.820  69.154  1.00  0.00    -0.434 NA 
HETATM   14  H   UNL     1     -12.301  14.782  68.188  1.00  0.00     0.000 HD 
BRANCH  13  15
HETATM   15  C   UNL     1     -12.503  13.948  70.147  1.00  0.00    -0.292 A  
HETATM   16  C   UNL     1     -12.111  12.582  70.186  1.00  0.00    -0.368 A  
HETATM   17  C   UNL     1     -11.239  11.982  69.245  1.00  0.00    -0.291 A  
HETATM   18  C   UNL     1     -10.903  10.629  69.334  1.00  0.00    -0.289 A  
HETATM   19  C   UNL     1     -11.447   9.858  70.354  1.00  0.00    -0.301 A  
HETATM   20  C   UNL     1     -12.308  10.430  71.285  1.00  0.00    -0.507 A  
HETATM   21 CL   UNL     1     -11.052   8.187  70.473  1.00  0.00    -0.255 Cl 
HETATM   22  C   UNL     1     -12.638  11.771  71.223  1.00  0.00    -0.296 A  
HETATM   23  N   UNL     1     -13.451  12.242  72.179  1.00  0.00    -0.461 NA 
HETATM   24  C   UNL     1     -13.749  13.553  72.159  1.00  0.00    -0.559 A  
HETATM   25  C   UNL     1     -13.284  14.428  71.198  1.00  0.00    -0.414 A  
ENDBRANCH  13  15
ENDBRANCH  11  13
ENDBRANCH  10  11
ENDBRANCH   9  10
ENDBRANCH   8   9
ENDBRANCH   3   8
ENDBRANCH   2   3
TORSDOF 9
ENDMDL
MODEL      335
REMARK 921   NORMALIZED FREE ENERGY PREDICTED BY IDOCK:   -2.43 KCAL/MOL
REMARK 922        TOTAL FREE ENERGY PREDICTED BY IDOCK:   -4.94 KCAL/MOL
REMARK 923 INTER-LIGAND FREE ENERGY PREDICTED BY IDOCK:   -4.12 KCAL/MOL
REMARK 924 INTRA-LIGAND FREE ENERGY PREDICTED BY IDOCK:   -0.82 KCAL/MOL
REMARK 927      BINDING AFFINITY PREDICTED BY RF-SCORE:    0.00 PKD
ROOT
HETATM    1  C   UNL     1     -10.429   8.792  71.877  1.00  0.00    -0.423 C  
HETATM    2  C   UNL     1      -9.996   8.360  70.479  1.00  0.00    -0.185 C  
ENDROOT
BRANCH   2   3
HETATM    3  N   UNL     1     -10.275   9.328  69.392  1.00  0.00    -0.202 NA 
BRANCH   3   4
HETATM    4  C   UNL     1     -11.444  10.177  69.735  1.00  0.00    -0.228 C  
BRANCH   4   5
HETATM    5  C   UNL     1     -11.561  11.501  68.955  1.00  0.00    -0.318 C  
HETATM    6  H   UNL     1     -12.197  12.089  67.184  1.00  0.00     0.000 HD 
HETATM    7  O   UNL     1     -12.125  11.272  67.665  1.00  0.00    -0.600 OA 
ENDBRANCH   4   5
ENDBRANCH   3   4
BRANCH   3   8
HETATM    8  C   UNL     1      -9.071  10.161  69.156  1.00  0.00    -0.183 C  
BRANCH   8   9
HETATM    9  C   UNL     1      -7.737   9.388  69.068  1.00  0.00    -0.075 C  
BRANCH   9  10
HETATM   10  C   UNL     1      -7.256   9.067  67.642  1.00  0.00    -0.083 C  
BRANCH  10  11
HETATM   11  C   UNL     1      -8.028   9.811  66.536  1.00  0.00    -0.112 C  
HETATM   12  C   UNL     1      -7.088  10.475  65.526  1.00  0.00    -0.099 C  
BRANCH  11  13
HETATM   13  N   UNL     1      -8.922   8.874  65.818  1.00  0.00    -0.191 NA 
HETATM   14  H   UNL     1      -9.911   9.083  65.684  1.00  0.00     0.000 HD 
BRANCH  13  15
HETATM   15  C   UNL     1      -8.345   7.671  65.323  1.00  0.00    -0.115 A  
HETATM   16  C   UNL     1      -8.648   6.424  65.932  1.00  0.00    -0.151 A  
HETATM   17  C   UNL     1      -9.477   6.280  67.072  1.00  0.00    -0.146 A  
HETATM   18  C   UNL     1      -9.725   5.023  67.629  1.00  0.00    -0.188 A  
HETATM   19  C   UNL     1      -9.137   3.899  67.063  1.00  0.00    -0.152 A  
HETATM   20  C   UNL     1      -8.318   4.021  65.945  1.00  0.00    -0.109 A  
HETATM   21 CL   UNL     1      -9.425   2.344  67.743  1.00  0.00    -0.212 Cl 
HETATM   22  C   UNL     1      -8.074   5.255  65.370  1.00  0.00    -0.121 A  
HETATM   23  N   UNL     1      -7.297   5.274  64.279  1.00  0.00    -0.055 NA 
HETATM   24  C   UNL     1      -7.084   6.459  63.681  1.00  0.00    -0.054 A  
HETATM   25  C   UNL     1      -7.600   7.653  64.144  1.00  0.00    -0.113 A  
ENDBRANCH  13  15
ENDBRANCH  11  13
ENDBRANCH  10  11
ENDBRANCH   9  10
ENDBRANCH   8   9
ENDBRANCH   3   8
ENDBRANCH   2   3
TORSDOF 9
ENDMDL
MODEL      336
REMARK 921   NORMALIZED FREE ENERGY PREDICTED BY IDOCK:   -2.41 KCAL/MOL
REMARK 922        TOTAL FREE ENERGY PREDICTED BY IDOCK:   -4.90 KCAL/MOL
REMARK 923 INTER-LIGAND FREE ENERGY PREDICTED BY IDOCK:   -5.94 KCAL/MOL
REMARK 924 INTRA-LIGAND FREE ENERGY PREDICTED BY IDOCK:    1.04 KCAL/MOL
REMARK 927      BINDING AFFINITY PREDICTED BY RF-SCORE:    0.00 PKD
ROOT
HETATM    1  C   UNL     1     -12.380  12.595  64.888  1.00  0.00    -0.563 C  
HETATM    2  C   UNL     1     -10.895  12.495  64.550  1.00  0.00    -0.328 C  
ENDROOT
BRANCH   2   3
HETATM    3  N   UNL     1     -10.473  11.246  63.873  1.00  0.00    -0.363 NA 
BRANCH   3   4
HETATM    4  C   UNL     1      -9.566  11.547  62.737  1.00  0.00    -0.176 C  
BRANCH   4   5
HETATM    5  C   UNL     1      -8.514  10.468  62.417  1.00  0.00    -0.219 C  
HETATM    6  H   UNL     1      -7.907   8.760  63.194  1.00  0.00     0.000 HD 
HETATM    7  O   UNL     1      -8.555   9.426  63.392  1.00  0.00    -0.194 OA 
ENDBRANCH   4   5
ENDBRANCH   3   4
BRANCH   3   8
HETATM    8  C   UNL     1      -9.809  10.355  64.856  1.00  0.00    -0.334 C  
BRANCH   8   9
HETATM    9  C   UNL     1      -9.232  11.059  66.104  1.00  0.00    -0.209 C  
BRANCH   9  10
HETATM   10  C   UNL     1      -9.940  10.732  67.430  1.00  0.00    -0.214 C  
BRANCH  10  11
HETATM   11  C   UNL     1     -10.077  11.935  68.383  1.00  0.00    -0.206 C  
HETATM   12  C   UNL     1      -9.242  13.132  67.920  1.00  0.00    -0.207 C  
BRANCH  11  13
HETATM   13  N   UNL     1     -11.495  12.348  68.484  1.00  0.00    -0.280 NA 
HETATM   14  H   UNL     1     -12.018  12.654  67.663  1.00  0.00     0.000 HD 
BRANCH  13  15
HETATM   15  C   UNL     1     -12.099  12.300  69.772  1.00  0.00    -0.229 A  
HETATM   16  C   UNL     1     -12.031  13.423  70.640  1.00  0.00    -0.290 A  
HETATM   17  C   UNL     1     -11.339  14.621  70.332  1.00  0.00    -0.232 A  
HETATM   18  C   UNL     1     -11.302  15.684  71.238  1.00  0.00    -0.451 A  
HETATM   19  C   UNL     1     -11.941  15.557  72.464  1.00  0.00    -0.455 A  
HETATM   20  C   UNL     1     -12.623  14.387  72.785  1.00  0.00    -0.358 A  
HETATM   21 CL   UNL     1     -11.897  16.854  73.596  1.00  0.00    -0.242 Cl 
HETATM   22  C   UNL     1     -12.685  13.331  71.895  1.00  0.00    -0.150 A  
HETATM   23  N   UNL     1     -13.388  12.256  72.276  1.00  0.00    -0.431 NA 
HETATM   24  C   UNL     1     -13.495  11.235  71.406  1.00  0.00     0.193 A  
HETATM   25  C   UNL     1     -12.901  11.228  70.159  1.00  0.00    -0.007 A  
ENDBRANCH  13  15
ENDBRANCH  11  13
ENDBRANCH  10  11
ENDBRANCH   9  10
ENDBRANCH   8   9
ENDBRANCH   3   8
ENDBRANCH   2   3
TORSDOF 9
ENDMDL
MODEL      337
REMARK 921   NORMALIZED FREE ENERGY PREDICTED BY IDOCK:   -2.39 KCAL/MOL
REMARK 922        TOTAL FREE ENERGY PREDICTED BY IDOCK:   -4.88 KCAL/MOL
REMARK 923 INTER-LIGAND FREE ENERGY PREDICTED BY IDOCK:   -4.38 KCAL/MOL
REMARK 924 INTRA-LIGAND FREE ENERGY PREDICTED BY IDOCK:   -0.50 KCAL/MOL
REMARK 927      BINDING AFFINITY PREDICTED BY RF-SCORE:    0.00 PKD
ROOT
HETATM    1  C   UNL     1      -7.460   6.209  69.469  1.00  0.00    -0.092 C  
HETATM    2  C   UNL     1      -8.504   7.291  69.730  1.00  0.00    -0.136 C  
ENDROOT
BRANCH   2   3
HETATM    3  N   UNL     1      -9.617   7.358  68.753  1.00  0.00    -0.147 NA 
BRANCH   3   4
HETATM    4  C   UNL     1     -10.756   8.132  69.310  1.00  0.00    -0.129 C  
BRANCH   4   5
HETATM    5  C   UNL     1     -11.040   7.918  70.808  1.00  0.00    -0.256 C  
HETATM    6  H   UNL     1     -12.299   8.612  72.158  1.00  0.00     0.000 HD 
HETATM    7  O   UNL     1     -12.123   8.745  71.234  1.00  0.00    -0.290 OA 
ENDBRANCH   4   5
ENDBRANCH   3   4
BRANCH   3   8
HETATM    8  C   UNL     1      -9.129   7.973  67.495  1.00  0.00    -0.137 C  
BRANCH   8   9
HETATM    9  C   UNL     1     -10.227   8.468  66.529  1.00  0.00    -0.286 C  
BRANCH   9  10
HETATM   10  C   UNL     1     -10.091   9.932  66.074  1.00  0.00    -0.314 C  
BRANCH  10  11
HETATM   11  C   UNL     1      -9.203  10.123  64.828  1.00  0.00    -0.242 C  
HETATM   12  C   UNL     1     -10.021  10.516  63.595  1.00  0.00    -0.299 C  
BRANCH  11  13
HETATM   13  N   UNL     1      -8.184  11.166  65.083  1.00  0.00    -0.363 NA 
HETATM   14  H   UNL     1      -7.556  11.485  64.345  1.00  0.00     0.000 HD 
BRANCH  13  15
HETATM   15  C   UNL     1      -8.117  11.706  66.398  1.00  0.00    -0.023 A  
HETATM   16  C   UNL     1      -8.921  12.820  66.760  1.00  0.00    -0.188 A  
HETATM   17  C   UNL     1      -9.786  13.496  65.865  1.00  0.00    -0.255 A  
HETATM   18  C   UNL     1     -10.542  14.594  66.284  1.00  0.00    -0.306 A  
HETATM   19  C   UNL     1     -10.430  15.037  67.595  1.00  0.00    -0.247 A  
HETATM   20  C   UNL     1      -9.583  14.387  68.488  1.00  0.00    -0.217 A  
HETATM   21 CL   UNL     1     -11.346  16.395  68.126  1.00  0.00    -0.281 Cl 
HETATM   22  C   UNL     1      -8.840  13.289  68.096  1.00  0.00    -0.187 A  
HETATM   23  N   UNL     1      -8.075  12.709  69.030  1.00  0.00     0.234 NA 
HETATM   24  C   UNL     1      -7.378  11.613  68.678  1.00  0.00    -0.111 A  
HETATM   25  C   UNL     1      -7.391  11.074  67.407  1.00  0.00    -0.105 A  
ENDBRANCH  13  15
ENDBRANCH  11  13
ENDBRANCH  10  11
ENDBRANCH   9  10
ENDBRANCH   8   9
ENDBRANCH   3   8
ENDBRANCH   2   3
TORSDOF 9
ENDMDL
MODEL      338
REMARK 921   NORMALIZED FREE ENERGY PREDICTED BY IDOCK:   -2.39 KCAL/MOL
REMARK 922        TOTAL FREE ENERGY PREDICTED BY IDOCK:   -4.87 KCAL/MOL
REMARK 923 INTER-LIGAND FREE ENERGY PREDICTED BY IDOCK:   -3.71 KCAL/MOL
REMARK 924 INTRA-LIGAND FREE ENERGY PREDICTED BY IDOCK:   -1.16 KCAL/MOL
REMARK 927      BINDING AFFINITY PREDICTED BY RF-SCORE:    0.00 PKD
ROOT
HETATM    1  C   UNL     1     -11.525  12.041  67.152  1.00  0.00    -0.401 C  
HETATM    2  C   UNL     1     -10.633  11.769  68.359  1.00  0.00    -0.216 C  
ENDROOT
BRANCH   2   3
HETATM    3  N   UNL     1      -9.557  10.771  68.151  1.00  0.00    -0.156 NA 
BRANCH   3   4
HETATM    4  C   UNL     1      -9.712   9.630  69.089  1.00  0.00    -0.178 C  
BRANCH   4   5
HETATM    5  C   UNL     1     -11.053   9.565  69.845  1.00  0.00    -0.216 C  
HETATM    6  H   UNL     1     -11.792   8.609  71.403  1.00  0.00     0.000 HD 
HETATM    7  O   UNL     1     -10.966   8.649  70.937  1.00  0.00    -0.236 OA 
ENDBRANCH   4   5
ENDBRANCH   3   4
BRANCH   3   8
HETATM    8  C   UNL     1      -9.586  10.304  66.744  1.00  0.00    -0.172 C  
BRANCH   8   9
HETATM    9  C   UNL     1      -8.581   9.184  66.396  1.00  0.00    -0.135 C  
BRANCH   9  10
HETATM   10  C   UNL     1      -9.187   7.948  65.707  1.00  0.00    -0.033 C  
BRANCH  10  11
HETATM   11  C   UNL     1      -8.144   6.914  65.241  1.00  0.00    -0.134 C  
HETATM   12  C   UNL     1      -7.076   7.541  64.340  1.00  0.00    -0.069 C  
BRANCH  11  13
HETATM   13  N   UNL     1      -7.483   6.292  66.411  1.00  0.00    -0.084 NA 
HETATM   14  H   UNL     1      -6.678   6.730  66.860  1.00  0.00     0.000 HD 
BRANCH  13  15
HETATM   15  C   UNL     1      -8.016   5.060  66.883  1.00  0.00    -0.104 A  
HETATM   16  C   UNL     1      -8.507   4.952  68.212  1.00  0.00    -0.098 A  
HETATM   17  C   UNL     1      -8.462   6.003  69.161  1.00  0.00    -0.114 A  
HETATM   18  C   UNL     1      -8.953   5.826  70.457  1.00  0.00    -0.152 A  
HETATM   19  C   UNL     1      -9.479   4.594  70.823  1.00  0.00    -0.167 A  
HETATM   20  C   UNL     1      -9.529   3.549  69.906  1.00  0.00    -0.254 A  
HETATM   21 CL   UNL     1     -10.079   4.355  72.419  1.00  0.00    -0.235 Cl 
HETATM   22  C   UNL     1      -9.064   3.711  68.614  1.00  0.00    -0.142 A  
HETATM   23  N   UNL     1      -9.179   2.660  67.790  1.00  0.00    -0.189 NA 
HETATM   24  C   UNL     1      -8.771   2.813  66.518  1.00  0.00    -0.121 A  
HETATM   25  C   UNL     1      -8.221   3.980  66.026  1.00  0.00    -0.105 A  
ENDBRANCH  13  15
ENDBRANCH  11  13
ENDBRANCH  10  11
ENDBRANCH   9  10
ENDBRANCH   8   9
ENDBRANCH   3   8
ENDBRANCH   2   3
TORSDOF 9
ENDMDL
MODEL      339
REMARK 921   NORMALIZED FREE ENERGY PREDICTED BY IDOCK:   -2.38 KCAL/MOL
REMARK 922        TOTAL FREE ENERGY PREDICTED BY IDOCK:   -4.85 KCAL/MOL
REMARK 923 INTER-LIGAND FREE ENERGY PREDICTED BY IDOCK:   -4.26 KCAL/MOL
REMARK 924 INTRA-LIGAND FREE ENERGY PREDICTED BY IDOCK:   -0.60 KCAL/MOL
REMARK 927      BINDING AFFINITY PREDICTED BY RF-SCORE:    0.00 PKD
ROOT
HETATM    1  C   UNL     1      -9.198   3.831  70.973  1.00  0.00    -0.200 C  
HETATM    2  C   UNL     1     -10.276   3.888  72.051  1.00  0.00    -0.099 C  
ENDROOT
BRANCH   2   3
HETATM    3  N   UNL     1     -10.776   5.242  72.389  1.00  0.00    -0.224 NA 
BRANCH   3   4
HETATM    4  C   UNL     1     -10.354   5.629  73.759  1.00  0.00    -0.250 C  
BRANCH   4   5
HETATM    5  C   UNL     1      -8.841   5.843  73.957  1.00  0.00    -0.123 C  
HETATM    6  H   UNL     1      -7.641   7.322  74.465  1.00  0.00     0.000 HD 
HETATM    7  O   UNL     1      -8.574   7.190  74.343  1.00  0.00    -0.174 OA 
ENDBRANCH   4   5
ENDBRANCH   3   4
BRANCH   3   8
HETATM    8  C   UNL     1     -10.273   6.214  71.389  1.00  0.00    -0.205 C  
BRANCH   8   9
HETATM    9  C   UNL     1     -11.320   7.217  70.853  1.00  0.00    -0.319 C  
BRANCH   9  10
HETATM   10  C   UNL     1     -11.437   8.531  71.646  1.00  0.00    -0.365 C  
BRANCH  10  11
HETATM   11  C   UNL     1     -11.704   9.770  70.770  1.00  0.00    -0.328 C  
HETATM   12  C   UNL     1     -12.661  10.755  71.447  1.00  0.00    -0.544 C  
BRANCH  11  13
HETATM   13  N   UNL     1     -10.433  10.465  70.467  1.00  0.00    -0.374 NA 
HETATM   14  H   UNL     1      -9.668  10.490  71.141  1.00  0.00     0.000 HD 
BRANCH  13  15
HETATM   15  C   UNL     1     -10.322  11.098  69.197  1.00  0.00    -0.161 A  
HETATM   16  C   UNL     1      -9.053  11.508  68.706  1.00  0.00    -0.063 A  
HETATM   17  C   UNL     1      -7.844  11.377  69.431  1.00  0.00     0.198 A  
HETATM   18  C   UNL     1      -6.630  11.812  68.894  1.00  0.00    -0.082 A  
HETATM   19  C   UNL     1      -6.613  12.397  67.634  1.00  0.00    -0.131 A  
HETATM   20  C   UNL     1      -7.792  12.537  66.908  1.00  0.00     0.016 A  
HETATM   21 CL   UNL     1      -5.128  12.948  66.961  1.00  0.00     0.254 Cl 
HETATM   22  C   UNL     1      -9.000  12.097  67.416  1.00  0.00    -0.180 A  
HETATM   23  N   UNL     1     -10.078  12.245  66.635  1.00  0.00    -0.212 NA 
HETATM   24  C   UNL     1     -11.255  11.784  67.096  1.00  0.00    -0.316 A  
HETATM   25  C   UNL     1     -11.413  11.191  68.333  1.00  0.00    -0.377 A  
ENDBRANCH  13  15
ENDBRANCH  11  13
ENDBRANCH  10  11
ENDBRANCH   9  10
ENDBRANCH   8   9
ENDBRANCH   3   8
ENDBRANCH   2   3
TORSDOF 9
ENDMDL
MODEL      340
REMARK 921   NORMALIZED FREE ENERGY PREDICTED BY IDOCK:   -2.37 KCAL/MOL
REMARK 922        TOTAL FREE ENERGY PREDICTED BY IDOCK:   -4.85 KCAL/MOL
REMARK 923 INTER-LIGAND FREE ENERGY PREDICTED BY IDOCK:   -3.76 KCAL/MOL
REMARK 924 INTRA-LIGAND FREE ENERGY PREDICTED BY IDOCK:   -1.09 KCAL/MOL
REMARK 927      BINDING AFFINITY PREDICTED BY RF-SCORE:    0.00 PKD
ROOT
HETATM    1  C   UNL     1      -5.944  10.894  70.535  1.00  0.00    -0.121 C  
HETATM    2  C   UNL     1      -5.655   9.680  71.414  1.00  0.00    -0.074 C  
ENDROOT
BRANCH   2   3
HETATM    3  N   UNL     1      -6.522   8.500  71.185  1.00  0.00    -0.044 NA 
BRANCH   3   4
HETATM    4  C   UNL     1      -7.086   8.009  72.467  1.00  0.00    -0.091 C  
BRANCH   4   5
HETATM    5  C   UNL     1      -6.769   6.543  72.820  1.00  0.00    -0.065 C  
HETATM    6  H   UNL     1      -6.167   4.922  71.872  1.00  0.00     0.000 HD 
HETATM    7  O   UNL     1      -6.363   5.826  71.655  1.00  0.00    -0.044 OA 
ENDBRANCH   4   5
ENDBRANCH   3   4
BRANCH   3   8
HETATM    8  C   UNL     1      -7.604   8.862  70.238  1.00  0.00    -0.077 C  
BRANCH   8   9
HETATM    9  C   UNL     1      -9.004   8.313  70.589  1.00  0.00    -0.161 C  
BRANCH   9  10
HETATM   10  C   UNL     1      -9.795   7.725  69.408  1.00  0.00    -0.176 C  
BRANCH  10  11
HETATM   11  C   UNL     1      -9.201   8.058  68.026  1.00  0.00    -0.135 C  
HETATM   12  C   UNL     1      -8.617   6.821  67.338  1.00  0.00    -0.120 C  
BRANCH  11  13
HETATM   13  N   UNL     1     -10.239   8.649  67.152  1.00  0.00    -0.256 NA 
HETATM   14  H   UNL     1     -11.119   8.166  66.972  1.00  0.00     0.000 HD 
BRANCH  13  15
HETATM   15  C   UNL     1      -9.959   9.919  66.573  1.00  0.00    -0.228 A  
HETATM   16  C   UNL     1     -10.408  11.111  67.203  1.00  0.00    -0.249 A  
HETATM   17  C   UNL     1     -11.188  11.136  68.385  1.00  0.00    -0.325 A  
HETATM   18  C   UNL     1     -11.607  12.345  68.947  1.00  0.00    -0.364 A  
HETATM   19  C   UNL     1     -11.266  13.539  68.326  1.00  0.00    -0.274 A  
HETATM   20  C   UNL     1     -10.503  13.534  67.162  1.00  0.00    -0.256 A  
HETATM   21 CL   UNL     1     -11.783  15.037  68.998  1.00  0.00    -0.338 Cl 
HETATM   22  C   UNL     1     -10.065  12.349  66.601  1.00  0.00    -0.221 A  
HETATM   23  N   UNL     1      -9.311  12.441  65.497  1.00  0.00     0.021 NA 
HETATM   24  C   UNL     1      -8.840  11.300  64.962  1.00  0.00     0.066 A  
HETATM   25  C   UNL     1      -9.112  10.046  65.473  1.00  0.00    -0.227 A  
ENDBRANCH  13  15
ENDBRANCH  11  13
ENDBRANCH  10  11
ENDBRANCH   9  10
ENDBRANCH   8   9
ENDBRANCH   3   8
ENDBRANCH   2   3
TORSDOF 9
ENDMDL
MODEL      341
REMARK 921   NORMALIZED FREE ENERGY PREDICTED BY IDOCK:   -2.36 KCAL/MOL
REMARK 922        TOTAL FREE ENERGY PREDICTED BY IDOCK:   -4.82 KCAL/MOL
REMARK 923 INTER-LIGAND FREE ENERGY PREDICTED BY IDOCK:   -4.07 KCAL/MOL
REMARK 924 INTRA-LIGAND FREE ENERGY PREDICTED BY IDOCK:   -0.75 KCAL/MOL
REMARK 927      BINDING AFFINITY PREDICTED BY RF-SCORE:    0.00 PKD
ROOT
HETATM    1  C   UNL     1      -6.215   9.646  71.516  1.00  0.00     0.087 C  
HETATM    2  C   UNL     1      -6.047   8.411  72.395  1.00  0.00    -0.067 C  
ENDROOT
BRANCH   2   3
HETATM    3  N   UNL     1      -7.173   7.446  72.369  1.00  0.00    -0.070 NA 
BRANCH   3   4
HETATM    4  C   UNL     1      -7.591   7.093  73.749  1.00  0.00    -0.104 C  
BRANCH   4   5
HETATM    5  C   UNL     1      -7.236   5.667  74.211  1.00  0.00    -0.085 C  
HETATM    6  H   UNL     1      -8.202   4.057  74.814  1.00  0.00     0.000 HD 
HETATM    7  O   UNL     1      -8.421   4.936  74.529  1.00  0.00    -0.109 OA 
ENDBRANCH   4   5
ENDBRANCH   3   4
BRANCH   3   8
HETATM    8  C   UNL     1      -8.304   8.033  71.610  1.00  0.00    -0.124 C  
BRANCH   8   9
HETATM    9  C   UNL     1      -9.666   8.027  72.340  1.00  0.00    -0.305 C  
BRANCH   9  10
HETATM   10  C   UNL     1     -10.897   7.854  71.433  1.00  0.00    -0.259 C  
BRANCH  10  11
HETATM   11  C   UNL     1     -11.544   9.181  70.992  1.00  0.00    -0.306 C  
HETATM   12  C   UNL     1     -12.375   9.814  72.111  1.00  0.00    -0.225 C  
BRANCH  11  13
HETATM   13  N   UNL     1     -10.501  10.140  70.563  1.00  0.00    -0.408 NA 
HETATM   14  H   UNL     1      -9.652  10.280  71.111  1.00  0.00     0.000 HD 
BRANCH  13  15
HETATM   15  C   UNL     1     -10.732  10.859  69.357  1.00  0.00    -0.225 A  
HETATM   16  C   UNL     1      -9.923  10.623  68.213  1.00  0.00    -0.173 A  
HETATM   17  C   UNL     1      -8.827   9.726  68.190  1.00  0.00    -0.119 A  
HETATM   18  C   UNL     1      -8.064   9.549  67.033  1.00  0.00    -0.113 A  
HETATM   19  C   UNL     1      -8.378  10.277  65.893  1.00  0.00    -0.145 A  
HETATM   20  C   UNL     1      -9.449  11.165  65.897  1.00  0.00    -0.241 A  
HETATM   21 CL   UNL     1      -7.442  10.079  64.461  1.00  0.00    -0.141 Cl 
HETATM   22  C   UNL     1     -10.226  11.340  67.027  1.00  0.00    -0.215 A  
HETATM   23  N   UNL     1     -11.254  12.194  66.932  1.00  0.00    -0.300 NA 
HETATM   24  C   UNL     1     -12.046  12.345  68.008  1.00  0.00    -0.028 A  
HETATM   25  C   UNL     1     -11.841  11.691  69.206  1.00  0.00    -0.396 A  
ENDBRANCH  13  15
ENDBRANCH  11  13
ENDBRANCH  10  11
ENDBRANCH   9  10
ENDBRANCH   8   9
ENDBRANCH   3   8
ENDBRANCH   2   3
TORSDOF 9
ENDMDL
MODEL      342
REMARK 921   NORMALIZED FREE ENERGY PREDICTED BY IDOCK:   -2.34 KCAL/MOL
REMARK 922        TOTAL FREE ENERGY PREDICTED BY IDOCK:   -4.80 KCAL/MOL
REMARK 923 INTER-LIGAND FREE ENERGY PREDICTED BY IDOCK:   -4.44 KCAL/MOL
REMARK 924 INTRA-LIGAND FREE ENERGY PREDICTED BY IDOCK:   -0.36 KCAL/MOL
REMARK 927      BINDING AFFINITY PREDICTED BY RF-SCORE:    0.00 PKD
ROOT
HETATM    1  C   UNL     1      -5.325  12.198  67.843  1.00  0.00    -0.065 C  
HETATM    2  C   UNL     1      -5.369  10.672  67.828  1.00  0.00    -0.040 C  
ENDROOT
BRANCH   2   3
HETATM    3  N   UNL     1      -5.887  10.056  66.583  1.00  0.00    -0.053 NA 
BRANCH   3   4
HETATM    4  C   UNL     1      -5.287  10.704  65.390  1.00  0.00    -0.139 C  
BRANCH   4   5
HETATM    5  C   UNL     1      -5.743  10.149  64.027  1.00  0.00    -0.135 C  
HETATM    6  H   UNL     1      -7.441   9.908  63.056  1.00  0.00     0.000 HD 
HETATM    7  O   UNL     1      -7.160  10.250  63.896  1.00  0.00    -0.127 OA 
ENDBRANCH   4   5
ENDBRANCH   3   4
BRANCH   3   8
HETATM    8  C   UNL     1      -5.593   8.603  66.597  1.00  0.00    -0.040 C  
BRANCH   8   9
HETATM    9  C   UNL     1      -6.784   7.689  66.960  1.00  0.00    -0.067 C  
BRANCH   9  10
HETATM   10  C   UNL     1      -8.032   7.852  66.074  1.00  0.00    -0.103 C  
BRANCH  10  11
HETATM   11  C   UNL     1      -8.811   6.543  65.839  1.00  0.00    -0.119 C  
HETATM   12  C   UNL     1      -8.161   5.353  66.549  1.00  0.00    -0.109 C  
BRANCH  11  13
HETATM   13  N   UNL     1     -10.205   6.686  66.316  1.00  0.00    -0.433 NA 
HETATM   14  H   UNL     1     -10.968   6.158  65.891  1.00  0.00     0.000 HD 
BRANCH  13  15
HETATM   15  C   UNL     1     -10.438   7.590  67.390  1.00  0.00    -0.297 A  
HETATM   16  C   UNL     1     -10.519   7.113  68.726  1.00  0.00    -0.217 A  
HETATM   17  C   UNL     1     -10.430   5.746  69.086  1.00  0.00    -0.346 A  
HETATM   18  C   UNL     1     -10.529   5.344  70.420  1.00  0.00    -0.345 A  
HETATM   19  C   UNL     1     -10.732   6.299  71.406  1.00  0.00    -0.248 A  
HETATM   20  C   UNL     1     -10.825   7.647  71.072  1.00  0.00    -0.255 A  
HETATM   21 CL   UNL     1     -10.866   5.820  73.054  1.00  0.00    -0.286 Cl 
HETATM   22  C   UNL     1     -10.712   8.066  69.759  1.00  0.00    -0.231 A  
HETATM   23  N   UNL     1     -10.784   9.385  69.534  1.00  0.00    -0.223 NA 
HETATM   24  C   UNL     1     -10.634   9.814  68.268  1.00  0.00    -0.229 A  
HETATM   25  C   UNL     1     -10.437   8.970  67.193  1.00  0.00    -0.333 A  
ENDBRANCH  13  15
ENDBRANCH  11  13
ENDBRANCH  10  11
ENDBRANCH   9  10
ENDBRANCH   8   9
ENDBRANCH   3   8
ENDBRANCH   2   3
TORSDOF 9
ENDMDL
MODEL      343
REMARK 921   NORMALIZED FREE ENERGY PREDICTED BY IDOCK:   -2.31 KCAL/MOL
REMARK 922        TOTAL FREE ENERGY PREDICTED BY IDOCK:   -4.75 KCAL/MOL
REMARK 923 INTER-LIGAND FREE ENERGY PREDICTED BY IDOCK:   -4.25 KCAL/MOL
REMARK 924 INTRA-LIGAND FREE ENERGY PREDICTED BY IDOCK:   -0.50 KCAL/MOL
REMARK 927      BINDING AFFINITY PREDICTED BY RF-SCORE:    0.00 PKD
ROOT
HETATM    1  C   UNL     1     -10.262   8.731  72.266  1.00  0.00    -0.310 C  
HETATM    2  C   UNL     1     -10.716   8.527  70.823  1.00  0.00    -0.217 C  
ENDROOT
BRANCH   2   3
HETATM    3  N   UNL     1     -10.210   7.304  70.156  1.00  0.00    -0.200 NA 
BRANCH   3   4
HETATM    4  C   UNL     1     -11.086   6.143  70.457  1.00  0.00    -0.337 C  
BRANCH   4   5
HETATM    5  C   UNL     1     -10.442   5.017  71.287  1.00  0.00    -0.143 C  
HETATM    6  H   UNL     1      -8.872   3.831  71.149  1.00  0.00     0.000 HD 
HETATM    7  O   UNL     1      -9.270   4.525  70.637  1.00  0.00    -0.118 OA 
ENDBRANCH   4   5
ENDBRANCH   3   4
BRANCH   3   8
HETATM    8  C   UNL     1     -10.132   7.539  68.694  1.00  0.00    -0.184 C  
BRANCH   8   9
HETATM    9  C   UNL     1      -9.178   8.671  68.255  1.00  0.00    -0.140 C  
BRANCH   9  10
HETATM   10  C   UNL     1      -9.651   9.497  67.046  1.00  0.00    -0.214 C  
BRANCH  10  11
HETATM   11  C   UNL     1     -10.083  10.934  67.396  1.00  0.00    -0.191 C  
HETATM   12  C   UNL     1     -10.509  11.065  68.861  1.00  0.00    -0.229 C  
BRANCH  11  13
HETATM   13  N   UNL     1      -8.974  11.879  67.132  1.00  0.00    -0.172 NA 
HETATM   14  H   UNL     1      -8.121  11.577  66.662  1.00  0.00     0.000 HD 
BRANCH  13  15
HETATM   15  C   UNL     1      -9.148  13.226  67.559  1.00  0.00    -0.208 A  
HETATM   16  C   UNL     1      -8.186  13.843  68.403  1.00  0.00    -0.153 A  
HETATM   17  C   UNL     1      -7.042  13.182  68.914  1.00  0.00    -0.075 A  
HETATM   18  C   UNL     1      -6.140  13.845  69.749  1.00  0.00    -0.129 A  
HETATM   19  C   UNL     1      -6.378  15.169  70.095  1.00  0.00    -0.130 A  
HETATM   20  C   UNL     1      -7.498  15.834  69.604  1.00  0.00    -0.100 A  
HETATM   21 CL   UNL     1      -5.282  15.999  71.131  1.00  0.00    -0.124 Cl 
HETATM   22  C   UNL     1      -8.393  15.199  68.763  1.00  0.00    -0.175 A  
HETATM   23  N   UNL     1      -9.426  15.925  68.316  1.00  0.00    -0.199 NA 
HETATM   24  C   UNL     1     -10.284  15.337  67.462  1.00  0.00    -0.239 A  
HETATM   25  C   UNL     1     -10.169  14.025  67.045  1.00  0.00    -0.261 A  
ENDBRANCH  13  15
ENDBRANCH  11  13
ENDBRANCH  10  11
ENDBRANCH   9  10
ENDBRANCH   8   9
ENDBRANCH   3   8
ENDBRANCH   2   3
TORSDOF 9
ENDMDL
MODEL      344
REMARK 921   NORMALIZED FREE ENERGY PREDICTED BY IDOCK:   -2.29 KCAL/MOL
REMARK 922        TOTAL FREE ENERGY PREDICTED BY IDOCK:   -4.73 KCAL/MOL
REMARK 923 INTER-LIGAND FREE ENERGY PREDICTED BY IDOCK:   -4.44 KCAL/MOL
REMARK 924 INTRA-LIGAND FREE ENERGY PREDICTED BY IDOCK:   -0.28 KCAL/MOL
REMARK 927      BINDING AFFINITY PREDICTED BY RF-SCORE:    0.00 PKD
ROOT
HETATM    1  C   UNL     1      -8.629  18.816  66.524  1.00  0.00    -0.312 C  
HETATM    2  C   UNL     1      -7.941  17.508  66.147  1.00  0.00    -0.226 C  
ENDROOT
BRANCH   2   3
HETATM    3  N   UNL     1      -7.420  16.706  67.279  1.00  0.00    -0.153 NA 
BRANCH   3   4
HETATM    4  C   UNL     1      -6.132  17.262  67.765  1.00  0.00    -0.141 C  
BRANCH   4   5
HETATM    5  C   UNL     1      -6.041  17.513  69.282  1.00  0.00    -0.232 C  
HETATM    6  H   UNL     1      -5.536  18.996  70.478  1.00  0.00     0.000 HD 
HETATM    7  O   UNL     1      -5.591  18.842  69.543  1.00  0.00    -0.205 OA 
ENDBRANCH   4   5
ENDBRANCH   3   4
BRANCH   3   8
HETATM    8  C   UNL     1      -8.427  16.681  68.368  1.00  0.00    -0.216 C  
BRANCH   8   9
HETATM    9  C   UNL     1      -9.518  15.596  68.237  1.00  0.00    -0.200 C  
BRANCH   9  10
HETATM   10  C   UNL     1      -9.070  14.167  68.594  1.00  0.00    -0.138 C  
BRANCH  10  11
HETATM   11  C   UNL     1      -9.944  13.061  67.971  1.00  0.00    -0.233 C  
HETATM   12  C   UNL     1      -9.458  12.663  66.575  1.00  0.00    -0.247 C  
BRANCH  11  13
HETATM   13  N   UNL     1      -9.947  11.863  68.840  1.00  0.00    -0.409 NA 
HETATM   14  H   UNL     1     -10.652  11.735  69.566  1.00  0.00     0.000 HD 
BRANCH  13  15
HETATM   15  C   UNL     1      -8.926  10.896  68.622  1.00  0.00    -0.162 A  
HETATM   16  C   UNL     1      -9.236   9.644  68.025  1.00  0.00    -0.132 A  
HETATM   17  C   UNL     1     -10.545   9.245  67.658  1.00  0.00    -0.324 A  
HETATM   18  C   UNL     1     -10.782   7.994  67.084  1.00  0.00    -0.285 A  
HETATM   19  C   UNL     1      -9.719   7.123  66.885  1.00  0.00    -0.186 A  
HETATM   20  C   UNL     1      -8.427   7.496  67.242  1.00  0.00    -0.118 A  
HETATM   21 CL   UNL     1      -9.996   5.572  66.189  1.00  0.00    -0.161 Cl 
HETATM   22  C   UNL     1      -8.170   8.737  67.795  1.00  0.00    -0.111 A  
HETATM   23  N   UNL     1      -6.893   9.022  68.081  1.00  0.00    -0.068 NA 
HETATM   24  C   UNL     1      -6.618  10.241  68.580  1.00  0.00    -0.052 A  
HETATM   25  C   UNL     1      -7.581  11.197  68.835  1.00  0.00    -0.133 A  
ENDBRANCH  13  15
ENDBRANCH  11  13
ENDBRANCH  10  11
ENDBRANCH   9  10
ENDBRANCH   8   9
ENDBRANCH   3   8
ENDBRANCH   2   3
TORSDOF 9
ENDMDL
MODEL      345
REMARK 921   NORMALIZED FREE ENERGY PREDICTED BY IDOCK:   -2.25 KCAL/MOL
REMARK 922        TOTAL FREE ENERGY PREDICTED BY IDOCK:   -4.66 KCAL/MOL
REMARK 923 INTER-LIGAND FREE ENERGY PREDICTED BY IDOCK:   -4.16 KCAL/MOL
REMARK 924 INTRA-LIGAND FREE ENERGY PREDICTED BY IDOCK:   -0.51 KCAL/MOL
REMARK 927      BINDING AFFINITY PREDICTED BY RF-SCORE:    0.00 PKD
ROOT
HETATM    1  C   UNL     1     -11.729  12.158  65.365  1.00  0.00    -0.379 C  
HETATM    2  C   UNL     1     -11.046  13.206  66.238  1.00  0.00    -0.287 C  
ENDROOT
BRANCH   2   3
HETATM    3  N   UNL     1     -10.787  12.804  67.641  1.00  0.00    -0.224 NA 
BRANCH   3   4
HETATM    4  C   UNL     1     -11.956  13.119  68.500  1.00  0.00    -0.289 C  
BRANCH   4   5
HETATM    5  C   UNL     1     -11.805  14.352  69.410  1.00  0.00    -0.325 C  
HETATM    6  H   UNL     1     -11.608  16.301  69.189  1.00  0.00     0.000 HD 
HETATM    7  O   UNL     1     -11.701  15.541  68.627  1.00  0.00    -0.353 OA 
ENDBRANCH   4   5
ENDBRANCH   3   4
BRANCH   3   8
HETATM    8  C   UNL     1     -10.474  11.355  67.687  1.00  0.00    -0.194 C  
BRANCH   8   9
HETATM    9  C   UNL     1      -9.164  10.981  68.414  1.00  0.00    -0.175 C  
BRANCH   9  10
HETATM   10  C   UNL     1      -8.647   9.557  68.146  1.00  0.00    -0.120 C  
BRANCH  10  11
HETATM   11  C   UNL     1      -7.615   9.059  69.177  1.00  0.00    -0.073 C  
HETATM   12  C   UNL     1      -8.020   9.410  70.611  1.00  0.00    -0.189 C  
BRANCH  11  13
HETATM   13  N   UNL     1      -7.450   7.592  69.068  1.00  0.00    -0.093 NA 
HETATM   14  H   UNL     1      -6.578   7.135  69.333  1.00  0.00     0.000 HD 
BRANCH  13  15
HETATM   15  C   UNL     1      -8.558   6.846  68.577  1.00  0.00    -0.123 A  
HETATM   16  C   UNL     1      -8.463   6.145  67.344  1.00  0.00    -0.107 A  
HETATM   17  C   UNL     1      -7.323   6.169  66.505  1.00  0.00    -0.081 A  
HETATM   18  C   UNL     1      -7.300   5.465  65.299  1.00  0.00    -0.068 A  
HETATM   19  C   UNL     1      -8.421   4.742  64.911  1.00  0.00    -0.140 A  
HETATM   20  C   UNL     1      -9.552   4.709  65.721  1.00  0.00    -0.190 A  
HETATM   21 CL   UNL     1      -8.414   3.877  63.422  1.00  0.00    -0.091 Cl 
HETATM   22  C   UNL     1      -9.586   5.385  66.926  1.00  0.00    -0.142 A  
HETATM   23  N   UNL     1     -10.705   5.273  67.654  1.00  0.00    -0.058 NA 
HETATM   24  C   UNL     1     -10.741   5.890  68.849  1.00  0.00    -0.300 A  
HETATM   25  C   UNL     1      -9.701   6.648  69.350  1.00  0.00    -0.153 A  
ENDBRANCH  13  15
ENDBRANCH  11  13
ENDBRANCH  10  11
ENDBRANCH   9  10
ENDBRANCH   8   9
ENDBRANCH   3   8
ENDBRANCH   2   3
TORSDOF 9
ENDMDL
MODEL      346
REMARK 921   NORMALIZED FREE ENERGY PREDICTED BY IDOCK:   -2.23 KCAL/MOL
REMARK 922        TOTAL FREE ENERGY PREDICTED BY IDOCK:   -4.63 KCAL/MOL
REMARK 923 INTER-LIGAND FREE ENERGY PREDICTED BY IDOCK:   -4.17 KCAL/MOL
REMARK 924 INTRA-LIGAND FREE ENERGY PREDICTED BY IDOCK:   -0.45 KCAL/MOL
REMARK 927      BINDING AFFINITY PREDICTED BY RF-SCORE:    0.00 PKD
ROOT
HETATM    1  C   UNL     1     -12.016  13.716  69.762  1.00  0.00    -0.404 C  
HETATM    2  C   UNL     1     -11.198  12.437  69.604  1.00  0.00    -0.036 C  
ENDROOT
BRANCH   2   3
HETATM    3  N   UNL     1     -10.270  12.406  68.449  1.00  0.00    -0.225 NA 
BRANCH   3   4
HETATM    4  C   UNL     1      -9.714  11.043  68.260  1.00  0.00    -0.177 C  
BRANCH   4   5
HETATM    5  C   UNL     1      -9.034  10.421  69.494  1.00  0.00    -0.106 C  
HETATM    6  H   UNL     1      -9.248   8.809  70.609  1.00  0.00     0.000 HD 
HETATM    7  O   UNL     1      -9.668   9.192  69.848  1.00  0.00    -0.173 OA 
ENDBRANCH   4   5
ENDBRANCH   3   4
BRANCH   3   8
HETATM    8  C   UNL     1     -10.987  12.856  67.231  1.00  0.00    -0.261 C  
BRANCH   8   9
HETATM    9  C   UNL     1     -10.119  13.584  66.181  1.00  0.00    -0.307 C  
BRANCH   9  10
HETATM   10  C   UNL     1      -9.736  15.032  66.535  1.00  0.00    -0.285 C  
BRANCH  10  11
HETATM   11  C   UNL     1      -8.423  15.158  67.333  1.00  0.00    -0.183 C  
HETATM   12  C   UNL     1      -7.512  13.944  67.133  1.00  0.00     0.094 C  
BRANCH  11  13
HETATM   13  N   UNL     1      -7.693  16.380  66.927  1.00  0.00    -0.214 NA 
HETATM   14  H   UNL     1      -6.865  16.331  66.334  1.00  0.00     0.000 HD 
BRANCH  13  15
HETATM   15  C   UNL     1      -8.195  17.626  67.397  1.00  0.00    -0.212 A  
HETATM   16  C   UNL     1      -7.418  18.428  68.276  1.00  0.00    -0.293 A  
HETATM   17  C   UNL     1      -6.150  18.049  68.782  1.00  0.00    -0.202 A  
HETATM   18  C   UNL     1      -5.443  18.881  69.653  1.00  0.00    -0.218 A  
HETATM   19  C   UNL     1      -6.000  20.093  70.040  1.00  0.00    -0.353 A  
HETATM   20  C   UNL     1      -7.246  20.481  69.556  1.00  0.00     0.534 A  
HETATM   21 CL   UNL     1      -5.147  21.126  71.121  1.00  0.00    -0.080 Cl 
HETATM   22  C   UNL     1      -7.953  19.678  68.680  1.00  0.00    -0.300 A  
HETATM   23  N   UNL     1      -9.130  20.145  68.243  1.00  0.00    -0.152 NA 
HETATM   24  C   UNL     1      -9.812  19.398  67.357  1.00  0.00    -0.345 A  
HETATM   25  C   UNL     1      -9.377  18.170  66.897  1.00  0.00    -0.278 A  
ENDBRANCH  13  15
ENDBRANCH  11  13
ENDBRANCH  10  11
ENDBRANCH   9  10
ENDBRANCH   8   9
ENDBRANCH   3   8
ENDBRANCH   2   3
TORSDOF 9
ENDMDL
MODEL      347
REMARK 921   NORMALIZED FREE ENERGY PREDICTED BY IDOCK:   -2.22 KCAL/MOL
REMARK 922        TOTAL FREE ENERGY PREDICTED BY IDOCK:   -4.61 KCAL/MOL
REMARK 923 INTER-LIGAND FREE ENERGY PREDICTED BY IDOCK:   -3.46 KCAL/MOL
REMARK 924 INTRA-LIGAND FREE ENERGY PREDICTED BY IDOCK:   -1.15 KCAL/MOL
REMARK 927      BINDING AFFINITY PREDICTED BY RF-SCORE:    0.00 PKD
ROOT
HETATM    1  C   UNL     1     -13.768   8.004  71.690  1.00  0.00    -0.410 C  
HETATM    2  C   UNL     1     -12.473   8.389  72.399  1.00  0.00    -0.331 C  
ENDROOT
BRANCH   2   3
HETATM    3  N   UNL     1     -11.238   8.278  71.587  1.00  0.00    -0.256 NA 
BRANCH   3   4
HETATM    4  C   UNL     1     -10.260   7.374  72.242  1.00  0.00    -0.200 C  
BRANCH   4   5
HETATM    5  C   UNL     1     -10.493   7.111  73.742  1.00  0.00    -0.329 C  
HETATM    6  H   UNL     1      -9.489   6.335  75.251  1.00  0.00     0.000 HD 
HETATM    7  O   UNL     1      -9.345   6.497  74.326  1.00  0.00    -0.172 OA 
ENDBRANCH   4   5
ENDBRANCH   3   4
BRANCH   3   8
HETATM    8  C   UNL     1     -11.584   7.785  70.231  1.00  0.00    -0.034 C  
BRANCH   8   9
HETATM    9  C   UNL     1     -10.653   8.260  69.095  1.00  0.00    -0.179 C  
BRANCH   9  10
HETATM   10  C   UNL     1     -10.357   7.212  68.007  1.00  0.00    -0.238 C  
BRANCH  10  11
HETATM   11  C   UNL     1      -9.446   7.723  66.873  1.00  0.00    -0.187 C  
HETATM   12  C   UNL     1      -9.788   9.158  66.465  1.00  0.00    -0.333 C  
BRANCH  11  13
HETATM   13  N   UNL     1      -8.028   7.666  67.293  1.00  0.00    -0.117 NA 
HETATM   14  H   UNL     1      -7.409   8.470  67.182  1.00  0.00     0.000 HD 
BRANCH  13  15
HETATM   15  C   UNL     1      -7.563   6.446  67.859  1.00  0.00    -0.102 A  
HETATM   16  C   UNL     1      -7.175   6.388  69.225  1.00  0.00    -0.090 A  
HETATM   17  C   UNL     1      -7.167   7.507  70.093  1.00  0.00    -0.068 A  
HETATM   18  C   UNL     1      -6.762   7.383  71.425  1.00  0.00    -0.050 A  
HETATM   19  C   UNL     1      -6.346   6.145  71.898  1.00  0.00    -0.046 A  
HETATM   20  C   UNL     1      -6.344   5.035  71.058  1.00  0.00    -0.023 A  
HETATM   21 CL   UNL     1      -5.834   5.976  73.533  1.00  0.00    -0.051 Cl 
HETATM   22  C   UNL     1      -6.758   5.135  69.743  1.00  0.00    -0.047 A  
HETATM   23  N   UNL     1      -6.751   4.009  69.016  1.00  0.00    -0.044 NA 
HETATM   24  C   UNL     1      -7.190   4.079  67.747  1.00  0.00    -0.063 A  
HETATM   25  C   UNL     1      -7.622   5.247  67.150  1.00  0.00    -0.092 A  
ENDBRANCH  13  15
ENDBRANCH  11  13
ENDBRANCH  10  11
ENDBRANCH   9  10
ENDBRANCH   8   9
ENDBRANCH   3   8
ENDBRANCH   2   3
TORSDOF 9
ENDMDL
MODEL      348
REMARK 921   NORMALIZED FREE ENERGY PREDICTED BY IDOCK:   -2.13 KCAL/MOL
REMARK 922        TOTAL FREE ENERGY PREDICTED BY IDOCK:   -4.47 KCAL/MOL
REMARK 923 INTER-LIGAND FREE ENERGY PREDICTED BY IDOCK:   -4.23 KCAL/MOL
REMARK 924 INTRA-LIGAND FREE ENERGY PREDICTED BY IDOCK:   -0.25 KCAL/MOL
REMARK 927      BINDING AFFINITY PREDICTED BY RF-SCORE:    0.00 PKD
ROOT
HETATM    1  C   UNL     1     -11.835  13.610  69.175  1.00  0.00    -0.394 C  
HETATM    2  C   UNL     1     -12.273  12.961  70.484  1.00  0.00    -0.314 C  
ENDROOT
BRANCH   2   3
HETATM    3  N   UNL     1     -12.010  11.507  70.601  1.00  0.00    -0.347 NA 
BRANCH   3   4
HETATM    4  C   UNL     1     -13.251  10.779  70.967  1.00  0.00    -0.124 C  
BRANCH   4   5
HETATM    5  C   UNL     1     -13.102   9.717  72.072  1.00  0.00    -0.445 C  
HETATM    6  H   UNL     1     -14.114   8.158  72.731  1.00  0.00     0.000 HD 
HETATM    7  O   UNL     1     -14.207   8.813  72.050  1.00  0.00    -0.428 OA 
ENDBRANCH   4   5
ENDBRANCH   3   4
BRANCH   3   8
HETATM    8  C   UNL     1     -11.463  11.003  69.318  1.00  0.00    -0.300 C  
BRANCH   8   9
HETATM    9  C   UNL     1     -11.308   9.470  69.219  1.00  0.00     0.058 C  
BRANCH   9  10
HETATM   10  C   UNL     1      -9.939   8.978  68.719  1.00  0.00    -0.194 C  
BRANCH  10  11
HETATM   11  C   UNL     1      -9.893   8.677  67.208  1.00  0.00    -0.197 C  
HETATM   12  C   UNL     1     -10.088   9.939  66.365  1.00  0.00    -0.308 C  
BRANCH  11  13
HETATM   13  N   UNL     1      -8.598   8.054  66.851  1.00  0.00    -0.126 NA 
HETATM   14  H   UNL     1      -8.197   8.162  65.919  1.00  0.00     0.000 HD 
BRANCH  13  15
HETATM   15  C   UNL     1      -7.936   7.300  67.860  1.00  0.00    -0.119 A  
HETATM   16  C   UNL     1      -8.337   5.966  68.140  1.00  0.00    -0.115 A  
HETATM   17  C   UNL     1      -9.422   5.315  67.503  1.00  0.00    -0.136 A  
HETATM   18  C   UNL     1      -9.771   4.004  67.835  1.00  0.00    -0.148 A  
HETATM   19  C   UNL     1      -9.052   3.335  68.817  1.00  0.00    -0.148 A  
HETATM   20  C   UNL     1      -7.985   3.960  69.456  1.00  0.00    -0.058 A  
HETATM   21 CL   UNL     1      -9.476   1.722  69.246  1.00  0.00    -0.166 Cl 
HETATM   22  C   UNL     1      -7.614   5.250  69.129  1.00  0.00    -0.074 A  
HETATM   23  N   UNL     1      -6.557   5.761  69.774  1.00  0.00    -0.045 NA 
HETATM   24  C   UNL     1      -6.155   7.000  69.439  1.00  0.00    -0.033 A  
HETATM   25  C   UNL     1      -6.786   7.777  68.488  1.00  0.00    -0.066 A  
ENDBRANCH  13  15
ENDBRANCH  11  13
ENDBRANCH  10  11
ENDBRANCH   9  10
ENDBRANCH   8   9
ENDBRANCH   3   8
ENDBRANCH   2   3
TORSDOF 9
ENDMDL
MODEL      349
REMARK 921   NORMALIZED FREE ENERGY PREDICTED BY IDOCK:   -2.12 KCAL/MOL
REMARK 922        TOTAL FREE ENERGY PREDICTED BY IDOCK:   -4.47 KCAL/MOL
REMARK 923 INTER-LIGAND FREE ENERGY PREDICTED BY IDOCK:   -3.41 KCAL/MOL
REMARK 924 INTRA-LIGAND FREE ENERGY PREDICTED BY IDOCK:   -1.06 KCAL/MOL
REMARK 927      BINDING AFFINITY PREDICTED BY RF-SCORE:    0.00 PKD
ROOT
HETATM    1  C   UNL     1      -9.535   2.499  71.639  1.00  0.00    -0.206 C  
HETATM    2  C   UNL     1     -10.570   3.054  72.614  1.00  0.00    -0.034 C  
ENDROOT
BRANCH   2   3
HETATM    3  N   UNL     1     -10.486   4.510  72.881  1.00  0.00    -0.183 NA 
BRANCH   3   4
HETATM    4  C   UNL     1      -9.563   4.782  74.012  1.00  0.00    -0.127 C  
BRANCH   4   5
HETATM    5  C   UNL     1      -8.389   5.731  73.703  1.00  0.00    -0.110 C  
HETATM    6  H   UNL     1      -7.710   7.459  74.366  1.00  0.00     0.000 HD 
HETATM    7  O   UNL     1      -8.434   6.874  74.556  1.00  0.00    -0.151 OA 
ENDBRANCH   4   5
ENDBRANCH   3   4
BRANCH   3   8
HETATM    8  C   UNL     1     -10.034   5.208  71.653  1.00  0.00    -0.184 C  
BRANCH   8   9
HETATM    9  C   UNL     1     -10.996   6.289  71.113  1.00  0.00    -0.336 C  
BRANCH   9  10
HETATM   10  C   UNL     1     -10.563   7.743  71.369  1.00  0.00    -0.242 C  
BRANCH  10  11
HETATM   11  C   UNL     1     -10.201   8.525  70.092  1.00  0.00    -0.195 C  
HETATM   12  C   UNL     1     -10.586  10.004  70.196  1.00  0.00    -0.350 C  
BRANCH  11  13
HETATM   13  N   UNL     1      -8.749   8.423  69.824  1.00  0.00    -0.132 NA 
HETATM   14  H   UNL     1      -8.070   8.405  70.584  1.00  0.00     0.000 HD 
BRANCH  13  15
HETATM   15  C   UNL     1      -8.340   8.351  68.463  1.00  0.00    -0.131 A  
HETATM   16  C   UNL     1      -8.319   7.103  67.784  1.00  0.00    -0.118 A  
HETATM   17  C   UNL     1      -8.638   5.865  68.393  1.00  0.00    -0.113 A  
HETATM   18  C   UNL     1      -8.585   4.671  67.670  1.00  0.00    -0.104 A  
HETATM   19  C   UNL     1      -8.198   4.698  66.336  1.00  0.00    -0.107 A  
HETATM   20  C   UNL     1      -7.878   5.905  65.722  1.00  0.00    -0.103 A  
HETATM   21 CL   UNL     1      -8.117   3.235  65.433  1.00  0.00    -0.089 Cl 
HETATM   22  C   UNL     1      -7.941   7.099  66.416  1.00  0.00    -0.112 A  
HETATM   23  N   UNL     1      -7.643   8.214  65.736  1.00  0.00    -0.080 NA 
HETATM   24  C   UNL     1      -7.741   9.389  66.384  1.00  0.00    -0.097 A  
HETATM   25  C   UNL     1      -8.104   9.502  67.712  1.00  0.00    -0.106 A  
ENDBRANCH  13  15
ENDBRANCH  11  13
ENDBRANCH  10  11
ENDBRANCH   9  10
ENDBRANCH   8   9
ENDBRANCH   3   8
ENDBRANCH   2   3
TORSDOF 9
ENDMDL
MODEL      350
REMARK 921   NORMALIZED FREE ENERGY PREDICTED BY IDOCK:   -2.10 KCAL/MOL
REMARK 922        TOTAL FREE ENERGY PREDICTED BY IDOCK:   -4.44 KCAL/MOL
REMARK 923 INTER-LIGAND FREE ENERGY PREDICTED BY IDOCK:   -4.01 KCAL/MOL
REMARK 924 INTRA-LIGAND FREE ENERGY PREDICTED BY IDOCK:   -0.42 KCAL/MOL
REMARK 927      BINDING AFFINITY PREDICTED BY RF-SCORE:    0.00 PKD
ROOT
HETATM    1  C   UNL     1     -11.822  13.612  69.180  1.00  0.00    -0.394 C  
HETATM    2  C   UNL     1     -12.225  12.993  70.515  1.00  0.00    -0.313 C  
ENDROOT
BRANCH   2   3
HETATM    3  N   UNL     1     -11.909  11.554  70.678  1.00  0.00    -0.279 NA 
BRANCH   3   4
HETATM    4  C   UNL     1     -13.123  10.792  71.067  1.00  0.00    -0.248 C  
BRANCH   4   5
HETATM    5  C   UNL     1     -12.935   9.769  72.203  1.00  0.00    -0.394 C  
HETATM    6  H   UNL     1     -13.890   8.195  72.908  1.00  0.00     0.000 HD 
HETATM    7  O   UNL     1     -14.007   8.826  72.208  1.00  0.00    -0.430 OA 
ENDBRANCH   4   5
ENDBRANCH   3   4
BRANCH   3   8
HETATM    8  C   UNL     1     -11.343  11.029  69.411  1.00  0.00    -0.284 C  
BRANCH   8   9
HETATM    9  C   UNL     1     -11.116   9.502  69.368  1.00  0.00    -0.136 C  
BRANCH   9  10
HETATM   10  C   UNL     1      -9.722   9.058  68.890  1.00  0.00    -0.166 C  
BRANCH  10  11
HETATM   11  C   UNL     1      -8.765   8.658  70.029  1.00  0.00    -0.141 C  
HETATM   12  C   UNL     1      -9.259   7.422  70.786  1.00  0.00    -0.159 C  
BRANCH  11  13
HETATM   13  N   UNL     1      -7.414   8.384  69.489  1.00  0.00    -0.086 NA 
HETATM   14  H   UNL     1      -6.779   7.735  69.954  1.00  0.00     0.000 HD 
BRANCH  13  15
HETATM   15  C   UNL     1      -7.039   9.063  68.296  1.00  0.00    -0.077 A  
HETATM   16  C   UNL     1      -6.584  10.408  68.347  1.00  0.00    -0.059 A  
HETATM   17  C   UNL     1      -6.517  11.177  69.534  1.00  0.00    -0.117 A  
HETATM   18  C   UNL     1      -6.071  12.501  69.512  1.00  0.00    -0.120 A  
HETATM   19  C   UNL     1      -5.701  13.075  68.303  1.00  0.00    -0.080 A  
HETATM   20  C   UNL     1      -5.763  12.335  67.125  1.00  0.00    -0.103 A  
HETATM   21 CL   UNL     1      -5.158  14.707  68.255  1.00  0.00    -0.106 Cl 
HETATM   22  C   UNL     1      -6.186  11.019  67.130  1.00  0.00    -0.075 A  
HETATM   23  N   UNL     1      -6.185  10.376  65.955  1.00  0.00    -0.108 NA 
HETATM   24  C   UNL     1      -6.552   9.082  65.947  1.00  0.00    -0.064 A  
HETATM   25  C   UNL     1      -6.952   8.394  67.075  1.00  0.00    -0.074 A  
ENDBRANCH  13  15
ENDBRANCH  11  13
ENDBRANCH  10  11
ENDBRANCH   9  10
ENDBRANCH   8   9
ENDBRANCH   3   8
ENDBRANCH   2   3
TORSDOF 9
ENDMDL
MODEL      351
REMARK 921   NORMALIZED FREE ENERGY PREDICTED BY IDOCK:   -2.05 KCAL/MOL
REMARK 922        TOTAL FREE ENERGY PREDICTED BY IDOCK:   -4.35 KCAL/MOL
REMARK 923 INTER-LIGAND FREE ENERGY PREDICTED BY IDOCK:   -4.08 KCAL/MOL
REMARK 924 INTRA-LIGAND FREE ENERGY PREDICTED BY IDOCK:   -0.27 KCAL/MOL
REMARK 927      BINDING AFFINITY PREDICTED BY RF-SCORE:    0.00 PKD
ROOT
HETATM    1  C   UNL     1     -12.292  12.635  65.071  1.00  0.00    -0.561 C  
HETATM    2  C   UNL     1     -11.621  14.005  65.104  1.00  0.00    -0.342 C  
ENDROOT
BRANCH   2   3
HETATM    3  N   UNL     1     -10.840  14.309  66.326  1.00  0.00    -0.305 NA 
BRANCH   3   4
HETATM    4  C   UNL     1     -11.649  15.110  67.279  1.00  0.00    -0.223 C  
BRANCH   4   5
HETATM    5  C   UNL     1     -11.190  15.065  68.748  1.00  0.00    -0.277 C  
HETATM    6  H   UNL     1     -11.963  14.568  70.493  1.00  0.00     0.000 HD 
HETATM    7  O   UNL     1     -12.246  14.596  69.587  1.00  0.00    -0.314 OA 
ENDBRANCH   4   5
ENDBRANCH   3   4
BRANCH   3   8
HETATM    8  C   UNL     1     -10.393  13.041  66.951  1.00  0.00    -0.245 C  
BRANCH   8   9
HETATM    9  C   UNL     1      -8.963  12.588  66.584  1.00  0.00    -0.174 C  
BRANCH   9  10
HETATM   10  C   UNL     1      -8.574  11.180  67.069  1.00  0.00    -0.147 C  
BRANCH  10  11
HETATM   11  C   UNL     1      -7.323  11.148  67.968  1.00  0.00    -0.088 C  
HETATM   12  C   UNL     1      -7.686  11.094  69.455  1.00  0.00     0.026 C  
BRANCH  11  13
HETATM   13  N   UNL     1      -6.484   9.975  67.634  1.00  0.00    -0.063 NA 
HETATM   14  H   UNL     1      -5.512   9.915  67.939  1.00  0.00     0.000 HD 
BRANCH  13  15
HETATM   15  C   UNL     1      -7.087   8.937  66.871  1.00  0.00    -0.082 A  
HETATM   16  C   UNL     1      -7.815   7.901  67.515  1.00  0.00    -0.122 A  
HETATM   17  C   UNL     1      -7.953   7.786  68.920  1.00  0.00    -0.124 A  
HETATM   18  C   UNL     1      -8.674   6.734  69.490  1.00  0.00    -0.133 A  
HETATM   19  C   UNL     1      -9.251   5.778  68.665  1.00  0.00    -0.118 A  
HETATM   20  C   UNL     1      -9.123   5.872  67.282  1.00  0.00    -0.111 A  
HETATM   21 CL   UNL     1     -10.134   4.469  69.351  1.00  0.00    -0.216 Cl 
HETATM   22  C   UNL     1      -8.428   6.915  66.700  1.00  0.00    -0.121 A  
HETATM   23  N   UNL     1      -8.382   6.942  65.361  1.00  0.00    -0.136 NA 
HETATM   24  C   UNL     1      -7.746   7.973  64.775  1.00  0.00    -0.120 A  
HETATM   25  C   UNL     1      -7.122   8.985  65.478  1.00  0.00    -0.081 A  
ENDBRANCH  13  15
ENDBRANCH  11  13
ENDBRANCH  10  11
ENDBRANCH   9  10
ENDBRANCH   8   9
ENDBRANCH   3   8
ENDBRANCH   2   3
TORSDOF 9
ENDMDL
MODEL      352
REMARK 921   NORMALIZED FREE ENERGY PREDICTED BY IDOCK:   -2.02 KCAL/MOL
REMARK 922        TOTAL FREE ENERGY PREDICTED BY IDOCK:   -4.31 KCAL/MOL
REMARK 923 INTER-LIGAND FREE ENERGY PREDICTED BY IDOCK:   -3.53 KCAL/MOL
REMARK 924 INTRA-LIGAND FREE ENERGY PREDICTED BY IDOCK:   -0.78 KCAL/MOL
REMARK 927      BINDING AFFINITY PREDICTED BY RF-SCORE:    0.00 PKD
ROOT
HETATM    1  C   UNL     1     -11.405   5.905  70.874  1.00  0.00    -0.218 C  
HETATM    2  C   UNL     1     -10.016   6.131  71.463  1.00  0.00    -0.182 C  
ENDROOT
BRANCH   2   3
HETATM    3  N   UNL     1      -9.242   7.249  70.872  1.00  0.00    -0.155 NA 
BRANCH   3   4
HETATM    4  C   UNL     1      -8.208   6.735  69.939  1.00  0.00    -0.127 C  
BRANCH   4   5
HETATM    5  C   UNL     1      -6.762   7.176  70.234  1.00  0.00    -0.052 C  
HETATM    6  H   UNL     1      -5.846   8.789  70.903  1.00  0.00     0.000 HD 
HETATM    7  O   UNL     1      -6.738   8.517  70.721  1.00  0.00    -0.037 OA 
ENDBRANCH   4   5
ENDBRANCH   3   4
BRANCH   3   8
HETATM    8  C   UNL     1     -10.168   8.172  70.174  1.00  0.00    -0.199 C  
BRANCH   8   9
HETATM    9  C   UNL     1      -9.693   8.669  68.791  1.00  0.00    -0.171 C  
BRANCH   9  10
HETATM   10  C   UNL     1      -9.575  10.197  68.645  1.00  0.00    -0.165 C  
BRANCH  10  11
HETATM   11  C   UNL     1     -10.613  10.819  67.691  1.00  0.00    -0.231 C  
HETATM   12  C   UNL     1     -11.573  11.761  68.421  1.00  0.00    -0.380 C  
BRANCH  11  13
HETATM   13  N   UNL     1      -9.929  11.568  66.612  1.00  0.00    -0.203 NA 
HETATM   14  H   UNL     1     -10.455  12.125  65.938  1.00  0.00     0.000 HD 
BRANCH  13  15
HETATM   15  C   UNL     1      -8.510  11.481  66.555  1.00  0.00    -0.160 A  
HETATM   16  C   UNL     1      -7.881  10.590  65.643  1.00  0.00    -0.150 A  
HETATM   17  C   UNL     1      -8.583   9.710  64.784  1.00  0.00    -0.197 A  
HETATM   18  C   UNL     1      -7.901   8.850  63.919  1.00  0.00    -0.137 A  
HETATM   19  C   UNL     1      -6.513   8.850  63.913  1.00  0.00    -0.087 A  
HETATM   20  C   UNL     1      -5.806   9.706  64.752  1.00  0.00    -0.080 A  
HETATM   21 CL   UNL     1      -5.656   7.791  62.861  1.00  0.00    -0.054 Cl 
HETATM   22  C   UNL     1      -6.463  10.576  65.603  1.00  0.00    -0.119 A  
HETATM   23  N   UNL     1      -5.702  11.384  66.353  1.00  0.00    -0.144 NA 
HETATM   24  C   UNL     1      -6.324  12.266  67.155  1.00  0.00    -0.117 A  
HETATM   25  C   UNL     1      -7.698  12.364  67.264  1.00  0.00    -0.158 A  
ENDBRANCH  13  15
ENDBRANCH  11  13
ENDBRANCH  10  11
ENDBRANCH   9  10
ENDBRANCH   8   9
ENDBRANCH   3   8
ENDBRANCH   2   3
TORSDOF 9
ENDMDL
MODEL      353
REMARK 921   NORMALIZED FREE ENERGY PREDICTED BY IDOCK:   -1.99 KCAL/MOL
REMARK 922        TOTAL FREE ENERGY PREDICTED BY IDOCK:   -4.26 KCAL/MOL
REMARK 923 INTER-LIGAND FREE ENERGY PREDICTED BY IDOCK:   -3.74 KCAL/MOL
REMARK 924 INTRA-LIGAND FREE ENERGY PREDICTED BY IDOCK:   -0.53 KCAL/MOL
REMARK 927      BINDING AFFINITY PREDICTED BY RF-SCORE:    0.00 PKD
ROOT
HETATM    1  C   UNL     1     -12.126  12.766  63.995  1.00  0.00    -0.533 C  
HETATM    2  C   UNL     1     -12.195  13.172  65.464  1.00  0.00    -0.461 C  
ENDROOT
BRANCH   2   3
HETATM    3  N   UNL     1     -11.010  13.891  65.988  1.00  0.00    -0.284 NA 
BRANCH   3   4
HETATM    4  C   UNL     1     -11.379  14.720  67.163  1.00  0.00    -0.356 C  
BRANCH   4   5
HETATM    5  C   UNL     1     -10.378  15.829  67.540  1.00  0.00    -0.280 C  
HETATM    6  H   UNL     1     -10.267  17.793  67.394  1.00  0.00     0.000 HD 
HETATM    7  O   UNL     1     -10.884  17.109  67.161  1.00  0.00    -0.225 OA 
ENDBRANCH   4   5
ENDBRANCH   3   4
BRANCH   3   8
HETATM    8  C   UNL     1      -9.959  12.908  66.347  1.00  0.00    -0.267 C  
BRANCH   8   9
HETATM    9  C   UNL     1      -9.850  12.572  67.851  1.00  0.00    -0.207 C  
BRANCH   9  10
HETATM   10  C   UNL     1     -10.832  11.500  68.357  1.00  0.00    -0.250 C  
BRANCH  10  11
HETATM   11  C   UNL     1     -10.450  10.061  67.960  1.00  0.00    -0.218 C  
HETATM   12  C   UNL     1     -11.150   9.614  66.674  1.00  0.00     0.379 C  
BRANCH  11  13
HETATM   13  N   UNL     1      -8.985   9.954  67.773  1.00  0.00    -0.131 NA 
HETATM   14  H   UNL     1      -8.403  10.784  67.663  1.00  0.00     0.000 HD 
BRANCH  13  15
HETATM   15  C   UNL     1      -8.423   8.647  67.753  1.00  0.00    -0.125 A  
HETATM   16  C   UNL     1      -7.826   8.139  66.567  1.00  0.00    -0.093 A  
HETATM   17  C   UNL     1      -7.786   8.841  65.338  1.00  0.00    -0.089 A  
HETATM   18  C   UNL     1      -7.192   8.278  64.206  1.00  0.00    -0.089 A  
HETATM   19  C   UNL     1      -6.646   7.004  64.285  1.00  0.00    -0.039 A  
HETATM   20  C   UNL     1      -6.679   6.298  65.484  1.00  0.00    -0.048 A  
HETATM   21 CL   UNL     1      -5.919   6.291  62.897  1.00  0.00    -0.026 Cl 
HETATM   22  C   UNL     1      -7.247   6.845  66.619  1.00  0.00    -0.076 A  
HETATM   23  N   UNL     1      -7.207   6.106  67.736  1.00  0.00    -0.081 NA 
HETATM   24  C   UNL     1      -7.716   6.640  68.860  1.00  0.00    -0.109 A  
HETATM   25  C   UNL     1      -8.297   7.891  68.918  1.00  0.00    -0.127 A  
ENDBRANCH  13  15
ENDBRANCH  11  13
ENDBRANCH  10  11
ENDBRANCH   9  10
ENDBRANCH   8   9
ENDBRANCH   3   8
ENDBRANCH   2   3
TORSDOF 9
ENDMDL
MODEL      354
REMARK 921   NORMALIZED FREE ENERGY PREDICTED BY IDOCK:   -1.98 KCAL/MOL
REMARK 922        TOTAL FREE ENERGY PREDICTED BY IDOCK:   -4.25 KCAL/MOL
REMARK 923 INTER-LIGAND FREE ENERGY PREDICTED BY IDOCK:   -3.39 KCAL/MOL
REMARK 924 INTRA-LIGAND FREE ENERGY PREDICTED BY IDOCK:   -0.86 KCAL/MOL
REMARK 927      BINDING AFFINITY PREDICTED BY RF-SCORE:    0.00 PKD
ROOT
HETATM    1  C   UNL     1      -5.490   6.764  69.836  1.00  0.00    -0.015 C  
HETATM    2  C   UNL     1      -6.351   7.947  69.404  1.00  0.00    -0.035 C  
ENDROOT
BRANCH   2   3
HETATM    3  N   UNL     1      -7.016   7.811  68.086  1.00  0.00    -0.077 NA 
BRANCH   3   4
HETATM    4  C   UNL     1      -8.412   7.333  68.252  1.00  0.00    -0.124 C  
BRANCH   4   5
HETATM    5  C   UNL     1      -8.760   6.019  67.528  1.00  0.00    -0.107 C  
HETATM    6  H   UNL     1      -8.913   4.108  67.989  1.00  0.00     0.000 HD 
HETATM    7  O   UNL     1      -8.699   4.918  68.435  1.00  0.00    -0.100 OA 
ENDBRANCH   4   5
ENDBRANCH   3   4
BRANCH   3   8
HETATM    8  C   UNL     1      -6.987   9.117  67.384  1.00  0.00    -0.078 C  
BRANCH   8   9
HETATM    9  C   UNL     1      -8.178   9.390  66.440  1.00  0.00    -0.111 C  
BRANCH   9  10
HETATM   10  C   UNL     1      -8.207  10.791  65.806  1.00  0.00    -0.146 C  
BRANCH  10  11
HETATM   11  C   UNL     1      -9.611  11.425  65.744  1.00  0.00    -0.233 C  
HETATM   12  C   UNL     1     -10.657  10.449  65.199  1.00  0.00    -0.034 C  
BRANCH  11  13
HETATM   13  N   UNL     1     -10.028  11.875  67.092  1.00  0.00    -0.193 NA 
HETATM   14  H   UNL     1     -10.334  11.210  67.801  1.00  0.00     0.000 HD 
BRANCH  13  15
HETATM   15  C   UNL     1      -9.982  13.272  67.356  1.00  0.00    -0.233 A  
HETATM   16  C   UNL     1      -8.872  13.839  68.038  1.00  0.00    -0.182 A  
HETATM   17  C   UNL     1      -7.783  13.086  68.541  1.00  0.00    -0.111 A  
HETATM   18  C   UNL     1      -6.727  13.706  69.213  1.00  0.00    -0.094 A  
HETATM   19  C   UNL     1      -6.755  15.082  69.405  1.00  0.00    -0.158 A  
HETATM   20  C   UNL     1      -7.819  15.838  68.920  1.00  0.00    -0.190 A  
HETATM   21 CL   UNL     1      -5.468  15.861  70.240  1.00  0.00    -0.155 Cl 
HETATM   22  C   UNL     1      -8.864  15.244  68.238  1.00  0.00    -0.171 A  
HETATM   23  N   UNL     1      -9.829  16.053  67.782  1.00  0.00    -0.229 NA 
HETATM   24  C   UNL     1     -10.833  15.498  67.078  1.00  0.00    -0.314 A  
HETATM   25  C   UNL     1     -10.931  14.144  66.824  1.00  0.00    -0.300 A  
ENDBRANCH  13  15
ENDBRANCH  11  13
ENDBRANCH  10  11
ENDBRANCH   9  10
ENDBRANCH   8   9
ENDBRANCH   3   8
ENDBRANCH   2   3
TORSDOF 9
ENDMDL
MODEL      355
REMARK 921   NORMALIZED FREE ENERGY PREDICTED BY IDOCK:   -1.93 KCAL/MOL
REMARK 922        TOTAL FREE ENERGY PREDICTED BY IDOCK:   -4.17 KCAL/MOL
REMARK 923 INTER-LIGAND FREE ENERGY PREDICTED BY IDOCK:   -4.07 KCAL/MOL
REMARK 924 INTRA-LIGAND FREE ENERGY PREDICTED BY IDOCK:   -0.10 KCAL/MOL
REMARK 927      BINDING AFFINITY PREDICTED BY RF-SCORE:    0.00 PKD
ROOT
HETATM    1  C   UNL     1      -8.942  15.265  68.732  1.00  0.00    -0.200 C  
HETATM    2  C   UNL     1     -10.364  14.867  68.345  1.00  0.00    -0.233 C  
ENDROOT
BRANCH   2   3
HETATM    3  N   UNL     1     -10.649  13.412  68.354  1.00  0.00    -0.243 NA 
BRANCH   3   4
HETATM    4  C   UNL     1     -11.620  13.063  67.287  1.00  0.00    -0.356 C  
BRANCH   4   5
HETATM    5  C   UNL     1     -12.332  14.252  66.615  1.00  0.00    -0.286 C  
HETATM    6  H   UNL     1     -12.334  15.132  64.851  1.00  0.00     0.000 HD 
HETATM    7  O   UNL     1     -11.894  14.399  65.265  1.00  0.00    -0.353 OA 
ENDBRANCH   4   5
ENDBRANCH   3   4
BRANCH   3   8
HETATM    8  C   UNL     1      -9.381  12.663  68.180  1.00  0.00    -0.210 C  
BRANCH   8   9
HETATM    9  C   UNL     1      -9.538  11.162  67.849  1.00  0.00    -0.181 C  
BRANCH   9  10
HETATM   10  C   UNL     1      -8.225  10.409  67.573  1.00  0.00    -0.114 C  
BRANCH  10  11
HETATM   11  C   UNL     1      -8.004   9.180  68.477  1.00  0.00    -0.102 C  
HETATM   12  C   UNL     1      -8.482   9.427  69.910  1.00  0.00    -0.186 C  
BRANCH  11  13
HETATM   13  N   UNL     1      -8.719   8.007  67.926  1.00  0.00    -0.128 NA 
HETATM   14  H   UNL     1      -8.794   7.855  66.920  1.00  0.00     0.000 HD 
BRANCH  13  15
HETATM   15  C   UNL     1      -9.298   7.099  68.857  1.00  0.00    -0.139 A  
HETATM   16  C   UNL     1      -8.577   5.951  69.284  1.00  0.00    -0.112 A  
HETATM   17  C   UNL     1      -7.295   5.595  68.800  1.00  0.00    -0.083 A  
HETATM   18  C   UNL     1      -6.646   4.444  69.254  1.00  0.00    -0.040 A  
HETATM   19  C   UNL     1      -7.278   3.629  70.184  1.00  0.00    -0.041 A  
HETATM   20  C   UNL     1      -8.539   3.960  70.669  1.00  0.00    -0.108 A  
HETATM   21 CL   UNL     1      -6.497   2.201  70.747  1.00  0.00    -0.023 Cl 
HETATM   22  C   UNL     1      -9.189   5.104  70.244  1.00  0.00    -0.146 A  
HETATM   23  N   UNL     1     -10.387   5.359  70.786  1.00  0.00    -0.244 NA 
HETATM   24  C   UNL     1     -11.016   6.490  70.417  1.00  0.00    -0.298 A  
HETATM   25  C   UNL     1     -10.505   7.382  69.495  1.00  0.00    -0.236 A  
ENDBRANCH  13  15
ENDBRANCH  11  13
ENDBRANCH  10  11
ENDBRANCH   9  10
ENDBRANCH   8   9
ENDBRANCH   3   8
ENDBRANCH   2   3
TORSDOF 9
ENDMDL
MODEL      356
REMARK 921   NORMALIZED FREE ENERGY PREDICTED BY IDOCK:   -1.89 KCAL/MOL
REMARK 922        TOTAL FREE ENERGY PREDICTED BY IDOCK:   -4.11 KCAL/MOL
REMARK 923 INTER-LIGAND FREE ENERGY PREDICTED BY IDOCK:   -4.06 KCAL/MOL
REMARK 924 INTRA-LIGAND FREE ENERGY PREDICTED BY IDOCK:   -0.05 KCAL/MOL
REMARK 927      BINDING AFFINITY PREDICTED BY RF-SCORE:    0.00 PKD
ROOT
HETATM    1  C   UNL     1     -12.135  13.534  69.181  1.00  0.00    -0.331 C  
HETATM    2  C   UNL     1     -12.467  13.095  70.604  1.00  0.00    -0.286 C  
ENDROOT
BRANCH   2   3
HETATM    3  N   UNL     1     -12.274  11.654  70.893  1.00  0.00    -0.346 NA 
BRANCH   3   4
HETATM    4  C   UNL     1     -13.352  11.150  71.781  1.00  0.00    -0.274 C  
BRANCH   4   5
HETATM    5  C   UNL     1     -13.074   9.800  72.470  1.00  0.00    -0.116 C  
HETATM    6  H   UNL     1     -14.070   8.505  73.574  1.00  0.00     0.000 HD 
HETATM    7  O   UNL     1     -14.241   9.337  73.149  1.00  0.00    -0.275 OA 
ENDBRANCH   4   5
ENDBRANCH   3   4
BRANCH   3   8
HETATM    8  C   UNL     1     -12.244  10.898  69.618  1.00  0.00    -0.283 C  
BRANCH   8   9
HETATM    9  C   UNL     1     -11.167   9.794  69.526  1.00  0.00    -0.181 C  
BRANCH   9  10
HETATM   10  C   UNL     1     -10.058  10.043  68.490  1.00  0.00    -0.187 C  
BRANCH  10  11
HETATM   11  C   UNL     1      -8.903  10.924  69.005  1.00  0.00    -0.096 C  
HETATM   12  C   UNL     1      -7.949  10.145  69.915  1.00  0.00    -0.149 C  
BRANCH  11  13
HETATM   13  N   UNL     1      -8.137  11.480  67.867  1.00  0.00    -0.125 NA 
HETATM   14  H   UNL     1      -7.158  11.749  67.967  1.00  0.00     0.000 HD 
BRANCH  13  15
HETATM   15  C   UNL     1      -8.821  11.621  66.627  1.00  0.00    -0.187 A  
HETATM   16  C   UNL     1      -9.568  12.798  66.348  1.00  0.00    -0.254 A  
HETATM   17  C   UNL     1      -9.733  13.866  67.264  1.00  0.00    -0.245 A  
HETATM   18  C   UNL     1     -10.491  14.991  66.930  1.00  0.00    -0.279 A  
HETATM   19  C   UNL     1     -11.105  15.054  65.686  1.00  0.00    -0.349 A  
HETATM   20  C   UNL     1     -10.956  14.013  64.774  1.00  0.00    -0.410 A  
HETATM   21 CL   UNL     1     -12.051  16.428  65.261  1.00  0.00     1.299 Cl 
HETATM   22  C   UNL     1     -10.196  12.900  65.080  1.00  0.00    -0.271 A  
HETATM   23  N   UNL     1     -10.084  11.960  64.132  1.00  0.00    -0.301 NA 
HETATM   24  C   UNL     1      -9.313  10.890  64.396  1.00  0.00    -0.224 A  
HETATM   25  C   UNL     1      -8.656  10.698  65.595  1.00  0.00    -0.187 A  
ENDBRANCH  13  15
ENDBRANCH  11  13
ENDBRANCH  10  11
ENDBRANCH   9  10
ENDBRANCH   8   9
ENDBRANCH   3   8
ENDBRANCH   2   3
TORSDOF 9
ENDMDL
MODEL      357
REMARK 921   NORMALIZED FREE ENERGY PREDICTED BY IDOCK:   -1.85 KCAL/MOL
REMARK 922        TOTAL FREE ENERGY PREDICTED BY IDOCK:   -4.05 KCAL/MOL
REMARK 923 INTER-LIGAND FREE ENERGY PREDICTED BY IDOCK:   -3.76 KCAL/MOL
REMARK 924 INTRA-LIGAND FREE ENERGY PREDICTED BY IDOCK:   -0.29 KCAL/MOL
REMARK 927      BINDING AFFINITY PREDICTED BY RF-SCORE:    0.00 PKD
ROOT
HETATM    1  C   UNL     1      -6.704  15.577  69.168  1.00  0.00    -0.145 C  
HETATM    2  C   UNL     1      -8.095  15.910  68.638  1.00  0.00    -0.162 C  
ENDROOT
BRANCH   2   3
HETATM    3  N   UNL     1      -8.943  14.747  68.282  1.00  0.00    -0.175 NA 
BRANCH   3   4
HETATM    4  C   UNL     1      -9.446  14.872  66.891  1.00  0.00    -0.237 C  
BRANCH   4   5
HETATM    5  C   UNL     1     -10.977  14.813  66.726  1.00  0.00    -0.327 C  
HETATM    6  H   UNL     1     -12.272  13.955  65.512  1.00  0.00     0.000 HD 
HETATM    7  O   UNL     1     -11.328  13.992  65.613  1.00  0.00    -0.306 OA 
ENDBRANCH   4   5
ENDBRANCH   3   4
BRANCH   3   8
HETATM    8  C   UNL     1      -8.158  13.500  68.447  1.00  0.00    -0.145 C  
BRANCH   8   9
HETATM    9  C   UNL     1      -8.007  12.637  67.175  1.00  0.00    -0.123 C  
BRANCH   9  10
HETATM   10  C   UNL     1      -6.676  11.876  67.051  1.00  0.00    -0.119 C  
BRANCH  10  11
HETATM   11  C   UNL     1      -6.836  10.351  66.892  1.00  0.00    -0.088 C  
HETATM   12  C   UNL     1      -6.917   9.638  68.244  1.00  0.00    -0.073 C  
BRANCH  11  13
HETATM   13  N   UNL     1      -8.057  10.045  66.112  1.00  0.00    -0.119 NA 
HETATM   14  H   UNL     1      -8.227  10.473  65.202  1.00  0.00     0.000 HD 
BRANCH  13  15
HETATM   15  C   UNL     1      -8.984   9.128  66.684  1.00  0.00    -0.137 A  
HETATM   16  C   UNL     1      -8.966   7.758  66.307  1.00  0.00    -0.209 A  
HETATM   17  C   UNL     1      -8.095   7.218  65.330  1.00  0.00    -0.133 A  
HETATM   18  C   UNL     1      -8.138   5.861  64.998  1.00  0.00    -0.132 A  
HETATM   19  C   UNL     1      -9.061   5.035  65.626  1.00  0.00    -0.156 A  
HETATM   20  C   UNL     1      -9.926   5.549  66.587  1.00  0.00    -0.213 A  
HETATM   21 CL   UNL     1      -9.134   3.363  65.221  1.00  0.00    -0.140 Cl 
HETATM   22  C   UNL     1      -9.887   6.885  66.941  1.00  0.00    -0.183 A  
HETATM   23  N   UNL     1     -10.737   7.286  67.896  1.00  0.00    -0.198 NA 
HETATM   24  C   UNL     1     -10.684   8.573  68.283  1.00  0.00    -0.036 A  
HETATM   25  C   UNL     1      -9.822   9.502  67.735  1.00  0.00    -0.196 A  
ENDBRANCH  13  15
ENDBRANCH  11  13
ENDBRANCH  10  11
ENDBRANCH   9  10
ENDBRANCH   8   9
ENDBRANCH   3   8
ENDBRANCH   2   3
TORSDOF 9
ENDMDL
MODEL      358
REMARK 921   NORMALIZED FREE ENERGY PREDICTED BY IDOCK:   -1.71 KCAL/MOL
REMARK 922        TOTAL FREE ENERGY PREDICTED BY IDOCK:   -3.84 KCAL/MOL
REMARK 923 INTER-LIGAND FREE ENERGY PREDICTED BY IDOCK:   -3.53 KCAL/MOL
REMARK 924 INTRA-LIGAND FREE ENERGY PREDICTED BY IDOCK:   -0.31 KCAL/MOL
REMARK 927      BINDING AFFINITY PREDICTED BY RF-SCORE:    0.00 PKD
ROOT
HETATM    1  C   UNL     1      -9.954  13.627  66.390  1.00  0.00    -0.299 C  
HETATM    2  C   UNL     1      -9.316  14.182  67.659  1.00  0.00    -0.209 C  
ENDROOT
BRANCH   2   3
HETATM    3  N   UNL     1      -7.904  14.616  67.532  1.00  0.00    -0.178 NA 
BRANCH   3   4
HETATM    4  C   UNL     1      -7.544  15.553  68.626  1.00  0.00    -0.141 C  
BRANCH   4   5
HETATM    5  C   UNL     1      -7.631  17.051  68.280  1.00  0.00    -0.213 C  
HETATM    6  H   UNL     1      -6.862  18.740  68.946  1.00  0.00     0.000 HD 
HETATM    7  O   UNL     1      -6.808  17.816  69.160  1.00  0.00    -0.251 OA 
ENDBRANCH   4   5
ENDBRANCH   3   4
BRANCH   3   8
HETATM    8  C   UNL     1      -7.022  13.424  67.548  1.00  0.00    -0.142 C  
BRANCH   8   9
HETATM    9  C   UNL     1      -7.463  12.284  68.492  1.00  0.00    -0.113 C  
BRANCH   9  10
HETATM   10  C   UNL     1      -7.341  10.864  67.910  1.00  0.00    -0.088 C  
BRANCH  10  11
HETATM   11  C   UNL     1      -7.259  10.821  66.372  1.00  0.00    -0.138 C  
HETATM   12  C   UNL     1      -5.857  10.449  65.881  1.00  0.00    -0.099 C  
BRANCH  11  13
HETATM   13  N   UNL     1      -8.232   9.842  65.836  1.00  0.00    -0.121 NA 
HETATM   14  H   UNL     1      -9.052  10.144  65.309  1.00  0.00     0.000 HD 
BRANCH  13  15
HETATM   15  C   UNL     1      -7.977   8.464  66.086  1.00  0.00    -0.100 A  
HETATM   16  C   UNL     1      -8.716   7.765  67.078  1.00  0.00    -0.131 A  
HETATM   17  C   UNL     1      -9.693   8.366  67.908  1.00  0.00    -0.189 A  
HETATM   18  C   UNL     1     -10.376   7.622  68.874  1.00  0.00    -0.222 A  
HETATM   19  C   UNL     1     -10.078   6.275  69.031  1.00  0.00    -0.172 A  
HETATM   20  C   UNL     1      -9.118   5.668  68.227  1.00  0.00    -0.112 A  
HETATM   21 CL   UNL     1     -10.902   5.345  70.223  1.00  0.00    -0.292 Cl 
HETATM   22  C   UNL     1      -8.445   6.384  67.255  1.00  0.00    -0.111 A  
HETATM   23  N   UNL     1      -7.560   5.711  66.508  1.00  0.00    -0.091 NA 
HETATM   24  C   UNL     1      -6.926   6.381  65.529  1.00  0.00    -0.053 A  
HETATM   25  C   UNL     1      -7.121   7.724  65.271  1.00  0.00    -0.060 A  
ENDBRANCH  13  15
ENDBRANCH  11  13
ENDBRANCH  10  11
ENDBRANCH   9  10
ENDBRANCH   8   9
ENDBRANCH   3   8
ENDBRANCH   2   3
TORSDOF 9
ENDMDL
MODEL      359
REMARK 921   NORMALIZED FREE ENERGY PREDICTED BY IDOCK:   -1.57 KCAL/MOL
REMARK 922        TOTAL FREE ENERGY PREDICTED BY IDOCK:   -3.63 KCAL/MOL
REMARK 923 INTER-LIGAND FREE ENERGY PREDICTED BY IDOCK:   -3.66 KCAL/MOL
REMARK 924 INTRA-LIGAND FREE ENERGY PREDICTED BY IDOCK:    0.03 KCAL/MOL
REMARK 927      BINDING AFFINITY PREDICTED BY RF-SCORE:    0.00 PKD
ROOT
HETATM    1  C   UNL     1     -11.161   6.632  67.714  1.00  0.00    -0.332 C  
HETATM    2  C   UNL     1     -10.367   5.457  68.276  1.00  0.00    -0.146 C  
ENDROOT
BRANCH   2   3
HETATM    3  N   UNL     1      -8.947   5.735  68.597  1.00  0.00    -0.113 NA 
BRANCH   3   4
HETATM    4  C   UNL     1      -8.757   5.858  70.065  1.00  0.00    -0.133 C  
BRANCH   4   5
HETATM    5  C   UNL     1      -8.463   7.279  70.583  1.00  0.00    -0.140 C  
HETATM    6  H   UNL     1      -8.344   9.099  69.835  1.00  0.00     0.000 HD 
HETATM    7  O   UNL     1      -8.525   8.223  69.515  1.00  0.00    -0.122 OA 
ENDBRANCH   4   5
ENDBRANCH   3   4
BRANCH   3   8
HETATM    8  C   UNL     1      -8.098   4.651  68.046  1.00  0.00    -0.088 C  
BRANCH   8   9
HETATM    9  C   UNL     1      -6.575   4.870  68.177  1.00  0.00    -0.049 C  
BRANCH   9  10
HETATM   10  C   UNL     1      -5.823   5.070  66.849  1.00  0.00    -0.022 C  
BRANCH  10  11
HETATM   11  C   UNL     1      -6.707   5.589  65.698  1.00  0.00    -0.045 C  
HETATM   12  C   UNL     1      -7.915   4.682  65.448  1.00  0.00    -0.099 C  
BRANCH  11  13
HETATM   13  N   UNL     1      -7.187   6.957  66.000  1.00  0.00    -0.072 NA 
HETATM   14  H   UNL     1      -7.335   7.267  66.961  1.00  0.00     0.000 HD 
BRANCH  13  15
HETATM   15  C   UNL     1      -7.432   7.821  64.896  1.00  0.00    -0.094 A  
HETATM   16  C   UNL     1      -8.404   8.853  64.993  1.00  0.00    -0.174 A  
HETATM   17  C   UNL     1      -9.217   9.070  66.132  1.00  0.00    -0.272 A  
HETATM   18  C   UNL     1     -10.163  10.098  66.157  1.00  0.00    -0.285 A  
HETATM   19  C   UNL     1     -10.317  10.910  65.040  1.00  0.00    -0.288 A  
HETATM   20  C   UNL     1      -9.529  10.709  63.911  1.00  0.00    -0.325 A  
HETATM   21 CL   UNL     1     -11.485  12.174  65.050  1.00  0.00    -0.381 Cl 
HETATM   22  C   UNL     1      -8.576   9.708  63.874  1.00  0.00    -0.206 A  
HETATM   23  N   UNL     1      -7.843   9.608  62.757  1.00  0.00    -0.118 NA 
HETATM   24  C   UNL     1      -6.882   8.667  62.720  1.00  0.00    -0.090 A  
HETATM   25  C   UNL     1      -6.630   7.790  63.756  1.00  0.00    -0.062 A  
ENDBRANCH  13  15
ENDBRANCH  11  13
ENDBRANCH  10  11
ENDBRANCH   9  10
ENDBRANCH   8   9
ENDBRANCH   3   8
ENDBRANCH   2   3
TORSDOF 9
ENDMDL
MODEL      360
REMARK 921   NORMALIZED FREE ENERGY PREDICTED BY IDOCK:   -1.56 KCAL/MOL
REMARK 922        TOTAL FREE ENERGY PREDICTED BY IDOCK:   -3.61 KCAL/MOL
REMARK 923 INTER-LIGAND FREE ENERGY PREDICTED BY IDOCK:   -3.66 KCAL/MOL
REMARK 924 INTRA-LIGAND FREE ENERGY PREDICTED BY IDOCK:    0.05 KCAL/MOL
REMARK 927      BINDING AFFINITY PREDICTED BY RF-SCORE:    0.00 PKD
ROOT
HETATM    1  C   UNL     1      -9.962  13.745  66.378  1.00  0.00    -0.301 C  
HETATM    2  C   UNL     1      -9.399  14.733  67.397  1.00  0.00    -0.197 C  
ENDROOT
BRANCH   2   3
HETATM    3  N   UNL     1      -8.129  15.396  67.015  1.00  0.00    -0.216 NA 
BRANCH   3   4
HETATM    4  C   UNL     1      -7.987  16.696  67.717  1.00  0.00    -0.172 C  
BRANCH   4   5
HETATM    5  C   UNL     1      -8.432  17.938  66.922  1.00  0.00    -0.244 C  
HETATM    6  H   UNL     1      -8.094  19.880  66.958  1.00  0.00     0.000 HD 
HETATM    7  O   UNL     1      -7.819  19.114  67.448  1.00  0.00    -0.241 OA 
ENDBRANCH   4   5
ENDBRANCH   3   4
BRANCH   3   8
HETATM    8  C   UNL     1      -6.993  14.498  67.334  1.00  0.00    -0.077 C  
BRANCH   8   9
HETATM    9  C   UNL     1      -6.992  13.909  68.762  1.00  0.00    -0.108 C  
BRANCH   9  10
HETATM   10  C   UNL     1      -6.868  12.378  68.842  1.00  0.00    -0.099 C  
BRANCH  10  11
HETATM   11  C   UNL     1      -7.344  11.642  67.574  1.00  0.00    -0.119 C  
HETATM   12  C   UNL     1      -6.198  10.907  66.872  1.00  0.00    -0.087 C  
BRANCH  11  13
HETATM   13  N   UNL     1      -8.403  10.666  67.918  1.00  0.00    -0.118 NA 
HETATM   14  H   UNL     1      -9.322  10.705  67.479  1.00  0.00     0.000 HD 
BRANCH  13  15
HETATM   15  C   UNL     1      -8.085   9.670  68.884  1.00  0.00    -0.098 A  
HETATM   16  C   UNL     1      -9.094   9.149  69.738  1.00  0.00    -0.173 A  
HETATM   17  C   UNL     1     -10.438   9.595  69.739  1.00  0.00    -0.263 A  
HETATM   18  C   UNL     1     -11.379   9.047  70.614  1.00  0.00    -0.311 A  
HETATM   19  C   UNL     1     -10.983   8.061  71.509  1.00  0.00    -0.234 A  
HETATM   20  C   UNL     1      -9.666   7.613  71.525  1.00  0.00    -0.191 A  
HETATM   21 CL   UNL     1     -12.127   7.382  72.602  1.00  0.00    -0.107 Cl 
HETATM   22  C   UNL     1      -8.725   8.131  70.655  1.00  0.00    -0.135 A  
HETATM   23  N   UNL     1      -7.489   7.619  70.721  1.00  0.00    -0.070 NA 
HETATM   24  C   UNL     1      -6.571   8.081  69.852  1.00  0.00    -0.036 A  
HETATM   25  C   UNL     1      -6.829   9.066  68.919  1.00  0.00    -0.057 A  
ENDBRANCH  13  15
ENDBRANCH  11  13
ENDBRANCH  10  11
ENDBRANCH   9  10
ENDBRANCH   8   9
ENDBRANCH   3   8
ENDBRANCH   2   3
TORSDOF 9
ENDMDL
MODEL      361
REMARK 921   NORMALIZED FREE ENERGY PREDICTED BY IDOCK:   -1.42 KCAL/MOL
REMARK 922        TOTAL FREE ENERGY PREDICTED BY IDOCK:   -3.39 KCAL/MOL
REMARK 923 INTER-LIGAND FREE ENERGY PREDICTED BY IDOCK:   -4.04 KCAL/MOL
REMARK 924 INTRA-LIGAND FREE ENERGY PREDICTED BY IDOCK:    0.65 KCAL/MOL
REMARK 927      BINDING AFFINITY PREDICTED BY RF-SCORE:    0.00 PKD
ROOT
HETATM    1  C   UNL     1      -9.680  10.136  65.353  1.00  0.00    -0.355 C  
HETATM    2  C   UNL     1      -8.932  10.733  66.541  1.00  0.00    -0.156 C  
ENDROOT
BRANCH   2   3
HETATM    3  N   UNL     1      -9.776  11.176  67.676  1.00  0.00    -0.168 NA 
BRANCH   3   4
HETATM    4  C   UNL     1     -10.522  12.410  67.322  1.00  0.00    -0.222 C  
BRANCH   4   5
HETATM    5  C   UNL     1     -10.478  13.541  68.368  1.00  0.00    -0.246 C  
HETATM    6  H   UNL     1     -11.722  14.380  69.647  1.00  0.00     0.000 HD 
HETATM    7  O   UNL     1     -11.749  13.684  69.002  1.00  0.00    -0.286 OA 
ENDBRANCH   4   5
ENDBRANCH   3   4
BRANCH   3   8
HETATM    8  C   UNL     1     -10.709  10.086  68.048  1.00  0.00    -0.256 C  
BRANCH   8   9
HETATM    9  C   UNL     1     -10.457   9.438  69.427  1.00  0.00    -0.231 C  
BRANCH   9  10
HETATM   10  C   UNL     1      -9.044   9.645  70.002  1.00  0.00    -0.269 C  
BRANCH  10  11
HETATM   11  C   UNL     1      -8.350   8.343  70.446  1.00  0.00    -0.121 C  
HETATM   12  C   UNL     1      -7.947   8.381  71.922  1.00  0.00    -0.180 C  
BRANCH  11  13
HETATM   13  N   UNL     1      -9.244   7.184  70.221  1.00  0.00    -0.156 NA 
HETATM   14  H   UNL     1      -9.710   6.715  70.997  1.00  0.00     0.000 HD 
BRANCH  13  15
HETATM   15  C   UNL     1      -9.428   6.753  68.877  1.00  0.00    -0.128 A  
HETATM   16  C   UNL     1      -8.454   7.053  67.886  1.00  0.00    -0.124 A  
HETATM   17  C   UNL     1      -7.289   7.821  68.128  1.00  0.00    -0.106 A  
HETATM   18  C   UNL     1      -6.377   8.089  67.105  1.00  0.00    -0.056 A  
HETATM   19  C   UNL     1      -6.626   7.606  65.827  1.00  0.00    -0.045 A  
HETATM   20  C   UNL     1      -7.767   6.852  65.569  1.00  0.00    -0.101 A  
HETATM   21 CL   UNL     1      -5.517   7.935  64.551  1.00  0.00    -0.040 Cl 
HETATM   22  C   UNL     1      -8.672   6.562  66.573  1.00  0.00    -0.134 A  
HETATM   23  N   UNL     1      -9.726   5.805  66.241  1.00  0.00    -0.145 NA 
HETATM   24  C   UNL     1     -10.595   5.477  67.214  1.00  0.00    -0.219 A  
HETATM   25  C   UNL     1     -10.472   5.899  68.523  1.00  0.00    -0.297 A  
ENDBRANCH  13  15
ENDBRANCH  11  13
ENDBRANCH  10  11
ENDBRANCH   9  10
ENDBRANCH   8   9
ENDBRANCH   3   8
ENDBRANCH   2   3
TORSDOF 9
ENDMDL
MODEL      362
REMARK 921   NORMALIZED FREE ENERGY PREDICTED BY IDOCK:   -1.27 KCAL/MOL
REMARK 922        TOTAL FREE ENERGY PREDICTED BY IDOCK:   -3.16 KCAL/MOL
REMARK 923 INTER-LIGAND FREE ENERGY PREDICTED BY IDOCK:   -2.95 KCAL/MOL
REMARK 924 INTRA-LIGAND FREE ENERGY PREDICTED BY IDOCK:   -0.21 KCAL/MOL
REMARK 927      BINDING AFFINITY PREDICTED BY RF-SCORE:    0.00 PKD
ROOT
HETATM    1  C   UNL     1      -8.893  15.254  68.680  1.00  0.00    -0.188 C  
HETATM    2  C   UNL     1     -10.099  14.884  67.821  1.00  0.00    -0.234 C  
ENDROOT
BRANCH   2   3
HETATM    3  N   UNL     1     -10.304  13.434  67.592  1.00  0.00    -0.235 NA 
BRANCH   3   4
HETATM    4  C   UNL     1     -10.580  13.165  66.158  1.00  0.00    -0.279 C  
BRANCH   4   5
HETATM    5  C   UNL     1     -10.739  14.409  65.263  1.00  0.00    -0.375 C  
HETATM    6  H   UNL     1     -12.013  15.066  63.909  1.00  0.00     0.000 HD 
HETATM    7  O   UNL     1     -11.915  14.299  64.461  1.00  0.00    -0.420 OA 
ENDBRANCH   4   5
ENDBRANCH   3   4
BRANCH   3   8
HETATM    8  C   UNL     1      -9.103  12.691  68.045  1.00  0.00    -0.207 C  
BRANCH   8   9
HETATM    9  C   UNL     1      -8.984  11.242  67.525  1.00  0.00    -0.140 C  
BRANCH   9  10
HETATM   10  C   UNL     1      -7.635  10.884  66.878  1.00  0.00    -0.128 C  
BRANCH  10  11
HETATM   11  C   UNL     1      -6.979   9.614  67.455  1.00  0.00    -0.084 C  
HETATM   12  C   UNL     1      -5.636   9.915  68.125  1.00  0.00    -0.039 C  
BRANCH  11  13
HETATM   13  N   UNL     1      -7.879   8.978  68.444  1.00  0.00    -0.102 NA 
HETATM   14  H   UNL     1      -8.890   8.972  68.314  1.00  0.00     0.000 HD 
BRANCH  13  15
HETATM   15  C   UNL     1      -7.275   8.376  69.583  1.00  0.00    -0.057 A  
HETATM   16  C   UNL     1      -6.888   7.009  69.554  1.00  0.00    -0.051 A  
HETATM   17  C   UNL     1      -7.109   6.148  68.452  1.00  0.00    -0.082 A  
HETATM   18  C   UNL     1      -6.713   4.808  68.493  1.00  0.00    -0.050 A  
HETATM   19  C   UNL     1      -6.108   4.312  69.640  1.00  0.00    -0.023 A  
HETATM   20  C   UNL     1      -5.885   5.143  70.734  1.00  0.00    -0.017 A  
HETATM   21 CL   UNL     1      -5.623   2.662  69.712  1.00  0.00    -0.016 Cl 
HETATM   22  C   UNL     1      -6.254   6.475  70.705  1.00  0.00    -0.035 A  
HETATM   23  N   UNL     1      -5.974   7.207  71.792  1.00  0.00    -0.037 NA 
HETATM   24  C   UNL     1      -6.287   8.515  71.765  1.00  0.00    -0.067 A  
HETATM   25  C   UNL     1      -6.901   9.133  70.693  1.00  0.00    -0.084 A  
ENDBRANCH  13  15
ENDBRANCH  11  13
ENDBRANCH  10  11
ENDBRANCH   9  10
ENDBRANCH   8   9
ENDBRANCH   3   8
ENDBRANCH   2   3
TORSDOF 9
ENDMDL
MODEL      363
REMARK 921   NORMALIZED FREE ENERGY PREDICTED BY IDOCK:   -0.99 KCAL/MOL
REMARK 922        TOTAL FREE ENERGY PREDICTED BY IDOCK:   -2.74 KCAL/MOL
REMARK 923 INTER-LIGAND FREE ENERGY PREDICTED BY IDOCK:   -2.27 KCAL/MOL
REMARK 924 INTRA-LIGAND FREE ENERGY PREDICTED BY IDOCK:   -0.47 KCAL/MOL
REMARK 927      BINDING AFFINITY PREDICTED BY RF-SCORE:    0.00 PKD
ROOT
HETATM    1  C   UNL     1      -5.431  11.516  67.317  1.00  0.00    -0.079 C  
HETATM    2  C   UNL     1      -6.723  10.729  67.522  1.00  0.00    -0.073 C  
ENDROOT
BRANCH   2   3
HETATM    3  N   UNL     1      -7.848  11.484  68.122  1.00  0.00    -0.120 NA 
BRANCH   3   4
HETATM    4  C   UNL     1      -8.606  12.214  67.075  1.00  0.00    -0.191 C  
BRANCH   4   5
HETATM    5  C   UNL     1      -8.543  13.751  67.152  1.00  0.00    -0.198 C  
HETATM    6  H   UNL     1      -7.347  15.115  67.923  1.00  0.00     0.000 HD 
HETATM    7  O   UNL     1      -7.386  14.167  67.876  1.00  0.00    -0.122 OA 
ENDBRANCH   4   5
ENDBRANCH   3   4
BRANCH   3   8
HETATM    8  C   UNL     1      -8.732  10.546  68.856  1.00  0.00    -0.154 C  
BRANCH   8   9
HETATM    9  C   UNL     1      -8.194   9.106  69.004  1.00  0.00    -0.115 C  
BRANCH   9  10
HETATM   10  C   UNL     1      -7.214   8.887  70.171  1.00  0.00    -0.057 C  
BRANCH  10  11
HETATM   11  C   UNL     1      -6.732   7.431  70.321  1.00  0.00    -0.047 C  
HETATM   12  C   UNL     1      -5.555   7.313  71.293  1.00  0.00    -0.035 C  
BRANCH  11  13
HETATM   13  N   UNL     1      -7.840   6.573  70.801  1.00  0.00    -0.104 NA 
HETATM   14  H   UNL     1      -8.568   6.941  71.413  1.00  0.00     0.000 HD 
BRANCH  13  15
HETATM   15  C   UNL     1      -7.847   5.216  70.373  1.00  0.00    -0.075 A  
HETATM   16  C   UNL     1      -8.242   4.881  69.050  1.00  0.00    -0.082 A  
HETATM   17  C   UNL     1      -8.696   5.825  68.097  1.00  0.00    -0.107 A  
HETATM   18  C   UNL     1      -9.082   5.426  66.814  1.00  0.00    -0.116 A  
HETATM   19  C   UNL     1      -9.033   4.080  66.476  1.00  0.00    -0.129 A  
HETATM   20  C   UNL     1      -8.592   3.138  67.401  1.00  0.00    -0.124 A  
HETATM   21 CL   UNL     1      -9.514   3.570  64.904  1.00  0.00    -0.152 Cl 
HETATM   22  C   UNL     1      -8.191   3.516  68.669  1.00  0.00    -0.068 A  
HETATM   23  N   UNL     1      -7.753   2.545  69.482  1.00  0.00    -0.043 NA 
HETATM   24  C   UNL     1      -7.318   2.900  70.705  1.00  0.00    -0.037 A  
HETATM   25  C   UNL     1      -7.322   4.199  71.171  1.00  0.00    -0.044 A  
ENDBRANCH  13  15
ENDBRANCH  11  13
ENDBRANCH  10  11
ENDBRANCH   9  10
ENDBRANCH   8   9
ENDBRANCH   3   8
ENDBRANCH   2   3
TORSDOF 9
ENDMDL
MODEL      364
REMARK 921   NORMALIZED FREE ENERGY PREDICTED BY IDOCK:   -0.83 KCAL/MOL
REMARK 922        TOTAL FREE ENERGY PREDICTED BY IDOCK:   -2.50 KCAL/MOL
REMARK 923 INTER-LIGAND FREE ENERGY PREDICTED BY IDOCK:   -2.13 KCAL/MOL
REMARK 924 INTRA-LIGAND FREE ENERGY PREDICTED BY IDOCK:   -0.37 KCAL/MOL
REMARK 927      BINDING AFFINITY PREDICTED BY RF-SCORE:    0.00 PKD
ROOT
HETATM    1  C   UNL     1      -5.428  11.509  67.318  1.00  0.00    -0.079 C  
HETATM    2  C   UNL     1      -6.699  10.699  67.555  1.00  0.00    -0.070 C  
ENDROOT
BRANCH   2   3
HETATM    3  N   UNL     1      -7.833  11.442  68.153  1.00  0.00    -0.122 NA 
BRANCH   3   4
HETATM    4  C   UNL     1      -8.636  12.110  67.098  1.00  0.00    -0.185 C  
BRANCH   4   5
HETATM    5  C   UNL     1      -8.606  13.650  67.109  1.00  0.00    -0.192 C  
HETATM    6  H   UNL     1      -7.418  15.071  67.786  1.00  0.00     0.000 HD 
HETATM    7  O   UNL     1      -7.437  14.122  67.779  1.00  0.00    -0.131 OA 
ENDBRANCH   4   5
ENDBRANCH   3   4
BRANCH   3   8
HETATM    8  C   UNL     1      -8.672  10.506  68.940  1.00  0.00    -0.154 C  
BRANCH   8   9
HETATM    9  C   UNL     1      -8.094   9.084  69.115  1.00  0.00    -0.109 C  
BRANCH   9  10
HETATM   10  C   UNL     1      -7.041   8.935  70.227  1.00  0.00    -0.049 C  
BRANCH  10  11
HETATM   11  C   UNL     1      -6.536   7.493  70.425  1.00  0.00    -0.038 C  
HETATM   12  C   UNL     1      -5.262   7.215  69.623  1.00  0.00    -0.015 C  
BRANCH  11  13
HETATM   13  N   UNL     1      -6.267   7.238  71.859  1.00  0.00    -0.040 NA 
HETATM   14  H   UNL     1      -5.954   7.984  72.480  1.00  0.00     0.000 HD 
BRANCH  13  15
HETATM   15  C   UNL     1      -6.464   5.912  72.334  1.00  0.00    -0.058 A  
HETATM   16  C   UNL     1      -7.776   5.420  72.573  1.00  0.00    -0.102 A  
HETATM   17  C   UNL     1      -8.951   6.194  72.416  1.00  0.00    -0.136 A  
HETATM   18  C   UNL     1     -10.212   5.652  72.679  1.00  0.00    -0.216 A  
HETATM   19  C   UNL     1     -10.310   4.338  73.117  1.00  0.00    -0.171 A  
HETATM   20  C   UNL     1      -9.165   3.563  73.280  1.00  0.00    -0.115 A  
HETATM   21 CL   UNL     1     -11.854   3.657  73.456  1.00  0.00    -0.016 Cl 
HETATM   22  C   UNL     1      -7.911   4.077  73.008  1.00  0.00    -0.085 A  
HETATM   23  N   UNL     1      -6.869   3.250  73.165  1.00  0.00    -0.037 NA 
HETATM   24  C   UNL     1      -5.645   3.720  72.864  1.00  0.00     0.000 A  
HETATM   25  C   UNL     1      -5.406   5.008  72.428  1.00  0.00    -0.008 A  
ENDBRANCH  13  15
ENDBRANCH  11  13
ENDBRANCH  10  11
ENDBRANCH   9  10
ENDBRANCH   8   9
ENDBRANCH   3   8
ENDBRANCH   2   3
TORSDOF 9
ENDMDL
MODEL      365
REMARK 921   NORMALIZED FREE ENERGY PREDICTED BY IDOCK:   -0.82 KCAL/MOL
REMARK 922        TOTAL FREE ENERGY PREDICTED BY IDOCK:   -2.48 KCAL/MOL
REMARK 923 INTER-LIGAND FREE ENERGY PREDICTED BY IDOCK:   -2.86 KCAL/MOL
REMARK 924 INTRA-LIGAND FREE ENERGY PREDICTED BY IDOCK:    0.38 KCAL/MOL
REMARK 927      BINDING AFFINITY PREDICTED BY RF-SCORE:    0.00 PKD
ROOT
HETATM    1  C   UNL     1     -10.381   8.831  71.864  1.00  0.00    -0.414 C  
HETATM    2  C   UNL     1     -10.864   8.519  70.451  1.00  0.00    -0.234 C  
ENDROOT
BRANCH   2   3
HETATM    3  N   UNL     1     -11.457   9.658  69.709  1.00  0.00    -0.121 NA 
BRANCH   3   4
HETATM    4  C   UNL     1     -12.376  10.430  70.582  1.00  0.00    -0.346 C  
BRANCH   4   5
HETATM    5  C   UNL     1     -12.156  11.954  70.603  1.00  0.00    -0.294 C  
HETATM    6  H   UNL     1     -12.431  13.474  69.377  1.00  0.00     0.000 HD 
HETATM    7  O   UNL     1     -12.566  12.534  69.365  1.00  0.00     0.174 OA 
ENDBRANCH   4   5
ENDBRANCH   3   4
BRANCH   3   8
HETATM    8  C   UNL     1     -10.371  10.525  69.191  1.00  0.00    -0.220 C  
BRANCH   8   9
HETATM    9  C   UNL     1      -8.935  10.050  69.508  1.00  0.00    -0.220 C  
BRANCH   9  10
HETATM   10  C   UNL     1      -8.162   9.454  68.319  1.00  0.00    -0.118 C  
BRANCH  10  11
HETATM   11  C   UNL     1      -7.762  10.488  67.248  1.00  0.00    -0.106 C  
HETATM   12  C   UNL     1      -6.255  10.481  66.977  1.00  0.00    -0.066 C  
BRANCH  11  13
HETATM   13  N   UNL     1      -8.480  10.216  65.982  1.00  0.00    -0.128 NA 
HETATM   14  H   UNL     1      -9.482  10.383  65.895  1.00  0.00     0.000 HD 
BRANCH  13  15
HETATM   15  C   UNL     1      -7.715   9.713  64.893  1.00  0.00    -0.120 A  
HETATM   16  C   UNL     1      -7.565   8.312  64.706  1.00  0.00    -0.103 A  
HETATM   17  C   UNL     1      -8.099   7.335  65.582  1.00  0.00    -0.133 A  
HETATM   18  C   UNL     1      -7.904   5.972  65.345  1.00  0.00    -0.104 A  
HETATM   19  C   UNL     1      -7.163   5.571  64.242  1.00  0.00    -0.051 A  
HETATM   20  C   UNL     1      -6.628   6.516  63.372  1.00  0.00    -0.040 A  
HETATM   21 CL   UNL     1      -6.905   3.895  63.941  1.00  0.00    -0.043 Cl 
HETATM   22  C   UNL     1      -6.824   7.869  63.580  1.00  0.00    -0.074 A  
HETATM   23  N   UNL     1      -6.299   8.706  62.676  1.00  0.00    -0.091 NA 
HETATM   24  C   UNL     1      -6.516  10.023  62.839  1.00  0.00    -0.128 A  
HETATM   25  C   UNL     1      -7.226  10.556  63.896  1.00  0.00     0.120 A  
ENDBRANCH  13  15
ENDBRANCH  11  13
ENDBRANCH  10  11
ENDBRANCH   9  10
ENDBRANCH   8   9
ENDBRANCH   3   8
ENDBRANCH   2   3
TORSDOF 9
ENDMDL
MODEL      366
REMARK 921   NORMALIZED FREE ENERGY PREDICTED BY IDOCK:   -0.69 KCAL/MOL
REMARK 922        TOTAL FREE ENERGY PREDICTED BY IDOCK:   -2.28 KCAL/MOL
REMARK 923 INTER-LIGAND FREE ENERGY PREDICTED BY IDOCK:   -2.53 KCAL/MOL
REMARK 924 INTRA-LIGAND FREE ENERGY PREDICTED BY IDOCK:    0.25 KCAL/MOL
REMARK 927      BINDING AFFINITY PREDICTED BY RF-SCORE:    0.00 PKD
ROOT
HETATM    1  C   UNL     1     -11.014   6.855  66.775  1.00  0.00    -0.195 C  
HETATM    2  C   UNL     1     -10.815   5.463  67.369  1.00  0.00     0.070 C  
ENDROOT
BRANCH   2   3
HETATM    3  N   UNL     1      -9.668   5.318  68.297  1.00  0.00    -0.133 NA 
BRANCH   3   4
HETATM    4  C   UNL     1     -10.129   5.340  69.708  1.00  0.00    -0.264 C  
BRANCH   4   5
HETATM    5  C   UNL     1      -9.732   6.586  70.522  1.00  0.00    -0.172 C  
HETATM    6  H   UNL     1     -10.479   8.371  70.897  1.00  0.00     0.000 HD 
HETATM    7  O   UNL     1     -10.724   7.603  70.394  1.00  0.00    -0.227 OA 
ENDBRANCH   4   5
ENDBRANCH   3   4
BRANCH   3   8
HETATM    8  C   UNL     1      -8.952   4.054  67.996  1.00  0.00    -0.121 C  
BRANCH   8   9
HETATM    9  C   UNL     1      -7.677   3.800  68.831  1.00  0.00    -0.053 C  
BRANCH   9  10
HETATM   10  C   UNL     1      -6.379   4.379  68.242  1.00  0.00    -0.037 C  
BRANCH  10  11
HETATM   11  C   UNL     1      -6.589   5.229  66.974  1.00  0.00    -0.053 C  
HETATM   12  C   UNL     1      -7.351   4.464  65.889  1.00  0.00    -0.077 C  
BRANCH  11  13
HETATM   13  N   UNL     1      -7.334   6.465  67.305  1.00  0.00    -0.085 NA 
HETATM   14  H   UNL     1      -8.074   6.466  68.007  1.00  0.00     0.000 HD 
BRANCH  13  15
HETATM   15  C   UNL     1      -6.976   7.650  66.604  1.00  0.00    -0.078 A  
HETATM   16  C   UNL     1      -7.494   8.910  67.009  1.00  0.00    -0.087 A  
HETATM   17  C   UNL     1      -8.416   9.082  68.071  1.00  0.00    -0.125 A  
HETATM   18  C   UNL     1      -8.896  10.349  68.411  1.00  0.00    -0.136 A  
HETATM   19  C   UNL     1      -8.472  11.455  67.685  1.00  0.00    -0.130 A  
HETATM   20  C   UNL     1      -7.569  11.305  66.637  1.00  0.00    -0.140 A  
HETATM   21 CL   UNL     1      -9.061  13.023  68.084  1.00  0.00    -0.202 Cl 
HETATM   22  C   UNL     1      -7.070  10.061  66.297  1.00  0.00    -0.105 A  
HETATM   23  N   UNL     1      -6.183  10.015  65.294  1.00  0.00    -0.097 NA 
HETATM   24  C   UNL     1      -5.655   8.820  64.978  1.00  0.00    -0.047 A  
HETATM   25  C   UNL     1      -5.996   7.641  65.612  1.00  0.00    -0.038 A  
ENDBRANCH  13  15
ENDBRANCH  11  13
ENDBRANCH  10  11
ENDBRANCH   9  10
ENDBRANCH   8   9
ENDBRANCH   3   8
ENDBRANCH   2   3
TORSDOF 9
ENDMDL
MODEL      367
REMARK 921   NORMALIZED FREE ENERGY PREDICTED BY IDOCK:   -0.33 KCAL/MOL
REMARK 922        TOTAL FREE ENERGY PREDICTED BY IDOCK:   -1.73 KCAL/MOL
REMARK 923 INTER-LIGAND FREE ENERGY PREDICTED BY IDOCK:   -3.34 KCAL/MOL
REMARK 924 INTRA-LIGAND FREE ENERGY PREDICTED BY IDOCK:    1.61 KCAL/MOL
REMARK 927      BINDING AFFINITY PREDICTED BY RF-SCORE:    0.00 PKD
ROOT
HETATM    1  C   UNL     1     -10.799  10.119  68.164  1.00  0.00    -0.310 C  
HETATM    2  C   UNL     1     -10.390   8.941  67.285  1.00  0.00    -0.280 C  
ENDROOT
BRANCH   2   3
HETATM    3  N   UNL     1      -9.384   9.240  66.237  1.00  0.00    -0.182 NA 
BRANCH   3   4
HETATM    4  C   UNL     1      -8.098   9.658  66.850  1.00  0.00    -0.113 C  
BRANCH   4   5
HETATM    5  C   UNL     1      -7.484   8.666  67.857  1.00  0.00    -0.097 C  
HETATM    6  H   UNL     1      -7.285   8.523  69.813  1.00  0.00     0.000 HD 
HETATM    7  O   UNL     1      -7.664   9.134  69.193  1.00  0.00    -0.078 OA 
ENDBRANCH   4   5
ENDBRANCH   3   4
BRANCH   3   8
HETATM    8  C   UNL     1      -9.196   8.042  65.383  1.00  0.00     0.264 C  
BRANCH   8   9
HETATM    9  C   UNL     1      -7.736   7.739  64.979  1.00  0.00    -0.107 C  
BRANCH   9  10
HETATM   10  C   UNL     1      -7.344   6.251  64.999  1.00  0.00    -0.078 C  
BRANCH  10  11
HETATM   11  C   UNL     1      -8.519   5.296  65.284  1.00  0.00    -0.147 C  
HETATM   12  C   UNL     1      -8.061   3.839  65.391  1.00  0.00    -0.097 C  
BRANCH  11  13
HETATM   13  N   UNL     1      -9.197   5.681  66.542  1.00  0.00    -0.139 NA 
HETATM   14  H   UNL     1     -10.123   6.108  66.536  1.00  0.00     0.000 HD 
BRANCH  13  15
HETATM   15  C   UNL     1      -8.504   5.432  67.760  1.00  0.00    -0.105 A  
HETATM   16  C   UNL     1      -9.182   5.525  69.005  1.00  0.00    -0.143 A  
HETATM   17  C   UNL     1     -10.539   5.910  69.141  1.00  0.00    -0.369 A  
HETATM   18  C   UNL     1     -11.142   5.993  70.398  1.00  0.00    -0.399 A  
HETATM   19  C   UNL     1     -10.394   5.708  71.533  1.00  0.00    -0.222 A  
HETATM   20  C   UNL     1      -9.059   5.331  71.419  1.00  0.00    -0.167 A  
HETATM   21 CL   UNL     1     -11.118   5.815  73.091  1.00  0.00    -0.302 Cl 
HETATM   22  C   UNL     1      -8.450   5.227  70.183  1.00  0.00    -0.109 A  
HETATM   23  N   UNL     1      -7.171   4.829  70.167  1.00  0.00    -0.049 NA 
HETATM   24  C   UNL     1      -6.574   4.681  68.971  1.00  0.00    -0.045 A  
HETATM   25  C   UNL     1      -7.199   4.940  67.767  1.00  0.00    -0.070 A  
ENDBRANCH  13  15
ENDBRANCH  11  13
ENDBRANCH  10  11
ENDBRANCH   9  10
ENDBRANCH   8   9
ENDBRANCH   3   8
ENDBRANCH   2   3
TORSDOF 9
ENDMDL
MODEL      368
REMARK 921   NORMALIZED FREE ENERGY PREDICTED BY IDOCK:    7.54 KCAL/MOL
REMARK 922        TOTAL FREE ENERGY PREDICTED BY IDOCK:   10.28 KCAL/MOL
REMARK 923 INTER-LIGAND FREE ENERGY PREDICTED BY IDOCK:   10.62 KCAL/MOL
REMARK 924 INTRA-LIGAND FREE ENERGY PREDICTED BY IDOCK:   -0.33 KCAL/MOL
REMARK 927      BINDING AFFINITY PREDICTED BY RF-SCORE:    0.00 PKD
ROOT
HETATM    1  C   UNL     1      -6.452  18.087  73.923  1.00  0.00     9.037 C  
HETATM    2  C   UNL     1      -6.958  18.808  72.677  1.00  0.00     4.698 C  
ENDROOT
BRANCH   2   3
HETATM    3  N   UNL     1      -6.084  18.719  71.483  1.00  0.00     0.638 NA 
BRANCH   3   4
HETATM    4  C   UNL     1      -5.357  19.996  71.271  1.00  0.00    -0.317 C  
BRANCH   4   5
HETATM    5  C   UNL     1      -5.966  20.946  70.222  1.00  0.00     0.359 C  
HETATM    6  H   UNL     1      -5.699  21.357  68.312  1.00  0.00     0.000 HD 
HETATM    7  O   UNL     1      -5.324  20.772  68.959  1.00  0.00    -0.284 OA 
ENDBRANCH   4   5
ENDBRANCH   3   4
BRANCH   3   8
HETATM    8  C   UNL     1      -5.133  17.594  71.655  1.00  0.00     0.200 C  
BRANCH   8   9
HETATM    9  C   UNL     1      -5.165  16.523  70.542  1.00  0.00    -0.208 C  
BRANCH   9  10
HETATM   10  C   UNL     1      -5.794  16.975  69.212  1.00  0.00    -0.191 C  
BRANCH  10  11
HETATM   11  C   UNL     1      -7.152  16.315  68.903  1.00  0.00    -0.182 C  
HETATM   12  C   UNL     1      -8.290  17.338  68.856  1.00  0.00    -0.174 C  
BRANCH  11  13
HETATM   13  N   UNL     1      -7.090  15.602  67.607  1.00  0.00    -0.150 NA 
HETATM   14  H   UNL     1      -6.197  15.369  67.172  1.00  0.00     0.000 HD 
BRANCH  13  15
HETATM   15  C   UNL     1      -8.326  15.256  66.994  1.00  0.00    -0.234 A  
HETATM   16  C   UNL     1      -8.982  14.041  67.333  1.00  0.00    -0.208 A  
HETATM   17  C   UNL     1      -8.457  13.084  68.236  1.00  0.00    -0.159 A  
HETATM   18  C   UNL     1      -9.149  11.903  68.517  1.00  0.00    -0.123 A  
HETATM   19  C   UNL     1     -10.363  11.659  67.889  1.00  0.00    -0.188 A  
HETATM   20  C   UNL     1     -10.893  12.587  66.997  1.00  0.00    -0.287 A  
HETATM   21 CL   UNL     1     -11.224  10.204  68.215  1.00  0.00    -0.285 Cl 
HETATM   22  C   UNL     1     -10.231  13.768  66.719  1.00  0.00    -0.268 A  
HETATM   23  N   UNL     1     -10.830  14.616  65.871  1.00  0.00    -0.303 NA 
HETATM   24  C   UNL     1     -10.221  15.789  65.622  1.00  0.00    -0.380 A  
HETATM   25  C   UNL     1      -9.008  16.153  66.172  1.00  0.00    -0.372 A  
ENDBRANCH  13  15
ENDBRANCH  11  13
ENDBRANCH  10  11
ENDBRANCH   9  10
ENDBRANCH   8   9
ENDBRANCH   3   8
ENDBRANCH   2   3
TORSDOF 9
ENDMDL
