MODEL        1
REMARK 921   NORMALIZED FREE ENERGY PREDICTED BY IDOCK:   -5.78 KCAL/MOL
REMARK 922        TOTAL FREE ENERGY PREDICTED BY IDOCK:   -8.35 KCAL/MOL
REMARK 923 INTER-LIGAND FREE ENERGY PREDICTED BY IDOCK:   -8.15 KCAL/MOL
REMARK 924 INTRA-LIGAND FREE ENERGY PREDICTED BY IDOCK:   -0.21 KCAL/MOL
REMARK 927      BINDING AFFINITY PREDICTED BY RF-SCORE:    0.00 PKD
ROOT
HETATM    1  C   UNL     1      -9.990   8.384  67.928  1.00  0.00    -0.228 C  
HETATM    2  C   UNL     1     -11.023   7.549  67.432  1.00  0.00    -0.165 C  
HETATM    3  C   UNL     1      -9.932   7.897  66.486  1.00  0.00    -0.267 C  
HETATM    4  C   UNL     1      -8.307   8.825  67.351  1.00  0.00    -0.109 C  
HETATM    5  C   UNL     1     -11.614  12.480  66.270  1.00  0.00    -0.449 C  
HETATM    6  C   UNL     1     -12.043  12.648  63.456  1.00  0.00    -0.648 C  
HETATM    7  C   UNL     1      -8.500   7.535  66.976  1.00  0.00    -0.122 C  
HETATM    8  C   UNL     1      -8.010   6.206  67.524  1.00  0.00    -0.106 C  
HETATM    9  O   UNL     1     -12.654  14.907  64.012  1.00  0.00    -0.832 OA 
HETATM   10  C   UNL     1     -11.704  12.108  67.731  1.00  0.00    -0.390 C  
HETATM   11  C   UNL     1     -10.721  12.013  63.873  1.00  0.00    -0.450 C  
HETATM   12  C   UNL     1      -8.217   8.121  65.225  1.00  0.00    -0.150 C  
HETATM   13  C   UNL     1      -8.809   9.739  64.985  1.00  0.00    -0.224 C  
HETATM   14  C   UNL     1     -12.394  13.769  64.380  1.00  0.00    -0.344 C  
HETATM   15  C   UNL     1     -12.487  13.387  65.796  1.00  0.00    -0.496 C  
HETATM   16  C   UNL     1      -9.226  12.811  65.741  1.00  0.00     0.179 C  
HETATM   17  C   UNL     1     -10.151  10.391  65.781  1.00  0.00    -0.329 C  
HETATM   18  C   UNL     1     -10.264  10.089  67.384  1.00  0.00    -0.269 C  
HETATM   19  C   UNL     1     -10.444  11.914  65.426  1.00  0.00    -0.312 C  
HETATM   20  C   UNL     1     -11.574  10.610  67.969  1.00  0.00    -0.182 C  
ENDROOT
BRANCH   4  21
HETATM   21  C   UNL     1      -6.707   8.959  67.053  1.00  0.00    -0.069 C  
HETATM   22  O   UNL     1      -5.887   8.045  67.208  1.00  0.00    -0.040 OA 
HETATM   23  C   UNL     1      -6.132  10.284  66.634  1.00  0.00    -0.064 C  
ENDBRANCH   4  21
BRANCH   4  24
HETATM   24  O   UNL     1      -7.952   8.555  68.857  1.00  0.00    -0.113 OA 
BRANCH  24  25
HETATM   25  C   UNL     1      -7.858   9.549  69.777  1.00  0.00    -0.128 C  
HETATM   26  O   UNL     1      -7.838  10.744  69.531  1.00  0.00    -0.127 OA 
BRANCH  25  27
HETATM   27  C   UNL     1      -7.981   8.949  71.167  1.00  0.00    -0.181 C  
BRANCH  27  28
HETATM   28  C   UNL     1      -9.344   8.354  71.446  1.00  0.00    -0.247 C  
BRANCH  28  29
HETATM   29  C   UNL     1     -10.458   9.387  71.309  1.00  0.00    -0.385 C  
BRANCH  29  30
HETATM   30  C   UNL     1     -11.812   8.761  71.622  1.00  0.00    -0.399 C  
HETATM   31  C   UNL     1     -12.930   9.777  71.469  1.00  0.00    -0.504 C  
ENDBRANCH  29  30
ENDBRANCH  28  29
ENDBRANCH  27  28
ENDBRANCH  25  27
ENDBRANCH  24  25
ENDBRANCH   4  24
TORSDOF 7
ENDMDL
MODEL        2
REMARK 921   NORMALIZED FREE ENERGY PREDICTED BY IDOCK:   -5.76 KCAL/MOL
REMARK 922        TOTAL FREE ENERGY PREDICTED BY IDOCK:   -8.32 KCAL/MOL
REMARK 923 INTER-LIGAND FREE ENERGY PREDICTED BY IDOCK:   -8.91 KCAL/MOL
REMARK 924 INTRA-LIGAND FREE ENERGY PREDICTED BY IDOCK:    0.59 KCAL/MOL
REMARK 927      BINDING AFFINITY PREDICTED BY RF-SCORE:    0.00 PKD
ROOT
HETATM    1  C   UNL     1     -11.412  15.141  68.214  1.00  0.00    -0.350 C  
HETATM    2  C   UNL     1     -11.846  15.077  69.562  1.00  0.00    -0.360 C  
HETATM    3  C   UNL     1     -10.388  15.248  69.336  1.00  0.00    -0.255 C  
HETATM    4  C   UNL     1      -9.863  15.667  67.388  1.00  0.00    -0.225 C  
HETATM    5  C   UNL     1     -10.122  10.639  67.733  1.00  0.00    -0.203 C  
HETATM    6  C   UNL     1      -8.177   9.656  69.572  1.00  0.00    -0.136 C  
HETATM    7  C   UNL     1     -10.000  16.478  68.466  1.00  0.00    -0.251 C  
HETATM    8  C   UNL     1     -10.448  17.919  68.636  1.00  0.00    -0.269 C  
HETATM    9  O   UNL     1      -8.424   7.654  68.261  1.00  0.00    -0.124 OA 
HETATM   10  C   UNL     1     -11.387  11.187  67.114  1.00  0.00    -0.257 C  
HETATM   11  C   UNL     1      -7.864  11.019  68.965  1.00  0.00    -0.126 C  
HETATM   12  C   UNL     1      -8.347  15.815  69.031  1.00  0.00    -0.236 C  
HETATM   13  C   UNL     1      -8.126  14.155  68.563  1.00  0.00    -0.143 C  
HETATM   14  C   UNL     1      -8.825   8.772  68.556  1.00  0.00    -0.138 C  
HETATM   15  C   UNL     1     -10.060   9.316  67.971  1.00  0.00    -0.234 C  
HETATM   16  C   UNL     1      -8.217  11.676  66.554  1.00  0.00    -0.101 C  
HETATM   17  C   UNL     1      -9.379  13.025  68.438  1.00  0.00    -0.149 C  
HETATM   18  C   UNL     1     -10.748  13.535  67.706  1.00  0.00    -0.262 C  
HETATM   19  C   UNL     1      -8.915  11.590  67.931  1.00  0.00    -0.159 C  
HETATM   20  C   UNL     1     -11.850  12.481  67.766  1.00  0.00    -0.375 C  
ENDROOT
BRANCH   4  21
HETATM   21  C   UNL     1      -8.651  16.442  66.614  1.00  0.00    -0.260 C  
HETATM   22  O   UNL     1      -7.601  15.902  66.240  1.00  0.00     0.002 OA 
HETATM   23  C   UNL     1      -8.736  17.925  66.386  1.00  0.00    -0.249 C  
ENDBRANCH   4  21
BRANCH   4  24
HETATM   24  O   UNL     1     -10.872  16.407  66.439  1.00  0.00    -0.211 OA 
BRANCH  24  25
HETATM   25  C   UNL     1     -11.012  16.088  65.126  1.00  0.00    -0.348 C  
HETATM   26  O   UNL     1     -11.088  16.887  64.207  1.00  0.00    -1.135 OA 
BRANCH  25  27
HETATM   27  C   UNL     1     -10.862  14.586  64.964  1.00  0.00    -0.425 C  
BRANCH  27  28
HETATM   28  C   UNL     1     -12.089  13.918  64.383  1.00  0.00    -0.477 C  
BRANCH  28  29
HETATM   29  C   UNL     1     -11.734  12.682  63.562  1.00  0.00    -0.604 C  
BRANCH  29  30
HETATM   30  C   UNL     1     -10.261  12.332  63.728  1.00  0.00    -0.427 C  
HETATM   31  C   UNL     1     -10.022  10.852  63.486  1.00  0.00    -0.419 C  
ENDBRANCH  29  30
ENDBRANCH  28  29
ENDBRANCH  27  28
ENDBRANCH  25  27
ENDBRANCH  24  25
ENDBRANCH   4  24
TORSDOF 7
ENDMDL
MODEL        3
REMARK 921   NORMALIZED FREE ENERGY PREDICTED BY IDOCK:   -5.69 KCAL/MOL
REMARK 922        TOTAL FREE ENERGY PREDICTED BY IDOCK:   -8.22 KCAL/MOL
REMARK 923 INTER-LIGAND FREE ENERGY PREDICTED BY IDOCK:   -8.85 KCAL/MOL
REMARK 924 INTRA-LIGAND FREE ENERGY PREDICTED BY IDOCK:    0.63 KCAL/MOL
REMARK 927      BINDING AFFINITY PREDICTED BY RF-SCORE:    0.00 PKD
ROOT
HETATM    1  C   UNL     1     -11.266  11.799  66.987  1.00  0.00    -0.382 C  
HETATM    2  C   UNL     1     -11.605  11.994  65.624  1.00  0.00    -0.356 C  
HETATM    3  C   UNL     1     -10.160  11.854  65.941  1.00  0.00    -0.265 C  
HETATM    4  C   UNL     1      -9.757  11.245  67.868  1.00  0.00    -0.177 C  
HETATM    5  C   UNL     1     -10.222  16.266  68.041  1.00  0.00    -0.256 C  
HETATM    6  C   UNL     1      -8.197  17.518  66.471  1.00  0.00    -0.311 C  
HETATM    7  C   UNL     1      -9.779  10.552  66.702  1.00  0.00    -0.232 C  
HETATM    8  C   UNL     1     -10.147   9.122  66.345  1.00  0.00    -0.345 C  
HETATM    9  O   UNL     1      -8.630  19.354  67.964  1.00  0.00    -0.305 OA 
HETATM   10  C   UNL     1     -11.501  15.606  68.500  1.00  0.00    -0.380 C  
HETATM   11  C   UNL     1      -7.866  16.110  66.952  1.00  0.00    -0.283 C  
HETATM   12  C   UNL     1      -8.122  11.335  66.338  1.00  0.00    -0.138 C  
HETATM   13  C   UNL     1      -8.012  12.941  66.996  1.00  0.00    -0.031 C  
HETATM   14  C   UNL     1      -8.957  18.260  67.523  1.00  0.00    -0.253 C  
HETATM   15  C   UNL     1     -10.204  17.608  67.951  1.00  0.00    -0.357 C  
HETATM   16  C   UNL     1      -8.360  15.179  69.244  1.00  0.00    -0.211 C  
HETATM   17  C   UNL     1      -9.321  14.002  67.144  1.00  0.00    -0.244 C  
HETATM   18  C   UNL     1     -10.714  13.363  67.712  1.00  0.00    -0.259 C  
HETATM   19  C   UNL     1      -8.961  15.389  67.836  1.00  0.00    -0.173 C  
HETATM   20  C   UNL     1     -11.857  14.375  67.680  1.00  0.00    -0.412 C  
ENDROOT
BRANCH   4  21
HETATM   21  C   UNL     1      -8.569  10.436  68.644  1.00  0.00    -0.133 C  
HETATM   22  O   UNL     1      -8.410   9.209  68.595  1.00  0.00    -0.122 OA 
HETATM   23  C   UNL     1      -7.627  11.177  69.551  1.00  0.00     0.058 C  
ENDBRANCH   4  21
BRANCH   4  24
HETATM   24  O   UNL     1     -10.796  10.366  68.652  1.00  0.00    -0.205 OA 
BRANCH  24  25
HETATM   25  C   UNL     1     -10.988  10.480  69.993  1.00  0.00    -0.286 C  
HETATM   26  O   UNL     1     -10.411   9.830  70.849  1.00  0.00    -0.302 OA 
BRANCH  25  27
HETATM   27  C   UNL     1     -11.884  11.676  70.263  1.00  0.00    -0.414 C  
BRANCH  27  28
HETATM   28  C   UNL     1     -12.883  11.439  71.376  1.00  0.00    -0.502 C  
BRANCH  28  29
HETATM   29  C   UNL     1     -13.364  12.745  72.000  1.00  0.00    -0.565 C  
BRANCH  29  30
HETATM   30  C   UNL     1     -12.883  13.939  71.187  1.00  0.00    -0.423 C  
HETATM   31  C   UNL     1     -13.720  15.172  71.481  1.00  0.00    -0.582 C  
ENDBRANCH  29  30
ENDBRANCH  28  29
ENDBRANCH  27  28
ENDBRANCH  25  27
ENDBRANCH  24  25
ENDBRANCH   4  24
TORSDOF 7
ENDMDL
MODEL        4
REMARK 921   NORMALIZED FREE ENERGY PREDICTED BY IDOCK:   -5.68 KCAL/MOL
REMARK 922        TOTAL FREE ENERGY PREDICTED BY IDOCK:   -8.21 KCAL/MOL
REMARK 923 INTER-LIGAND FREE ENERGY PREDICTED BY IDOCK:   -8.27 KCAL/MOL
REMARK 924 INTRA-LIGAND FREE ENERGY PREDICTED BY IDOCK:    0.06 KCAL/MOL
REMARK 927      BINDING AFFINITY PREDICTED BY RF-SCORE:    0.00 PKD
ROOT
HETATM    1  C   UNL     1      -7.947   9.701  66.307  1.00  0.00    -0.108 C  
HETATM    2  C   UNL     1      -6.838  10.217  65.589  1.00  0.00    -0.133 C  
HETATM    3  C   UNL     1      -7.204  10.916  66.849  1.00  0.00    -0.124 C  
HETATM    4  C   UNL     1      -8.594   9.930  68.006  1.00  0.00    -0.121 C  
HETATM    5  C   UNL     1     -11.214  12.673  64.679  1.00  0.00    -0.348 C  
HETATM    6  C   UNL     1     -10.727  15.457  65.066  1.00  0.00    -0.460 C  
HETATM    7  C   UNL     1      -7.244  10.009  68.112  1.00  0.00    -0.081 C  
HETATM    8  C   UNL     1      -6.179   9.045  68.603  1.00  0.00    -0.045 C  
HETATM    9  O   UNL     1     -12.880  15.648  64.011  1.00  0.00    -0.561 OA 
HETATM   10  C   UNL     1     -11.130  11.236  64.221  1.00  0.00    -0.293 C  
HETATM   11  C   UNL     1     -10.469  14.578  66.284  1.00  0.00    -0.303 C  
HETATM   12  C   UNL     1      -7.514  11.722  68.806  1.00  0.00    -0.109 C  
HETATM   13  C   UNL     1      -8.898  12.496  68.090  1.00  0.00    -0.191 C  
HETATM   14  C   UNL     1     -11.915  14.957  64.309  1.00  0.00    -0.338 C  
HETATM   15  C   UNL     1     -11.813  13.560  63.863  1.00  0.00    -0.460 C  
HETATM   16  C   UNL     1     -11.910  12.652  67.047  1.00  0.00    -0.415 C  
HETATM   17  C   UNL     1      -9.410  12.248  66.497  1.00  0.00    -0.230 C  
HETATM   18  C   UNL     1      -9.417  10.701  65.968  1.00  0.00    -0.233 C  
HETATM   19  C   UNL     1     -10.740  13.030  66.110  1.00  0.00    -0.288 C  
HETATM   20  C   UNL     1      -9.768  10.611  64.485  1.00  0.00    -0.367 C  
ENDROOT
BRANCH   4  21
HETATM   21  C   UNL     1      -8.988   9.841  69.589  1.00  0.00    -0.215 C  
HETATM   22  O   UNL     1      -8.232   9.423  70.476  1.00  0.00    -0.169 OA 
HETATM   23  C   UNL     1     -10.376  10.207  70.037  1.00  0.00    -0.301 C  
ENDBRANCH   4  21
BRANCH   4  24
HETATM   24  O   UNL     1      -8.708   8.364  67.944  1.00  0.00    -0.136 OA 
BRANCH  24  25
HETATM   25  C   UNL     1      -9.901   7.714  67.969  1.00  0.00    -0.161 C  
HETATM   26  O   UNL     1     -10.801   7.854  67.158  1.00  0.00    -0.296 OA 
BRANCH  25  27
HETATM   27  C   UNL     1      -9.858   6.647  69.048  1.00  0.00    -0.149 C  
BRANCH  27  28
HETATM   28  C   UNL     1     -11.225   6.120  69.428  1.00  0.00    -0.466 C  
BRANCH  28  29
HETATM   29  C   UNL     1     -11.771   6.795  70.682  1.00  0.00    -0.440 C  
BRANCH  29  30
HETATM   30  C   UNL     1     -10.868   6.518  71.877  1.00  0.00    -0.273 C  
HETATM   31  C   UNL     1     -10.964   7.634  72.903  1.00  0.00    -0.456 C  
ENDBRANCH  29  30
ENDBRANCH  28  29
ENDBRANCH  27  28
ENDBRANCH  25  27
ENDBRANCH  24  25
ENDBRANCH   4  24
TORSDOF 7
ENDMDL
MODEL        5
REMARK 921   NORMALIZED FREE ENERGY PREDICTED BY IDOCK:   -5.44 KCAL/MOL
REMARK 922        TOTAL FREE ENERGY PREDICTED BY IDOCK:   -7.87 KCAL/MOL
REMARK 923 INTER-LIGAND FREE ENERGY PREDICTED BY IDOCK:   -8.13 KCAL/MOL
REMARK 924 INTRA-LIGAND FREE ENERGY PREDICTED BY IDOCK:    0.26 KCAL/MOL
REMARK 927      BINDING AFFINITY PREDICTED BY RF-SCORE:    0.00 PKD
ROOT
HETATM    1  C   UNL     1     -11.251  11.651  66.586  1.00  0.00    -0.362 C  
HETATM    2  C   UNL     1     -11.552  11.907  65.224  1.00  0.00    -0.278 C  
HETATM    3  C   UNL     1     -10.114  11.799  65.583  1.00  0.00    -0.278 C  
HETATM    4  C   UNL     1      -9.753  11.100  67.487  1.00  0.00    -0.176 C  
HETATM    5  C   UNL     1     -10.400  16.087  67.910  1.00  0.00    -0.269 C  
HETATM    6  C   UNL     1      -8.370  17.489  66.479  1.00  0.00    -0.304 C  
HETATM    7  C   UNL     1      -9.713  10.471  66.286  1.00  0.00    -0.254 C  
HETATM    8  C   UNL     1     -10.019   9.052  65.843  1.00  0.00    -0.169 C  
HETATM    9  O   UNL     1      -8.916  19.225  68.051  1.00  0.00    -0.298 OA 
HETATM   10  C   UNL     1     -11.669  15.361  68.289  1.00  0.00    -0.313 C  
HETATM   11  C   UNL     1      -8.006  16.069  66.896  1.00  0.00    -0.283 C  
HETATM   12  C   UNL     1      -8.074  11.327  66.022  1.00  0.00    -0.009 C  
HETATM   13  C   UNL     1      -8.042  12.899  66.767  1.00  0.00     0.140 C  
HETATM   14  C   UNL     1      -9.190  18.147  67.542  1.00  0.00    -0.257 C  
HETATM   15  C   UNL     1     -10.426  17.432  67.891  1.00  0.00    -0.383 C  
HETATM   16  C   UNL     1      -8.542  14.999  69.117  1.00  0.00    -0.188 C  
HETATM   17  C   UNL     1      -9.391  13.906  66.926  1.00  0.00    -0.265 C  
HETATM   18  C   UNL     1     -10.779  13.191  67.411  1.00  0.00    -0.262 C  
HETATM   19  C   UNL     1      -9.103  15.265  67.702  1.00  0.00    -0.184 C  
HETATM   20  C   UNL     1     -11.955  14.164  67.393  1.00  0.00    -0.439 C  
ENDROOT
BRANCH   4  21
HETATM   21  C   UNL     1      -8.564  10.291  68.261  1.00  0.00    -0.122 C  
HETATM   22  O   UNL     1      -8.268   9.108  68.046  1.00  0.00    -0.111 OA 
HETATM   23  C   UNL     1      -7.799  10.961  69.368  1.00  0.00    -0.048 C  
ENDBRANCH   4  21
BRANCH   4  24
HETATM   24  O   UNL     1     -10.786  10.147  68.188  1.00  0.00    -0.233 OA 
BRANCH  24  25
HETATM   25  C   UNL     1     -11.135  10.278  69.495  1.00  0.00    -0.262 C  
HETATM   26  O   UNL     1     -11.613  11.277  70.004  1.00  0.00    -0.297 OA 
BRANCH  25  27
HETATM   27  C   UNL     1     -11.019   8.924  70.174  1.00  0.00    -0.245 C  
BRANCH  27  28
HETATM   28  C   UNL     1     -10.859   9.017  71.676  1.00  0.00    -0.437 C  
BRANCH  28  29
HETATM   29  C   UNL     1     -11.981   8.296  72.417  1.00  0.00    -0.447 C  
BRANCH  29  30
HETATM   30  C   UNL     1     -13.291   9.062  72.285  1.00  0.00    -0.523 C  
HETATM   31  C   UNL     1     -14.380   8.184  71.695  1.00  0.00    -0.570 C  
ENDBRANCH  29  30
ENDBRANCH  28  29
ENDBRANCH  27  28
ENDBRANCH  25  27
ENDBRANCH  24  25
ENDBRANCH   4  24
TORSDOF 7
ENDMDL
MODEL        6
REMARK 921   NORMALIZED FREE ENERGY PREDICTED BY IDOCK:   -5.33 KCAL/MOL
REMARK 922        TOTAL FREE ENERGY PREDICTED BY IDOCK:   -7.72 KCAL/MOL
REMARK 923 INTER-LIGAND FREE ENERGY PREDICTED BY IDOCK:   -8.38 KCAL/MOL
REMARK 924 INTRA-LIGAND FREE ENERGY PREDICTED BY IDOCK:    0.66 KCAL/MOL
REMARK 927      BINDING AFFINITY PREDICTED BY RF-SCORE:    0.00 PKD
ROOT
HETATM    1  C   UNL     1     -11.379  11.795  66.874  1.00  0.00    -0.386 C  
HETATM    2  C   UNL     1     -11.607  11.969  65.486  1.00  0.00    -0.352 C  
HETATM    3  C   UNL     1     -10.194  11.810  65.917  1.00  0.00    -0.272 C  
HETATM    4  C   UNL     1      -9.954  11.232  67.880  1.00  0.00    -0.175 C  
HETATM    5  C   UNL     1     -10.335  16.264  67.924  1.00  0.00    -0.285 C  
HETATM    6  C   UNL     1      -8.171  17.448  66.494  1.00  0.00    -0.311 C  
HETATM    7  C   UNL     1      -9.899  10.516  66.729  1.00  0.00    -0.237 C  
HETATM    8  C   UNL     1     -10.265   9.087  66.371  1.00  0.00    -0.297 C  
HETATM    9  O   UNL     1      -8.684  19.320  67.915  1.00  0.00    -0.296 OA 
HETATM   10  C   UNL     1     -11.658  15.635  68.294  1.00  0.00    -0.326 C  
HETATM   11  C   UNL     1      -7.905  16.044  67.025  1.00  0.00    -0.263 C  
HETATM   12  C   UNL     1      -8.204  11.263  66.481  1.00  0.00    -0.165 C  
HETATM   13  C   UNL     1      -8.115  12.880  67.115  1.00  0.00    -0.122 C  
HETATM   14  C   UNL     1      -8.996  18.224  67.470  1.00  0.00    -0.253 C  
HETATM   15  C   UNL     1     -10.284  17.603  67.811  1.00  0.00    -0.354 C  
HETATM   16  C   UNL     1      -8.594  15.168  69.288  1.00  0.00    -0.211 C  
HETATM   17  C   UNL     1      -9.411  13.966  67.142  1.00  0.00    -0.244 C  
HETATM   18  C   UNL     1     -10.856  13.363  67.611  1.00  0.00    -0.273 C  
HETATM   19  C   UNL     1      -9.079  15.361  67.834  1.00  0.00    -0.178 C  
HETATM   20  C   UNL     1     -11.973  14.394  67.472  1.00  0.00    -0.389 C  
ENDROOT
BRANCH   4  21
HETATM   21  C   UNL     1      -8.846  10.418  68.761  1.00  0.00    -0.157 C  
HETATM   22  O   UNL     1      -8.059  10.948  69.558  1.00  0.00    -0.059 OA 
HETATM   23  C   UNL     1      -8.680   8.936  68.573  1.00  0.00    -0.134 C  
ENDBRANCH   4  21
BRANCH   4  24
HETATM   24  O   UNL     1     -11.068  10.388  68.597  1.00  0.00    -0.243 OA 
BRANCH  24  25
HETATM   25  C   UNL     1     -11.517  10.679  69.846  1.00  0.00    -0.317 C  
HETATM   26  O   UNL     1     -11.725  11.799  70.282  1.00  0.00    -0.309 OA 
BRANCH  25  27
HETATM   27  C   UNL     1     -11.905   9.386  70.544  1.00  0.00    -0.207 C  
BRANCH  27  28
HETATM   28  C   UNL     1     -10.855   8.887  71.512  1.00  0.00    -0.396 C  
BRANCH  28  29
HETATM   29  C   UNL     1     -10.920   7.374  71.697  1.00  0.00    -0.252 C  
BRANCH  29  30
HETATM   30  C   UNL     1     -11.875   6.750  70.688  1.00  0.00    -0.442 C  
HETATM   31  C   UNL     1     -11.116   5.972  69.627  1.00  0.00    -0.474 C  
ENDBRANCH  29  30
ENDBRANCH  28  29
ENDBRANCH  27  28
ENDBRANCH  25  27
ENDBRANCH  24  25
ENDBRANCH   4  24
TORSDOF 7
ENDMDL
MODEL        7
REMARK 921   NORMALIZED FREE ENERGY PREDICTED BY IDOCK:   -5.09 KCAL/MOL
REMARK 922        TOTAL FREE ENERGY PREDICTED BY IDOCK:   -7.38 KCAL/MOL
REMARK 923 INTER-LIGAND FREE ENERGY PREDICTED BY IDOCK:   -7.10 KCAL/MOL
REMARK 924 INTRA-LIGAND FREE ENERGY PREDICTED BY IDOCK:   -0.28 KCAL/MOL
REMARK 927      BINDING AFFINITY PREDICTED BY RF-SCORE:    0.00 PKD
ROOT
HETATM    1  C   UNL     1     -11.911  12.473  68.378  1.00  0.00    -0.353 C  
HETATM    2  C   UNL     1     -12.031  12.050  69.726  1.00  0.00    -0.370 C  
HETATM    3  C   UNL     1     -10.920  12.986  69.415  1.00  0.00    -0.048 C  
HETATM    4  C   UNL     1     -10.999  13.819  67.531  1.00  0.00    -0.272 C  
HETATM    5  C   UNL     1      -8.605   9.405  67.027  1.00  0.00    -0.131 C  
HETATM    6  C   UNL     1      -6.167   9.410  68.506  1.00  0.00    -0.048 C  
HETATM    7  C   UNL     1     -11.356  14.319  68.741  1.00  0.00    -0.303 C  
HETATM    8  C   UNL     1     -12.441  15.281  69.192  1.00  0.00     0.026 C  
HETATM    9  O   UNL     1      -5.566   7.727  66.895  1.00  0.00    -0.030 OA 
HETATM   10  C   UNL     1     -10.052   9.266  66.617  1.00  0.00    -0.341 C  
HETATM   11  C   UNL     1      -6.692  10.787  68.118  1.00  0.00    -0.063 C  
HETATM   12  C   UNL     1      -9.531  14.572  69.047  1.00  0.00    -0.087 C  
HETATM   13  C   UNL     1      -8.573  13.336  68.284  1.00  0.00    -0.169 C  
HETATM   14  C   UNL     1      -6.427   8.428  67.409  1.00  0.00    -0.058 C  
HETATM   15  C   UNL     1      -7.842   8.298  67.029  1.00  0.00    -0.096 C  
HETATM   16  C   UNL     1      -7.709  11.407  65.894  1.00  0.00     0.241 C  
HETATM   17  C   UNL     1      -9.078  11.737  68.069  1.00  0.00    -0.180 C  
HETATM   18  C   UNL     1     -10.613  11.521  67.549  1.00  0.00    -0.243 C  
HETATM   19  C   UNL     1      -8.036  10.823  67.287  1.00  0.00    -0.117 C  
HETATM   20  C   UNL     1     -10.999  10.045  67.517  1.00  0.00    -0.276 C  
ENDROOT
BRANCH   4  21
HETATM   21  C   UNL     1     -10.491  15.192  66.807  1.00  0.00    -0.283 C  
HETATM   22  O   UNL     1     -10.960  16.316  67.030  1.00  0.00    -0.231 OA 
HETATM   23  C   UNL     1      -9.438  15.128  65.736  1.00  0.00    -0.285 C  
ENDBRANCH   4  21
BRANCH   4  24
HETATM   24  O   UNL     1     -12.381  14.011  66.809  1.00  0.00    -0.439 OA 
BRANCH  24  25
HETATM   25  C   UNL     1     -12.525  13.905  65.462  1.00  0.00    -0.511 C  
HETATM   26  O   UNL     1     -12.748  14.829  64.699  1.00  0.00    -0.523 OA 
BRANCH  25  27
HETATM   27  C   UNL     1     -12.169  12.490  65.038  1.00  0.00    -0.519 C  
BRANCH  27  28
HETATM   28  C   UNL     1     -11.100  12.434  63.968  1.00  0.00    -0.452 C  
BRANCH  28  29
HETATM   29  C   UNL     1     -10.640  11.007  63.693  1.00  0.00    -0.338 C  
BRANCH  29  30
HETATM   30  C   UNL     1      -9.387  11.004  62.826  1.00  0.00    -0.372 C  
HETATM   31  C   UNL     1      -8.709   9.646  62.852  1.00  0.00    -0.227 C  
ENDBRANCH  29  30
ENDBRANCH  28  29
ENDBRANCH  27  28
ENDBRANCH  25  27
ENDBRANCH  24  25
ENDBRANCH   4  24
TORSDOF 7
ENDMDL
MODEL        8
REMARK 921   NORMALIZED FREE ENERGY PREDICTED BY IDOCK:   -5.09 KCAL/MOL
REMARK 922        TOTAL FREE ENERGY PREDICTED BY IDOCK:   -7.38 KCAL/MOL
REMARK 923 INTER-LIGAND FREE ENERGY PREDICTED BY IDOCK:   -7.39 KCAL/MOL
REMARK 924 INTRA-LIGAND FREE ENERGY PREDICTED BY IDOCK:    0.01 KCAL/MOL
REMARK 927      BINDING AFFINITY PREDICTED BY RF-SCORE:    0.00 PKD
ROOT
HETATM    1  C   UNL     1     -10.426  13.299  69.076  1.00  0.00    -0.044 C  
HETATM    2  C   UNL     1     -11.438  13.663  70.001  1.00  0.00    -0.160 C  
HETATM    3  C   UNL     1     -11.763  13.814  68.559  1.00  0.00    -0.391 C  
HETATM    4  C   UNL     1     -10.394  12.964  67.275  1.00  0.00    -0.234 C  
HETATM    5  C   UNL     1      -8.688  17.603  68.290  1.00  0.00    -0.276 C  
HETATM    6  C   UNL     1     -10.519  19.576  67.348  1.00  0.00    -0.593 C  
HETATM    7  C   UNL     1     -11.599  12.520  67.711  1.00  0.00    -0.401 C  
HETATM    8  C   UNL     1     -12.159  11.139  68.001  1.00  0.00     0.125 C  
HETATM    9  O   UNL     1      -8.536  20.938  67.326  1.00  0.00    -0.246 OA 
HETATM   10  C   UNL     1      -7.965  16.582  69.137  1.00  0.00    -0.182 C  
HETATM   11  C   UNL     1     -10.611  18.223  66.653  1.00  0.00    -0.324 C  
HETATM   12  C   UNL     1     -12.354  13.730  66.504  1.00  0.00    -0.432 C  
HETATM   13  C   UNL     1     -11.380  15.161  66.335  1.00  0.00    -0.225 C  
HETATM   14  C   UNL     1      -9.094  19.902  67.663  1.00  0.00    -0.340 C  
HETATM   15  C   UNL     1      -8.409  18.903  68.495  1.00  0.00    -0.384 C  
HETATM   16  C   UNL     1      -8.657  16.783  65.962  1.00  0.00    -0.213 C  
HETATM   17  C   UNL     1     -10.448  15.831  67.576  1.00  0.00    -0.288 C  
HETATM   18  C   UNL     1      -9.578  14.783  68.480  1.00  0.00    -0.218 C  
HETATM   19  C   UNL     1      -9.602  17.107  67.141  1.00  0.00    -0.255 C  
HETATM   20  C   UNL     1      -8.882  15.480  69.646  1.00  0.00    -0.140 C  
ENDROOT
BRANCH   4  21
HETATM   21  C   UNL     1     -10.398  12.329  65.770  1.00  0.00    -0.258 C  
HETATM   22  O   UNL     1     -10.703  11.159  65.504  1.00  0.00    -0.251 OA 
HETATM   23  C   UNL     1      -9.934  13.160  64.605  1.00  0.00    -0.145 C  
ENDBRANCH   4  21
BRANCH   4  24
HETATM   24  O   UNL     1      -9.537  11.731  67.736  1.00  0.00    -0.175 OA 
BRANCH  24  25
HETATM   25  C   UNL     1      -8.187  11.681  67.591  1.00  0.00    -0.141 C  
HETATM   26  O   UNL     1      -7.473  12.620  67.281  1.00  0.00    -0.149 OA 
BRANCH  25  27
HETATM   27  C   UNL     1      -7.690  10.327  68.067  1.00  0.00    -0.089 C  
BRANCH  27  28
HETATM   28  C   UNL     1      -8.775   9.469  68.679  1.00  0.00    -0.127 C  
BRANCH  28  29
HETATM   29  C   UNL     1      -8.794   9.568  70.201  1.00  0.00    -0.266 C  
BRANCH  29  30
HETATM   30  C   UNL     1     -10.225   9.647  70.717  1.00  0.00    -0.330 C  
HETATM   31  C   UNL     1     -11.022   8.422  70.303  1.00  0.00    -0.236 C  
ENDBRANCH  29  30
ENDBRANCH  28  29
ENDBRANCH  27  28
ENDBRANCH  25  27
ENDBRANCH  24  25
ENDBRANCH   4  24
TORSDOF 7
ENDMDL
MODEL        9
REMARK 921   NORMALIZED FREE ENERGY PREDICTED BY IDOCK:   -5.05 KCAL/MOL
REMARK 922        TOTAL FREE ENERGY PREDICTED BY IDOCK:   -7.32 KCAL/MOL
REMARK 923 INTER-LIGAND FREE ENERGY PREDICTED BY IDOCK:   -7.21 KCAL/MOL
REMARK 924 INTRA-LIGAND FREE ENERGY PREDICTED BY IDOCK:   -0.11 KCAL/MOL
REMARK 927      BINDING AFFINITY PREDICTED BY RF-SCORE:    0.00 PKD
ROOT
HETATM    1  C   UNL     1      -8.067   9.787  70.325  1.00  0.00    -0.181 C  
HETATM    2  C   UNL     1      -6.792   9.536  70.891  1.00  0.00    -0.083 C  
HETATM    3  C   UNL     1      -7.184   8.699  69.728  1.00  0.00    -0.051 C  
HETATM    4  C   UNL     1      -8.885   9.329  68.750  1.00  0.00    -0.132 C  
HETATM    5  C   UNL     1     -10.441   6.374  72.533  1.00  0.00    -0.225 C  
HETATM    6  C   UNL     1      -9.481   3.711  72.188  1.00  0.00    -0.196 C  
HETATM    7  C   UNL     1      -7.573   9.496  68.449  1.00  0.00    -0.081 C  
HETATM    8  C   UNL     1      -6.792  10.606  67.770  1.00  0.00    -0.073 C  
HETATM    9  O   UNL     1     -11.391   3.192  73.556  1.00  0.00    -0.224 OA 
HETATM   10  C   UNL     1     -10.576   7.829  72.915  1.00  0.00    -0.428 C  
HETATM   11  C   UNL     1      -9.568   4.538  70.911  1.00  0.00    -0.250 C  
HETATM   12  C   UNL     1      -7.597   7.719  67.871  1.00  0.00    -0.116 C  
HETATM   13  C   UNL     1      -8.693   6.751  68.813  1.00  0.00    -0.125 C  
HETATM   14  C   UNL     1     -10.629   4.030  73.092  1.00  0.00    -0.183 C  
HETATM   15  C   UNL     1     -10.739   5.448  73.462  1.00  0.00    -0.331 C  
HETATM   16  C   UNL     1     -11.446   6.106  70.293  1.00  0.00    -0.357 C  
HETATM   17  C   UNL     1      -9.020   7.006  70.453  1.00  0.00    -0.155 C  
HETATM   18  C   UNL     1      -9.255   8.556  70.916  1.00  0.00    -0.213 C  
HETATM   19  C   UNL     1     -10.108   6.017  71.062  1.00  0.00    -0.241 C  
HETATM   20  C   UNL     1      -9.411   8.678  72.430  1.00  0.00    -0.284 C  
ENDROOT
BRANCH   4  21
HETATM   21  C   UNL     1      -9.502   9.236  67.240  1.00  0.00    -0.144 C  
HETATM   22  O   UNL     1      -9.050   9.845  66.261  1.00  0.00    -0.148 OA 
HETATM   23  C   UNL     1     -10.745   8.431  66.987  1.00  0.00    -0.204 C  
ENDBRANCH   4  21
BRANCH   4  24
HETATM   24  O   UNL     1      -9.290  10.846  68.766  1.00  0.00    -0.179 OA 
BRANCH  24  25
HETATM   25  C   UNL     1     -10.576  11.263  68.626  1.00  0.00    -0.202 C  
HETATM   26  O   UNL     1     -10.996  11.975  67.730  1.00  0.00    -0.211 OA 
BRANCH  25  27
HETATM   27  C   UNL     1     -11.441  10.544  69.647  1.00  0.00    -0.349 C  
BRANCH  27  28
HETATM   28  C   UNL     1     -12.094  11.476  70.645  1.00  0.00    -0.450 C  
BRANCH  28  29
HETATM   29  C   UNL     1     -12.850  10.716  71.729  1.00  0.00    -0.549 C  
BRANCH  29  30
HETATM   30  C   UNL     1     -13.235   9.325  71.242  1.00  0.00    -0.325 C  
HETATM   31  C   UNL     1     -14.261   8.690  72.163  1.00  0.00    -0.520 C  
ENDBRANCH  29  30
ENDBRANCH  28  29
ENDBRANCH  27  28
ENDBRANCH  25  27
ENDBRANCH  24  25
ENDBRANCH   4  24
TORSDOF 7
ENDMDL
MODEL       10
REMARK 921   NORMALIZED FREE ENERGY PREDICTED BY IDOCK:   -5.01 KCAL/MOL
REMARK 922        TOTAL FREE ENERGY PREDICTED BY IDOCK:   -7.27 KCAL/MOL
REMARK 923 INTER-LIGAND FREE ENERGY PREDICTED BY IDOCK:   -7.40 KCAL/MOL
REMARK 924 INTRA-LIGAND FREE ENERGY PREDICTED BY IDOCK:    0.13 KCAL/MOL
REMARK 927      BINDING AFFINITY PREDICTED BY RF-SCORE:    0.00 PKD
ROOT
HETATM    1  C   UNL     1      -8.022   9.678  70.423  1.00  0.00    -0.191 C  
HETATM    2  C   UNL     1      -6.776   9.372  71.026  1.00  0.00    -0.078 C  
HETATM    3  C   UNL     1      -7.159   8.568  69.837  1.00  0.00    -0.051 C  
HETATM    4  C   UNL     1      -8.803   9.275  68.815  1.00  0.00    -0.132 C  
HETATM    5  C   UNL     1     -10.587   6.319  72.496  1.00  0.00    -0.239 C  
HETATM    6  C   UNL     1      -9.712   3.629  72.138  1.00  0.00    -0.231 C  
HETATM    7  C   UNL     1      -7.477   9.399  68.560  1.00  0.00    -0.080 C  
HETATM    8  C   UNL     1      -6.635  10.491  67.925  1.00  0.00    -0.061 C  
HETATM    9  O   UNL     1     -11.683   3.159  73.434  1.00  0.00    -0.087 OA 
HETATM   10  C   UNL     1     -10.683   7.772  72.899  1.00  0.00    -0.446 C  
HETATM   11  C   UNL     1      -9.727   4.479  70.873  1.00  0.00    -0.263 C  
HETATM   12  C   UNL     1      -7.546   7.634  67.951  1.00  0.00    -0.117 C  
HETATM   13  C   UNL     1      -8.706   6.691  68.842  1.00  0.00    -0.128 C  
HETATM   14  C   UNL     1     -10.877   3.975  73.009  1.00  0.00    -0.143 C  
HETATM   15  C   UNL     1     -10.948   5.390  73.400  1.00  0.00    -0.349 C  
HETATM   16  C   UNL     1     -11.527   6.123  70.222  1.00  0.00    -0.357 C  
HETATM   17  C   UNL     1      -9.077   6.932  70.474  1.00  0.00    -0.156 C  
HETATM   18  C   UNL     1      -9.271   8.482  70.955  1.00  0.00    -0.227 C  
HETATM   19  C   UNL     1     -10.219   5.973  71.031  1.00  0.00    -0.253 C  
HETATM   20  C   UNL     1      -9.472   8.586  72.465  1.00  0.00    -0.328 C  
ENDROOT
BRANCH   4  21
HETATM   21  C   UNL     1      -9.373   9.229  67.285  1.00  0.00    -0.131 C  
HETATM   22  O   UNL     1      -8.859   9.823  66.329  1.00  0.00    -0.142 OA 
HETATM   23  C   UNL     1     -10.647   8.490  66.982  1.00  0.00    -0.305 C  
ENDBRANCH   4  21
BRANCH   4  24
HETATM   24  O   UNL     1      -9.155  10.805  68.845  1.00  0.00    -0.168 OA 
BRANCH  24  25
HETATM   25  C   UNL     1     -10.428  11.263  68.963  1.00  0.00    -0.194 C  
HETATM   26  O   UNL     1     -11.291  10.780  69.677  1.00  0.00    -0.247 OA 
BRANCH  25  27
HETATM   27  C   UNL     1     -10.550  12.582  68.221  1.00  0.00    -0.245 C  
BRANCH  27  28
HETATM   28  C   UNL     1     -11.770  12.661  67.330  1.00  0.00    -0.432 C  
BRANCH  28  29
HETATM   29  C   UNL     1     -11.484  12.158  65.919  1.00  0.00    -0.418 C  
BRANCH  29  30
HETATM   30  C   UNL     1     -12.512  12.702  64.936  1.00  0.00    -0.564 C  
HETATM   31  C   UNL     1     -11.947  12.750  63.527  1.00  0.00    -0.633 C  
ENDBRANCH  29  30
ENDBRANCH  28  29
ENDBRANCH  27  28
ENDBRANCH  25  27
ENDBRANCH  24  25
ENDBRANCH   4  24
TORSDOF 7
ENDMDL
MODEL       11
REMARK 921   NORMALIZED FREE ENERGY PREDICTED BY IDOCK:   -4.95 KCAL/MOL
REMARK 922        TOTAL FREE ENERGY PREDICTED BY IDOCK:   -7.18 KCAL/MOL
REMARK 923 INTER-LIGAND FREE ENERGY PREDICTED BY IDOCK:   -7.30 KCAL/MOL
REMARK 924 INTRA-LIGAND FREE ENERGY PREDICTED BY IDOCK:    0.12 KCAL/MOL
REMARK 927      BINDING AFFINITY PREDICTED BY RF-SCORE:    0.00 PKD
ROOT
HETATM    1  C   UNL     1      -9.916  13.060  64.764  1.00  0.00    -0.147 C  
HETATM    2  C   UNL     1     -10.616  12.411  63.716  1.00  0.00    -0.486 C  
HETATM    3  C   UNL     1     -11.351  12.605  64.993  1.00  0.00    -0.345 C  
HETATM    4  C   UNL     1     -10.409  13.838  66.348  1.00  0.00    -0.290 C  
HETATM    5  C   UNL     1      -8.530   9.215  67.100  1.00  0.00    -0.120 C  
HETATM    6  C   UNL     1     -10.578   7.425  67.958  1.00  0.00    -0.235 C  
HETATM    7  C   UNL     1     -11.429  14.078  65.487  1.00  0.00    -0.318 C  
HETATM    8  C   UNL     1     -11.864  15.303  64.702  1.00  0.00    -0.267 C  
HETATM    9  O   UNL     1      -8.702   6.246  68.896  1.00  0.00    -0.124 OA 
HETATM   10  C   UNL     1      -7.579  10.037  66.260  1.00  0.00    -0.106 C  
HETATM   11  C   UNL     1     -10.854   8.901  68.222  1.00  0.00    -0.048 C  
HETATM   12  C   UNL     1     -12.516  13.163  66.699  1.00  0.00    -0.031 C  
HETATM   13  C   UNL     1     -11.650  11.886  67.503  1.00  0.00    -0.374 C  
HETATM   14  C   UNL     1      -9.127   7.126  68.158  1.00  0.00    -0.133 C  
HETATM   15  C   UNL     1      -8.217   7.927  67.327  1.00  0.00    -0.122 C  
HETATM   16  C   UNL     1      -9.173  10.593  69.044  1.00  0.00    -0.177 C  
HETATM   17  C   UNL     1     -10.402  10.990  66.797  1.00  0.00    -0.284 C  
HETATM   18  C   UNL     1      -9.295  11.833  65.940  1.00  0.00    -0.214 C  
HETATM   19  C   UNL     1      -9.735   9.922  67.771  1.00  0.00    -0.175 C  
HETATM   20  C   UNL     1      -8.296  10.913  65.243  1.00  0.00    -0.025 C  
ENDROOT
BRANCH   4  21
HETATM   21  C   UNL     1     -10.846  14.828  67.572  1.00  0.00    -0.287 C  
HETATM   22  O   UNL     1     -11.406  15.922  67.421  1.00  0.00    -0.202 OA 
HETATM   23  C   UNL     1     -10.499  14.466  68.989  1.00  0.00    -0.227 C  
ENDBRANCH   4  21
BRANCH   4  24
HETATM   24  O   UNL     1      -9.441  14.970  65.848  1.00  0.00    -0.315 OA 
BRANCH  24  25
HETATM   25  C   UNL     1      -8.337  15.351  66.542  1.00  0.00    -0.149 C  
HETATM   26  O   UNL     1      -7.570  14.600  67.121  1.00  0.00    -0.181 OA 
BRANCH  25  27
HETATM   27  C   UNL     1      -8.102  16.834  66.319  1.00  0.00    -0.365 C  
BRANCH  27  28
HETATM   28  C   UNL     1      -8.260  17.664  67.575  1.00  0.00    -0.221 C  
BRANCH  28  29
HETATM   29  C   UNL     1      -8.672  19.100  67.265  1.00  0.00    -0.310 C  
BRANCH  29  30
HETATM   30  C   UNL     1     -10.188  19.221  67.196  1.00  0.00    -0.501 C  
HETATM   31  C   UNL     1     -10.650  19.473  65.772  1.00  0.00    -0.522 C  
ENDBRANCH  29  30
ENDBRANCH  28  29
ENDBRANCH  27  28
ENDBRANCH  25  27
ENDBRANCH  24  25
ENDBRANCH   4  24
TORSDOF 7
ENDMDL
MODEL       12
REMARK 921   NORMALIZED FREE ENERGY PREDICTED BY IDOCK:   -4.93 KCAL/MOL
REMARK 922        TOTAL FREE ENERGY PREDICTED BY IDOCK:   -7.16 KCAL/MOL
REMARK 923 INTER-LIGAND FREE ENERGY PREDICTED BY IDOCK:   -7.16 KCAL/MOL
REMARK 924 INTRA-LIGAND FREE ENERGY PREDICTED BY IDOCK:    0.00 KCAL/MOL
REMARK 927      BINDING AFFINITY PREDICTED BY RF-SCORE:    0.00 PKD
ROOT
HETATM    1  C   UNL     1      -7.943   9.651  66.247  1.00  0.00    -0.108 C  
HETATM    2  C   UNL     1      -6.804  10.174  65.582  1.00  0.00    -0.124 C  
HETATM    3  C   UNL     1      -7.211  10.847  66.843  1.00  0.00    -0.124 C  
HETATM    4  C   UNL     1      -8.651   9.848  67.925  1.00  0.00    -0.125 C  
HETATM    5  C   UNL     1     -11.124  12.687  64.565  1.00  0.00    -0.365 C  
HETATM    6  C   UNL     1     -10.629  15.457  65.033  1.00  0.00    -0.445 C  
HETATM    7  C   UNL     1      -7.306   9.913  68.083  1.00  0.00    -0.080 C  
HETATM    8  C   UNL     1      -6.267   8.929  68.591  1.00  0.00    -0.046 C  
HETATM    9  O   UNL     1     -12.740  15.691  63.903  1.00  0.00    -0.697 OA 
HETATM   10  C   UNL     1     -11.034  11.260  64.079  1.00  0.00    -0.377 C  
HETATM   11  C   UNL     1     -10.424  14.550  66.240  1.00  0.00    -0.303 C  
HETATM   12  C   UNL     1      -7.588  11.613  68.805  1.00  0.00    -0.119 C  
HETATM   13  C   UNL     1      -8.937  12.414  68.055  1.00  0.00    -0.194 C  
HETATM   14  C   UNL     1     -11.793  14.985  64.221  1.00  0.00    -0.275 C  
HETATM   15  C   UNL     1     -11.685  13.597  63.748  1.00  0.00    -0.292 C  
HETATM   16  C   UNL     1     -11.907  12.620  66.905  1.00  0.00    -0.425 C  
HETATM   17  C   UNL     1      -9.391  12.206  66.440  1.00  0.00    -0.225 C  
HETATM   18  C   UNL     1      -9.391  10.672  65.875  1.00  0.00    -0.224 C  
HETATM   19  C   UNL     1     -10.701  13.008  66.021  1.00  0.00    -0.290 C  
HETATM   20  C   UNL     1      -9.688  10.617  64.379  1.00  0.00    -0.368 C  
ENDROOT
BRANCH   4  21
HETATM   21  C   UNL     1      -9.105   9.727  69.490  1.00  0.00    -0.216 C  
HETATM   22  O   UNL     1      -8.389   9.273  70.393  1.00  0.00    -0.161 OA 
HETATM   23  C   UNL     1     -10.500  10.110  69.897  1.00  0.00    -0.322 C  
ENDBRANCH   4  21
BRANCH   4  24
HETATM   24  O   UNL     1      -8.775   8.285  67.824  1.00  0.00    -0.133 OA 
BRANCH  24  25
HETATM   25  C   UNL     1      -9.969   7.651  67.693  1.00  0.00    -0.175 C  
HETATM   26  O   UNL     1     -10.907   8.038  67.015  1.00  0.00    -0.283 OA 
BRANCH  25  27
HETATM   27  C   UNL     1      -9.882   6.292  68.364  1.00  0.00    -0.141 C  
BRANCH  27  28
HETATM   28  C   UNL     1      -8.562   6.050  69.063  1.00  0.00    -0.120 C  
BRANCH  28  29
HETATM   29  C   UNL     1      -8.746   5.745  70.546  1.00  0.00    -0.140 C  
BRANCH  29  30
HETATM   30  C   UNL     1      -8.210   4.358  70.880  1.00  0.00    -0.081 C  
HETATM   31  C   UNL     1      -9.207   3.576  71.717  1.00  0.00    -0.183 C  
ENDBRANCH  29  30
ENDBRANCH  28  29
ENDBRANCH  27  28
ENDBRANCH  25  27
ENDBRANCH  24  25
ENDBRANCH   4  24
TORSDOF 7
ENDMDL
MODEL       13
REMARK 921   NORMALIZED FREE ENERGY PREDICTED BY IDOCK:   -4.92 KCAL/MOL
REMARK 922        TOTAL FREE ENERGY PREDICTED BY IDOCK:   -7.14 KCAL/MOL
REMARK 923 INTER-LIGAND FREE ENERGY PREDICTED BY IDOCK:   -6.90 KCAL/MOL
REMARK 924 INTRA-LIGAND FREE ENERGY PREDICTED BY IDOCK:   -0.24 KCAL/MOL
REMARK 927      BINDING AFFINITY PREDICTED BY RF-SCORE:    0.00 PKD
ROOT
HETATM    1  C   UNL     1      -7.964   9.692  66.142  1.00  0.00    -0.108 C  
HETATM    2  C   UNL     1      -6.842  10.241  65.473  1.00  0.00    -0.134 C  
HETATM    3  C   UNL     1      -7.252  10.898  66.741  1.00  0.00    -0.134 C  
HETATM    4  C   UNL     1      -8.664   9.862  67.828  1.00  0.00    -0.129 C  
HETATM    5  C   UNL     1     -11.219  12.674  64.506  1.00  0.00    -0.375 C  
HETATM    6  C   UNL     1     -10.776  15.450  64.989  1.00  0.00    -0.460 C  
HETATM    7  C   UNL     1      -7.319   9.954  67.976  1.00  0.00    -0.084 C  
HETATM    8  C   UNL     1      -6.256   8.987  68.469  1.00  0.00    -0.049 C  
HETATM    9  O   UNL     1     -12.900  15.649  63.877  1.00  0.00    -0.619 OA 
HETATM   10  C   UNL     1     -11.104  11.252  64.009  1.00  0.00    -0.316 C  
HETATM   11  C   UNL     1     -10.543  14.539  66.188  1.00  0.00    -0.308 C  
HETATM   12  C   UNL     1      -7.629  11.643  68.711  1.00  0.00    -0.119 C  
HETATM   13  C   UNL     1      -9.000  12.421  67.977  1.00  0.00    -0.194 C  
HETATM   14  C   UNL     1     -11.936  14.960  64.183  1.00  0.00    -0.235 C  
HETATM   15  C   UNL     1     -11.804  13.578  63.699  1.00  0.00    -0.383 C  
HETATM   16  C   UNL     1     -11.983  12.575  66.851  1.00  0.00    -0.306 C  
HETATM   17  C   UNL     1      -9.463  12.215  66.364  1.00  0.00    -0.238 C  
HETATM   18  C   UNL     1      -9.436  10.685  65.789  1.00  0.00    -0.244 C  
HETATM   19  C   UNL     1     -10.791  12.994  65.961  1.00  0.00    -0.290 C  
HETATM   20  C   UNL     1      -9.743  10.635  64.295  1.00  0.00    -0.372 C  
ENDROOT
BRANCH   4  21
HETATM   21  C   UNL     1      -9.103   9.722  69.395  1.00  0.00    -0.201 C  
HETATM   22  O   UNL     1      -8.397   9.215  70.276  1.00  0.00    -0.134 OA 
HETATM   23  C   UNL     1     -10.475  10.155  69.830  1.00  0.00    -0.322 C  
ENDBRANCH   4  21
BRANCH   4  24
HETATM   24  O   UNL     1      -8.757   8.299  67.716  1.00  0.00    -0.133 OA 
BRANCH  24  25
HETATM   25  C   UNL     1      -9.941   7.640  67.618  1.00  0.00    -0.175 C  
HETATM   26  O   UNL     1     -10.910   8.016  66.981  1.00  0.00    -0.283 OA 
BRANCH  25  27
HETATM   27  C   UNL     1      -9.799   6.272  68.263  1.00  0.00    -0.134 C  
BRANCH  27  28
HETATM   28  C   UNL     1      -8.610   5.487  67.752  1.00  0.00    -0.108 C  
BRANCH  28  29
HETATM   29  C   UNL     1      -8.821   4.991  66.325  1.00  0.00    -0.118 C  
BRANCH  29  30
HETATM   30  C   UNL     1      -7.618   5.331  65.455  1.00  0.00    -0.082 C  
HETATM   31  C   UNL     1      -7.879   6.576  64.625  1.00  0.00    -0.112 C  
ENDBRANCH  29  30
ENDBRANCH  28  29
ENDBRANCH  27  28
ENDBRANCH  25  27
ENDBRANCH  24  25
ENDBRANCH   4  24
TORSDOF 7
ENDMDL
MODEL       14
REMARK 921   NORMALIZED FREE ENERGY PREDICTED BY IDOCK:   -4.90 KCAL/MOL
REMARK 922        TOTAL FREE ENERGY PREDICTED BY IDOCK:   -7.11 KCAL/MOL
REMARK 923 INTER-LIGAND FREE ENERGY PREDICTED BY IDOCK:   -7.36 KCAL/MOL
REMARK 924 INTRA-LIGAND FREE ENERGY PREDICTED BY IDOCK:    0.25 KCAL/MOL
REMARK 927      BINDING AFFINITY PREDICTED BY RF-SCORE:    0.00 PKD
ROOT
HETATM    1  C   UNL     1     -11.764  13.854  66.597  1.00  0.00    -0.417 C  
HETATM    2  C   UNL     1     -11.949  14.432  65.316  1.00  0.00    -0.382 C  
HETATM    3  C   UNL     1     -10.674  13.704  65.544  1.00  0.00    -0.296 C  
HETATM    4  C   UNL     1     -10.608  12.613  67.292  1.00  0.00    -0.228 C  
HETATM    5  C   UNL     1      -9.181  17.300  68.497  1.00  0.00    -0.273 C  
HETATM    6  C   UNL     1      -6.771  17.997  67.139  1.00  0.00    -0.203 C  
HETATM    7  C   UNL     1     -10.837  12.228  66.011  1.00  0.00    -0.310 C  
HETATM    8  C   UNL     1     -11.694  11.142  65.386  1.00  0.00     0.666 C  
HETATM    9  O   UNL     1      -6.554  19.520  68.989  1.00  0.00    -0.288 OA 
HETATM   10  C   UNL     1     -10.632  17.086  68.859  1.00  0.00    -0.328 C  
HETATM   11  C   UNL     1      -7.008  16.502  67.312  1.00  0.00    -0.208 C  
HETATM   12  C   UNL     1      -8.994  12.394  65.753  1.00  0.00     0.277 C  
HETATM   13  C   UNL     1      -8.323  13.676  66.718  1.00  0.00     0.089 C  
HETATM   14  C   UNL     1      -7.245  18.740  68.347  1.00  0.00    -0.280 C  
HETATM   15  C   UNL     1      -8.661  18.528  68.679  1.00  0.00    -0.323 C  
HETATM   16  C   UNL     1      -7.909  15.380  69.385  1.00  0.00    -0.232 C  
HETATM   17  C   UNL     1      -9.149  15.094  67.127  1.00  0.00    -0.226 C  
HETATM   18  C   UNL     1     -10.702  14.920  67.604  1.00  0.00    -0.270 C  
HETATM   19  C   UNL     1      -8.328  16.078  68.072  1.00  0.00    -0.162 C  
HETATM   20  C   UNL     1     -11.385  16.268  67.820  1.00  0.00    -0.081 C  
ENDROOT
BRANCH   4  21
HETATM   21  C   UNL     1      -9.840  11.281  67.844  1.00  0.00    -0.176 C  
HETATM   22  O   UNL     1     -10.121  10.122  67.510  1.00  0.00    -0.182 OA 
HETATM   23  C   UNL     1      -8.764  11.415  68.885  1.00  0.00    -0.012 C  
ENDBRANCH   4  21
BRANCH   4  24
HETATM   24  O   UNL     1     -11.932  12.046  67.920  1.00  0.00    -0.526 OA 
BRANCH  24  25
HETATM   25  C   UNL     1     -12.116  11.931  69.261  1.00  0.00    -0.210 C  
HETATM   26  O   UNL     1     -12.397  10.902  69.852  1.00  0.00    -0.326 OA 
BRANCH  25  27
HETATM   27  C   UNL     1     -11.725  13.239  69.926  1.00  0.00    -0.330 C  
BRANCH  27  28
HETATM   28  C   UNL     1     -12.585  13.587  71.121  1.00  0.00    -0.438 C  
BRANCH  28  29
HETATM   29  C   UNL     1     -12.966  15.064  71.143  1.00  0.00    -0.457 C  
BRANCH  29  30
HETATM   30  C   UNL     1     -12.126  15.820  72.164  1.00  0.00    -0.570 C  
HETATM   31  C   UNL     1     -12.313  15.244  73.557  1.00  0.00    -0.653 C  
ENDBRANCH  29  30
ENDBRANCH  28  29
ENDBRANCH  27  28
ENDBRANCH  25  27
ENDBRANCH  24  25
ENDBRANCH   4  24
TORSDOF 7
ENDMDL
MODEL       15
REMARK 921   NORMALIZED FREE ENERGY PREDICTED BY IDOCK:   -4.84 KCAL/MOL
REMARK 922        TOTAL FREE ENERGY PREDICTED BY IDOCK:   -7.03 KCAL/MOL
REMARK 923 INTER-LIGAND FREE ENERGY PREDICTED BY IDOCK:   -7.21 KCAL/MOL
REMARK 924 INTRA-LIGAND FREE ENERGY PREDICTED BY IDOCK:    0.18 KCAL/MOL
REMARK 927      BINDING AFFINITY PREDICTED BY RF-SCORE:    0.00 PKD
ROOT
HETATM    1  C   UNL     1     -10.004   9.991  65.993  1.00  0.00    -0.334 C  
HETATM    2  C   UNL     1      -9.862  10.136  64.590  1.00  0.00    -0.361 C  
HETATM    3  C   UNL     1      -8.668  10.447  65.419  1.00  0.00    -0.193 C  
HETATM    4  C   UNL     1      -8.832   9.901  67.399  1.00  0.00    -0.132 C  
HETATM    5  C   UNL     1     -10.875  14.500  67.029  1.00  0.00    -0.297 C  
HETATM    6  C   UNL     1      -8.917  16.407  66.214  1.00  0.00    -0.368 C  
HETATM    7  C   UNL     1      -8.206   9.296  66.359  1.00  0.00    -0.111 C  
HETATM    8  C   UNL     1      -7.950   7.843  65.997  1.00  0.00    -0.103 C  
HETATM    9  O   UNL     1     -10.418  17.932  67.311  1.00  0.00    -0.363 OA 
HETATM   10  C   UNL     1     -11.957  13.445  67.038  1.00  0.00    -0.429 C  
HETATM   11  C   UNL     1      -8.362  15.154  66.883  1.00  0.00    -0.267 C  
HETATM   12  C   UNL     1      -6.867  10.581  66.565  1.00  0.00    -0.113 C  
HETATM   13  C   UNL     1      -7.514  12.105  67.100  1.00  0.00    -0.129 C  
HETATM   14  C   UNL     1     -10.201  16.815  66.862  1.00  0.00    -0.290 C  
HETATM   15  C   UNL     1     -11.245  15.781  66.854  1.00  0.00    -0.050 C  
HETATM   16  C   UNL     1      -9.345  14.001  68.900  1.00  0.00     0.027 C  
HETATM   17  C   UNL     1      -9.047  12.686  66.686  1.00  0.00    -0.193 C  
HETATM   18  C   UNL     1     -10.276  11.610  66.754  1.00  0.00    -0.248 C  
HETATM   19  C   UNL     1      -9.420  14.080  67.359  1.00  0.00    -0.225 C  
HETATM   20  C   UNL     1     -11.582  12.208  66.237  1.00  0.00    -0.424 C  
ENDROOT
BRANCH   4  21
HETATM   21  C   UNL     1      -7.822   9.473  68.611  1.00  0.00    -0.084 C  
HETATM   22  O   UNL     1      -7.148   8.434  68.626  1.00  0.00    -0.069 OA 
HETATM   23  C   UNL     1      -7.729  10.326  69.845  1.00  0.00    -0.139 C  
ENDBRANCH   4  21
BRANCH   4  24
HETATM   24  O   UNL     1      -9.755   8.700  67.815  1.00  0.00    -0.154 OA 
BRANCH  24  25
HETATM   25  C   UNL     1     -10.490   8.702  68.957  1.00  0.00    -0.199 C  
HETATM   26  O   UNL     1     -11.210   9.611  69.336  1.00  0.00    -0.187 OA 
BRANCH  25  27
HETATM   27  C   UNL     1     -10.429   7.320  69.586  1.00  0.00    -0.239 C  
BRANCH  27  28
HETATM   28  C   UNL     1     -11.756   6.853  70.142  1.00  0.00    -0.306 C  
BRANCH  28  29
HETATM   29  C   UNL     1     -11.674   6.538  71.632  1.00  0.00    -0.374 C  
BRANCH  29  30
HETATM   30  C   UNL     1     -11.598   7.821  72.449  1.00  0.00    -0.410 C  
HETATM   31  C   UNL     1     -12.802   8.708  72.186  1.00  0.00    -0.442 C  
ENDBRANCH  29  30
ENDBRANCH  28  29
ENDBRANCH  27  28
ENDBRANCH  25  27
ENDBRANCH  24  25
ENDBRANCH   4  24
TORSDOF 7
ENDMDL
MODEL       16
REMARK 921   NORMALIZED FREE ENERGY PREDICTED BY IDOCK:   -4.84 KCAL/MOL
REMARK 922        TOTAL FREE ENERGY PREDICTED BY IDOCK:   -7.02 KCAL/MOL
REMARK 923 INTER-LIGAND FREE ENERGY PREDICTED BY IDOCK:   -7.16 KCAL/MOL
REMARK 924 INTRA-LIGAND FREE ENERGY PREDICTED BY IDOCK:    0.14 KCAL/MOL
REMARK 927      BINDING AFFINITY PREDICTED BY RF-SCORE:    0.00 PKD
ROOT
HETATM    1  C   UNL     1      -7.737  11.401  66.548  1.00  0.00    -0.093 C  
HETATM    2  C   UNL     1      -6.964  12.218  67.412  1.00  0.00    -0.151 C  
HETATM    3  C   UNL     1      -6.693  10.757  67.452  1.00  0.00    -0.076 C  
HETATM    4  C   UNL     1      -7.599   9.674  65.952  1.00  0.00    -0.103 C  
HETATM    5  C   UNL     1     -10.990  10.048  69.671  1.00  0.00    -0.301 C  
HETATM    6  C   UNL     1     -10.047   8.744  72.025  1.00  0.00    -0.397 C  
HETATM    7  C   UNL     1      -6.326  10.122  66.080  1.00  0.00    -0.087 C  
HETATM    8  C   UNL     1      -5.281  10.593  65.085  1.00  0.00    -0.147 C  
HETATM    9  O   UNL     1     -12.402   8.600  72.495  1.00  0.00    -0.390 OA 
HETATM   10  C   UNL     1     -11.279  11.068  68.594  1.00  0.00    -0.322 C  
HETATM   11  C   UNL     1      -9.424   8.258  70.722  1.00  0.00    -0.185 C  
HETATM   12  C   UNL     1      -6.074   8.716  67.284  1.00  0.00    -0.055 C  
HETATM   13  C   UNL     1      -7.522   8.373  68.185  1.00  0.00    -0.097 C  
HETATM   14  C   UNL     1     -11.493   9.065  71.821  1.00  0.00    -0.372 C  
HETATM   15  C   UNL     1     -11.755  10.066  70.777  1.00  0.00    -0.437 C  
HETATM   16  C   UNL     1     -10.653   7.873  68.552  1.00  0.00    -0.146 C  
HETATM   17  C   UNL     1      -8.667   9.537  68.627  1.00  0.00    -0.127 C  
HETATM   18  C   UNL     1      -9.081  10.624  67.478  1.00  0.00    -0.144 C  
HETATM   19  C   UNL     1      -9.932   8.950  69.394  1.00  0.00    -0.192 C  
HETATM   20  C   UNL     1     -10.017  11.699  68.025  1.00  0.00    -0.194 C  
ENDROOT
BRANCH   4  21
HETATM   21  C   UNL     1      -7.320   8.283  65.143  1.00  0.00    -0.081 C  
HETATM   22  O   UNL     1      -6.392   8.114  64.340  1.00  0.00    -0.063 OA 
HETATM   23  C   UNL     1      -8.268   7.126  65.291  1.00  0.00    -0.128 C  
ENDBRANCH   4  21
BRANCH   4  24
HETATM   24  O   UNL     1      -7.921  10.351  64.571  1.00  0.00    -0.156 OA 
BRANCH  24  25
HETATM   25  C   UNL     1      -8.991   9.997  63.813  1.00  0.00    -0.247 C  
HETATM   26  O   UNL     1      -8.956   9.278  62.828  1.00  0.00    -0.227 OA 
BRANCH  25  27
HETATM   27  C   UNL     1     -10.260  10.474  64.498  1.00  0.00    -0.355 C  
BRANCH  27  28
HETATM   28  C   UNL     1     -10.987  11.557  63.730  1.00  0.00    -0.485 C  
BRANCH  28  29
HETATM   29  C   UNL     1     -11.092  12.853  64.528  1.00  0.00    -0.373 C  
BRANCH  29  30
HETATM   30  C   UNL     1     -12.417  12.916  65.278  1.00  0.00    -0.552 C  
HETATM   31  C   UNL     1     -12.408  14.032  66.307  1.00  0.00    -0.482 C  
ENDBRANCH  29  30
ENDBRANCH  28  29
ENDBRANCH  27  28
ENDBRANCH  25  27
ENDBRANCH  24  25
ENDBRANCH   4  24
TORSDOF 7
ENDMDL
MODEL       17
REMARK 921   NORMALIZED FREE ENERGY PREDICTED BY IDOCK:   -4.83 KCAL/MOL
REMARK 922        TOTAL FREE ENERGY PREDICTED BY IDOCK:   -7.01 KCAL/MOL
REMARK 923 INTER-LIGAND FREE ENERGY PREDICTED BY IDOCK:   -7.52 KCAL/MOL
REMARK 924 INTRA-LIGAND FREE ENERGY PREDICTED BY IDOCK:    0.50 KCAL/MOL
REMARK 927      BINDING AFFINITY PREDICTED BY RF-SCORE:    0.00 PKD
ROOT
HETATM    1  C   UNL     1     -10.965   7.278  70.585  1.00  0.00    -0.278 C  
HETATM    2  C   UNL     1     -12.138   6.768  69.973  1.00  0.00    -0.053 C  
HETATM    3  C   UNL     1     -10.913   6.818  69.134  1.00  0.00    -0.290 C  
HETATM    4  C   UNL     1      -9.181   7.247  70.165  1.00  0.00    -0.152 C  
HETATM    5  C   UNL     1     -11.253  11.690  68.970  1.00  0.00    -0.323 C  
HETATM    6  C   UNL     1     -11.365  12.018  66.139  1.00  0.00    -0.407 C  
HETATM    7  C   UNL     1      -9.685   6.067  69.724  1.00  0.00    -0.194 C  
HETATM    8  C   UNL     1      -9.628   4.645  70.254  1.00  0.00    -0.270 C  
HETATM    9  O   UNL     1     -11.383  14.348  66.736  1.00  0.00    -0.329 OA 
HETATM   10  C   UNL     1     -11.572  11.332  70.403  1.00  0.00    -0.319 C  
HETATM   11  C   UNL     1     -10.311  11.036  66.636  1.00  0.00    -0.288 C  
HETATM   12  C   UNL     1      -9.097   6.582  68.027  1.00  0.00    -0.114 C  
HETATM   13  C   UNL     1      -9.200   8.304  67.806  1.00  0.00    -0.144 C  
HETATM   14  C   UNL     1     -11.478  13.177  67.077  1.00  0.00    -0.336 C  
HETATM   15  C   UNL     1     -11.799  12.811  68.464  1.00  0.00    -0.345 C  
HETATM   16  C   UNL     1      -8.828  11.359  68.652  1.00  0.00    -0.126 C  
HETATM   17  C   UNL     1     -10.379   9.287  68.516  1.00  0.00    -0.237 C  
HETATM   18  C   UNL     1     -10.713   9.000  70.091  1.00  0.00    -0.258 C  
HETATM   19  C   UNL     1     -10.211  10.838  68.202  1.00  0.00    -0.194 C  
HETATM   20  C   UNL     1     -11.878   9.853  70.588  1.00  0.00    -0.386 C  
ENDROOT
BRANCH   4  21
HETATM   21  C   UNL     1      -7.585   6.940  70.005  1.00  0.00    -0.099 C  
HETATM   22  O   UNL     1      -7.070   5.822  70.143  1.00  0.00    -0.062 OA 
HETATM   23  C   UNL     1      -6.627   8.070  69.748  1.00  0.00    -0.037 C  
ENDBRANCH   4  21
BRANCH   4  24
HETATM   24  O   UNL     1      -9.050   6.863  71.683  1.00  0.00    -0.140 OA 
BRANCH  24  25
HETATM   25  C   UNL     1      -9.039   7.791  72.675  1.00  0.00    -0.173 C  
HETATM   26  O   UNL     1      -8.337   8.788  72.705  1.00  0.00    -0.412 OA 
BRANCH  25  27
HETATM   27  C   UNL     1     -10.176   7.496  73.638  1.00  0.00    -0.333 C  
BRANCH  27  28
HETATM   28  C   UNL     1     -10.019   6.180  74.367  1.00  0.00    -0.321 C  
BRANCH  28  29
HETATM   29  C   UNL     1     -10.854   5.071  73.735  1.00  0.00    -0.366 C  
BRANCH  29  30
HETATM   30  C   UNL     1     -10.293   3.702  74.098  1.00  0.00    -0.246 C  
HETATM   31  C   UNL     1     -11.272   2.599  73.736  1.00  0.00    -0.284 C  
ENDBRANCH  29  30
ENDBRANCH  28  29
ENDBRANCH  27  28
ENDBRANCH  25  27
ENDBRANCH  24  25
ENDBRANCH   4  24
TORSDOF 7
ENDMDL
MODEL       18
REMARK 921   NORMALIZED FREE ENERGY PREDICTED BY IDOCK:   -4.80 KCAL/MOL
REMARK 922        TOTAL FREE ENERGY PREDICTED BY IDOCK:   -6.96 KCAL/MOL
REMARK 923 INTER-LIGAND FREE ENERGY PREDICTED BY IDOCK:   -6.67 KCAL/MOL
REMARK 924 INTRA-LIGAND FREE ENERGY PREDICTED BY IDOCK:   -0.30 KCAL/MOL
REMARK 927      BINDING AFFINITY PREDICTED BY RF-SCORE:    0.00 PKD
ROOT
HETATM    1  C   UNL     1     -10.738  11.313  68.737  1.00  0.00    -0.240 C  
HETATM    2  C   UNL     1     -12.138  11.239  68.526  1.00  0.00    -0.161 C  
HETATM    3  C   UNL     1     -11.273  11.126  67.323  1.00  0.00    -0.347 C  
HETATM    4  C   UNL     1      -9.264  10.906  67.727  1.00  0.00    -0.153 C  
HETATM    5  C   UNL     1     -10.166  15.871  67.709  1.00  0.00    -0.260 C  
HETATM    6  C   UNL     1     -11.035  16.725  65.131  1.00  0.00    -0.109 C  
HETATM    7  C   UNL     1     -10.208   9.993  67.386  1.00  0.00    -0.269 C  
HETATM    8  C   UNL     1     -10.421   8.532  67.739  1.00  0.00    -0.287 C  
HETATM    9  O   UNL     1     -10.168  18.835  65.896  1.00  0.00    -0.519 OA 
HETATM   10  C   UNL     1     -10.124  15.351  69.127  1.00  0.00    -0.235 C  
HETATM   11  C   UNL     1     -10.225  15.434  65.146  1.00  0.00    -0.360 C  
HETATM   12  C   UNL     1     -10.041  10.642  65.642  1.00  0.00    -0.335 C  
HETATM   13  C   UNL     1      -9.685  12.344  65.620  1.00  0.00    -0.183 C  
HETATM   14  C   UNL     1     -10.502  17.684  66.146  1.00  0.00    -0.295 C  
HETATM   15  C   UNL     1     -10.477  17.166  67.522  1.00  0.00    -0.348 C  
HETATM   16  C   UNL     1      -8.172  14.997  66.546  1.00  0.00     0.115 C  
HETATM   17  C   UNL     1     -10.237  13.448  66.776  1.00  0.00    -0.259 C  
HETATM   18  C   UNL     1     -10.144  12.975  68.337  1.00  0.00    -0.225 C  
HETATM   19  C   UNL     1      -9.716  14.936  66.558  1.00  0.00    -0.294 C  
HETATM   20  C   UNL     1     -10.787  13.990  69.278  1.00  0.00    -0.192 C  
ENDROOT
BRANCH   4  21
HETATM   21  C   UNL     1      -7.963  10.238  66.999  1.00  0.00    -0.111 C  
HETATM   22  O   UNL     1      -7.791   9.020  66.855  1.00  0.00    -0.100 OA 
HETATM   23  C   UNL     1      -6.837  11.114  66.526  1.00  0.00    -0.126 C  
ENDBRANCH   4  21
BRANCH   4  24
HETATM   24  O   UNL     1      -8.796  10.232  69.066  1.00  0.00    -0.148 OA 
BRANCH  24  25
HETATM   25  C   UNL     1      -7.640  10.574  69.694  1.00  0.00    -0.127 C  
HETATM   26  O   UNL     1      -7.211  11.709  69.820  1.00  0.00     0.091 OA 
BRANCH  25  27
HETATM   27  C   UNL     1      -7.071   9.345  70.381  1.00  0.00    -0.104 C  
BRANCH  27  28
HETATM   28  C   UNL     1      -8.086   8.240  70.575  1.00  0.00    -0.105 C  
BRANCH  28  29
HETATM   29  C   UNL     1      -8.894   8.422  71.856  1.00  0.00    -0.267 C  
BRANCH  29  30
HETATM   30  C   UNL     1     -10.337   7.981  71.648  1.00  0.00    -0.267 C  
HETATM   31  C   UNL     1     -11.276   9.175  71.638  1.00  0.00    -0.447 C  
ENDBRANCH  29  30
ENDBRANCH  28  29
ENDBRANCH  27  28
ENDBRANCH  25  27
ENDBRANCH  24  25
ENDBRANCH   4  24
TORSDOF 7
ENDMDL
MODEL       19
REMARK 921   NORMALIZED FREE ENERGY PREDICTED BY IDOCK:   -4.79 KCAL/MOL
REMARK 922        TOTAL FREE ENERGY PREDICTED BY IDOCK:   -6.95 KCAL/MOL
REMARK 923 INTER-LIGAND FREE ENERGY PREDICTED BY IDOCK:   -7.24 KCAL/MOL
REMARK 924 INTRA-LIGAND FREE ENERGY PREDICTED BY IDOCK:    0.29 KCAL/MOL
REMARK 927      BINDING AFFINITY PREDICTED BY RF-SCORE:    0.00 PKD
ROOT
HETATM    1  C   UNL     1      -8.625  13.304  67.607  1.00  0.00    -0.196 C  
HETATM    2  C   UNL     1      -8.063  13.335  68.908  1.00  0.00     0.171 C  
HETATM    3  C   UNL     1      -9.520  13.605  68.802  1.00  0.00     0.010 C  
HETATM    4  C   UNL     1     -10.333  13.220  66.948  1.00  0.00    -0.255 C  
HETATM    5  C   UNL     1      -8.540  17.932  66.752  1.00  0.00    -0.271 C  
HETATM    6  C   UNL     1      -9.911  19.607  68.609  1.00  0.00    -0.519 C  
HETATM    7  C   UNL     1     -10.343  12.492  68.092  1.00  0.00    -0.236 C  
HETATM    8  C   UNL     1     -10.335  11.001  68.380  1.00  0.00    -0.200 C  
HETATM    9  O   UNL     1      -9.200  21.327  67.084  1.00  0.00    -0.044 OA 
HETATM   10  C   UNL     1      -7.565  16.974  66.108  1.00  0.00    -0.280 C  
HETATM   11  C   UNL     1     -10.677  18.365  68.169  1.00  0.00    -0.208 C  
HETATM   12  C   UNL     1     -11.656  13.674  68.698  1.00  0.00    -0.364 C  
HETATM   13  C   UNL     1     -11.411  15.280  68.077  1.00  0.00    -0.351 C  
HETATM   14  C   UNL     1      -9.128  20.166  67.464  1.00  0.00    -0.356 C  
HETATM   15  C   UNL     1      -8.178  19.224  66.856  1.00  0.00    -0.296 C  
HETATM   16  C   UNL     1     -10.774  17.446  65.821  1.00  0.00    -0.120 C  
HETATM   17  C   UNL     1      -9.895  15.954  67.750  1.00  0.00    -0.222 C  
HETATM   18  C   UNL     1      -8.821  14.991  66.982  1.00  0.00    -0.257 C  
HETATM   19  C   UNL     1      -9.953  17.419  67.130  1.00  0.00    -0.291 C  
HETATM   20  C   UNL     1      -7.452  15.655  66.857  1.00  0.00    -0.169 C  
ENDROOT
BRANCH   4  21
HETATM   21  C   UNL     1     -11.791  12.799  66.344  1.00  0.00    -0.408 C  
HETATM   22  O   UNL     1     -12.281  11.664  66.423  1.00  0.00    -0.157 OA 
HETATM   23  C   UNL     1     -12.597  13.801  65.565  1.00  0.00    -0.551 C  
ENDBRANCH   4  21
BRANCH   4  24
HETATM   24  O   UNL     1      -9.691  12.132  66.014  1.00  0.00    -0.239 OA 
BRANCH  24  25
HETATM   25  C   UNL     1      -9.860  12.131  64.666  1.00  0.00    -0.128 C  
HETATM   26  O   UNL     1      -9.952  13.124  63.963  1.00  0.00    -0.304 OA 
BRANCH  25  27
HETATM   27  C   UNL     1      -9.719  10.709  64.152  1.00  0.00    -0.378 C  
BRANCH  27  28
HETATM   28  C   UNL     1      -9.543   9.687  65.253  1.00  0.00    -0.347 C  
BRANCH  28  29
HETATM   29  C   UNL     1      -8.173   9.019  65.202  1.00  0.00    -0.147 C  
BRANCH  29  30
HETATM   30  C   UNL     1      -7.186   9.747  66.106  1.00  0.00    -0.100 C  
HETATM   31  C   UNL     1      -6.294  10.676  65.302  1.00  0.00    -0.025 C  
ENDBRANCH  29  30
ENDBRANCH  28  29
ENDBRANCH  27  28
ENDBRANCH  25  27
ENDBRANCH  24  25
ENDBRANCH   4  24
TORSDOF 7
ENDMDL
MODEL       20
REMARK 921   NORMALIZED FREE ENERGY PREDICTED BY IDOCK:   -4.78 KCAL/MOL
REMARK 922        TOTAL FREE ENERGY PREDICTED BY IDOCK:   -6.94 KCAL/MOL
REMARK 923 INTER-LIGAND FREE ENERGY PREDICTED BY IDOCK:   -6.68 KCAL/MOL
REMARK 924 INTRA-LIGAND FREE ENERGY PREDICTED BY IDOCK:   -0.26 KCAL/MOL
REMARK 927      BINDING AFFINITY PREDICTED BY RF-SCORE:    0.00 PKD
ROOT
HETATM    1  C   UNL     1     -10.167  10.270  66.890  1.00  0.00    -0.286 C  
HETATM    2  C   UNL     1     -11.229  10.752  67.697  1.00  0.00    -0.370 C  
HETATM    3  C   UNL     1      -9.861  10.837  68.271  1.00  0.00    -0.177 C  
HETATM    4  C   UNL     1      -8.343  10.438  66.935  1.00  0.00    -0.124 C  
HETATM    5  C   UNL     1      -9.806   5.977  68.787  1.00  0.00    -0.170 C  
HETATM    6  C   UNL     1      -9.328   5.849  71.595  1.00  0.00    -0.162 C  
HETATM    7  C   UNL     1      -8.833  11.614  67.399  1.00  0.00    -0.160 C  
HETATM    8  C   UNL     1      -8.986  12.994  66.785  1.00  0.00    -0.179 C  
HETATM    9  O   UNL     1      -9.294   3.485  71.153  1.00  0.00    -0.114 OA 
HETATM   10  C   UNL     1     -10.429   6.211  67.430  1.00  0.00    -0.309 C  
HETATM   11  C   UNL     1      -8.467   6.853  70.837  1.00  0.00    -0.135 C  
HETATM   12  C   UNL     1      -7.883  11.259  68.968  1.00  0.00    -0.079 C  
HETATM   13  C   UNL     1      -7.814   9.554  69.307  1.00  0.00    -0.088 C  
HETATM   14  C   UNL     1      -9.540   4.621  70.770  1.00  0.00    -0.181 C  
HETATM   15  C   UNL     1     -10.157   4.865  69.458  1.00  0.00    -0.286 C  
HETATM   16  C   UNL     1      -7.396   6.474  68.584  1.00  0.00    -0.087 C  
HETATM   17  C   UNL     1      -9.036   8.454  68.910  1.00  0.00    -0.146 C  
HETATM   18  C   UNL     1      -9.697   8.606  67.423  1.00  0.00    -0.227 C  
HETATM   19  C   UNL     1      -8.696   6.943  69.275  1.00  0.00    -0.135 C  
HETATM   20  C   UNL     1     -10.872   7.652  67.224  1.00  0.00    -0.263 C  
ENDROOT
BRANCH   4  21
HETATM   21  C   UNL     1      -6.773  10.850  66.749  1.00  0.00    -0.120 C  
HETATM   22  O   UNL     1      -6.376  11.993  66.486  1.00  0.00    -0.066 OA 
HETATM   23  C   UNL     1      -5.708   9.791  66.816  1.00  0.00    -0.050 C  
ENDBRANCH   4  21
BRANCH   4  24
HETATM   24  O   UNL     1      -8.544  10.717  65.403  1.00  0.00    -0.177 OA 
BRANCH  24  25
HETATM   25  C   UNL     1      -8.523   9.731  64.469  1.00  0.00    -0.176 C  
HETATM   26  O   UNL     1      -7.962   8.655  64.587  1.00  0.00    -0.125 OA 
BRANCH  25  27
HETATM   27  C   UNL     1      -9.469  10.100  63.340  1.00  0.00    -0.308 C  
BRANCH  27  28
HETATM   28  C   UNL     1      -9.878  11.557  63.350  1.00  0.00    -0.422 C  
BRANCH  28  29
HETATM   29  C   UNL     1     -11.373  11.732  63.595  1.00  0.00    -0.525 C  
BRANCH  29  30
HETATM   30  C   UNL     1     -11.682  13.155  64.042  1.00  0.00    -0.496 C  
HETATM   31  C   UNL     1     -12.575  13.159  65.269  1.00  0.00    -0.531 C  
ENDBRANCH  29  30
ENDBRANCH  28  29
ENDBRANCH  27  28
ENDBRANCH  25  27
ENDBRANCH  24  25
ENDBRANCH   4  24
TORSDOF 7
ENDMDL
MODEL       21
REMARK 921   NORMALIZED FREE ENERGY PREDICTED BY IDOCK:   -4.78 KCAL/MOL
REMARK 922        TOTAL FREE ENERGY PREDICTED BY IDOCK:   -6.94 KCAL/MOL
REMARK 923 INTER-LIGAND FREE ENERGY PREDICTED BY IDOCK:   -7.74 KCAL/MOL
REMARK 924 INTRA-LIGAND FREE ENERGY PREDICTED BY IDOCK:    0.80 KCAL/MOL
REMARK 927      BINDING AFFINITY PREDICTED BY RF-SCORE:    0.00 PKD
ROOT
HETATM    1  C   UNL     1      -8.985  12.844  68.405  1.00  0.00    -0.124 C  
HETATM    2  C   UNL     1      -7.627  13.199  68.201  1.00  0.00    -0.141 C  
HETATM    3  C   UNL     1      -8.443  12.946  66.985  1.00  0.00    -0.146 C  
HETATM    4  C   UNL     1     -10.466  12.765  67.329  1.00  0.00    -0.232 C  
HETATM    5  C   UNL     1      -8.493   8.176  68.045  1.00  0.00    -0.133 C  
HETATM    6  C   UNL     1      -7.346   7.187  65.628  1.00  0.00    -0.079 C  
HETATM    7  C   UNL     1      -9.733  13.809  66.870  1.00  0.00    -0.265 C  
HETATM    8  C   UNL     1      -9.862  15.315  67.009  1.00  0.00    -0.233 C  
HETATM    9  O   UNL     1      -7.759   5.065  66.683  1.00  0.00    -0.091 OA 
HETATM   10  C   UNL     1      -8.710   8.865  69.372  1.00  0.00    -0.142 C  
HETATM   11  C   UNL     1      -8.420   8.253  65.446  1.00  0.00    -0.189 C  
HETATM   12  C   UNL     1      -9.677  12.903  65.237  1.00  0.00    -0.006 C  
HETATM   13  C   UNL     1      -9.648  11.178  65.459  1.00  0.00    -0.263 C  
HETATM   14  C   UNL     1      -7.698   6.284  66.766  1.00  0.00    -0.100 C  
HETATM   15  C   UNL     1      -7.896   6.970  68.051  1.00  0.00    -0.114 C  
HETATM   16  C   UNL     1     -10.578   8.409  66.745  1.00  0.00    -0.227 C  
HETATM   17  C   UNL     1      -8.917  10.398  66.769  1.00  0.00    -0.153 C  
HETATM   18  C   UNL     1      -9.180  11.051  68.245  1.00  0.00    -0.165 C  
HETATM   19  C   UNL     1      -9.088   8.816  66.765  1.00  0.00    -0.180 C  
HETATM   20  C   UNL     1      -8.370  10.347  69.330  1.00  0.00    -0.161 C  
ENDROOT
BRANCH   4  21
HETATM   21  C   UNL     1     -11.850  13.016  66.498  1.00  0.00    -0.403 C  
HETATM   22  O   UNL     1     -12.487  12.129  65.915  1.00  0.00    -0.453 OA 
HETATM   23  C   UNL     1     -12.385  14.412  66.339  1.00  0.00    -0.298 C  
ENDBRANCH   4  21
BRANCH   4  24
HETATM   24  O   UNL     1     -11.129  13.496  68.551  1.00  0.00    -0.249 OA 
BRANCH  24  25
HETATM   25  C   UNL     1     -11.941  12.858  69.435  1.00  0.00    -0.269 C  
HETATM   26  O   UNL     1     -12.193  11.665  69.432  1.00  0.00    -0.271 OA 
BRANCH  25  27
HETATM   27  C   UNL     1     -12.325  13.828  70.539  1.00  0.00    -0.429 C  
BRANCH  27  28
HETATM   28  C   UNL     1     -11.424  15.041  70.615  1.00  0.00    -0.338 C  
BRANCH  28  29
HETATM   29  C   UNL     1     -11.830  15.986  71.741  1.00  0.00    -0.599 C  
BRANCH  29  30
HETATM   30  C   UNL     1     -12.688  15.261  72.769  1.00  0.00    -0.495 C  
HETATM   31  C   UNL     1     -12.452  15.814  74.164  1.00  0.00    -0.793 C  
ENDBRANCH  29  30
ENDBRANCH  28  29
ENDBRANCH  27  28
ENDBRANCH  25  27
ENDBRANCH  24  25
ENDBRANCH   4  24
TORSDOF 7
ENDMDL
MODEL       22
REMARK 921   NORMALIZED FREE ENERGY PREDICTED BY IDOCK:   -4.70 KCAL/MOL
REMARK 922        TOTAL FREE ENERGY PREDICTED BY IDOCK:   -6.82 KCAL/MOL
REMARK 923 INTER-LIGAND FREE ENERGY PREDICTED BY IDOCK:   -7.34 KCAL/MOL
REMARK 924 INTRA-LIGAND FREE ENERGY PREDICTED BY IDOCK:    0.52 KCAL/MOL
REMARK 927      BINDING AFFINITY PREDICTED BY RF-SCORE:    0.00 PKD
ROOT
HETATM    1  C   UNL     1      -8.579  11.076  69.135  1.00  0.00    -0.009 C  
HETATM    2  C   UNL     1      -7.253  10.927  69.615  1.00  0.00    -0.098 C  
HETATM    3  C   UNL     1      -7.458  10.761  68.153  1.00  0.00    -0.091 C  
HETATM    4  C   UNL     1      -9.325  11.314  67.478  1.00  0.00    -0.162 C  
HETATM    5  C   UNL     1      -9.730   6.513  68.979  1.00  0.00    -0.140 C  
HETATM    6  C   UNL     1      -8.066   4.822  67.397  1.00  0.00    -0.102 C  
HETATM    7  C   UNL     1      -8.137  11.969  67.446  1.00  0.00    -0.168 C  
HETATM    8  C   UNL     1      -7.753  13.435  67.530  1.00  0.00    -0.182 C  
HETATM    9  O   UNL     1      -9.658   3.156  68.087  1.00  0.00    -0.180 OA 
HETATM   10  C   UNL     1     -10.254   7.442  70.049  1.00  0.00    -0.211 C  
HETATM   11  C   UNL     1      -8.465   6.137  66.738  1.00  0.00    -0.111 C  
HETATM   12  C   UNL     1      -7.684  10.842  66.027  1.00  0.00    -0.139 C  
HETATM   13  C   UNL     1      -8.395   9.264  66.207  1.00  0.00    -0.124 C  
HETATM   14  C   UNL     1      -9.199   4.284  68.210  1.00  0.00    -0.142 C  
HETATM   15  C   UNL     1      -9.691   5.197  69.252  1.00  0.00    -0.242 C  
HETATM   16  C   UNL     1     -10.749   7.205  66.839  1.00  0.00    -0.363 C  
HETATM   17  C   UNL     1      -8.681   8.512  67.694  1.00  0.00    -0.136 C  
HETATM   18  C   UNL     1      -9.323   9.447  68.871  1.00  0.00    -0.154 C  
HETATM   19  C   UNL     1      -9.398   7.096  67.581  1.00  0.00    -0.135 C  
HETATM   20  C   UNL     1      -9.415   8.702  70.200  1.00  0.00    -0.172 C  
ENDROOT
BRANCH   4  21
HETATM   21  C   UNL     1      -9.980  11.868  66.088  1.00  0.00    -0.228 C  
HETATM   22  O   UNL     1      -9.829  13.017  65.652  1.00  0.00    -0.251 OA 
HETATM   23  C   UNL     1     -10.896  10.985  65.288  1.00  0.00    -0.172 C  
ENDBRANCH   4  21
BRANCH   4  24
HETATM   24  O   UNL     1     -10.148  12.412  68.242  1.00  0.00    -0.217 OA 
BRANCH  24  25
HETATM   25  C   UNL     1     -11.477  12.286  68.498  1.00  0.00    -0.303 C  
HETATM   26  O   UNL     1     -12.117  11.251  68.425  1.00  0.00    -0.598 OA 
BRANCH  25  27
HETATM   27  C   UNL     1     -11.993  13.592  69.077  1.00  0.00    -0.376 C  
BRANCH  27  28
HETATM   28  C   UNL     1     -12.181  13.552  70.577  1.00  0.00    -0.433 C  
BRANCH  28  29
HETATM   29  C   UNL     1     -13.115  14.653  71.068  1.00  0.00    -0.427 C  
BRANCH  29  30
HETATM   30  C   UNL     1     -13.524  14.407  72.514  1.00  0.00    -0.593 C  
HETATM   31  C   UNL     1     -12.618  15.160  73.472  1.00  0.00    -0.682 C  
ENDBRANCH  29  30
ENDBRANCH  28  29
ENDBRANCH  27  28
ENDBRANCH  25  27
ENDBRANCH  24  25
ENDBRANCH   4  24
TORSDOF 7
ENDMDL
MODEL       23
REMARK 921   NORMALIZED FREE ENERGY PREDICTED BY IDOCK:   -4.66 KCAL/MOL
REMARK 922        TOTAL FREE ENERGY PREDICTED BY IDOCK:   -6.78 KCAL/MOL
REMARK 923 INTER-LIGAND FREE ENERGY PREDICTED BY IDOCK:   -6.87 KCAL/MOL
REMARK 924 INTRA-LIGAND FREE ENERGY PREDICTED BY IDOCK:    0.09 KCAL/MOL
REMARK 927      BINDING AFFINITY PREDICTED BY RF-SCORE:    0.00 PKD
ROOT
HETATM    1  C   UNL     1      -7.946   8.601  66.643  1.00  0.00    -0.096 C  
HETATM    2  C   UNL     1      -6.675   9.020  66.175  1.00  0.00    -0.070 C  
HETATM    3  C   UNL     1      -7.142   9.606  67.458  1.00  0.00    -0.088 C  
HETATM    4  C   UNL     1      -8.826   8.718  68.246  1.00  0.00    -0.141 C  
HETATM    5  C   UNL     1     -10.462  12.232  65.016  1.00  0.00    -0.322 C  
HETATM    6  C   UNL     1      -9.667  14.834  65.873  1.00  0.00    -0.355 C  
HETATM    7  C   UNL     1      -7.513   8.569  68.556  1.00  0.00    -0.094 C  
HETATM    8  C   UNL     1      -6.685   7.394  69.047  1.00  0.00    -0.052 C  
HETATM    9  O   UNL     1     -11.571  15.493  64.559  1.00  0.00    -0.399 OA 
HETATM   10  C   UNL     1     -10.503  10.867  64.370  1.00  0.00    -0.403 C  
HETATM   11  C   UNL     1      -9.735  13.782  66.974  1.00  0.00    -0.251 C  
HETATM   12  C   UNL     1      -7.655  10.204  69.447  1.00  0.00    -0.133 C  
HETATM   13  C   UNL     1      -8.783  11.270  68.661  1.00  0.00    -0.136 C  
HETATM   14  C   UNL     1     -10.773  14.626  64.888  1.00  0.00    -0.427 C  
HETATM   15  C   UNL     1     -10.792  13.296  64.261  1.00  0.00    -0.414 C  
HETATM   16  C   UNL     1     -11.533  12.030  67.231  1.00  0.00    -0.403 C  
HETATM   17  C   UNL     1      -9.056  11.305  66.992  1.00  0.00    -0.167 C  
HETATM   18  C   UNL     1      -9.189   9.856  66.246  1.00  0.00    -0.208 C  
HETATM   19  C   UNL     1     -10.185  12.330  66.537  1.00  0.00    -0.235 C  
HETATM   20  C   UNL     1      -9.302  10.006  64.731  1.00  0.00    -0.330 C  
ENDROOT
BRANCH   4  21
HETATM   21  C   UNL     1      -9.482   8.498  69.726  1.00  0.00    -0.166 C  
HETATM   22  O   UNL     1      -8.982   7.797  70.616  1.00  0.00    -0.143 OA 
HETATM   23  C   UNL     1     -10.818   9.105  70.050  1.00  0.00    -0.256 C  
ENDBRANCH   4  21
BRANCH   4  24
HETATM   24  O   UNL     1      -9.141   7.211  67.940  1.00  0.00    -0.129 OA 
BRANCH  24  25
HETATM   25  C   UNL     1     -10.407   6.747  67.766  1.00  0.00    -0.198 C  
HETATM   26  O   UNL     1     -11.201   7.150  66.932  1.00  0.00    -0.243 OA 
BRANCH  25  27
HETATM   27  C   UNL     1     -10.607   5.521  68.639  1.00  0.00    -0.215 C  
BRANCH  27  28
HETATM   28  C   UNL     1      -9.491   4.507  68.516  1.00  0.00    -0.213 C  
BRANCH  28  29
HETATM   29  C   UNL     1      -9.268   3.740  69.816  1.00  0.00    -0.213 C  
BRANCH  29  30
HETATM   30  C   UNL     1     -10.054   4.374  70.956  1.00  0.00    -0.195 C  
HETATM   31  C   UNL     1      -9.400   4.087  72.295  1.00  0.00    -0.174 C  
ENDBRANCH  29  30
ENDBRANCH  28  29
ENDBRANCH  27  28
ENDBRANCH  25  27
ENDBRANCH  24  25
ENDBRANCH   4  24
TORSDOF 7
ENDMDL
MODEL       24
REMARK 921   NORMALIZED FREE ENERGY PREDICTED BY IDOCK:   -4.62 KCAL/MOL
REMARK 922        TOTAL FREE ENERGY PREDICTED BY IDOCK:   -6.72 KCAL/MOL
REMARK 923 INTER-LIGAND FREE ENERGY PREDICTED BY IDOCK:   -6.53 KCAL/MOL
REMARK 924 INTRA-LIGAND FREE ENERGY PREDICTED BY IDOCK:   -0.18 KCAL/MOL
REMARK 927      BINDING AFFINITY PREDICTED BY RF-SCORE:    0.00 PKD
ROOT
HETATM    1  C   UNL     1      -7.554   8.842  69.436  1.00  0.00    -0.081 C  
HETATM    2  C   UNL     1      -7.147   9.232  70.737  1.00  0.00    -0.121 C  
HETATM    3  C   UNL     1      -8.539   8.733  70.593  1.00  0.00    -0.203 C  
HETATM    4  C   UNL     1      -8.960   7.876  68.767  1.00  0.00    -0.141 C  
HETATM    5  C   UNL     1      -9.734  12.832  68.215  1.00  0.00    -0.216 C  
HETATM    6  C   UNL     1     -11.845  13.715  69.917  1.00  0.00    -0.389 C  
HETATM    7  C   UNL     1      -8.664   7.315  69.966  1.00  0.00    -0.141 C  
HETATM    8  C   UNL     1      -7.932   6.048  70.372  1.00  0.00    -0.107 C  
HETATM    9  O   UNL     1     -12.007  15.459  68.268  1.00  0.00    -0.283 OA 
HETATM   10  C   UNL     1      -8.382  12.449  67.661  1.00  0.00    -0.169 C  
HETATM   11  C   UNL     1     -11.871  12.232  69.569  1.00  0.00    -0.380 C  
HETATM   12  C   UNL     1     -10.419   7.721  70.460  1.00  0.00    -0.217 C  
HETATM   13  C   UNL     1     -10.973   9.192  69.716  1.00  0.00    -0.195 C  
HETATM   14  C   UNL     1     -11.387  14.516  68.740  1.00  0.00    -0.274 C  
HETATM   15  C   UNL     1     -10.066  14.136  68.220  1.00  0.00    -0.241 C  
HETATM   16  C   UNL     1     -11.383  11.239  67.301  1.00  0.00    -0.329 C  
HETATM   17  C   UNL     1      -9.977  10.510  69.353  1.00  0.00    -0.220 C  
HETATM   18  C   UNL     1      -8.530  10.164  68.677  1.00  0.00    -0.122 C  
HETATM   19  C   UNL     1     -10.722  11.708  68.617  1.00  0.00    -0.246 C  
HETATM   20  C   UNL     1      -7.666  11.412  68.515  1.00  0.00    -0.133 C  
ENDROOT
BRANCH   4  21
HETATM   21  C   UNL     1      -9.986   6.747  68.182  1.00  0.00    -0.149 C  
HETATM   22  O   UNL     1      -9.946   5.546  68.479  1.00  0.00    -0.138 OA 
HETATM   23  C   UNL     1     -11.014   7.130  67.155  1.00  0.00    -0.342 C  
ENDBRANCH   4  21
BRANCH   4  24
HETATM   24  O   UNL     1      -7.818   7.197  67.930  1.00  0.00    -0.110 OA 
BRANCH  24  25
HETATM   25  C   UNL     1      -7.786   7.228  66.572  1.00  0.00    -0.093 C  
HETATM   26  O   UNL     1      -7.903   6.262  65.838  1.00  0.00    -0.097 OA 
BRANCH  25  27
HETATM   27  C   UNL     1      -7.779   8.676  66.113  1.00  0.00    -0.097 C  
BRANCH  27  28
HETATM   28  C   UNL     1      -8.839   8.983  65.077  1.00  0.00    -0.213 C  
BRANCH  28  29
HETATM   29  C   UNL     1      -8.884  10.466  64.725  1.00  0.00    -0.211 C  
BRANCH  29  30
HETATM   30  C   UNL     1      -9.945  10.735  63.666  1.00  0.00    -0.405 C  
HETATM   31  C   UNL     1     -10.464  12.159  63.764  1.00  0.00    -0.470 C  
ENDBRANCH  29  30
ENDBRANCH  28  29
ENDBRANCH  27  28
ENDBRANCH  25  27
ENDBRANCH  24  25
ENDBRANCH   4  24
TORSDOF 7
ENDMDL
MODEL       25
REMARK 921   NORMALIZED FREE ENERGY PREDICTED BY IDOCK:   -4.60 KCAL/MOL
REMARK 922        TOTAL FREE ENERGY PREDICTED BY IDOCK:   -6.68 KCAL/MOL
REMARK 923 INTER-LIGAND FREE ENERGY PREDICTED BY IDOCK:   -6.85 KCAL/MOL
REMARK 924 INTRA-LIGAND FREE ENERGY PREDICTED BY IDOCK:    0.17 KCAL/MOL
REMARK 927      BINDING AFFINITY PREDICTED BY RF-SCORE:    0.00 PKD
ROOT
HETATM    1  C   UNL     1     -10.366   7.766  69.369  1.00  0.00    -0.219 C  
HETATM    2  C   UNL     1     -11.530   7.068  68.958  1.00  0.00     0.127 C  
HETATM    3  C   UNL     1     -10.385   7.073  68.012  1.00  0.00    -0.234 C  
HETATM    4  C   UNL     1      -8.626   7.808  68.795  1.00  0.00    -0.129 C  
HETATM    5  C   UNL     1     -11.195  11.805  67.097  1.00  0.00    -0.375 C  
HETATM    6  C   UNL     1     -11.559  11.640  64.273  1.00  0.00    -0.306 C  
HETATM    7  C   UNL     1      -9.049   6.534  68.599  1.00  0.00    -0.128 C  
HETATM    8  C   UNL     1      -8.816   5.232  69.345  1.00  0.00    -0.116 C  
HETATM    9  O   UNL     1     -11.750  14.028  64.485  1.00  0.00    -0.381 OA 
HETATM   10  C   UNL     1     -11.366  11.670  68.592  1.00  0.00    -0.326 C  
HETATM   11  C   UNL     1     -10.381  10.844  64.822  1.00  0.00    -0.391 C  
HETATM   12  C   UNL     1      -8.647   6.800  66.794  1.00  0.00    -0.119 C  
HETATM   13  C   UNL     1      -8.929   8.447  66.309  1.00  0.00    -0.213 C  
HETATM   14  C   UNL     1     -11.707  12.927  65.018  1.00  0.00    -0.344 C  
HETATM   15  C   UNL     1     -11.882  12.777  66.470  1.00  0.00    -0.471 C  
HETATM   16  C   UNL     1      -8.781  11.620  66.612  1.00  0.00    -0.187 C  
HETATM   17  C   UNL     1     -10.136   9.438  66.958  1.00  0.00    -0.304 C  
HETATM   18  C   UNL     1     -10.317   9.395  68.582  1.00  0.00    -0.227 C  
HETATM   19  C   UNL     1     -10.141  10.922  66.383  1.00  0.00    -0.280 C  
HETATM   20  C   UNL     1     -11.515  10.224  69.041  1.00  0.00    -0.200 C  
ENDROOT
BRANCH   4  21
HETATM   21  C   UNL     1      -7.025   7.607  68.539  1.00  0.00    -0.072 C  
HETATM   22  O   UNL     1      -6.311   8.404  67.916  1.00  0.00    -0.054 OA 
HETATM   23  C   UNL     1      -6.343   6.351  69.006  1.00  0.00    -0.038 C  
ENDBRANCH   4  21
BRANCH   4  24
HETATM   24  O   UNL     1      -8.340   7.698  70.336  1.00  0.00    -0.120 OA 
BRANCH  24  25
HETATM   25  C   UNL     1      -8.058   8.780  71.108  1.00  0.00    -0.157 C  
HETATM   26  O   UNL     1      -7.642   9.852  70.701  1.00  0.00    -0.288 OA 
BRANCH  25  27
HETATM   27  C   UNL     1      -8.527   8.509  72.527  1.00  0.00    -0.181 C  
BRANCH  27  28
HETATM   28  C   UNL     1      -9.141   7.138  72.706  1.00  0.00    -0.163 C  
BRANCH  28  29
HETATM   29  C   UNL     1     -10.618   7.215  73.077  1.00  0.00    -0.346 C  
BRANCH  29  30
HETATM   30  C   UNL     1     -11.377   6.020  72.514  1.00  0.00    -0.344 C  
HETATM   31  C   UNL     1     -10.528   4.763  72.562  1.00  0.00    -0.264 C  
ENDBRANCH  29  30
ENDBRANCH  28  29
ENDBRANCH  27  28
ENDBRANCH  25  27
ENDBRANCH  24  25
ENDBRANCH   4  24
TORSDOF 7
ENDMDL
MODEL       26
REMARK 921   NORMALIZED FREE ENERGY PREDICTED BY IDOCK:   -4.59 KCAL/MOL
REMARK 922        TOTAL FREE ENERGY PREDICTED BY IDOCK:   -6.68 KCAL/MOL
REMARK 923 INTER-LIGAND FREE ENERGY PREDICTED BY IDOCK:   -6.93 KCAL/MOL
REMARK 924 INTRA-LIGAND FREE ENERGY PREDICTED BY IDOCK:    0.25 KCAL/MOL
REMARK 927      BINDING AFFINITY PREDICTED BY RF-SCORE:    0.00 PKD
ROOT
HETATM    1  C   UNL     1      -7.780   9.461  70.530  1.00  0.00    -0.177 C  
HETATM    2  C   UNL     1      -6.551   9.113  71.144  1.00  0.00    -0.088 C  
HETATM    3  C   UNL     1      -6.951   8.321  69.953  1.00  0.00    -0.044 C  
HETATM    4  C   UNL     1      -8.561   9.082  68.915  1.00  0.00    -0.131 C  
HETATM    5  C   UNL     1     -10.479   6.196  72.583  1.00  0.00    -0.233 C  
HETATM    6  C   UNL     1      -9.694   3.476  72.236  1.00  0.00    -0.222 C  
HETATM    7  C   UNL     1      -7.229   9.160  68.672  1.00  0.00    -0.075 C  
HETATM    8  C   UNL     1      -6.344  10.221  68.043  1.00  0.00    -0.056 C  
HETATM    9  O   UNL     1     -11.692   3.076  73.515  1.00  0.00    -0.135 OA 
HETATM   10  C   UNL     1     -10.528   7.652  72.983  1.00  0.00    -0.414 C  
HETATM   11  C   UNL     1      -9.669   4.324  70.970  1.00  0.00    -0.260 C  
HETATM   12  C   UNL     1      -7.353   7.397  68.065  1.00  0.00    -0.096 C  
HETATM   13  C   UNL     1      -8.553   6.497  68.946  1.00  0.00    -0.125 C  
HETATM   14  C   UNL     1     -10.854   3.863  73.097  1.00  0.00    -0.174 C  
HETATM   15  C   UNL     1     -10.880   5.281  73.485  1.00  0.00    -0.358 C  
HETATM   16  C   UNL     1     -11.404   6.029  70.300  1.00  0.00    -0.336 C  
HETATM   17  C   UNL     1      -8.931   6.752  70.574  1.00  0.00    -0.152 C  
HETATM   18  C   UNL     1      -9.075   8.309  71.052  1.00  0.00    -0.189 C  
HETATM   19  C   UNL     1     -10.110   5.835  71.122  1.00  0.00    -0.257 C  
HETATM   20  C   UNL     1      -9.286   8.422  72.559  1.00  0.00    -0.346 C  
ENDROOT
BRANCH   4  21
HETATM   21  C   UNL     1      -9.118   9.053  67.380  1.00  0.00    -0.131 C  
HETATM   22  O   UNL     1      -8.579   9.635  66.429  1.00  0.00    -0.125 OA 
HETATM   23  C   UNL     1     -10.409   8.350  67.065  1.00  0.00    -0.385 C  
ENDBRANCH   4  21
BRANCH   4  24
HETATM   24  O   UNL     1      -8.859  10.624  68.939  1.00  0.00    -0.147 OA 
BRANCH  24  25
HETATM   25  C   UNL     1     -10.116  11.125  69.065  1.00  0.00    -0.155 C  
HETATM   26  O   UNL     1     -10.998  10.660  69.767  1.00  0.00    -0.257 OA 
BRANCH  25  27
HETATM   27  C   UNL     1     -10.186  12.463  68.349  1.00  0.00    -0.227 C  
BRANCH  27  28
HETATM   28  C   UNL     1     -11.589  12.849  67.933  1.00  0.00    -0.391 C  
BRANCH  28  29
HETATM   29  C   UNL     1     -11.996  14.212  68.483  1.00  0.00    -0.367 C  
BRANCH  29  30
HETATM   30  C   UNL     1     -11.996  14.198  70.006  1.00  0.00    -0.404 C  
HETATM   31  C   UNL     1     -12.531  15.505  70.563  1.00  0.00    -0.472 C  
ENDBRANCH  29  30
ENDBRANCH  28  29
ENDBRANCH  27  28
ENDBRANCH  25  27
ENDBRANCH  24  25
ENDBRANCH   4  24
TORSDOF 7
ENDMDL
MODEL       27
REMARK 921   NORMALIZED FREE ENERGY PREDICTED BY IDOCK:   -4.56 KCAL/MOL
REMARK 922        TOTAL FREE ENERGY PREDICTED BY IDOCK:   -6.63 KCAL/MOL
REMARK 923 INTER-LIGAND FREE ENERGY PREDICTED BY IDOCK:   -6.67 KCAL/MOL
REMARK 924 INTRA-LIGAND FREE ENERGY PREDICTED BY IDOCK:    0.04 KCAL/MOL
REMARK 927      BINDING AFFINITY PREDICTED BY RF-SCORE:    0.00 PKD
ROOT
HETATM    1  C   UNL     1     -10.973   7.297  70.166  1.00  0.00    -0.280 C  
HETATM    2  C   UNL     1     -12.051   6.500  70.629  1.00  0.00    -0.265 C  
HETATM    3  C   UNL     1     -10.692   6.129  71.103  1.00  0.00    -0.312 C  
HETATM    4  C   UNL     1      -9.225   7.511  70.673  1.00  0.00    -0.159 C  
HETATM    5  C   UNL     1      -9.592   4.528  66.619  1.00  0.00    -0.203 C  
HETATM    6  C   UNL     1      -8.896   1.843  67.281  1.00  0.00    -0.152 C  
HETATM    7  C   UNL     1      -9.914   7.272  71.817  1.00  0.00    -0.186 C  
HETATM    8  C   UNL     1     -10.394   8.162  72.949  1.00  0.00    -0.333 C  
HETATM    9  O   UNL     1      -8.405   1.735  64.928  1.00  0.00    -0.078 OA 
HETATM   10  C   UNL     1     -10.346   5.817  66.391  1.00  0.00    -0.207 C  
HETATM   11  C   UNL     1      -8.320   2.908  68.206  1.00  0.00    -0.091 C  
HETATM   12  C   UNL     1      -8.800   5.789  72.042  1.00  0.00    -0.138 C  
HETATM   13  C   UNL     1      -8.354   5.082  70.517  1.00  0.00    -0.101 C  
HETATM   14  C   UNL     1      -8.908   2.334  65.869  1.00  0.00    -0.124 C  
HETATM   15  C   UNL     1      -9.655   3.584  65.663  1.00  0.00    -0.117 C  
HETATM   16  C   UNL     1      -7.359   5.127  67.485  1.00  0.00    -0.082 C  
HETATM   17  C   UNL     1      -9.346   5.067  69.148  1.00  0.00    -0.174 C  
HETATM   18  C   UNL     1     -10.130   6.459  68.802  1.00  0.00    -0.182 C  
HETATM   19  C   UNL     1      -8.675   4.410  67.863  1.00  0.00    -0.116 C  
HETATM   20  C   UNL     1     -11.093   6.292  67.629  1.00  0.00    -0.368 C  
ENDROOT
BRANCH   4  21
HETATM   21  C   UNL     1      -7.793   7.974  71.307  1.00  0.00    -0.091 C  
HETATM   22  O   UNL     1      -7.668   8.619  72.357  1.00  0.00    -0.305 OA 
HETATM   23  C   UNL     1      -6.517   7.686  70.566  1.00  0.00    -0.038 C  
ENDBRANCH   4  21
BRANCH   4  24
HETATM   24  O   UNL     1      -9.590   9.031  70.522  1.00  0.00    -0.185 OA 
BRANCH  24  25
HETATM   25  C   UNL     1      -9.335   9.738  69.390  1.00  0.00    -0.202 C  
HETATM   26  O   UNL     1      -8.553   9.412  68.513  1.00  0.00    -0.122 OA 
BRANCH  25  27
HETATM   27  C   UNL     1     -10.319  10.891  69.296  1.00  0.00    -0.211 C  
BRANCH  27  28
HETATM   28  C   UNL     1     -11.665  10.585  69.917  1.00  0.00    -0.372 C  
BRANCH  28  29
HETATM   29  C   UNL     1     -12.260  11.800  70.621  1.00  0.00    -0.443 C  
BRANCH  29  30
HETATM   30  C   UNL     1     -13.051  11.375  71.852  1.00  0.00    -0.505 C  
HETATM   31  C   UNL     1     -13.307   9.878  71.844  1.00  0.00    -0.524 C  
ENDBRANCH  29  30
ENDBRANCH  28  29
ENDBRANCH  27  28
ENDBRANCH  25  27
ENDBRANCH  24  25
ENDBRANCH   4  24
TORSDOF 7
ENDMDL
MODEL       28
REMARK 921   NORMALIZED FREE ENERGY PREDICTED BY IDOCK:   -4.53 KCAL/MOL
REMARK 922        TOTAL FREE ENERGY PREDICTED BY IDOCK:   -6.59 KCAL/MOL
REMARK 923 INTER-LIGAND FREE ENERGY PREDICTED BY IDOCK:   -6.20 KCAL/MOL
REMARK 924 INTRA-LIGAND FREE ENERGY PREDICTED BY IDOCK:   -0.39 KCAL/MOL
REMARK 927      BINDING AFFINITY PREDICTED BY RF-SCORE:    0.00 PKD
ROOT
HETATM    1  C   UNL     1      -7.701   7.694  70.906  1.00  0.00    -0.088 C  
HETATM    2  C   UNL     1      -6.892   8.832  71.150  1.00  0.00    -0.078 C  
HETATM    3  C   UNL     1      -8.362   9.050  71.122  1.00  0.00    -0.212 C  
HETATM    4  C   UNL     1      -9.486   7.322  71.099  1.00  0.00    -0.156 C  
HETATM    5  C   UNL     1      -8.348   8.335  66.288  1.00  0.00    -0.124 C  
HETATM    6  C   UNL     1      -9.499  10.817  65.484  1.00  0.00    -0.253 C  
HETATM    7  C   UNL     1      -9.173   8.167  72.113  1.00  0.00    -0.258 C  
HETATM    8  C   UNL     1      -8.928   7.966  73.598  1.00  0.00    -0.337 C  
HETATM    9  O   UNL     1      -9.327   9.818  63.302  1.00  0.00    -0.259 OA 
HETATM   10  C   UNL     1      -7.419   7.276  66.834  1.00  0.00    -0.097 C  
HETATM   11  C   UNL     1     -10.185  10.137  66.662  1.00  0.00    -0.287 C  
HETATM   12  C   UNL     1     -10.466   9.314  71.405  1.00  0.00    -0.408 C  
HETATM   13  C   UNL     1     -10.548   9.198  69.671  1.00  0.00    -0.237 C  
HETATM   14  C   UNL     1      -9.040   9.797  64.491  1.00  0.00    -0.249 C  
HETATM   15  C   UNL     1      -8.129   8.780  65.037  1.00  0.00    -0.144 C  
HETATM   16  C   UNL     1     -10.651   7.666  66.873  1.00  0.00    -0.359 C  
HETATM   17  C   UNL     1      -9.223   8.863  68.675  1.00  0.00    -0.137 C  
HETATM   18  C   UNL     1      -8.222   7.671  69.173  1.00  0.00    -0.130 C  
HETATM   19  C   UNL     1      -9.581   8.752  67.128  1.00  0.00    -0.228 C  
HETATM   20  C   UNL     1      -6.997   7.545  68.271  1.00  0.00    -0.068 C  
ENDROOT
BRANCH   4  21
HETATM   21  C   UNL     1     -10.976   6.857  71.579  1.00  0.00    -0.238 C  
HETATM   22  O   UNL     1     -11.315   6.707  72.760  1.00  0.00    -0.253 OA 
HETATM   23  C   UNL     1     -12.017   6.502  70.554  1.00  0.00    -0.322 C  
ENDBRANCH   4  21
BRANCH   4  24
HETATM   24  O   UNL     1      -8.924   6.005  71.742  1.00  0.00    -0.139 OA 
BRANCH  24  25
HETATM   25  C   UNL     1      -9.191   4.771  71.238  1.00  0.00    -0.142 C  
HETATM   26  O   UNL     1      -9.911   3.935  71.757  1.00  0.00    -0.181 OA 
BRANCH  25  27
HETATM   27  C   UNL     1      -8.611   4.674  69.838  1.00  0.00    -0.096 C  
BRANCH  27  28
HETATM   28  C   UNL     1      -9.643   4.350  68.781  1.00  0.00    -0.224 C  
BRANCH  28  29
HETATM   29  C   UNL     1      -9.001   3.964  67.452  1.00  0.00    -0.153 C  
BRANCH  29  30
HETATM   30  C   UNL     1      -9.980   4.168  66.303  1.00  0.00    -0.185 C  
HETATM   31  C   UNL     1      -9.253   4.578  65.034  1.00  0.00    -0.157 C  
ENDBRANCH  29  30
ENDBRANCH  28  29
ENDBRANCH  27  28
ENDBRANCH  25  27
ENDBRANCH  24  25
ENDBRANCH   4  24
TORSDOF 7
ENDMDL
MODEL       29
REMARK 921   NORMALIZED FREE ENERGY PREDICTED BY IDOCK:   -4.51 KCAL/MOL
REMARK 922        TOTAL FREE ENERGY PREDICTED BY IDOCK:   -6.57 KCAL/MOL
REMARK 923 INTER-LIGAND FREE ENERGY PREDICTED BY IDOCK:   -6.73 KCAL/MOL
REMARK 924 INTRA-LIGAND FREE ENERGY PREDICTED BY IDOCK:    0.17 KCAL/MOL
REMARK 927      BINDING AFFINITY PREDICTED BY RF-SCORE:    0.00 PKD
ROOT
HETATM    1  C   UNL     1      -9.723   8.217  68.082  1.00  0.00    -0.178 C  
HETATM    2  C   UNL     1     -10.833   7.388  67.784  1.00  0.00    -0.186 C  
HETATM    3  C   UNL     1      -9.855   7.616  66.689  1.00  0.00    -0.283 C  
HETATM    4  C   UNL     1      -8.111   8.544  67.274  1.00  0.00    -0.105 C  
HETATM    5  C   UNL     1     -11.414  12.231  66.297  1.00  0.00    -0.435 C  
HETATM    6  C   UNL     1     -12.178  12.195  63.549  1.00  0.00    -0.670 C  
HETATM    7  C   UNL     1      -8.386   7.238  67.033  1.00  0.00    -0.118 C  
HETATM    8  C   UNL     1      -7.873   5.938  67.627  1.00  0.00    -0.098 C  
HETATM    9  O   UNL     1     -12.649  14.513  63.986  1.00  0.00    -0.797 OA 
HETATM   10  C   UNL     1     -11.336  11.979  67.784  1.00  0.00    -0.370 C  
HETATM   11  C   UNL     1     -10.835  11.543  63.857  1.00  0.00    -0.469 C  
HETATM   12  C   UNL     1      -8.302   7.673  65.218  1.00  0.00    -0.121 C  
HETATM   13  C   UNL     1      -8.870   9.289  64.917  1.00  0.00    -0.233 C  
HETATM   14  C   UNL     1     -12.380  13.398  64.413  1.00  0.00    -0.341 C  
HETATM   15  C   UNL     1     -12.311  13.133  65.857  1.00  0.00    -0.462 C  
HETATM   16  C   UNL     1      -9.099  12.426  65.462  1.00  0.00     0.333 C  
HETATM   17  C   UNL     1     -10.085  10.054  65.811  1.00  0.00    -0.320 C  
HETATM   18  C   UNL     1     -10.010   9.883  67.435  1.00  0.00    -0.235 C  
HETATM   19  C   UNL     1     -10.373  11.555  65.369  1.00  0.00    -0.322 C  
HETATM   20  C   UNL     1     -11.223  10.501  68.127  1.00  0.00    -0.357 C  
ENDROOT
BRANCH   4  21
HETATM   21  C   UNL     1      -6.555   8.592  66.778  1.00  0.00    -0.057 C  
HETATM   22  O   UNL     1      -5.749   7.661  66.912  1.00  0.00    -0.030 OA 
HETATM   23  C   UNL     1      -5.997   9.854  66.181  1.00  0.00    -0.065 C  
ENDBRANCH   4  21
BRANCH   4  24
HETATM   24  O   UNL     1      -7.582   8.379  68.744  1.00  0.00    -0.096 OA 
BRANCH  24  25
HETATM   25  C   UNL     1      -6.909   9.363  69.395  1.00  0.00    -0.049 C  
HETATM   26  O   UNL     1      -5.729   9.330  69.704  1.00  0.00    -0.033 OA 
BRANCH  25  27
HETATM   27  C   UNL     1      -7.804  10.585  69.502  1.00  0.00    -0.134 C  
BRANCH  27  28
HETATM   28  C   UNL     1      -7.134  11.863  69.045  1.00  0.00    -0.092 C  
BRANCH  28  29
HETATM   29  C   UNL     1      -8.112  12.806  68.352  1.00  0.00    -0.129 C  
BRANCH  29  30
HETATM   30  C   UNL     1      -7.572  14.230  68.345  1.00  0.00    -0.124 C  
HETATM   31  C   UNL     1      -8.628  15.212  67.869  1.00  0.00    -0.154 C  
ENDBRANCH  29  30
ENDBRANCH  28  29
ENDBRANCH  27  28
ENDBRANCH  25  27
ENDBRANCH  24  25
ENDBRANCH   4  24
TORSDOF 7
ENDMDL
MODEL       30
REMARK 921   NORMALIZED FREE ENERGY PREDICTED BY IDOCK:   -4.50 KCAL/MOL
REMARK 922        TOTAL FREE ENERGY PREDICTED BY IDOCK:   -6.55 KCAL/MOL
REMARK 923 INTER-LIGAND FREE ENERGY PREDICTED BY IDOCK:   -7.17 KCAL/MOL
REMARK 924 INTRA-LIGAND FREE ENERGY PREDICTED BY IDOCK:    0.62 KCAL/MOL
REMARK 927      BINDING AFFINITY PREDICTED BY RF-SCORE:    0.00 PKD
ROOT
HETATM    1  C   UNL     1     -10.636   5.576  70.214  1.00  0.00    -0.357 C  
HETATM    2  C   UNL     1     -10.133   4.476  69.474  1.00  0.00    -0.139 C  
HETATM    3  C   UNL     1      -9.212   5.096  70.461  1.00  0.00    -0.191 C  
HETATM    4  C   UNL     1     -10.099   6.458  71.728  1.00  0.00    -0.185 C  
HETATM    5  C   UNL     1      -8.808   9.022  67.579  1.00  0.00    -0.128 C  
HETATM    6  C   UNL     1      -5.978   9.009  67.229  1.00  0.00    -0.050 C  
HETATM    7  C   UNL     1      -9.757   5.158  71.917  1.00  0.00    -0.211 C  
HETATM    8  C   UNL     1     -10.359   4.030  72.736  1.00  0.00    -0.239 C  
HETATM    9  O   UNL     1      -6.448  11.018  65.992  1.00  0.00    -0.119 OA 
HETATM   10  C   UNL     1     -10.276   8.668  67.540  1.00  0.00    -0.308 C  
HETATM   11  C   UNL     1      -6.455   8.776  68.658  1.00  0.00    -0.054 C  
HETATM   12  C   UNL     1      -8.000   5.766  72.092  1.00  0.00    -0.107 C  
HETATM   13  C   UNL     1      -7.693   7.149  71.083  1.00  0.00    -0.090 C  
HETATM   14  C   UNL     1      -6.857  10.005  66.544  1.00  0.00    -0.087 C  
HETATM   15  C   UNL     1      -8.281   9.640  66.507  1.00  0.00    -0.119 C  
HETATM   16  C   UNL     1      -8.345   9.997  69.799  1.00  0.00    -0.187 C  
HETATM   17  C   UNL     1      -8.427   7.415  69.583  1.00  0.00    -0.133 C  
HETATM   18  C   UNL     1     -10.034   7.125  69.497  1.00  0.00    -0.165 C  
HETATM   19  C   UNL     1      -8.019   8.789  68.892  1.00  0.00    -0.105 C  
HETATM   20  C   UNL     1     -10.561   7.272  68.073  1.00  0.00    -0.247 C  
ENDROOT
BRANCH   4  21
HETATM   21  C   UNL     1      -9.849   7.028  73.238  1.00  0.00    -0.214 C  
HETATM   22  O   UNL     1     -10.310   6.514  74.266  1.00  0.00    -0.349 OA 
HETATM   23  C   UNL     1      -9.076   8.302  73.439  1.00  0.00    -0.244 C  
ENDBRANCH   4  21
BRANCH   4  24
HETATM   24  O   UNL     1     -11.623   6.327  72.087  1.00  0.00    -0.293 OA 
BRANCH  24  25
HETATM   25  C   UNL     1     -12.551   7.234  71.684  1.00  0.00    -0.368 C  
HETATM   26  O   UNL     1     -13.610   6.970  71.139  1.00  0.00    -0.271 OA 
BRANCH  25  27
HETATM   27  C   UNL     1     -12.153   8.607  72.195  1.00  0.00    -0.451 C  
BRANCH  27  28
HETATM   28  C   UNL     1     -12.006   9.638  71.097  1.00  0.00    -0.452 C  
BRANCH  28  29
HETATM   29  C   UNL     1     -12.689  10.955  71.453  1.00  0.00    -0.539 C  
BRANCH  29  30
HETATM   30  C   UNL     1     -12.307  12.044  70.458  1.00  0.00    -0.369 C  
HETATM   31  C   UNL     1     -11.963  11.449  69.104  1.00  0.00    -0.395 C  
ENDBRANCH  29  30
ENDBRANCH  28  29
ENDBRANCH  27  28
ENDBRANCH  25  27
ENDBRANCH  24  25
ENDBRANCH   4  24
TORSDOF 7
ENDMDL
MODEL       31
REMARK 921   NORMALIZED FREE ENERGY PREDICTED BY IDOCK:   -4.49 KCAL/MOL
REMARK 922        TOTAL FREE ENERGY PREDICTED BY IDOCK:   -6.54 KCAL/MOL
REMARK 923 INTER-LIGAND FREE ENERGY PREDICTED BY IDOCK:   -7.20 KCAL/MOL
REMARK 924 INTRA-LIGAND FREE ENERGY PREDICTED BY IDOCK:    0.66 KCAL/MOL
REMARK 927      BINDING AFFINITY PREDICTED BY RF-SCORE:    0.00 PKD
ROOT
HETATM    1  C   UNL     1     -10.276  13.878  68.771  1.00  0.00    -0.188 C  
HETATM    2  C   UNL     1     -11.316  14.367  69.601  1.00  0.00    -0.309 C  
HETATM    3  C   UNL     1     -11.489  14.548  68.137  1.00  0.00    -0.337 C  
HETATM    4  C   UNL     1     -10.122  13.531  66.978  1.00  0.00    -0.244 C  
HETATM    5  C   UNL     1      -7.965  17.935  68.169  1.00  0.00    -0.265 C  
HETATM    6  C   UNL     1      -9.450  20.110  67.074  1.00  0.00    -0.541 C  
HETATM    7  C   UNL     1     -11.407  13.239  67.300  1.00  0.00    -0.347 C  
HETATM    8  C   UNL     1     -12.153  11.937  67.531  1.00  0.00     0.118 C  
HETATM    9  O   UNL     1      -7.323  21.220  67.240  1.00  0.00    -0.484 OA 
HETATM   10  C   UNL     1      -7.450  16.839  69.072  1.00  0.00    -0.228 C  
HETATM   11  C   UNL     1      -9.642  18.773  66.366  1.00  0.00    -0.354 C  
HETATM   12  C   UNL     1     -11.896  14.524  66.036  1.00  0.00    -0.339 C  
HETATM   13  C   UNL     1     -10.745  15.826  65.964  1.00  0.00    -0.311 C  
HETATM   14  C   UNL     1      -8.031  20.262  67.519  1.00  0.00    -0.311 C  
HETATM   15  C   UNL     1      -7.550  19.192  68.405  1.00  0.00    -0.347 C  
HETATM   16  C   UNL     1      -7.822  17.103  65.849  1.00  0.00    -0.017 C  
HETATM   17  C   UNL     1      -9.854  16.385  67.288  1.00  0.00    -0.245 C  
HETATM   18  C   UNL     1      -9.204  15.244  68.262  1.00  0.00    -0.189 C  
HETATM   19  C   UNL     1      -8.824  17.547  66.938  1.00  0.00    -0.267 C  
HETATM   20  C   UNL     1      -8.537  15.859  69.490  1.00  0.00    -0.095 C  
ENDROOT
BRANCH   4  21
HETATM   21  C   UNL     1     -10.066  12.893  65.475  1.00  0.00    -0.257 C  
HETATM   22  O   UNL     1      -9.688  13.506  64.468  1.00  0.00    -0.028 OA 
HETATM   23  C   UNL     1     -10.566  11.496  65.235  1.00  0.00    -0.339 C  
ENDBRANCH   4  21
BRANCH   4  24
HETATM   24  O   UNL     1      -9.466  12.206  67.508  1.00  0.00    -0.174 OA 
BRANCH  24  25
HETATM   25  C   UNL     1      -8.130  11.969  67.437  1.00  0.00    -0.168 C  
HETATM   26  O   UNL     1      -7.281  12.787  67.126  1.00  0.00    -0.117 OA 
BRANCH  25  27
HETATM   27  C   UNL     1      -7.844  10.585  67.994  1.00  0.00    -0.105 C  
BRANCH  27  28
HETATM   28  C   UNL     1      -8.924  10.076  68.923  1.00  0.00    -0.152 C  
BRANCH  28  29
HETATM   29  C   UNL     1      -9.552   8.782  68.417  1.00  0.00    -0.157 C  
BRANCH  29  30
HETATM   30  C   UNL     1      -9.427   8.680  66.902  1.00  0.00    -0.235 C  
HETATM   31  C   UNL     1      -8.816   7.352  66.493  1.00  0.00    -0.165 C  
ENDBRANCH  29  30
ENDBRANCH  28  29
ENDBRANCH  27  28
ENDBRANCH  25  27
ENDBRANCH  24  25
ENDBRANCH   4  24
TORSDOF 7
ENDMDL
MODEL       32
REMARK 921   NORMALIZED FREE ENERGY PREDICTED BY IDOCK:   -4.49 KCAL/MOL
REMARK 922        TOTAL FREE ENERGY PREDICTED BY IDOCK:   -6.54 KCAL/MOL
REMARK 923 INTER-LIGAND FREE ENERGY PREDICTED BY IDOCK:   -7.56 KCAL/MOL
REMARK 924 INTRA-LIGAND FREE ENERGY PREDICTED BY IDOCK:    1.02 KCAL/MOL
REMARK 927      BINDING AFFINITY PREDICTED BY RF-SCORE:    0.00 PKD
ROOT
HETATM    1  C   UNL     1      -8.683  12.744  68.202  1.00  0.00    -0.193 C  
HETATM    2  C   UNL     1      -7.338  12.990  67.828  1.00  0.00    -0.139 C  
HETATM    3  C   UNL     1      -8.284  12.647  66.735  1.00  0.00     0.029 C  
HETATM    4  C   UNL     1     -10.269  12.631  67.290  1.00  0.00    -0.224 C  
HETATM    5  C   UNL     1      -8.462   8.045  68.369  1.00  0.00    -0.127 C  
HETATM    6  C   UNL     1      -7.617   6.713  65.993  1.00  0.00    -0.086 C  
HETATM    7  C   UNL     1      -9.535  13.568  66.639  1.00  0.00    -0.271 C  
HETATM    8  C   UNL     1      -9.575  15.085  66.605  1.00  0.00    -0.281 C  
HETATM    9  O   UNL     1      -8.025   4.757  67.334  1.00  0.00    -0.094 OA 
HETATM   10  C   UNL     1      -8.509   8.896  69.617  1.00  0.00    -0.129 C  
HETATM   11  C   UNL     1      -8.650   7.814  65.786  1.00  0.00    -0.162 C  
HETATM   12  C   UNL     1      -9.690  12.476  65.131  1.00  0.00    -0.042 C  
HETATM   13  C   UNL     1      -9.725  10.790  65.558  1.00  0.00    -0.290 C  
HETATM   14  C   UNL     1      -7.896   5.972  67.262  1.00  0.00    -0.102 C  
HETATM   15  C   UNL     1      -7.928   6.814  68.466  1.00  0.00    -0.119 C  
HETATM   16  C   UNL     1     -10.655   8.252  67.255  1.00  0.00    -0.335 C  
HETATM   17  C   UNL     1      -8.903  10.125  66.878  1.00  0.00    -0.142 C  
HETATM   18  C   UNL     1      -8.982  10.961  68.281  1.00  0.00    -0.150 C  
HETATM   19  C   UNL     1      -9.152   8.566  67.083  1.00  0.00    -0.164 C  
HETATM   20  C   UNL     1      -8.102  10.339  69.362  1.00  0.00    -0.167 C  
ENDROOT
BRANCH   4  21
HETATM   21  C   UNL     1     -11.716  12.868  66.570  1.00  0.00    -0.393 C  
HETATM   22  O   UNL     1     -12.391  11.973  66.045  1.00  0.00    -0.462 OA 
HETATM   23  C   UNL     1     -12.270  14.260  66.444  1.00  0.00    -0.426 C  
ENDBRANCH   4  21
BRANCH   4  24
HETATM   24  O   UNL     1     -10.767  13.539  68.471  1.00  0.00    -0.243 OA 
BRANCH  24  25
HETATM   25  C   UNL     1     -11.712  13.134  69.359  1.00  0.00    -0.327 C  
HETATM   26  O   UNL     1     -12.532  13.857  69.900  1.00  0.00    -0.320 OA 
BRANCH  25  27
HETATM   27  C   UNL     1     -11.714  11.616  69.419  1.00  0.00    -0.405 C  
BRANCH  27  28
HETATM   28  C   UNL     1     -12.152  11.068  70.760  1.00  0.00    -0.467 C  
BRANCH  28  29
HETATM   29  C   UNL     1     -11.410   9.787  71.126  1.00  0.00    -0.459 C  
BRANCH  29  30
HETATM   30  C   UNL     1     -12.393   8.653  71.386  1.00  0.00    -0.344 C  
HETATM   31  C   UNL     1     -13.651   9.166  72.063  1.00  0.00    -0.520 C  
ENDBRANCH  29  30
ENDBRANCH  28  29
ENDBRANCH  27  28
ENDBRANCH  25  27
ENDBRANCH  24  25
ENDBRANCH   4  24
TORSDOF 7
ENDMDL
MODEL       33
REMARK 921   NORMALIZED FREE ENERGY PREDICTED BY IDOCK:   -4.47 KCAL/MOL
REMARK 922        TOTAL FREE ENERGY PREDICTED BY IDOCK:   -6.50 KCAL/MOL
REMARK 923 INTER-LIGAND FREE ENERGY PREDICTED BY IDOCK:   -6.46 KCAL/MOL
REMARK 924 INTRA-LIGAND FREE ENERGY PREDICTED BY IDOCK:   -0.04 KCAL/MOL
REMARK 927      BINDING AFFINITY PREDICTED BY RF-SCORE:    0.00 PKD
ROOT
HETATM    1  C   UNL     1      -9.748   5.437  68.007  1.00  0.00    -0.169 C  
HETATM    2  C   UNL     1     -10.739   5.427  66.993  1.00  0.00    -0.233 C  
HETATM    3  C   UNL     1      -9.729   6.515  66.931  1.00  0.00    -0.199 C  
HETATM    4  C   UNL     1      -8.137   6.284  68.219  1.00  0.00    -0.112 C  
HETATM    5  C   UNL     1     -11.767   8.596  70.855  1.00  0.00    -0.287 C  
HETATM    6  C   UNL     1     -12.355  11.150  69.729  1.00  0.00    -0.315 C  
HETATM    7  C   UNL     1      -8.250   6.033  66.891  1.00  0.00    -0.105 C  
HETATM    8  C   UNL     1      -7.632   4.996  65.970  1.00  0.00    -0.087 C  
HETATM    9  O   UNL     1     -13.107  11.601  71.969  1.00  0.00    -0.478 OA 
HETATM   10  C   UNL     1     -11.751   7.119  71.170  1.00  0.00    -0.350 C  
HETATM   11  C   UNL     1     -10.969  10.604  69.408  1.00  0.00    -0.304 C  
HETATM   12  C   UNL     1      -8.106   7.880  66.646  1.00  0.00    -0.107 C  
HETATM   13  C   UNL     1      -8.832   8.761  67.958  1.00  0.00    -0.141 C  
HETATM   14  C   UNL     1     -12.742  10.791  71.128  1.00  0.00    -0.431 C  
HETATM   15  C   UNL     1     -12.731   9.349  71.415  1.00  0.00    -0.425 C  
HETATM   16  C   UNL     1      -9.442   9.409  71.023  1.00  0.00    -0.243 C  
HETATM   17  C   UNL     1     -10.176   8.229  68.835  1.00  0.00    -0.222 C  
HETATM   18  C   UNL     1     -10.181   6.654  69.275  1.00  0.00    -0.206 C  
HETATM   19  C   UNL     1     -10.603   9.195  70.025  1.00  0.00    -0.250 C  
HETATM   20  C   UNL     1     -11.494   6.256  69.943  1.00  0.00    -0.459 C  
ENDROOT
BRANCH   4  21
HETATM   21  C   UNL     1      -6.570   6.740  68.279  1.00  0.00    -0.062 C  
HETATM   22  O   UNL     1      -5.662   6.213  67.622  1.00  0.00    -0.011 OA 
HETATM   23  C   UNL     1      -6.138   7.815  69.237  1.00  0.00    -0.034 C  
ENDBRANCH   4  21
BRANCH   4  24
HETATM   24  O   UNL     1      -7.683   4.849  68.666  1.00  0.00    -0.076 OA 
BRANCH  24  25
HETATM   25  C   UNL     1      -7.602   4.478  69.971  1.00  0.00    -0.054 C  
HETATM   26  O   UNL     1      -7.208   5.184  70.884  1.00  0.00    -0.060 OA 
BRANCH  25  27
HETATM   27  C   UNL     1      -8.263   3.121  70.140  1.00  0.00    -0.067 C  
BRANCH  27  28
HETATM   28  C   UNL     1      -9.636   3.195  70.771  1.00  0.00    -0.219 C  
BRANCH  28  29
HETATM   29  C   UNL     1      -9.583   2.999  72.283  1.00  0.00    -0.204 C  
BRANCH  29  30
HETATM   30  C   UNL     1      -9.832   4.316  73.005  1.00  0.00    -0.177 C  
HETATM   31  C   UNL     1     -11.240   4.369  73.572  1.00  0.00    -0.375 C  
ENDBRANCH  29  30
ENDBRANCH  28  29
ENDBRANCH  27  28
ENDBRANCH  25  27
ENDBRANCH  24  25
ENDBRANCH   4  24
TORSDOF 7
ENDMDL
MODEL       34
REMARK 921   NORMALIZED FREE ENERGY PREDICTED BY IDOCK:   -4.45 KCAL/MOL
REMARK 922        TOTAL FREE ENERGY PREDICTED BY IDOCK:   -6.48 KCAL/MOL
REMARK 923 INTER-LIGAND FREE ENERGY PREDICTED BY IDOCK:   -6.65 KCAL/MOL
REMARK 924 INTRA-LIGAND FREE ENERGY PREDICTED BY IDOCK:    0.17 KCAL/MOL
REMARK 927      BINDING AFFINITY PREDICTED BY RF-SCORE:    0.00 PKD
ROOT
HETATM    1  C   UNL     1      -9.941  12.173  65.405  1.00  0.00    -0.269 C  
HETATM    2  C   UNL     1     -10.474  11.043  64.735  1.00  0.00    -0.384 C  
HETATM    3  C   UNL     1     -10.963  11.294  66.116  1.00  0.00    -0.252 C  
HETATM    4  C   UNL     1     -10.413  13.117  66.904  1.00  0.00    -0.256 C  
HETATM    5  C   UNL     1      -6.606   9.949  67.874  1.00  0.00    -0.064 C  
HETATM    6  C   UNL     1      -7.467   7.837  69.586  1.00  0.00    -0.090 C  
HETATM    7  C   UNL     1     -11.579  12.704  66.346  1.00  0.00    -0.441 C  
HETATM    8  C   UNL     1     -12.643  13.403  65.519  1.00  0.00    -0.520 C  
HETATM    9  O   UNL     1      -5.125   7.763  70.132  1.00  0.00    -0.023 OA 
HETATM   10  C   UNL     1      -6.286  10.799  66.666  1.00  0.00    -0.092 C  
HETATM   11  C   UNL     1      -8.302   9.110  69.658  1.00  0.00    -0.130 C  
HETATM   12  C   UNL     1     -11.908  11.825  67.961  1.00  0.00    -0.304 C  
HETATM   13  C   UNL     1     -10.438  11.248  68.690  1.00  0.00    -0.226 C  
HETATM   14  C   UNL     1      -6.021   8.174  69.407  1.00  0.00    -0.037 C  
HETATM   15  C   UNL     1      -5.727   8.993  68.222  1.00  0.00    -0.038 C  
HETATM   16  C   UNL     1      -7.402  11.468  69.650  1.00  0.00     0.230 C  
HETATM   17  C   UNL     1      -9.083  10.728  67.821  1.00  0.00    -0.151 C  
HETATM   18  C   UNL     1      -8.638  11.650  66.547  1.00  0.00    -0.164 C  
HETATM   19  C   UNL     1      -7.847  10.308  68.731  1.00  0.00    -0.106 C  
HETATM   20  C   UNL     1      -7.490  11.019  65.763  1.00  0.00     0.073 C  
ENDROOT
BRANCH   4  21
HETATM   21  C   UNL     1     -10.996  14.168  68.010  1.00  0.00    -0.255 C  
HETATM   22  O   UNL     1     -12.030  14.835  67.865  1.00  0.00    -0.330 OA 
HETATM   23  C   UNL     1     -10.222  14.436  69.270  1.00  0.00    -0.077 C  
ENDBRANCH   4  21
BRANCH   4  24
HETATM   24  O   UNL     1     -10.149  14.341  65.956  1.00  0.00    -0.293 OA 
BRANCH  24  25
HETATM   25  C   UNL     1      -9.244  15.311  66.247  1.00  0.00    -0.315 C  
HETATM   26  O   UNL     1      -8.117  15.125  66.676  1.00  0.00    -0.161 OA 
BRANCH  25  27
HETATM   27  C   UNL     1      -9.784  16.648  65.770  1.00  0.00    -0.194 C  
BRANCH  27  28
HETATM   28  C   UNL     1      -9.335  17.816  66.621  1.00  0.00    -0.296 C  
BRANCH  28  29
HETATM   29  C   UNL     1     -10.163  17.948  67.896  1.00  0.00    -0.375 C  
BRANCH  29  30
HETATM   30  C   UNL     1     -10.217  19.400  68.353  1.00  0.00    -0.516 C  
HETATM   31  C   UNL     1      -9.886  20.344  67.211  1.00  0.00    -0.597 C  
ENDBRANCH  29  30
ENDBRANCH  28  29
ENDBRANCH  27  28
ENDBRANCH  25  27
ENDBRANCH  24  25
ENDBRANCH   4  24
TORSDOF 7
ENDMDL
MODEL       35
REMARK 921   NORMALIZED FREE ENERGY PREDICTED BY IDOCK:   -4.45 KCAL/MOL
REMARK 922        TOTAL FREE ENERGY PREDICTED BY IDOCK:   -6.48 KCAL/MOL
REMARK 923 INTER-LIGAND FREE ENERGY PREDICTED BY IDOCK:   -6.41 KCAL/MOL
REMARK 924 INTRA-LIGAND FREE ENERGY PREDICTED BY IDOCK:   -0.07 KCAL/MOL
REMARK 927      BINDING AFFINITY PREDICTED BY RF-SCORE:    0.00 PKD
ROOT
HETATM    1  C   UNL     1      -7.832   8.238  70.558  1.00  0.00    -0.087 C  
HETATM    2  C   UNL     1      -7.509   8.820  71.810  1.00  0.00    -0.080 C  
HETATM    3  C   UNL     1      -8.914   8.377  71.622  1.00  0.00    -0.261 C  
HETATM    4  C   UNL     1      -9.240   7.247  69.929  1.00  0.00    -0.141 C  
HETATM    5  C   UNL     1      -9.635  12.071  68.505  1.00  0.00    -0.146 C  
HETATM    6  C   UNL     1     -11.816  13.337  69.836  1.00  0.00    -0.380 C  
HETATM    7  C   UNL     1      -9.082   6.881  71.226  1.00  0.00    -0.149 C  
HETATM    8  C   UNL     1      -8.471   5.665  71.900  1.00  0.00    -0.127 C  
HETATM    9  O   UNL     1     -11.725  14.784  67.916  1.00  0.00    -0.342 OA 
HETATM   10  C   UNL     1      -8.270  11.530  68.148  1.00  0.00    -0.149 C  
HETATM   11  C   UNL     1     -11.912  11.819  69.735  1.00  0.00    -0.392 C  
HETATM   12  C   UNL     1     -10.841   7.455  71.483  1.00  0.00    -0.247 C  
HETATM   13  C   UNL     1     -11.232   8.806  70.460  1.00  0.00    -0.278 C  
HETATM   14  C   UNL     1     -11.210  13.903  68.592  1.00  0.00    -0.270 C  
HETATM   15  C   UNL     1      -9.879  13.373  68.265  1.00  0.00    -0.235 C  
HETATM   16  C   UNL     1     -11.305  10.434  67.715  1.00  0.00    -0.205 C  
HETATM   17  C   UNL     1     -10.124   9.991  69.980  1.00  0.00    -0.289 C  
HETATM   18  C   UNL     1      -8.652   9.461  69.506  1.00  0.00    -0.158 C  
HETATM   19  C   UNL     1     -10.726  11.084  68.992  1.00  0.00    -0.258 C  
HETATM   20  C   UNL     1      -7.697  10.618  69.222  1.00  0.00    -0.142 C  
ENDROOT
BRANCH   4  21
HETATM   21  C   UNL     1     -10.286   6.090  69.445  1.00  0.00    -0.236 C  
HETATM   22  O   UNL     1     -10.391   4.975  69.974  1.00  0.00    -0.275 OA 
HETATM   23  C   UNL     1     -11.147   6.318  68.234  1.00  0.00    -0.364 C  
ENDBRANCH   4  21
BRANCH   4  24
HETATM   24  O   UNL     1      -8.080   6.378  69.324  1.00  0.00    -0.108 OA 
BRANCH  24  25
HETATM   25  C   UNL     1      -7.913   6.207  67.987  1.00  0.00    -0.110 C  
HETATM   26  O   UNL     1      -8.248   5.222  67.351  1.00  0.00    -0.104 OA 
BRANCH  25  27
HETATM   27  C   UNL     1      -7.425   7.511  67.380  1.00  0.00    -0.104 C  
BRANCH  27  28
HETATM   28  C   UNL     1      -7.893   7.724  65.957  1.00  0.00    -0.100 C  
BRANCH  28  29
HETATM   29  C   UNL     1      -9.195   8.515  65.894  1.00  0.00    -0.245 C  
BRANCH  29  30
HETATM   30  C   UNL     1      -9.060   9.699  64.945  1.00  0.00    -0.284 C  
HETATM   31  C   UNL     1      -7.609   9.925  64.559  1.00  0.00    -0.139 C  
ENDBRANCH  29  30
ENDBRANCH  28  29
ENDBRANCH  27  28
ENDBRANCH  25  27
ENDBRANCH  24  25
ENDBRANCH   4  24
TORSDOF 7
ENDMDL
MODEL       36
REMARK 921   NORMALIZED FREE ENERGY PREDICTED BY IDOCK:   -4.45 KCAL/MOL
REMARK 922        TOTAL FREE ENERGY PREDICTED BY IDOCK:   -6.47 KCAL/MOL
REMARK 923 INTER-LIGAND FREE ENERGY PREDICTED BY IDOCK:   -6.45 KCAL/MOL
REMARK 924 INTRA-LIGAND FREE ENERGY PREDICTED BY IDOCK:   -0.02 KCAL/MOL
REMARK 927      BINDING AFFINITY PREDICTED BY RF-SCORE:    0.00 PKD
ROOT
HETATM    1  C   UNL     1      -8.789  11.556  65.856  1.00  0.00    -0.107 C  
HETATM    2  C   UNL     1      -9.087  10.725  64.746  1.00  0.00    -0.222 C  
HETATM    3  C   UNL     1     -10.221  11.082  65.638  1.00  0.00    -0.318 C  
HETATM    4  C   UNL     1      -9.795  12.547  67.025  1.00  0.00    -0.217 C  
HETATM    5  C   UNL     1      -8.374   8.174  69.105  1.00  0.00    -0.131 C  
HETATM    6  C   UNL     1     -10.621   6.455  69.465  1.00  0.00    -0.308 C  
HETATM    7  C   UNL     1     -10.443  12.610  65.835  1.00  0.00    -0.295 C  
HETATM    8  C   UNL     1     -10.555  13.681  64.764  1.00  0.00    -0.436 C  
HETATM    9  O   UNL     1      -9.214   5.511  71.172  1.00  0.00    -0.146 OA 
HETATM   10  C   UNL     1      -7.176   8.895  68.532  1.00  0.00    -0.073 C  
HETATM   11  C   UNL     1     -10.949   7.941  69.379  1.00  0.00    -0.031 C  
HETATM   12  C   UNL     1     -11.902  11.847  66.718  1.00  0.00    -0.170 C  
HETATM   13  C   UNL     1     -11.394  10.746  67.966  1.00  0.00    -0.378 C  
HETATM   14  C   UNL     1      -9.338   6.249  70.204  1.00  0.00    -0.156 C  
HETATM   15  C   UNL     1      -8.181   6.950  69.628  1.00  0.00    -0.131 C  
HETATM   16  C   UNL     1      -9.637   9.806  70.459  1.00  0.00    -0.166 C  
HETATM   17  C   UNL     1      -9.992   9.803  67.891  1.00  0.00    -0.196 C  
HETATM   18  C   UNL     1      -8.641  10.550  67.353  1.00  0.00    -0.122 C  
HETATM   19  C   UNL     1      -9.726   8.926  69.192  1.00  0.00    -0.168 C  
HETATM   20  C   UNL     1      -7.475   9.575  67.204  1.00  0.00    -0.091 C  
ENDROOT
BRANCH   4  21
HETATM   21  C   UNL     1     -10.618  13.694  67.846  1.00  0.00    -0.249 C  
HETATM   22  O   UNL     1     -11.165  14.673  67.321  1.00  0.00    -0.313 OA 
HETATM   23  C   UNL     1     -10.680  13.642  69.347  1.00  0.00     0.019 C  
ENDBRANCH   4  21
BRANCH   4  24
HETATM   24  O   UNL     1      -8.695  13.626  66.722  1.00  0.00    -0.187 OA 
BRANCH  24  25
HETATM   25  C   UNL     1      -7.817  14.061  67.662  1.00  0.00    -0.176 C  
HETATM   26  O   UNL     1      -7.273  13.363  68.501  1.00  0.00    -0.098 OA 
BRANCH  25  27
HETATM   27  C   UNL     1      -7.469  15.512  67.378  1.00  0.00    -0.235 C  
BRANCH  27  28
HETATM   28  C   UNL     1      -8.329  16.138  66.302  1.00  0.00    -0.322 C  
BRANCH  28  29
HETATM   29  C   UNL     1      -8.374  17.658  66.415  1.00  0.00    -0.288 C  
BRANCH  29  30
HETATM   30  C   UNL     1      -9.801  18.138  66.649  1.00  0.00    -0.350 C  
HETATM   31  C   UNL     1     -10.173  18.047  68.118  1.00  0.00    -0.392 C  
ENDBRANCH  29  30
ENDBRANCH  28  29
ENDBRANCH  27  28
ENDBRANCH  25  27
ENDBRANCH  24  25
ENDBRANCH   4  24
TORSDOF 7
ENDMDL
MODEL       37
REMARK 921   NORMALIZED FREE ENERGY PREDICTED BY IDOCK:   -4.44 KCAL/MOL
REMARK 922        TOTAL FREE ENERGY PREDICTED BY IDOCK:   -6.46 KCAL/MOL
REMARK 923 INTER-LIGAND FREE ENERGY PREDICTED BY IDOCK:   -6.66 KCAL/MOL
REMARK 924 INTRA-LIGAND FREE ENERGY PREDICTED BY IDOCK:    0.20 KCAL/MOL
REMARK 927      BINDING AFFINITY PREDICTED BY RF-SCORE:    0.00 PKD
ROOT
HETATM    1  C   UNL     1      -9.576   9.797  64.854  1.00  0.00    -0.316 C  
HETATM    2  C   UNL     1      -9.179  10.172  63.546  1.00  0.00    -0.322 C  
HETATM    3  C   UNL     1      -8.185  10.376  64.630  1.00  0.00    -0.137 C  
HETATM    4  C   UNL     1      -8.688   9.511  66.432  1.00  0.00    -0.135 C  
HETATM    5  C   UNL     1     -10.886  14.053  66.380  1.00  0.00    -0.299 C  
HETATM    6  C   UNL     1      -8.923  16.119  66.268  1.00  0.00    -0.379 C  
HETATM    7  C   UNL     1      -7.843   9.101  65.454  1.00  0.00    -0.100 C  
HETATM    8  C   UNL     1      -7.440   7.733  64.931  1.00  0.00    -0.094 C  
HETATM    9  O   UNL     1     -10.691  17.406  67.271  1.00  0.00    -0.315 OA 
HETATM   10  C   UNL     1     -11.888  12.983  66.014  1.00  0.00    -0.471 C  
HETATM   11  C   UNL     1      -8.434  14.790  66.832  1.00  0.00    -0.230 C  
HETATM   12  C   UNL     1      -6.643  10.371  66.114  1.00  0.00    -0.112 C  
HETATM   13  C   UNL     1      -7.467  11.770  66.740  1.00  0.00    -0.057 C  
HETATM   14  C   UNL     1     -10.328  16.382  66.706  1.00  0.00    -0.293 C  
HETATM   15  C   UNL     1     -11.291  15.336  66.335  1.00  0.00    -0.161 C  
HETATM   16  C   UNL     1      -9.712  13.299  68.416  1.00  0.00    -0.198 C  
HETATM   17  C   UNL     1      -8.925  12.369  66.128  1.00  0.00     0.030 C  
HETATM   18  C   UNL     1     -10.081  11.264  65.787  1.00  0.00    -0.294 C  
HETATM   19  C   UNL     1      -9.499  13.625  66.920  1.00  0.00    -0.263 C  
HETATM   20  C   UNL     1     -11.297  11.902  65.121  1.00  0.00    -0.328 C  
ENDROOT
BRANCH   4  21
HETATM   21  C   UNL     1      -7.903   8.920  67.737  1.00  0.00    -0.102 C  
HETATM   22  O   UNL     1      -7.221   7.887  67.735  1.00  0.00    -0.086 OA 
HETATM   23  C   UNL     1      -8.050   9.599  69.070  1.00  0.00    -0.103 C  
ENDBRANCH   4  21
BRANCH   4  24
HETATM   24  O   UNL     1      -9.602   8.235  66.468  1.00  0.00    -0.209 OA 
BRANCH  24  25
HETATM   25  C   UNL     1     -10.601   8.074  67.375  1.00  0.00    -0.267 C  
HETATM   26  O   UNL     1     -11.248   8.975  67.884  1.00  0.00     0.096 OA 
BRANCH  25  27
HETATM   27  C   UNL     1     -10.916   6.594  67.506  1.00  0.00    -0.416 C  
BRANCH  27  28
HETATM   28  C   UNL     1     -10.989   6.119  68.941  1.00  0.00    -0.424 C  
BRANCH  28  29
HETATM   29  C   UNL     1      -9.634   5.647  69.458  1.00  0.00    -0.192 C  
BRANCH  29  30
HETATM   30  C   UNL     1      -9.766   4.300  70.157  1.00  0.00    -0.282 C  
HETATM   31  C   UNL     1      -9.133   3.193  69.333  1.00  0.00    -0.198 C  
ENDBRANCH  29  30
ENDBRANCH  28  29
ENDBRANCH  27  28
ENDBRANCH  25  27
ENDBRANCH  24  25
ENDBRANCH   4  24
TORSDOF 7
ENDMDL
MODEL       38
REMARK 921   NORMALIZED FREE ENERGY PREDICTED BY IDOCK:   -4.43 KCAL/MOL
REMARK 922        TOTAL FREE ENERGY PREDICTED BY IDOCK:   -6.45 KCAL/MOL
REMARK 923 INTER-LIGAND FREE ENERGY PREDICTED BY IDOCK:   -6.70 KCAL/MOL
REMARK 924 INTRA-LIGAND FREE ENERGY PREDICTED BY IDOCK:    0.25 KCAL/MOL
REMARK 927      BINDING AFFINITY PREDICTED BY RF-SCORE:    0.00 PKD
ROOT
HETATM    1  C   UNL     1      -8.684   9.902  69.843  1.00  0.00    -0.225 C  
HETATM    2  C   UNL     1      -7.454   9.685  70.515  1.00  0.00    -0.147 C  
HETATM    3  C   UNL     1      -7.422   9.642  69.031  1.00  0.00    -0.075 C  
HETATM    4  C   UNL     1      -9.150  10.289  68.114  1.00  0.00    -0.136 C  
HETATM    5  C   UNL     1      -9.835   5.394  69.127  1.00  0.00    -0.242 C  
HETATM    6  C   UNL     1      -7.953   3.798  67.697  1.00  0.00    -0.085 C  
HETATM    7  C   UNL     1      -7.967  10.918  68.326  1.00  0.00    -0.121 C  
HETATM    8  C   UNL     1      -7.588  12.364  68.593  1.00  0.00    -0.082 C  
HETATM    9  O   UNL     1      -9.651   2.118  67.983  1.00  0.00    -0.199 OA 
HETATM   10  C   UNL     1     -10.517   6.245  70.172  1.00  0.00    -0.278 C  
HETATM   11  C   UNL     1      -8.229   5.171  67.094  1.00  0.00    -0.107 C  
HETATM   12  C   UNL     1      -7.301   9.899  66.910  1.00  0.00    -0.091 C  
HETATM   13  C   UNL     1      -8.046   8.328  66.842  1.00  0.00    -0.103 C  
HETATM   14  C   UNL     1      -9.208   3.222  68.271  1.00  0.00    -0.184 C  
HETATM   15  C   UNL     1      -9.853   4.059  69.293  1.00  0.00    -0.089 C  
HETATM   16  C   UNL     1     -10.490   6.277  66.917  1.00  0.00    -0.337 C  
HETATM   17  C   UNL     1      -8.575   7.465  68.197  1.00  0.00    -0.123 C  
HETATM   18  C   UNL     1      -9.390   8.317  69.329  1.00  0.00    -0.155 C  
HETATM   19  C   UNL     1      -9.277   6.079  67.854  1.00  0.00    -0.111 C  
HETATM   20  C   UNL     1      -9.702   7.470  70.561  1.00  0.00    -0.179 C  
ENDROOT
BRANCH   4  21
HETATM   21  C   UNL     1      -9.567  10.967  66.687  1.00  0.00    -0.189 C  
HETATM   22  O   UNL     1      -9.466  12.174  66.430  1.00  0.00    -0.224 OA 
HETATM   23  C   UNL     1     -10.191  10.124  65.611  1.00  0.00    -0.288 C  
ENDBRANCH   4  21
BRANCH   4  24
HETATM   24  O   UNL     1     -10.076  11.340  68.825  1.00  0.00    -0.197 OA 
BRANCH  24  25
HETATM   25  C   UNL     1     -11.419  11.173  68.942  1.00  0.00    -0.295 C  
HETATM   26  O   UNL     1     -12.093  10.380  68.305  1.00  0.00    -0.187 OA 
BRANCH  25  27
HETATM   27  C   UNL     1     -11.916  11.985  70.125  1.00  0.00    -0.401 C  
BRANCH  27  28
HETATM   28  C   UNL     1     -12.879  11.228  71.013  1.00  0.00    -0.395 C  
BRANCH  28  29
HETATM   29  C   UNL     1     -12.314   9.882  71.454  1.00  0.00    -0.498 C  
BRANCH  29  30
HETATM   30  C   UNL     1     -13.343   9.107  72.267  1.00  0.00    -0.540 C  
HETATM   31  C   UNL     1     -13.846   7.898  71.498  1.00  0.00    -0.415 C  
ENDBRANCH  29  30
ENDBRANCH  28  29
ENDBRANCH  27  28
ENDBRANCH  25  27
ENDBRANCH  24  25
ENDBRANCH   4  24
TORSDOF 7
ENDMDL
MODEL       39
REMARK 921   NORMALIZED FREE ENERGY PREDICTED BY IDOCK:   -4.35 KCAL/MOL
REMARK 922        TOTAL FREE ENERGY PREDICTED BY IDOCK:   -6.33 KCAL/MOL
REMARK 923 INTER-LIGAND FREE ENERGY PREDICTED BY IDOCK:   -6.69 KCAL/MOL
REMARK 924 INTRA-LIGAND FREE ENERGY PREDICTED BY IDOCK:    0.35 KCAL/MOL
REMARK 927      BINDING AFFINITY PREDICTED BY RF-SCORE:    0.00 PKD
ROOT
HETATM    1  C   UNL     1     -10.003   7.806  68.392  1.00  0.00    -0.195 C  
HETATM    2  C   UNL     1     -11.065   6.988  67.932  1.00  0.00    -0.135 C  
HETATM    3  C   UNL     1      -9.944   7.224  66.985  1.00  0.00    -0.293 C  
HETATM    4  C   UNL     1      -8.293   8.132  67.818  1.00  0.00    -0.128 C  
HETATM    5  C   UNL     1     -11.411  11.854  66.444  1.00  0.00    -0.400 C  
HETATM    6  C   UNL     1     -11.788  11.857  63.617  1.00  0.00    -0.573 C  
HETATM    7  C   UNL     1      -8.539   6.831  67.524  1.00  0.00    -0.120 C  
HETATM    8  C   UNL     1      -8.119   5.520  68.166  1.00  0.00    -0.096 C  
HETATM    9  O   UNL     1     -12.303  14.173  64.015  1.00  0.00    -0.647 OA 
HETATM   10  C   UNL     1     -11.541  11.582  67.924  1.00  0.00    -0.352 C  
HETATM   11  C   UNL     1     -10.503  11.192  64.099  1.00  0.00    -0.442 C  
HETATM   12  C   UNL     1      -8.202   7.288  65.745  1.00  0.00    -0.135 C  
HETATM   13  C   UNL     1      -8.715   8.912  65.390  1.00  0.00    -0.224 C  
HETATM   14  C   UNL     1     -12.101  13.051  64.461  1.00  0.00    -0.410 C  
HETATM   15  C   UNL     1     -12.234  12.767  65.897  1.00  0.00    -0.422 C  
HETATM   16  C   UNL     1      -9.002  12.043  65.939  1.00  0.00     0.035 C  
HETATM   17  C   UNL     1     -10.038   9.674  66.118  1.00  0.00    -0.328 C  
HETATM   18  C   UNL     1     -10.190   9.482  67.734  1.00  0.00    -0.265 C  
HETATM   19  C   UNL     1     -10.255  11.183  65.660  1.00  0.00    -0.310 C  
HETATM   20  C   UNL     1     -11.483  10.099  68.260  1.00  0.00    -0.074 C  
ENDROOT
BRANCH   4  21
HETATM   21  C   UNL     1      -6.683   8.175  67.543  1.00  0.00    -0.062 C  
HETATM   22  O   UNL     1      -5.920   7.213  67.699  1.00  0.00    -0.030 OA 
HETATM   23  C   UNL     1      -6.026   9.467  67.145  1.00  0.00    -0.052 C  
ENDBRANCH   4  21
BRANCH   4  24
HETATM   24  O   UNL     1      -7.973   7.945  69.345  1.00  0.00    -0.112 OA 
BRANCH  24  25
HETATM   25  C   UNL     1      -7.896   8.989  70.211  1.00  0.00    -0.109 C  
HETATM   26  O   UNL     1      -7.712  10.155  69.901  1.00  0.00    -0.160 OA 
BRANCH  25  27
HETATM   27  C   UNL     1      -8.271   8.506  71.601  1.00  0.00    -0.209 C  
BRANCH  27  28
HETATM   28  C   UNL     1      -8.106   7.013  71.783  1.00  0.00    -0.099 C  
BRANCH  28  29
HETATM   29  C   UNL     1      -8.937   6.482  72.947  1.00  0.00    -0.135 C  
BRANCH  29  30
HETATM   30  C   UNL     1      -8.191   5.373  73.678  1.00  0.00    -0.113 C  
HETATM   31  C   UNL     1      -8.046   4.143  72.800  1.00  0.00    -0.092 C  
ENDBRANCH  29  30
ENDBRANCH  28  29
ENDBRANCH  27  28
ENDBRANCH  25  27
ENDBRANCH  24  25
ENDBRANCH   4  24
TORSDOF 7
ENDMDL
MODEL       40
REMARK 921   NORMALIZED FREE ENERGY PREDICTED BY IDOCK:   -4.32 KCAL/MOL
REMARK 922        TOTAL FREE ENERGY PREDICTED BY IDOCK:   -6.29 KCAL/MOL
REMARK 923 INTER-LIGAND FREE ENERGY PREDICTED BY IDOCK:   -6.49 KCAL/MOL
REMARK 924 INTRA-LIGAND FREE ENERGY PREDICTED BY IDOCK:    0.20 KCAL/MOL
REMARK 927      BINDING AFFINITY PREDICTED BY RF-SCORE:    0.00 PKD
ROOT
HETATM    1  C   UNL     1      -8.349   9.879  70.005  1.00  0.00    -0.191 C  
HETATM    2  C   UNL     1      -7.105   9.809  70.682  1.00  0.00    -0.097 C  
HETATM    3  C   UNL     1      -7.313   8.852  69.564  1.00  0.00    -0.071 C  
HETATM    4  C   UNL     1      -8.984   9.222  68.416  1.00  0.00    -0.129 C  
HETATM    5  C   UNL     1     -10.533   6.396  72.300  1.00  0.00    -0.222 C  
HETATM    6  C   UNL     1      -9.279   3.835  72.243  1.00  0.00    -0.163 C  
HETATM    7  C   UNL     1      -7.676   9.508  68.200  1.00  0.00    -0.083 C  
HETATM    8  C   UNL     1      -6.960  10.645  67.493  1.00  0.00    -0.083 C  
HETATM    9  O   UNL     1     -11.231   3.213  73.503  1.00  0.00    -0.221 OA 
HETATM   10  C   UNL     1     -10.847   7.852  72.553  1.00  0.00    -0.403 C  
HETATM   11  C   UNL     1      -9.346   4.554  70.900  1.00  0.00    -0.219 C  
HETATM   12  C   UNL     1      -7.471   7.702  67.767  1.00  0.00    -0.108 C  
HETATM   13  C   UNL     1      -8.535   6.692  68.701  1.00  0.00    -0.122 C  
HETATM   14  C   UNL     1     -10.524   4.092  73.031  1.00  0.00    -0.174 C  
HETATM   15  C   UNL     1     -10.809   5.513  73.276  1.00  0.00    -0.337 C  
HETATM   16  C   UNL     1     -11.318   5.860  70.022  1.00  0.00    -0.219 C  
HETATM   17  C   UNL     1      -9.019   7.027  70.286  1.00  0.00    -0.149 C  
HETATM   18  C   UNL     1      -9.448   8.571  70.605  1.00  0.00    -0.203 C  
HETATM   19  C   UNL     1     -10.045   5.972  70.891  1.00  0.00    -0.246 C  
HETATM   20  C   UNL     1      -9.739   8.785  72.088  1.00  0.00    -0.335 C  
ENDROOT
BRANCH   4  21
HETATM   21  C   UNL     1      -9.463   8.954  66.877  1.00  0.00    -0.177 C  
HETATM   22  O   UNL     1      -9.048   9.584  65.896  1.00  0.00    -0.159 OA 
HETATM   23  C   UNL     1     -10.532   7.937  66.592  1.00  0.00    -0.193 C  
ENDBRANCH   4  21
BRANCH   4  24
HETATM   24  O   UNL     1      -9.543  10.683  68.281  1.00  0.00    -0.153 OA 
BRANCH  24  25
HETATM   25  C   UNL     1     -10.872  10.965  68.310  1.00  0.00    -0.225 C  
HETATM   26  O   UNL     1     -11.672  10.525  69.118  1.00  0.00    -0.252 OA 
BRANCH  25  27
HETATM   27  C   UNL     1     -11.165  12.065  67.304  1.00  0.00    -0.371 C  
BRANCH  27  28
HETATM   28  C   UNL     1     -10.051  13.083  67.185  1.00  0.00    -0.244 C  
BRANCH  28  29
HETATM   29  C   UNL     1     -10.575  14.462  66.795  1.00  0.00    -0.282 C  
BRANCH  29  30
HETATM   30  C   UNL     1      -9.571  15.186  65.908  1.00  0.00    -0.373 C  
HETATM   31  C   UNL     1      -8.331  15.575  66.692  1.00  0.00    -0.286 C  
ENDBRANCH  29  30
ENDBRANCH  28  29
ENDBRANCH  27  28
ENDBRANCH  25  27
ENDBRANCH  24  25
ENDBRANCH   4  24
TORSDOF 7
ENDMDL
MODEL       41
REMARK 921   NORMALIZED FREE ENERGY PREDICTED BY IDOCK:   -4.30 KCAL/MOL
REMARK 922        TOTAL FREE ENERGY PREDICTED BY IDOCK:   -6.27 KCAL/MOL
REMARK 923 INTER-LIGAND FREE ENERGY PREDICTED BY IDOCK:   -6.44 KCAL/MOL
REMARK 924 INTRA-LIGAND FREE ENERGY PREDICTED BY IDOCK:    0.17 KCAL/MOL
REMARK 927      BINDING AFFINITY PREDICTED BY RF-SCORE:    0.00 PKD
ROOT
HETATM    1  C   UNL     1      -7.998   8.246  70.802  1.00  0.00    -0.100 C  
HETATM    2  C   UNL     1      -7.726   8.840  72.060  1.00  0.00    -0.025 C  
HETATM    3  C   UNL     1      -9.136   8.457  71.793  1.00  0.00    -0.283 C  
HETATM    4  C   UNL     1      -9.409   7.305  70.105  1.00  0.00    -0.155 C  
HETATM    5  C   UNL     1      -9.491  12.111  68.567  1.00  0.00    -0.125 C  
HETATM    6  C   UNL     1     -11.689  13.503  69.736  1.00  0.00    -0.363 C  
HETATM    7  C   UNL     1      -9.348   6.962  71.416  1.00  0.00    -0.156 C  
HETATM    8  C   UNL     1      -8.837   5.734  72.150  1.00  0.00    -0.137 C  
HETATM    9  O   UNL     1     -11.413  14.901  67.798  1.00  0.00    -0.318 OA 
HETATM   10  C   UNL     1      -8.134  11.501  68.307  1.00  0.00    -0.148 C  
HETATM   11  C   UNL     1     -11.849  11.989  69.658  1.00  0.00    -0.401 C  
HETATM   12  C   UNL     1     -11.091   7.620  71.552  1.00  0.00    -0.267 C  
HETATM   13  C   UNL     1     -11.356   8.965  70.481  1.00  0.00    -0.268 C  
HETATM   14  C   UNL     1     -10.982  14.013  68.521  1.00  0.00    -0.256 C  
HETATM   15  C   UNL     1      -9.659  13.416  68.288  1.00  0.00    -0.220 C  
HETATM   16  C   UNL     1     -11.184  10.534  67.707  1.00  0.00    -0.344 C  
HETATM   17  C   UNL     1     -10.167  10.087  70.048  1.00  0.00    -0.306 C  
HETATM   18  C   UNL     1      -8.695   9.481  69.677  1.00  0.00    -0.189 C  
HETATM   19  C   UNL     1     -10.654  11.185  69.004  1.00  0.00    -0.251 C  
HETATM   20  C   UNL     1      -7.671  10.587  69.432  1.00  0.00    -0.157 C  
ENDROOT
BRANCH   4  21
HETATM   21  C   UNL     1     -10.476   6.187  69.579  1.00  0.00    -0.254 C  
HETATM   22  O   UNL     1     -10.753   5.143  70.185  1.00  0.00    -0.239 OA 
HETATM   23  C   UNL     1     -11.136   6.353  68.238  1.00  0.00    -0.359 C  
ENDBRANCH   4  21
BRANCH   4  24
HETATM   24  O   UNL     1      -8.256   6.372  69.591  1.00  0.00    -0.121 OA 
BRANCH  24  25
HETATM   25  C   UNL     1      -7.943   6.251  68.274  1.00  0.00    -0.108 C  
HETATM   26  O   UNL     1      -7.962   7.154  67.455  1.00  0.00    -0.110 OA 
BRANCH  25  27
HETATM   27  C   UNL     1      -7.379   4.863  68.026  1.00  0.00    -0.070 C  
BRANCH  27  28
HETATM   28  C   UNL     1      -8.218   3.756  68.627  1.00  0.00    -0.084 C  
BRANCH  28  29
HETATM   29  C   UNL     1      -9.306   3.278  67.671  1.00  0.00    -0.245 C  
BRANCH  29  30
HETATM   30  C   UNL     1      -8.955   3.641  66.234  1.00  0.00    -0.144 C  
HETATM   31  C   UNL     1     -10.136   4.289  65.531  1.00  0.00    -0.235 C  
ENDBRANCH  29  30
ENDBRANCH  28  29
ENDBRANCH  27  28
ENDBRANCH  25  27
ENDBRANCH  24  25
ENDBRANCH   4  24
TORSDOF 7
ENDMDL
MODEL       42
REMARK 921   NORMALIZED FREE ENERGY PREDICTED BY IDOCK:   -4.30 KCAL/MOL
REMARK 922        TOTAL FREE ENERGY PREDICTED BY IDOCK:   -6.26 KCAL/MOL
REMARK 923 INTER-LIGAND FREE ENERGY PREDICTED BY IDOCK:   -6.18 KCAL/MOL
REMARK 924 INTRA-LIGAND FREE ENERGY PREDICTED BY IDOCK:   -0.09 KCAL/MOL
REMARK 927      BINDING AFFINITY PREDICTED BY RF-SCORE:    0.00 PKD
ROOT
HETATM    1  C   UNL     1     -10.763  12.825  69.312  1.00  0.00     0.040 C  
HETATM    2  C   UNL     1     -12.100  13.174  69.631  1.00  0.00    -0.317 C  
HETATM    3  C   UNL     1     -11.810  12.874  68.205  1.00  0.00    -0.372 C  
HETATM    4  C   UNL     1      -9.950  12.056  67.861  1.00  0.00    -0.197 C  
HETATM    5  C   UNL     1      -9.315  17.062  67.858  1.00  0.00    -0.240 C  
HETATM    6  C   UNL     1     -10.782  18.260  65.726  1.00  0.00    -0.129 C  
HETATM    7  C   UNL     1     -11.174  11.477  67.947  1.00  0.00    -0.344 C  
HETATM    8  C   UNL     1     -11.656  10.127  68.446  1.00  0.00     0.043 C  
HETATM    9  O   UNL     1      -9.124  19.983  65.987  1.00  0.00    -0.361 OA 
HETATM   10  C   UNL     1      -8.907  16.483  69.193  1.00  0.00    -0.159 C  
HETATM   11  C   UNL     1     -10.434  16.789  65.527  1.00  0.00    -0.254 C  
HETATM   12  C   UNL     1     -11.479  12.134  66.225  1.00  0.00    -0.433 C  
HETATM   13  C   UNL     1     -10.678  13.657  65.966  1.00  0.00    -0.280 C  
HETATM   14  C   UNL     1      -9.660  18.969  66.414  1.00  0.00    -0.353 C  
HETATM   15  C   UNL     1      -9.283  18.399  67.715  1.00  0.00    -0.287 C  
HETATM   16  C   UNL     1      -8.232  15.702  66.105  1.00  0.00     0.251 C  
HETATM   17  C   UNL     1     -10.422  14.815  67.171  1.00  0.00    -0.265 C  
HETATM   18  C   UNL     1      -9.904  14.258  68.617  1.00  0.00    -0.228 C  
HETATM   19  C   UNL     1      -9.610  16.094  66.684  1.00  0.00    -0.263 C  
HETATM   20  C   UNL     1      -9.833  15.370  69.661  1.00  0.00    -0.263 C  
ENDROOT
BRANCH   4  21
HETATM   21  C   UNL     1      -9.260  11.073  66.753  1.00  0.00    -0.161 C  
HETATM   22  O   UNL     1      -9.580   9.890  66.571  1.00  0.00    -0.171 OA 
HETATM   23  C   UNL     1      -8.106  11.569  65.927  1.00  0.00     0.221 C  
ENDBRANCH   4  21
BRANCH   4  24
HETATM   24  O   UNL     1      -9.240  11.209  68.977  1.00  0.00    -0.140 OA 
BRANCH  24  25
HETATM   25  C   UNL     1      -7.901  11.269  69.202  1.00  0.00    -0.017 C  
HETATM   26  O   UNL     1      -7.206  12.264  69.082  1.00  0.00    -0.065 OA 
BRANCH  25  27
HETATM   27  C   UNL     1      -7.445   9.956  69.815  1.00  0.00    -0.140 C  
BRANCH  27  28
HETATM   28  C   UNL     1      -8.568   8.963  70.014  1.00  0.00    -0.145 C  
BRANCH  28  29
HETATM   29  C   UNL     1      -8.879   8.737  71.490  1.00  0.00    -0.295 C  
BRANCH  29  30
HETATM   30  C   UNL     1     -10.366   8.928  71.762  1.00  0.00    -0.426 C  
HETATM   31  C   UNL     1     -10.891   7.850  72.694  1.00  0.00    -0.428 C  
ENDBRANCH  29  30
ENDBRANCH  28  29
ENDBRANCH  27  28
ENDBRANCH  25  27
ENDBRANCH  24  25
ENDBRANCH   4  24
TORSDOF 7
ENDMDL
MODEL       43
REMARK 921   NORMALIZED FREE ENERGY PREDICTED BY IDOCK:   -4.29 KCAL/MOL
REMARK 922        TOTAL FREE ENERGY PREDICTED BY IDOCK:   -6.25 KCAL/MOL
REMARK 923 INTER-LIGAND FREE ENERGY PREDICTED BY IDOCK:   -6.29 KCAL/MOL
REMARK 924 INTRA-LIGAND FREE ENERGY PREDICTED BY IDOCK:    0.04 KCAL/MOL
REMARK 927      BINDING AFFINITY PREDICTED BY RF-SCORE:    0.00 PKD
ROOT
HETATM    1  C   UNL     1     -10.421   9.272  68.953  1.00  0.00    -0.235 C  
HETATM    2  C   UNL     1     -11.103   9.829  70.064  1.00  0.00    -0.311 C  
HETATM    3  C   UNL     1      -9.618   9.866  70.104  1.00  0.00    -0.237 C  
HETATM    4  C   UNL     1      -8.698   9.353  68.332  1.00  0.00    -0.124 C  
HETATM    5  C   UNL     1      -9.543   5.028  70.791  1.00  0.00    -0.244 C  
HETATM    6  C   UNL     1      -8.089   4.966  73.243  1.00  0.00    -0.101 C  
HETATM    7  C   UNL     1      -8.948  10.566  68.886  1.00  0.00    -0.175 C  
HETATM    8  C   UNL     1      -9.266  11.932  68.305  1.00  0.00    -0.187 C  
HETATM    9  O   UNL     1      -8.297   2.590  72.929  1.00  0.00    -0.067 OA 
HETATM   10  C   UNL     1     -10.606   5.249  69.740  1.00  0.00    -0.283 C  
HETATM   11  C   UNL     1      -7.527   5.903  72.181  1.00  0.00    -0.096 C  
HETATM   12  C   UNL     1      -7.509  10.215  70.024  1.00  0.00    -0.171 C  
HETATM   13  C   UNL     1      -7.380   8.520  70.394  1.00  0.00    -0.054 C  
HETATM   14  C   UNL     1      -8.626   3.724  72.608  1.00  0.00    -0.094 C  
HETATM   15  C   UNL     1      -9.665   3.956  71.594  1.00  0.00    -0.240 C  
HETATM   16  C   UNL     1      -7.354   5.402  69.714  1.00  0.00    -0.065 C  
HETATM   17  C   UNL     1      -8.698   7.468  70.515  1.00  0.00    -0.146 C  
HETATM   18  C   UNL     1      -9.846   7.605  69.359  1.00  0.00    -0.171 C  
HETATM   19  C   UNL     1      -8.301   5.955  70.803  1.00  0.00    -0.125 C  
HETATM   20  C   UNL     1     -11.045   6.702  69.640  1.00  0.00    -0.390 C  
ENDROOT
BRANCH   4  21
HETATM   21  C   UNL     1      -7.289   9.683  67.576  1.00  0.00    -0.090 C  
HETATM   22  O   UNL     1      -6.971  10.800  67.145  1.00  0.00    -0.082 OA 
HETATM   23  C   UNL     1      -6.313   8.575  67.293  1.00  0.00    -0.057 C  
ENDBRANCH   4  21
BRANCH   4  24
HETATM   24  O   UNL     1      -9.429   9.594  66.963  1.00  0.00    -0.146 OA 
BRANCH  24  25
HETATM   25  C   UNL     1      -9.329   8.733  65.917  1.00  0.00    -0.218 C  
HETATM   26  O   UNL     1      -9.452   7.521  65.983  1.00  0.00    -0.085 OA 
BRANCH  25  27
HETATM   27  C   UNL     1      -9.235   9.531  64.629  1.00  0.00    -0.247 C  
BRANCH  27  28
HETATM   28  C   UNL     1      -9.800  10.930  64.745  1.00  0.00    -0.343 C  
BRANCH  28  29
HETATM   29  C   UNL     1     -10.823  11.228  63.654  1.00  0.00    -0.410 C  
BRANCH  29  30
HETATM   30  C   UNL     1     -11.395  12.630  63.822  1.00  0.00    -0.529 C  
HETATM   31  C   UNL     1     -12.486  12.651  64.877  1.00  0.00    -0.564 C  
ENDBRANCH  29  30
ENDBRANCH  28  29
ENDBRANCH  27  28
ENDBRANCH  25  27
ENDBRANCH  24  25
ENDBRANCH   4  24
TORSDOF 7
ENDMDL
MODEL       44
REMARK 921   NORMALIZED FREE ENERGY PREDICTED BY IDOCK:   -4.29 KCAL/MOL
REMARK 922        TOTAL FREE ENERGY PREDICTED BY IDOCK:   -6.25 KCAL/MOL
REMARK 923 INTER-LIGAND FREE ENERGY PREDICTED BY IDOCK:   -6.31 KCAL/MOL
REMARK 924 INTRA-LIGAND FREE ENERGY PREDICTED BY IDOCK:    0.06 KCAL/MOL
REMARK 927      BINDING AFFINITY PREDICTED BY RF-SCORE:    0.00 PKD
ROOT
HETATM    1  C   UNL     1      -9.577  17.417  66.092  1.00  0.00    -0.213 C  
HETATM    2  C   UNL     1     -10.793  17.907  65.552  1.00  0.00     0.112 C  
HETATM    3  C   UNL     1     -10.355  18.488  66.847  1.00  0.00    -0.431 C  
HETATM    4  C   UNL     1      -8.436  17.987  67.409  1.00  0.00    -0.240 C  
HETATM    5  C   UNL     1     -11.414  14.266  69.068  1.00  0.00    -0.318 C  
HETATM    6  C   UNL     1     -13.272  15.249  70.995  1.00  0.00    -0.546 C  
HETATM    7  C   UNL     1      -8.930  19.113  66.836  1.00  0.00    -0.332 C  
HETATM    8  C   UNL     1      -8.359  20.116  65.849  1.00  0.00    -0.118 C  
HETATM    9  O   UNL     1     -13.255  12.951  71.705  1.00  0.00    -0.422 OA 
HETATM   10  C   UNL     1     -10.740  13.861  67.778  1.00  0.00    -0.252 C  
HETATM   11  C   UNL     1     -12.007  16.083  70.832  1.00  0.00    -0.376 C  
HETATM   12  C   UNL     1      -9.578  19.555  68.532  1.00  0.00    -0.476 C  
HETATM   13  C   UNL     1     -10.038  18.140  69.433  1.00  0.00     0.060 C  
HETATM   14  C   UNL     1     -12.955  13.794  70.870  1.00  0.00    -0.216 C  
HETATM   15  C   UNL     1     -12.308  13.416  69.606  1.00  0.00    -0.187 C  
HETATM   16  C   UNL     1      -9.668  15.176  70.557  1.00  0.00     0.655 C  
HETATM   17  C   UNL     1     -10.666  16.731  68.739  1.00  0.00    -0.341 C  
HETATM   18  C   UNL     1      -9.927  16.196  67.382  1.00  0.00    -0.247 C  
HETATM   19  C   UNL     1     -10.948  15.561  69.780  1.00  0.00    -0.299 C  
HETATM   20  C   UNL     1     -10.655  15.000  66.774  1.00  0.00    -0.301 C  
ENDROOT
BRANCH   4  21
HETATM   21  C   UNL     1      -7.245  18.640  68.315  1.00  0.00    -0.260 C  
HETATM   22  O   UNL     1      -6.639  19.681  68.028  1.00  0.00    -0.235 OA 
HETATM   23  C   UNL     1      -6.764  17.927  69.548  1.00  0.00    -0.092 C  
ENDBRANCH   4  21
BRANCH   4  24
HETATM   24  O   UNL     1      -7.355  17.654  66.320  1.00  0.00    -0.257 OA 
BRANCH  24  25
HETATM   25  C   UNL     1      -6.409  16.695  66.495  1.00  0.00     0.095 C  
HETATM   26  O   UNL     1      -5.208  16.850  66.353  1.00  0.00    -0.351 OA 
BRANCH  25  27
HETATM   27  C   UNL     1      -7.064  15.458  67.085  1.00  0.00    -0.135 C  
BRANCH  27  28
HETATM   28  C   UNL     1      -6.114  14.601  67.892  1.00  0.00    -0.162 C  
BRANCH  28  29
HETATM   29  C   UNL     1      -6.852  13.576  68.747  1.00  0.00    -0.108 C  
BRANCH  29  30
HETATM   30  C   UNL     1      -6.020  13.193  69.965  1.00  0.00    -0.135 C  
HETATM   31  C   UNL     1      -5.991  14.320  70.982  1.00  0.00    -0.181 C  
ENDBRANCH  29  30
ENDBRANCH  28  29
ENDBRANCH  27  28
ENDBRANCH  25  27
ENDBRANCH  24  25
ENDBRANCH   4  24
TORSDOF 7
ENDMDL
MODEL       45
REMARK 921   NORMALIZED FREE ENERGY PREDICTED BY IDOCK:   -4.22 KCAL/MOL
REMARK 922        TOTAL FREE ENERGY PREDICTED BY IDOCK:   -6.15 KCAL/MOL
REMARK 923 INTER-LIGAND FREE ENERGY PREDICTED BY IDOCK:   -6.91 KCAL/MOL
REMARK 924 INTRA-LIGAND FREE ENERGY PREDICTED BY IDOCK:    0.76 KCAL/MOL
REMARK 927      BINDING AFFINITY PREDICTED BY RF-SCORE:    0.00 PKD
ROOT
HETATM    1  C   UNL     1     -11.227  14.120  66.761  1.00  0.00    -0.330 C  
HETATM    2  C   UNL     1     -11.349  14.606  65.434  1.00  0.00    -0.344 C  
HETATM    3  C   UNL     1     -10.119  13.835  65.755  1.00  0.00    -0.322 C  
HETATM    4  C   UNL     1     -10.154  12.880  67.580  1.00  0.00    -0.221 C  
HETATM    5  C   UNL     1      -8.518  17.571  68.469  1.00  0.00    -0.280 C  
HETATM    6  C   UNL     1      -6.042  18.041  67.134  1.00  0.00    -0.168 C  
HETATM    7  C   UNL     1     -10.370  12.410  66.326  1.00  0.00    -0.267 C  
HETATM    8  C   UNL     1     -11.266  11.323  65.761  1.00  0.00    -0.084 C  
HETATM    9  O   UNL     1      -5.793  19.689  68.868  1.00  0.00    -0.218 OA 
HETATM   10  C   UNL     1      -9.987  17.457  68.803  1.00  0.00    -0.329 C  
HETATM   11  C   UNL     1      -6.360  16.577  67.412  1.00  0.00    -0.199 C  
HETATM   12  C   UNL     1      -8.515  12.465  66.111  1.00  0.00     0.375 C  
HETATM   13  C   UNL     1      -7.803  13.782  66.995  1.00  0.00     0.105 C  
HETATM   14  C   UNL     1      -6.507  18.897  68.267  1.00  0.00    -0.226 C  
HETATM   15  C   UNL     1      -7.940  18.781  68.573  1.00  0.00    -0.377 C  
HETATM   16  C   UNL     1      -7.370  15.664  69.537  1.00  0.00    -0.197 C  
HETATM   17  C   UNL     1      -8.565  15.267  67.271  1.00  0.00    -0.210 C  
HETATM   18  C   UNL     1     -10.137  15.206  67.714  1.00  0.00    -0.230 C  
HETATM   19  C   UNL     1      -7.719  16.278  68.162  1.00  0.00    -0.159 C  
HETATM   20  C   UNL     1     -10.754  16.599  67.808  1.00  0.00    -0.327 C  
ENDROOT
BRANCH   4  21
HETATM   21  C   UNL     1      -9.470  11.559  68.254  1.00  0.00    -0.189 C  
HETATM   22  O   UNL     1      -8.645  11.592  69.177  1.00  0.00     0.053 OA 
HETATM   23  C   UNL     1      -9.771  10.195  67.701  1.00  0.00    -0.187 C  
ENDBRANCH   4  21
BRANCH   4  24
HETATM   24  O   UNL     1     -11.520  12.430  68.211  1.00  0.00    -0.263 OA 
BRANCH  24  25
HETATM   25  C   UNL     1     -11.763  12.480  69.547  1.00  0.00    -0.309 C  
HETATM   26  O   UNL     1     -11.620  13.461  70.256  1.00  0.00    -0.190 OA 
BRANCH  25  27
HETATM   27  C   UNL     1     -12.427  11.183  69.976  1.00  0.00    -0.292 C  
BRANCH  27  28
HETATM   28  C   UNL     1     -11.677  10.458  71.072  1.00  0.00    -0.430 C  
BRANCH  28  29
HETATM   29  C   UNL     1     -11.651   8.950  70.847  1.00  0.00    -0.331 C  
BRANCH  29  30
HETATM   30  C   UNL     1     -12.196   8.215  72.065  1.00  0.00    -0.385 C  
HETATM   31  C   UNL     1     -13.673   8.508  72.262  1.00  0.00    -0.384 C  
ENDBRANCH  29  30
ENDBRANCH  28  29
ENDBRANCH  27  28
ENDBRANCH  25  27
ENDBRANCH  24  25
ENDBRANCH   4  24
TORSDOF 7
ENDMDL
MODEL       46
REMARK 921   NORMALIZED FREE ENERGY PREDICTED BY IDOCK:   -4.19 KCAL/MOL
REMARK 922        TOTAL FREE ENERGY PREDICTED BY IDOCK:   -6.11 KCAL/MOL
REMARK 923 INTER-LIGAND FREE ENERGY PREDICTED BY IDOCK:   -6.41 KCAL/MOL
REMARK 924 INTRA-LIGAND FREE ENERGY PREDICTED BY IDOCK:    0.29 KCAL/MOL
REMARK 927      BINDING AFFINITY PREDICTED BY RF-SCORE:    0.00 PKD
ROOT
HETATM    1  C   UNL     1     -11.574  14.386  66.379  1.00  0.00    -0.383 C  
HETATM    2  C   UNL     1     -12.870  13.817  66.303  1.00  0.00    -0.081 C  
HETATM    3  C   UNL     1     -12.041  13.436  67.475  1.00  0.00    -0.323 C  
HETATM    4  C   UNL     1     -10.317  14.542  67.704  1.00  0.00    -0.237 C  
HETATM    5  C   UNL     1      -9.171  10.776  64.547  1.00  0.00    -0.250 C  
HETATM    6  C   UNL     1      -9.451   8.253  65.848  1.00  0.00    -0.125 C  
HETATM    7  C   UNL     1     -11.520  14.631  68.325  1.00  0.00    -0.337 C  
HETATM    8  C   UNL     1     -12.319  15.793  68.887  1.00  0.00     0.197 C  
HETATM    9  O   UNL     1      -7.873   7.576  64.163  1.00  0.00    -0.129 OA 
HETATM   10  C   UNL     1      -9.436  12.046  63.773  1.00  0.00     0.027 C  
HETATM   11  C   UNL     1      -9.223   9.440  66.778  1.00  0.00    -0.179 C  
HETATM   12  C   UNL     1     -10.990  13.139  69.316  1.00  0.00    -0.131 C  
HETATM   13  C   UNL     1      -9.987  12.069  68.381  1.00  0.00    -0.209 C  
HETATM   14  C   UNL     1      -8.652   8.415  64.595  1.00  0.00    -0.018 C  
HETATM   15  C   UNL     1      -8.929   9.651  63.849  1.00  0.00    -0.254 C  
HETATM   16  C   UNL     1      -7.613  11.340  66.376  1.00  0.00    -0.072 C  
HETATM   17  C   UNL     1     -10.134  11.841  66.711  1.00  0.00    -0.235 C  
HETATM   18  C   UNL     1     -10.343  13.187  65.809  1.00  0.00    -0.294 C  
HETATM   19  C   UNL     1      -9.051  10.853  66.090  1.00  0.00    -0.201 C  
HETATM   20  C   UNL     1     -10.594  12.853  64.341  1.00  0.00    -0.418 C  
ENDROOT
BRANCH   4  21
HETATM   21  C   UNL     1      -9.341  14.998  68.932  1.00  0.00    -0.208 C  
HETATM   22  O   UNL     1      -9.672  15.778  69.836  1.00  0.00    -0.250 OA 
HETATM   23  C   UNL     1      -7.914  14.527  68.970  1.00  0.00    -0.090 C  
ENDBRANCH   4  21
BRANCH   4  24
HETATM   24  O   UNL     1     -10.247  16.017  67.169  1.00  0.00    -0.266 OA 
BRANCH  24  25
HETATM   25  C   UNL     1      -9.133  16.535  66.589  1.00  0.00    -0.255 C  
HETATM   26  O   UNL     1      -8.233  15.888  66.081  1.00  0.00    -0.232 OA 
BRANCH  25  27
HETATM   27  C   UNL     1      -9.280  18.044  66.499  1.00  0.00    -0.286 C  
BRANCH  27  28
HETATM   28  C   UNL     1      -8.885  18.764  67.770  1.00  0.00    -0.313 C  
BRANCH  28  29
HETATM   29  C   UNL     1      -7.569  18.243  68.339  1.00  0.00    -0.302 C  
BRANCH  29  30
HETATM   30  C   UNL     1      -6.702  19.395  68.828  1.00  0.00    -0.338 C  
HETATM   31  C   UNL     1      -5.887  19.986  67.691  1.00  0.00    -0.214 C  
ENDBRANCH  29  30
ENDBRANCH  28  29
ENDBRANCH  27  28
ENDBRANCH  25  27
ENDBRANCH  24  25
ENDBRANCH   4  24
TORSDOF 7
ENDMDL
MODEL       47
REMARK 921   NORMALIZED FREE ENERGY PREDICTED BY IDOCK:   -4.18 KCAL/MOL
REMARK 922        TOTAL FREE ENERGY PREDICTED BY IDOCK:   -6.10 KCAL/MOL
REMARK 923 INTER-LIGAND FREE ENERGY PREDICTED BY IDOCK:   -6.20 KCAL/MOL
REMARK 924 INTRA-LIGAND FREE ENERGY PREDICTED BY IDOCK:    0.09 KCAL/MOL
REMARK 927      BINDING AFFINITY PREDICTED BY RF-SCORE:    0.00 PKD
ROOT
HETATM    1  C   UNL     1      -7.921  11.117  66.484  1.00  0.00    -0.158 C  
HETATM    2  C   UNL     1      -7.253  10.253  65.581  1.00  0.00    -0.148 C  
HETATM    3  C   UNL     1      -8.595   9.821  66.052  1.00  0.00    -0.146 C  
HETATM    4  C   UNL     1      -9.646  11.261  67.086  1.00  0.00    -0.177 C  
HETATM    5  C   UNL     1      -6.725   8.931  70.478  1.00  0.00    -0.051 C  
HETATM    6  C   UNL     1      -7.442   6.180  70.702  1.00  0.00    -0.087 C  
HETATM    7  C   UNL     1      -9.738  10.846  65.798  1.00  0.00    -0.270 C  
HETATM    8  C   UNL     1     -10.089  11.549  64.499  1.00  0.00    -0.324 C  
HETATM    9  O   UNL     1      -6.454   6.436  72.880  1.00  0.00    -0.061 OA 
HETATM   10  C   UNL     1      -6.093  10.236  70.051  1.00  0.00    -0.071 C  
HETATM   11  C   UNL     1      -8.539   7.094  70.169  1.00  0.00    -0.140 C  
HETATM   12  C   UNL     1     -10.641   9.352  66.464  1.00  0.00    -0.125 C  
HETATM   13  C   UNL     1     -10.049   8.889  68.032  1.00  0.00    -0.239 C  
HETATM   14  C   UNL     1      -6.649   6.882  71.758  1.00  0.00    -0.049 C  
HETATM   15  C   UNL     1      -6.034   8.144  71.322  1.00  0.00    -0.034 C  
HETATM   16  C   UNL     1      -9.084   9.402  71.031  1.00  0.00    -0.147 C  
HETATM   17  C   UNL     1      -8.447   9.078  68.540  1.00  0.00    -0.128 C  
HETATM   18  C   UNL     1      -7.732  10.502  68.176  1.00  0.00    -0.096 C  
HETATM   19  C   UNL     1      -8.181   8.629  70.043  1.00  0.00    -0.122 C  
HETATM   20  C   UNL     1      -6.255  10.511  68.563  1.00  0.00    -0.046 C  
ENDROOT
BRANCH   4  21
HETATM   21  C   UNL     1     -11.212  11.629  67.368  1.00  0.00    -0.298 C  
HETATM   22  O   UNL     1     -11.996  12.056  66.510  1.00  0.00    -0.616 OA 
HETATM   23  C   UNL     1     -11.766  11.531  68.762  1.00  0.00    -0.397 C  
ENDBRANCH   4  21
BRANCH   4  24
HETATM   24  O   UNL     1      -9.394  12.784  66.798  1.00  0.00    -0.230 OA 
BRANCH  24  25
HETATM   25  C   UNL     1      -9.261  13.705  67.788  1.00  0.00    -0.214 C  
HETATM   26  O   UNL     1      -8.598  13.565  68.802  1.00  0.00    -0.059 OA 
BRANCH  25  27
HETATM   27  C   UNL     1      -9.905  15.006  67.341  1.00  0.00    -0.224 C  
BRANCH  27  28
HETATM   28  C   UNL     1     -11.266  15.246  67.958  1.00  0.00    -0.330 C  
BRANCH  28  29
HETATM   29  C   UNL     1     -11.168  15.629  69.431  1.00  0.00    -0.313 C  
BRANCH  29  30
HETATM   30  C   UNL     1     -12.280  14.966  70.233  1.00  0.00    -0.389 C  
HETATM   31  C   UNL     1     -12.433  15.620  71.595  1.00  0.00    -0.503 C  
ENDBRANCH  29  30
ENDBRANCH  28  29
ENDBRANCH  27  28
ENDBRANCH  25  27
ENDBRANCH  24  25
ENDBRANCH   4  24
TORSDOF 7
ENDMDL
MODEL       48
REMARK 921   NORMALIZED FREE ENERGY PREDICTED BY IDOCK:   -4.16 KCAL/MOL
REMARK 922        TOTAL FREE ENERGY PREDICTED BY IDOCK:   -6.07 KCAL/MOL
REMARK 923 INTER-LIGAND FREE ENERGY PREDICTED BY IDOCK:   -6.20 KCAL/MOL
REMARK 924 INTRA-LIGAND FREE ENERGY PREDICTED BY IDOCK:    0.13 KCAL/MOL
REMARK 927      BINDING AFFINITY PREDICTED BY RF-SCORE:    0.00 PKD
ROOT
HETATM    1  C   UNL     1     -11.501  14.339  68.058  1.00  0.00    -0.342 C  
HETATM    2  C   UNL     1     -12.223  13.808  69.156  1.00  0.00    -0.289 C  
HETATM    3  C   UNL     1     -10.766  14.019  69.354  1.00  0.00    -0.085 C  
HETATM    4  C   UNL     1      -9.842  15.093  67.857  1.00  0.00    -0.216 C  
HETATM    5  C   UNL     1      -9.845  10.278  66.347  1.00  0.00    -0.272 C  
HETATM    6  C   UNL     1      -8.307   8.665  68.126  1.00  0.00    -0.127 C  
HETATM    7  C   UNL     1     -10.272  15.470  69.087  1.00  0.00    -0.240 C  
HETATM    8  C   UNL     1     -10.840  16.764  69.641  1.00  0.00    -0.205 C  
HETATM    9  O   UNL     1      -8.121   7.266  66.178  1.00  0.00    -0.109 OA 
HETATM   10  C   UNL     1     -10.970  11.036  65.681  1.00  0.00    -0.090 C  
HETATM   11  C   UNL     1      -7.954  10.148  68.127  1.00  0.00    -0.104 C  
HETATM   12  C   UNL     1      -8.751  14.616  69.755  1.00  0.00     0.447 C  
HETATM   13  C   UNL     1      -8.322  13.226  68.800  1.00  0.00     0.105 C  
HETATM   14  C   UNL     1      -8.650   8.214  66.743  1.00  0.00    -0.132 C  
HETATM   15  C   UNL     1      -9.752   8.956  66.114  1.00  0.00    -0.338 C  
HETATM   16  C   UNL     1      -7.794  11.628  66.089  1.00  0.00     0.208 C  
HETATM   17  C   UNL     1      -9.437  12.241  67.997  1.00  0.00    -0.206 C  
HETATM   18  C   UNL     1     -10.636  13.006  67.190  1.00  0.00    -0.251 C  
HETATM   19  C   UNL     1      -8.778  11.071  67.143  1.00  0.00    -0.135 C  
HETATM   20  C   UNL     1     -11.652  12.022  66.617  1.00  0.00    -0.389 C  
ENDROOT
BRANCH   4  21
HETATM   21  C   UNL     1      -8.540  16.068  67.712  1.00  0.00    -0.163 C  
HETATM   22  O   UNL     1      -8.381  17.123  68.340  1.00  0.00    -0.233 OA 
HETATM   23  C   UNL     1      -7.470  15.744  66.706  1.00  0.00    -0.135 C  
ENDBRANCH   4  21
BRANCH   4  24
HETATM   24  O   UNL     1     -10.656  16.143  67.020  1.00  0.00    -0.310 OA 
BRANCH  24  25
HETATM   25  C   UNL     1     -10.544  16.250  65.670  1.00  0.00    -0.346 C  
HETATM   26  O   UNL     1     -10.494  15.317  64.886  1.00  0.00    -0.392 OA 
BRANCH  25  27
HETATM   27  C   UNL     1     -10.688  17.711  65.278  1.00  0.00     0.151 C  
BRANCH  27  28
HETATM   28  C   UNL     1     -10.629  18.658  66.456  1.00  0.00    -0.409 C  
BRANCH  28  29
HETATM   29  C   UNL     1      -9.788  19.895  66.154  1.00  0.00    -0.562 C  
BRANCH  29  30
HETATM   30  C   UNL     1      -9.353  20.577  67.445  1.00  0.00    -0.511 C  
HETATM   31  C   UNL     1     -10.053  19.967  68.647  1.00  0.00    -0.518 C  
ENDBRANCH  29  30
ENDBRANCH  28  29
ENDBRANCH  27  28
ENDBRANCH  25  27
ENDBRANCH  24  25
ENDBRANCH   4  24
TORSDOF 7
ENDMDL
MODEL       49
REMARK 921   NORMALIZED FREE ENERGY PREDICTED BY IDOCK:   -4.16 KCAL/MOL
REMARK 922        TOTAL FREE ENERGY PREDICTED BY IDOCK:   -6.07 KCAL/MOL
REMARK 923 INTER-LIGAND FREE ENERGY PREDICTED BY IDOCK:   -6.48 KCAL/MOL
REMARK 924 INTRA-LIGAND FREE ENERGY PREDICTED BY IDOCK:    0.41 KCAL/MOL
REMARK 927      BINDING AFFINITY PREDICTED BY RF-SCORE:    0.00 PKD
ROOT
HETATM    1  C   UNL     1      -8.590  10.797  69.178  1.00  0.00    -0.097 C  
HETATM    2  C   UNL     1      -7.224  10.645  69.527  1.00  0.00    -0.140 C  
HETATM    3  C   UNL     1      -7.563  10.526  68.086  1.00  0.00    -0.091 C  
HETATM    4  C   UNL     1      -9.489  11.083  67.607  1.00  0.00    -0.164 C  
HETATM    5  C   UNL     1      -9.719   6.232  68.977  1.00  0.00    -0.147 C  
HETATM    6  C   UNL     1      -8.200   4.609  67.190  1.00  0.00    -0.105 C  
HETATM    7  C   UNL     1      -8.314  11.750  67.486  1.00  0.00    -0.154 C  
HETATM    8  C   UNL     1      -7.933  13.216  67.584  1.00  0.00    -0.174 C  
HETATM    9  O   UNL     1      -9.709   2.906  67.970  1.00  0.00    -0.135 OA 
HETATM   10  C   UNL     1     -10.148   7.120  70.122  1.00  0.00    -0.195 C  
HETATM   11  C   UNL     1      -8.668   5.941  66.616  1.00  0.00    -0.121 C  
HETATM   12  C   UNL     1      -7.988  10.674  65.994  1.00  0.00    -0.159 C  
HETATM   13  C   UNL     1      -8.668   9.084  66.186  1.00  0.00    -0.169 C  
HETATM   14  C   UNL     1      -9.248   4.034  68.087  1.00  0.00    -0.153 C  
HETATM   15  C   UNL     1      -9.646   4.907  69.201  1.00  0.00    -0.231 C  
HETATM   16  C   UNL     1     -10.939   6.982  66.967  1.00  0.00    -0.357 C  
HETATM   17  C   UNL     1      -8.809   8.281  67.667  1.00  0.00    -0.137 C  
HETATM   18  C   UNL     1      -9.344   9.171  68.930  1.00  0.00    -0.146 C  
HETATM   19  C   UNL     1      -9.524   6.862  67.575  1.00  0.00    -0.143 C  
HETATM   20  C   UNL     1      -9.306   8.382  70.237  1.00  0.00    -0.167 C  
ENDROOT
BRANCH   4  21
HETATM   21  C   UNL     1     -10.275  11.675  66.303  1.00  0.00    -0.227 C  
HETATM   22  O   UNL     1     -11.027  11.010  65.578  1.00  0.00    -0.150 OA 
HETATM   23  C   UNL     1     -10.044  13.096  65.871  1.00  0.00    -0.292 C  
ENDBRANCH   4  21
BRANCH   4  24
HETATM   24  O   UNL     1     -10.244  12.147  68.481  1.00  0.00    -0.216 OA 
BRANCH  24  25
HETATM   25  C   UNL     1     -11.535  11.989  68.874  1.00  0.00    -0.301 C  
HETATM   26  O   UNL     1     -12.207  10.984  68.713  1.00  0.00    -0.546 OA 
BRANCH  25  27
HETATM   27  C   UNL     1     -11.944  13.184  69.717  1.00  0.00    -0.382 C  
BRANCH  27  28
HETATM   28  C   UNL     1     -11.151  14.436  69.410  1.00  0.00    -0.294 C  
BRANCH  28  29
HETATM   29  C   UNL     1     -11.749  15.222  68.248  1.00  0.00    -0.320 C  
BRANCH  29  30
HETATM   30  C   UNL     1     -10.790  16.310  67.785  1.00  0.00    -0.315 C  
HETATM   31  C   UNL     1      -9.615  16.444  68.738  1.00  0.00    -0.249 C  
ENDBRANCH  29  30
ENDBRANCH  28  29
ENDBRANCH  27  28
ENDBRANCH  25  27
ENDBRANCH  24  25
ENDBRANCH   4  24
TORSDOF 7
ENDMDL
MODEL       50
REMARK 921   NORMALIZED FREE ENERGY PREDICTED BY IDOCK:   -4.15 KCAL/MOL
REMARK 922        TOTAL FREE ENERGY PREDICTED BY IDOCK:   -6.05 KCAL/MOL
REMARK 923 INTER-LIGAND FREE ENERGY PREDICTED BY IDOCK:   -6.65 KCAL/MOL
REMARK 924 INTRA-LIGAND FREE ENERGY PREDICTED BY IDOCK:    0.59 KCAL/MOL
REMARK 927      BINDING AFFINITY PREDICTED BY RF-SCORE:    0.00 PKD
ROOT
HETATM    1  C   UNL     1      -8.276  10.122  69.201  1.00  0.00    -0.145 C  
HETATM    2  C   UNL     1      -7.099  10.153  69.991  1.00  0.00    -0.156 C  
HETATM    3  C   UNL     1      -7.228   9.030  69.027  1.00  0.00    -0.072 C  
HETATM    4  C   UNL     1      -8.782   9.221  67.687  1.00  0.00    -0.116 C  
HETATM    5  C   UNL     1     -10.731   7.074  71.817  1.00  0.00    -0.242 C  
HETATM    6  C   UNL     1      -9.535   4.527  72.285  1.00  0.00    -0.179 C  
HETATM    7  C   UNL     1      -7.454   9.459  67.548  1.00  0.00    -0.091 C  
HETATM    8  C   UNL     1      -6.653  10.461  66.736  1.00  0.00    -0.078 C  
HETATM    9  O   UNL     1     -11.604   4.132  73.446  1.00  0.00    -0.231 OA 
HETATM   10  C   UNL     1     -11.034   8.554  71.804  1.00  0.00    -0.376 C  
HETATM   11  C   UNL     1      -9.467   5.020  70.844  1.00  0.00    -0.222 C  
HETATM   12  C   UNL     1      -7.251   7.605  67.430  1.00  0.00    -0.087 C  
HETATM   13  C   UNL     1      -8.416   6.767  68.414  1.00  0.00    -0.122 C  
HETATM   14  C   UNL     1     -10.838   4.918  72.905  1.00  0.00    -0.248 C  
HETATM   15  C   UNL     1     -11.112   6.362  72.893  1.00  0.00    -0.259 C  
HETATM   16  C   UNL     1     -11.324   6.182  69.592  1.00  0.00    -0.442 C  
HETATM   17  C   UNL     1      -9.031   7.358  69.874  1.00  0.00    -0.141 C  
HETATM   18  C   UNL     1      -9.452   8.938  69.900  1.00  0.00    -0.177 C  
HETATM   19  C   UNL     1     -10.131   6.423  70.545  1.00  0.00    -0.221 C  
HETATM   20  C   UNL     1      -9.869   9.391  71.297  1.00  0.00    -0.245 C  
ENDROOT
BRANCH   4  21
HETATM   21  C   UNL     1      -9.128   8.712  66.174  1.00  0.00    -0.201 C  
HETATM   22  O   UNL     1      -9.841   7.734  65.911  1.00  0.00     0.103 OA 
HETATM   23  C   UNL     1      -8.503   9.398  64.992  1.00  0.00    -0.171 C  
ENDBRANCH   4  21
BRANCH   4  24
HETATM   24  O   UNL     1      -9.294  10.646  67.269  1.00  0.00    -0.150 OA 
BRANCH  24  25
HETATM   25  C   UNL     1     -10.614  10.966  67.220  1.00  0.00    -0.251 C  
HETATM   26  O   UNL     1     -11.533  10.227  67.529  1.00  0.00    -0.323 OA 
BRANCH  25  27
HETATM   27  C   UNL     1     -10.751  12.446  66.911  1.00  0.00    -0.269 C  
BRANCH  27  28
HETATM   28  C   UNL     1     -11.831  13.132  67.720  1.00  0.00    -0.392 C  
BRANCH  28  29
HETATM   29  C   UNL     1     -11.297  13.682  69.038  1.00  0.00    -0.333 C  
BRANCH  29  30
HETATM   30  C   UNL     1     -12.260  13.375  70.178  1.00  0.00    -0.385 C  
HETATM   31  C   UNL     1     -12.194  11.908  70.567  1.00  0.00    -0.426 C  
ENDBRANCH  29  30
ENDBRANCH  28  29
ENDBRANCH  27  28
ENDBRANCH  25  27
ENDBRANCH  24  25
ENDBRANCH   4  24
TORSDOF 7
ENDMDL
MODEL       51
REMARK 921   NORMALIZED FREE ENERGY PREDICTED BY IDOCK:   -4.12 KCAL/MOL
REMARK 922        TOTAL FREE ENERGY PREDICTED BY IDOCK:   -6.01 KCAL/MOL
REMARK 923 INTER-LIGAND FREE ENERGY PREDICTED BY IDOCK:   -6.07 KCAL/MOL
REMARK 924 INTRA-LIGAND FREE ENERGY PREDICTED BY IDOCK:    0.06 KCAL/MOL
REMARK 927      BINDING AFFINITY PREDICTED BY RF-SCORE:    0.00 PKD
ROOT
HETATM    1  C   UNL     1      -9.892   5.393  72.218  1.00  0.00    -0.199 C  
HETATM    2  C   UNL     1     -10.632   4.207  72.457  1.00  0.00    -0.162 C  
HETATM    3  C   UNL     1      -9.195   4.042  72.119  1.00  0.00    -0.168 C  
HETATM    4  C   UNL     1      -8.107   5.793  72.113  1.00  0.00    -0.108 C  
HETATM    5  C   UNL     1     -10.150   5.385  67.518  1.00  0.00    -0.220 C  
HETATM    6  C   UNL     1      -9.162   3.068  66.180  1.00  0.00    -0.118 C  
HETATM    7  C   UNL     1      -8.211   4.813  73.046  1.00  0.00    -0.101 C  
HETATM    8  C   UNL     1      -8.165   4.809  74.564  1.00  0.00    -0.098 C  
HETATM    9  O   UNL     1      -9.760   4.339  64.228  1.00  0.00    -0.158 OA 
HETATM   10  C   UNL     1     -10.962   6.333  68.369  1.00  0.00    -0.409 C  
HETATM   11  C   UNL     1      -8.265   3.609  67.287  1.00  0.00    -0.091 C  
HETATM   12  C   UNL     1      -7.074   3.811  71.955  1.00  0.00    -0.045 C  
HETATM   13  C   UNL     1      -7.331   4.155  70.269  1.00  0.00    -0.045 C  
HETATM   14  C   UNL     1      -9.811   4.194  65.442  1.00  0.00    -0.208 C  
HETATM   15  C   UNL     1     -10.605   5.100  66.284  1.00  0.00    -0.325 C  
HETATM   16  C   UNL     1      -7.782   6.044  67.736  1.00  0.00    -0.101 C  
HETATM   17  C   UNL     1      -8.826   4.576  69.600  1.00  0.00    -0.125 C  
HETATM   18  C   UNL     1      -9.718   5.660  70.436  1.00  0.00    -0.233 C  
HETATM   19  C   UNL     1      -8.775   4.901  68.043  1.00  0.00    -0.107 C  
HETATM   20  C   UNL     1     -11.096   5.864  69.811  1.00  0.00    -0.422 C  
ENDROOT
BRANCH   4  21
HETATM   21  C   UNL     1      -6.554   6.238  72.358  1.00  0.00    -0.067 C  
HETATM   22  O   UNL     1      -6.027   6.355  73.472  1.00  0.00    -0.056 OA 
HETATM   23  C   UNL     1      -5.690   6.616  71.188  1.00  0.00    -0.028 C  
ENDBRANCH   4  21
BRANCH   4  24
HETATM   24  O   UNL     1      -8.541   6.996  73.024  1.00  0.00    -0.117 OA 
BRANCH  24  25
HETATM   25  C   UNL     1      -8.746   8.248  72.537  1.00  0.00    -0.217 C  
HETATM   26  O   UNL     1      -7.897   8.954  72.019  1.00  0.00    -0.338 OA 
BRANCH  25  27
HETATM   27  C   UNL     1     -10.234   8.549  72.561  1.00  0.00    -0.323 C  
BRANCH  27  28
HETATM   28  C   UNL     1     -10.709   9.330  71.355  1.00  0.00    -0.432 C  
BRANCH  28  29
HETATM   29  C   UNL     1     -12.173   9.051  71.032  1.00  0.00    -0.275 C  
BRANCH  29  30
HETATM   30  C   UNL     1     -12.868   8.389  72.215  1.00  0.00    -0.359 C  
HETATM   31  C   UNL     1     -13.849   7.329  71.747  1.00  0.00    -0.420 C  
ENDBRANCH  29  30
ENDBRANCH  28  29
ENDBRANCH  27  28
ENDBRANCH  25  27
ENDBRANCH  24  25
ENDBRANCH   4  24
TORSDOF 7
ENDMDL
MODEL       52
REMARK 921   NORMALIZED FREE ENERGY PREDICTED BY IDOCK:   -4.12 KCAL/MOL
REMARK 922        TOTAL FREE ENERGY PREDICTED BY IDOCK:   -6.01 KCAL/MOL
REMARK 923 INTER-LIGAND FREE ENERGY PREDICTED BY IDOCK:   -6.44 KCAL/MOL
REMARK 924 INTRA-LIGAND FREE ENERGY PREDICTED BY IDOCK:    0.43 KCAL/MOL
REMARK 927      BINDING AFFINITY PREDICTED BY RF-SCORE:    0.00 PKD
ROOT
HETATM    1  C   UNL     1      -8.906  14.352  69.054  1.00  0.00     0.009 C  
HETATM    2  C   UNL     1      -7.785  13.496  68.907  1.00  0.00     0.030 C  
HETATM    3  C   UNL     1      -7.899  14.621  67.943  1.00  0.00    -0.143 C  
HETATM    4  C   UNL     1      -9.348  16.010  68.409  1.00  0.00    -0.207 C  
HETATM    5  C   UNL     1     -11.669  12.366  65.801  1.00  0.00    -0.470 C  
HETATM    6  C   UNL     1     -10.624  12.205  63.152  1.00  0.00    -0.221 C  
HETATM    7  C   UNL     1      -8.004  16.031  68.591  1.00  0.00    -0.174 C  
HETATM    8  C   UNL     1      -7.105  16.638  69.654  1.00  0.00     0.072 C  
HETATM    9  O   UNL     1     -12.783  11.242  62.708  1.00  0.00     0.178 OA 
HETATM   10  C   UNL     1     -11.903  12.180  67.282  1.00  0.00    -0.293 C  
HETATM   11  C   UNL     1     -10.435  13.551  63.842  1.00  0.00     0.352 C  
HETATM   12  C   UNL     1      -7.878  16.407  66.766  1.00  0.00    -0.301 C  
HETATM   13  C   UNL     1      -9.143  15.630  65.860  1.00  0.00    -0.277 C  
HETATM   14  C   UNL     1     -11.947  11.614  63.520  1.00  0.00    -0.254 C  
HETATM   15  C   UNL     1     -12.154  11.431  64.964  1.00  0.00     0.718 C  
HETATM   16  C   UNL     1     -12.148  14.729  65.271  1.00  0.00    -0.198 C  
HETATM   17  C   UNL     1      -9.829  14.139  66.268  1.00  0.00    -0.321 C  
HETATM   18  C   UNL     1     -10.180  13.907  67.848  1.00  0.00    -0.241 C  
HETATM   19  C   UNL     1     -11.013  13.681  65.308  1.00  0.00    -0.314 C  
HETATM   20  C   UNL     1     -10.669  12.487  68.118  1.00  0.00    -0.246 C  
ENDROOT
BRANCH   4  21
HETATM   21  C   UNL     1      -9.613  17.599  68.142  1.00  0.00    -0.297 C  
HETATM   22  O   UNL     1      -8.977  18.515  68.680  1.00  0.00    -0.322 OA 
HETATM   23  C   UNL     1     -10.743  18.031  67.250  1.00  0.00    -0.305 C  
ENDBRANCH   4  21
BRANCH   4  24
HETATM   24  O   UNL     1      -9.765  16.245  69.905  1.00  0.00    -0.044 OA 
BRANCH  24  25
HETATM   25  C   UNL     1     -11.015  15.979  70.368  1.00  0.00    -0.336 C  
HETATM   26  O   UNL     1     -12.026  15.924  69.688  1.00  0.00    -0.335 OA 
BRANCH  25  27
HETATM   27  C   UNL     1     -10.922  15.567  71.827  1.00  0.00    -0.056 C  
BRANCH  27  28
HETATM   28  C   UNL     1     -12.105  16.019  72.655  1.00  0.00    -0.640 C  
BRANCH  28  29
HETATM   29  C   UNL     1     -12.828  14.847  73.310  1.00  0.00    -0.646 C  
BRANCH  29  30
HETATM   30  C   UNL     1     -13.839  14.234  72.350  1.00  0.00    -0.619 C  
HETATM   31  C   UNL     1     -13.498  12.785  72.051  1.00  0.00    -0.540 C  
ENDBRANCH  29  30
ENDBRANCH  28  29
ENDBRANCH  27  28
ENDBRANCH  25  27
ENDBRANCH  24  25
ENDBRANCH   4  24
TORSDOF 7
ENDMDL
MODEL       53
REMARK 921   NORMALIZED FREE ENERGY PREDICTED BY IDOCK:   -4.07 KCAL/MOL
REMARK 922        TOTAL FREE ENERGY PREDICTED BY IDOCK:   -5.95 KCAL/MOL
REMARK 923 INTER-LIGAND FREE ENERGY PREDICTED BY IDOCK:   -5.98 KCAL/MOL
REMARK 924 INTRA-LIGAND FREE ENERGY PREDICTED BY IDOCK:    0.03 KCAL/MOL
REMARK 927      BINDING AFFINITY PREDICTED BY RF-SCORE:    0.00 PKD
ROOT
HETATM    1  C   UNL     1     -10.089   8.169  68.083  1.00  0.00    -0.237 C  
HETATM    2  C   UNL     1     -10.802   7.776  66.922  1.00  0.00    -0.088 C  
HETATM    3  C   UNL     1      -9.437   8.324  66.715  1.00  0.00    -0.256 C  
HETATM    4  C   UNL     1      -8.334   8.562  68.440  1.00  0.00    -0.124 C  
HETATM    5  C   UNL     1     -11.068  12.771  67.918  1.00  0.00    -0.281 C  
HETATM    6  C   UNL     1     -10.336  14.156  65.536  1.00  0.00    -0.368 C  
HETATM    7  C   UNL     1      -8.310   7.588  67.495  1.00  0.00    -0.117 C  
HETATM    8  C   UNL     1      -8.030   6.096  67.543  1.00  0.00    -0.106 C  
HETATM    9  O   UNL     1     -11.207  16.040  66.751  1.00  0.00    -0.104 OA 
HETATM   10  C   UNL     1     -11.724  11.841  68.912  1.00  0.00    -0.384 C  
HETATM   11  C   UNL     1      -9.270  13.221  66.095  1.00  0.00     0.004 C  
HETATM   12  C   UNL     1      -7.370   8.803  66.431  1.00  0.00    -0.084 C  
HETATM   13  C   UNL     1      -7.878  10.441  66.723  1.00  0.00    -0.117 C  
HETATM   14  C   UNL     1     -11.073  14.828  66.649  1.00  0.00    -0.333 C  
HETATM   15  C   UNL     1     -11.712  13.909  67.602  1.00  0.00    -0.403 C  
HETATM   16  C   UNL     1      -8.684  12.943  68.533  1.00  0.00    -0.038 C  
HETATM   17  C   UNL     1      -9.452  10.888  67.153  1.00  0.00    -0.178 C  
HETATM   18  C   UNL     1     -10.187   9.965  68.285  1.00  0.00    -0.204 C  
HETATM   19  C   UNL     1      -9.636  12.445  67.423  1.00  0.00    -0.184 C  
HETATM   20  C   UNL     1     -11.641  10.379  68.497  1.00  0.00    -0.152 C  
ENDROOT
BRANCH   4  21
HETATM   21  C   UNL     1      -6.756   8.575  68.860  1.00  0.00    -0.053 C  
HETATM   22  O   UNL     1      -5.989   7.612  68.729  1.00  0.00    -0.029 OA 
HETATM   23  C   UNL     1      -6.167   9.789  69.523  1.00  0.00    -0.044 C  
ENDBRANCH   4  21
BRANCH   4  24
HETATM   24  O   UNL     1      -8.604   7.640  69.683  1.00  0.00    -0.133 OA 
BRANCH  24  25
HETATM   25  C   UNL     1      -9.002   8.130  70.886  1.00  0.00    -0.146 C  
HETATM   26  O   UNL     1      -8.986   9.305  71.213  1.00  0.00    -0.285 OA 
BRANCH  25  27
HETATM   27  C   UNL     1      -9.654   7.013  71.682  1.00  0.00    -0.160 C  
BRANCH  27  28
HETATM   28  C   UNL     1     -10.303   5.956  70.816  1.00  0.00    -0.292 C  
BRANCH  28  29
HETATM   29  C   UNL     1     -11.778   6.250  70.561  1.00  0.00    -0.289 C  
BRANCH  29  30
HETATM   30  C   UNL     1     -12.403   6.941  71.766  1.00  0.00    -0.401 C  
HETATM   31  C   UNL     1     -13.701   7.631  71.385  1.00  0.00    -0.392 C  
ENDBRANCH  29  30
ENDBRANCH  28  29
ENDBRANCH  27  28
ENDBRANCH  25  27
ENDBRANCH  24  25
ENDBRANCH   4  24
TORSDOF 7
ENDMDL
MODEL       54
REMARK 921   NORMALIZED FREE ENERGY PREDICTED BY IDOCK:   -3.99 KCAL/MOL
REMARK 922        TOTAL FREE ENERGY PREDICTED BY IDOCK:   -5.83 KCAL/MOL
REMARK 923 INTER-LIGAND FREE ENERGY PREDICTED BY IDOCK:   -6.45 KCAL/MOL
REMARK 924 INTRA-LIGAND FREE ENERGY PREDICTED BY IDOCK:    0.62 KCAL/MOL
REMARK 927      BINDING AFFINITY PREDICTED BY RF-SCORE:    0.00 PKD
ROOT
HETATM    1  C   UNL     1     -10.444   6.821  71.523  1.00  0.00    -0.236 C  
HETATM    2  C   UNL     1     -10.967   5.628  72.082  1.00  0.00    -0.307 C  
HETATM    3  C   UNL     1      -9.492   5.702  71.925  1.00  0.00    -0.171 C  
HETATM    4  C   UNL     1      -8.774   7.568  71.426  1.00  0.00    -0.124 C  
HETATM    5  C   UNL     1     -10.015   5.323  67.081  1.00  0.00    -0.211 C  
HETATM    6  C   UNL     1      -8.415   3.000  66.657  1.00  0.00    -0.103 C  
HETATM    7  C   UNL     1      -8.820   6.923  72.618  1.00  0.00    -0.137 C  
HETATM    8  C   UNL     1      -8.993   7.392  74.052  1.00  0.00    -0.284 C  
HETATM    9  O   UNL     1      -8.959   3.443  64.356  1.00  0.00    -0.116 OA 
HETATM   10  C   UNL     1     -11.109   6.272  67.511  1.00  0.00    -0.379 C  
HETATM   11  C   UNL     1      -7.808   4.043  67.588  1.00  0.00    -0.090 C  
HETATM   12  C   UNL     1      -7.365   5.925  72.005  1.00  0.00    -0.094 C  
HETATM   13  C   UNL     1      -7.438   5.671  70.286  1.00  0.00    -0.080 C  
HETATM   14  C   UNL     1      -9.156   3.667  65.543  1.00  0.00    -0.148 C  
HETATM   15  C   UNL     1     -10.223   4.580  65.979  1.00  0.00    -0.288 C  
HETATM   16  C   UNL     1      -7.875   6.542  67.247  1.00  0.00    -0.105 C  
HETATM   17  C   UNL     1      -8.873   5.513  69.406  1.00  0.00    -0.114 C  
HETATM   18  C   UNL     1     -10.070   6.565  69.771  1.00  0.00    -0.207 C  
HETATM   19  C   UNL     1      -8.662   5.351  67.837  1.00  0.00    -0.106 C  
HETATM   20  C   UNL     1     -11.356   6.247  69.012  1.00  0.00    -0.319 C  
ENDROOT
BRANCH   4  21
HETATM   21  C   UNL     1      -7.389   8.411  71.625  1.00  0.00    -0.098 C  
HETATM   22  O   UNL     1      -6.994   8.863  72.709  1.00  0.00    -0.325 OA 
HETATM   23  C   UNL     1      -6.541   8.752  70.432  1.00  0.00    -0.042 C  
ENDBRANCH   4  21
BRANCH   4  24
HETATM   24  O   UNL     1      -9.560   8.859  71.856  1.00  0.00    -0.298 OA 
BRANCH  24  25
HETATM   25  C   UNL     1     -10.413   9.509  71.022  1.00  0.00    -0.306 C  
HETATM   26  O   UNL     1     -11.591   9.732  71.246  1.00  0.00    -0.345 OA 
BRANCH  25  27
HETATM   27  C   UNL     1      -9.623  10.084  69.859  1.00  0.00    -0.233 C  
BRANCH  27  28
HETATM   28  C   UNL     1     -10.112   9.611  68.508  1.00  0.00    -0.195 C  
BRANCH  28  29
HETATM   29  C   UNL     1     -10.901  10.691  67.774  1.00  0.00    -0.338 C  
BRANCH  29  30
HETATM   30  C   UNL     1     -10.530  10.718  66.297  1.00  0.00    -0.287 C  
HETATM   31  C   UNL     1      -9.895   9.406  65.870  1.00  0.00    -0.362 C  
ENDBRANCH  29  30
ENDBRANCH  28  29
ENDBRANCH  27  28
ENDBRANCH  25  27
ENDBRANCH  24  25
ENDBRANCH   4  24
TORSDOF 7
ENDMDL
MODEL       55
REMARK 921   NORMALIZED FREE ENERGY PREDICTED BY IDOCK:   -3.99 KCAL/MOL
REMARK 922        TOTAL FREE ENERGY PREDICTED BY IDOCK:   -5.83 KCAL/MOL
REMARK 923 INTER-LIGAND FREE ENERGY PREDICTED BY IDOCK:   -5.45 KCAL/MOL
REMARK 924 INTRA-LIGAND FREE ENERGY PREDICTED BY IDOCK:   -0.38 KCAL/MOL
REMARK 927      BINDING AFFINITY PREDICTED BY RF-SCORE:    0.00 PKD
ROOT
HETATM    1  C   UNL     1      -9.764   6.511  67.334  1.00  0.00    -0.150 C  
HETATM    2  C   UNL     1     -11.103   6.236  66.956  1.00  0.00    -0.379 C  
HETATM    3  C   UNL     1     -10.897   7.318  67.954  1.00  0.00    -0.184 C  
HETATM    4  C   UNL     1      -8.934   7.891  68.208  1.00  0.00    -0.132 C  
HETATM    5  C   UNL     1      -9.672   3.967  71.294  1.00  0.00    -0.255 C  
HETATM    6  C   UNL     1     -11.628   4.598  73.272  1.00  0.00    -0.274 C  
HETATM    7  C   UNL     1      -9.941   8.457  67.497  1.00  0.00    -0.259 C  
HETATM    8  C   UNL     1      -9.986   9.249  66.202  1.00  0.00    -0.348 C  
HETATM    9  O   UNL     1     -10.475   2.875  74.493  1.00  0.00    -0.159 OA 
HETATM   10  C   UNL     1      -8.983   3.515  70.028  1.00  0.00    -0.171 C  
HETATM   11  C   UNL     1     -10.921   5.799  72.653  1.00  0.00    -0.311 C  
HETATM   12  C   UNL     1     -10.595   9.077  69.133  1.00  0.00    -0.219 C  
HETATM   13  C   UNL     1     -10.266   7.958  70.423  1.00  0.00    -0.197 C  
HETATM   14  C   UNL     1     -10.670   3.461  73.436  1.00  0.00    -0.207 C  
HETATM   15  C   UNL     1     -10.016   3.028  72.193  1.00  0.00    -0.233 C  
HETATM   16  C   UNL     1      -8.459   5.951  72.124  1.00  0.00    -0.125 C  
HETATM   17  C   UNL     1     -10.202   6.278  70.234  1.00  0.00    -0.244 C  
HETATM   18  C   UNL     1      -9.401   5.724  68.922  1.00  0.00    -0.141 C  
HETATM   19  C   UNL     1      -9.821   5.487  71.561  1.00  0.00    -0.221 C  
HETATM   20  C   UNL     1      -9.519   4.208  68.784  1.00  0.00    -0.231 C  
ENDROOT
BRANCH   4  21
HETATM   21  C   UNL     1      -8.130   9.239  68.662  1.00  0.00    -0.105 C  
HETATM   22  O   UNL     1      -7.991  10.244  67.952  1.00  0.00    -0.101 OA 
HETATM   23  C   UNL     1      -7.429   9.280  69.991  1.00  0.00    -0.094 C  
ENDBRANCH   4  21
BRANCH   4  24
HETATM   24  O   UNL     1      -7.907   7.738  67.030  1.00  0.00    -0.108 OA 
BRANCH  24  25
HETATM   25  C   UNL     1      -6.782   6.982  67.132  1.00  0.00    -0.060 C  
HETATM   26  O   UNL     1      -6.213   6.697  68.172  1.00  0.00    -0.030 OA 
BRANCH  25  27
HETATM   27  C   UNL     1      -6.461   6.389  65.772  1.00  0.00    -0.043 C  
BRANCH  27  28
HETATM   28  C   UNL     1      -7.448   6.785  64.695  1.00  0.00    -0.097 C  
BRANCH  28  29
HETATM   29  C   UNL     1      -8.172   5.577  64.109  1.00  0.00    -0.120 C  
BRANCH  29  30
HETATM   30  C   UNL     1      -7.994   4.357  65.004  1.00  0.00    -0.097 C  
HETATM   31  C   UNL     1      -9.279   3.554  65.094  1.00  0.00    -0.151 C  
ENDBRANCH  29  30
ENDBRANCH  28  29
ENDBRANCH  27  28
ENDBRANCH  25  27
ENDBRANCH  24  25
ENDBRANCH   4  24
TORSDOF 7
ENDMDL
MODEL       56
REMARK 921   NORMALIZED FREE ENERGY PREDICTED BY IDOCK:   -3.97 KCAL/MOL
REMARK 922        TOTAL FREE ENERGY PREDICTED BY IDOCK:   -5.80 KCAL/MOL
REMARK 923 INTER-LIGAND FREE ENERGY PREDICTED BY IDOCK:   -6.36 KCAL/MOL
REMARK 924 INTRA-LIGAND FREE ENERGY PREDICTED BY IDOCK:    0.56 KCAL/MOL
REMARK 927      BINDING AFFINITY PREDICTED BY RF-SCORE:    0.00 PKD
ROOT
HETATM    1  C   UNL     1      -8.385  12.945  68.032  1.00  0.00    -0.169 C  
HETATM    2  C   UNL     1      -7.070  13.014  67.507  1.00  0.00    -0.158 C  
HETATM    3  C   UNL     1      -8.132  12.529  66.589  1.00  0.00     0.140 C  
HETATM    4  C   UNL     1     -10.053  12.767  67.295  1.00  0.00    -0.226 C  
HETATM    5  C   UNL     1      -8.403   8.370  69.142  1.00  0.00    -0.122 C  
HETATM    6  C   UNL     1      -7.859   6.533  67.029  1.00  0.00    -0.108 C  
HETATM    7  C   UNL     1      -9.334  13.499  66.408  1.00  0.00    -0.191 C  
HETATM    8  C   UNL     1      -9.296  14.978  66.066  1.00  0.00    -0.304 C  
HETATM    9  O   UNL     1      -8.243   4.920  68.771  1.00  0.00    -0.083 OA 
HETATM   10  C   UNL     1      -8.286   9.454  70.188  1.00  0.00    -0.180 C  
HETATM   11  C   UNL     1      -8.846   7.642  66.685  1.00  0.00    -0.159 C  
HETATM   12  C   UNL     1      -9.690  12.143  65.174  1.00  0.00    -0.133 C  
HETATM   13  C   UNL     1      -9.775  10.583  65.939  1.00  0.00    -0.270 C  
HETATM   14  C   UNL     1      -8.056   6.083  68.441  1.00  0.00    -0.107 C  
HETATM   15  C   UNL     1      -7.929   7.148  69.446  1.00  0.00    -0.125 C  
HETATM   16  C   UNL     1     -10.677   8.508  68.191  1.00  0.00    -0.101 C  
HETATM   17  C   UNL     1      -8.870  10.137  67.297  1.00  0.00    -0.137 C  
HETATM   18  C   UNL     1      -8.771  11.240  68.500  1.00  0.00    -0.156 C  
HETATM   19  C   UNL     1      -9.181   8.673  67.837  1.00  0.00    -0.148 C  
HETATM   20  C   UNL     1      -7.827  10.785  69.610  1.00  0.00     0.023 C  
ENDROOT
BRANCH   4  21
HETATM   21  C   UNL     1     -11.547  12.959  66.661  1.00  0.00    -0.372 C  
HETATM   22  O   UNL     1     -12.401  12.065  66.600  1.00  0.00    -0.354 OA 
HETATM   23  C   UNL     1     -11.930  14.268  66.029  1.00  0.00    -0.412 C  
ENDBRANCH   4  21
BRANCH   4  24
HETATM   24  O   UNL     1     -10.388  13.926  68.301  1.00  0.00    -0.235 OA 
BRANCH  24  25
HETATM   25  C   UNL     1     -11.307  13.793  69.292  1.00  0.00    -0.273 C  
HETATM   26  O   UNL     1     -11.610  12.748  69.843  1.00  0.00    -0.260 OA 
BRANCH  25  27
HETATM   27  C   UNL     1     -11.752  15.174  69.740  1.00  0.00    -0.347 C  
BRANCH  27  28
HETATM   28  C   UNL     1     -10.683  16.233  69.578  1.00  0.00    -0.323 C  
BRANCH  28  29
HETATM   29  C   UNL     1     -10.995  17.193  68.435  1.00  0.00    -0.221 C  
BRANCH  29  30
HETATM   30  C   UNL     1      -9.777  18.045  68.101  1.00  0.00    -0.323 C  
HETATM   31  C   UNL     1      -9.813  19.365  68.851  1.00  0.00    -0.523 C  
ENDBRANCH  29  30
ENDBRANCH  28  29
ENDBRANCH  27  28
ENDBRANCH  25  27
ENDBRANCH  24  25
ENDBRANCH   4  24
TORSDOF 7
ENDMDL
MODEL       57
REMARK 921   NORMALIZED FREE ENERGY PREDICTED BY IDOCK:   -3.95 KCAL/MOL
REMARK 922        TOTAL FREE ENERGY PREDICTED BY IDOCK:   -5.77 KCAL/MOL
REMARK 923 INTER-LIGAND FREE ENERGY PREDICTED BY IDOCK:   -5.98 KCAL/MOL
REMARK 924 INTRA-LIGAND FREE ENERGY PREDICTED BY IDOCK:    0.21 KCAL/MOL
REMARK 927      BINDING AFFINITY PREDICTED BY RF-SCORE:    0.00 PKD
ROOT
HETATM    1  C   UNL     1      -7.691   6.848  68.775  1.00  0.00    -0.110 C  
HETATM    2  C   UNL     1      -6.668   6.919  67.795  1.00  0.00    -0.067 C  
HETATM    3  C   UNL     1      -6.573   7.871  68.932  1.00  0.00    -0.052 C  
HETATM    4  C   UNL     1      -7.884   7.499  70.477  1.00  0.00    -0.096 C  
HETATM    5  C   UNL     1     -10.392  10.344  67.149  1.00  0.00    -0.290 C  
HETATM    6  C   UNL     1      -9.162  12.903  66.885  1.00  0.00    -0.234 C  
HETATM    7  C   UNL     1      -6.566   7.210  70.341  1.00  0.00    -0.047 C  
HETATM    8  C   UNL     1      -5.693   6.069  70.831  1.00  0.00    -0.018 C  
HETATM    9  O   UNL     1     -11.375  13.534  66.184  1.00  0.00    -0.300 OA 
HETATM   10  C   UNL     1     -10.766   8.889  66.980  1.00  0.00    -0.180 C  
HETATM   11  C   UNL     1      -8.875  12.178  68.195  1.00  0.00    -0.187 C  
HETATM   12  C   UNL     1      -6.250   9.013  70.713  1.00  0.00    -0.048 C  
HETATM   13  C   UNL     1      -7.519  10.029  70.095  1.00  0.00    -0.176 C  
HETATM   14  C   UNL     1     -10.570  12.651  66.450  1.00  0.00    -0.251 C  
HETATM   15  C   UNL     1     -10.913  11.232  66.282  1.00  0.00    -0.265 C  
HETATM   16  C   UNL     1     -10.550  10.871  69.555  1.00  0.00    -0.217 C  
HETATM   17  C   UNL     1      -8.404   9.702  68.691  1.00  0.00    -0.114 C  
HETATM   18  C   UNL     1      -8.906   8.159  68.490  1.00  0.00    -0.134 C  
HETATM   19  C   UNL     1      -9.551  10.761  68.381  1.00  0.00    -0.177 C  
HETATM   20  C   UNL     1      -9.576   7.953  67.135  1.00  0.00    -0.222 C  
ENDROOT
BRANCH   4  21
HETATM   21  C   UNL     1      -7.941   7.760  72.089  1.00  0.00    -0.111 C  
HETATM   22  O   UNL     1      -7.216   7.191  72.916  1.00  0.00    -0.072 OA 
HETATM   23  C   UNL     1      -8.977   8.687  72.661  1.00  0.00    -0.116 C  
ENDBRANCH   4  21
BRANCH   4  24
HETATM   24  O   UNL     1      -8.392   6.037  70.749  1.00  0.00    -0.122 OA 
BRANCH  24  25
HETATM   25  C   UNL     1      -9.636   5.770  71.225  1.00  0.00    -0.166 C  
HETATM   26  O   UNL     1      -9.895   5.390  72.355  1.00  0.00    -0.160 OA 
BRANCH  25  27
HETATM   27  C   UNL     1     -10.663   6.207  70.195  1.00  0.00    -0.366 C  
BRANCH  27  28
HETATM   28  C   UNL     1     -11.959   6.692  70.807  1.00  0.00    -0.412 C  
BRANCH  28  29
HETATM   29  C   UNL     1     -11.972   8.206  70.994  1.00  0.00    -0.257 C  
BRANCH  29  30
HETATM   30  C   UNL     1     -12.933   8.601  72.108  1.00  0.00    -0.432 C  
HETATM   31  C   UNL     1     -14.333   8.082  71.830  1.00  0.00    -0.583 C  
ENDBRANCH  29  30
ENDBRANCH  28  29
ENDBRANCH  27  28
ENDBRANCH  25  27
ENDBRANCH  24  25
ENDBRANCH   4  24
TORSDOF 7
ENDMDL
MODEL       58
REMARK 921   NORMALIZED FREE ENERGY PREDICTED BY IDOCK:   -3.91 KCAL/MOL
REMARK 922        TOTAL FREE ENERGY PREDICTED BY IDOCK:   -5.72 KCAL/MOL
REMARK 923 INTER-LIGAND FREE ENERGY PREDICTED BY IDOCK:   -6.09 KCAL/MOL
REMARK 924 INTRA-LIGAND FREE ENERGY PREDICTED BY IDOCK:    0.37 KCAL/MOL
REMARK 927      BINDING AFFINITY PREDICTED BY RF-SCORE:    0.00 PKD
ROOT
HETATM    1  C   UNL     1      -9.922   7.534  67.930  1.00  0.00    -0.203 C  
HETATM    2  C   UNL     1     -11.140   7.150  67.312  1.00  0.00    -0.229 C  
HETATM    3  C   UNL     1     -10.148   7.852  66.457  1.00  0.00    -0.246 C  
HETATM    4  C   UNL     1      -8.287   8.083  67.311  1.00  0.00    -0.122 C  
HETATM    5  C   UNL     1     -11.052  12.007  68.866  1.00  0.00    -0.298 C  
HETATM    6  C   UNL     1     -11.835  13.625  66.653  1.00  0.00    -0.447 C  
HETATM    7  C   UNL     1      -8.743   7.186  66.401  1.00  0.00    -0.146 C  
HETATM    8  C   UNL     1      -8.411   5.732  66.113  1.00  0.00    -0.130 C  
HETATM    9  O   UNL     1     -11.975  15.317  68.357  1.00  0.00    -0.303 OA 
HETATM   10  C   UNL     1     -10.999  10.945  69.940  1.00  0.00    -0.266 C  
HETATM   11  C   UNL     1     -10.594  12.771  66.423  1.00  0.00    -0.273 C  
HETATM   12  C   UNL     1      -8.614   8.564  65.147  1.00  0.00    -0.179 C  
HETATM   13  C   UNL     1      -8.953  10.115  65.858  1.00  0.00    -0.182 C  
HETATM   14  C   UNL     1     -11.861  14.136  68.057  1.00  0.00    -0.365 C  
HETATM   15  C   UNL     1     -11.818  13.090  69.089  1.00  0.00    -0.360 C  
HETATM   16  C   UNL     1      -8.739  12.386  68.091  1.00  0.00    -0.190 C  
HETATM   17  C   UNL     1     -10.043  10.363  67.128  1.00  0.00    -0.254 C  
HETATM   18  C   UNL     1      -9.980   9.291  68.360  1.00  0.00    -0.196 C  
HETATM   19  C   UNL     1     -10.123  11.869  67.634  1.00  0.00    -0.202 C  
HETATM   20  C   UNL     1     -11.089   9.534  69.380  1.00  0.00    -0.136 C  
ENDROOT
BRANCH   4  21
HETATM   21  C   UNL     1      -6.744   8.233  66.796  1.00  0.00    -0.064 C  
HETATM   22  O   UNL     1      -6.117   9.300  66.765  1.00  0.00    -0.061 OA 
HETATM   23  C   UNL     1      -6.019   7.038  66.243  1.00  0.00    -0.035 C  
ENDBRANCH   4  21
BRANCH   4  24
HETATM   24  O   UNL     1      -7.775   7.053  68.381  1.00  0.00    -0.114 OA 
BRANCH  24  25
HETATM   25  C   UNL     1      -7.302   7.434  69.597  1.00  0.00    -0.091 C  
HETATM   26  O   UNL     1      -6.860   8.537  69.872  1.00  0.00    -0.042 OA 
BRANCH  25  27
HETATM   27  C   UNL     1      -7.593   6.336  70.605  1.00  0.00    -0.096 C  
BRANCH  27  28
HETATM   28  C   UNL     1      -9.013   6.359  71.127  1.00  0.00    -0.146 C  
BRANCH  28  29
HETATM   29  C   UNL     1      -9.643   4.970  71.135  1.00  0.00    -0.226 C  
BRANCH  29  30
HETATM   30  C   UNL     1     -10.030   4.547  69.724  1.00  0.00    -0.268 C  
HETATM   31  C   UNL     1      -9.238   3.328  69.284  1.00  0.00    -0.218 C  
ENDBRANCH  29  30
ENDBRANCH  28  29
ENDBRANCH  27  28
ENDBRANCH  25  27
ENDBRANCH  24  25
ENDBRANCH   4  24
TORSDOF 7
ENDMDL
MODEL       59
REMARK 921   NORMALIZED FREE ENERGY PREDICTED BY IDOCK:   -3.90 KCAL/MOL
REMARK 922        TOTAL FREE ENERGY PREDICTED BY IDOCK:   -5.70 KCAL/MOL
REMARK 923 INTER-LIGAND FREE ENERGY PREDICTED BY IDOCK:   -5.66 KCAL/MOL
REMARK 924 INTRA-LIGAND FREE ENERGY PREDICTED BY IDOCK:   -0.03 KCAL/MOL
REMARK 927      BINDING AFFINITY PREDICTED BY RF-SCORE:    0.00 PKD
ROOT
HETATM    1  C   UNL     1      -9.684  12.890  64.926  1.00  0.00     0.072 C  
HETATM    2  C   UNL     1     -10.248  12.195  63.826  1.00  0.00    -0.449 C  
HETATM    3  C   UNL     1     -11.111  12.366  65.022  1.00  0.00    -0.344 C  
HETATM    4  C   UNL     1     -10.366  13.660  66.443  1.00  0.00    -0.286 C  
HETATM    5  C   UNL     1      -8.348   9.145  67.445  1.00  0.00    -0.115 C  
HETATM    6  C   UNL     1     -10.380   7.265  68.130  1.00  0.00    -0.234 C  
HETATM    7  C   UNL     1     -11.308  13.840  65.483  1.00  0.00    -0.313 C  
HETATM    8  C   UNL     1     -11.723  15.032  64.640  1.00  0.00    -0.383 C  
HETATM    9  O   UNL     1      -8.550   6.191  69.263  1.00  0.00    -0.118 OA 
HETATM   10  C   UNL     1      -7.361  10.003  66.688  1.00  0.00    -0.103 C  
HETATM   11  C   UNL     1     -10.752   8.728  68.343  1.00  0.00    -0.112 C  
HETATM   12  C   UNL     1     -12.462  12.885  66.599  1.00  0.00     0.185 C  
HETATM   13  C   UNL     1     -11.618  11.662  67.503  1.00  0.00    -0.345 C  
HETATM   14  C   UNL     1      -8.943   7.040  68.474  1.00  0.00    -0.122 C  
HETATM   15  C   UNL     1      -7.996   7.876  67.722  1.00  0.00    -0.124 C  
HETATM   16  C   UNL     1      -9.242  10.510  69.297  1.00  0.00    -0.164 C  
HETATM   17  C   UNL     1     -10.265  10.821  66.935  1.00  0.00    -0.274 C  
HETATM   18  C   UNL     1      -9.122  11.708  66.176  1.00  0.00    -0.209 C  
HETATM   19  C   UNL     1      -9.645   9.798  67.985  1.00  0.00    -0.160 C  
HETATM   20  C   UNL     1      -8.017  10.831  65.593  1.00  0.00    -0.095 C  
ENDROOT
BRANCH   4  21
HETATM   21  C   UNL     1     -10.967  14.641  67.603  1.00  0.00    -0.293 C  
HETATM   22  O   UNL     1     -11.543  15.714  67.382  1.00  0.00    -0.168 OA 
HETATM   23  C   UNL     1     -10.766  14.297  69.052  1.00  0.00    -0.259 C  
ENDBRANCH   4  21
BRANCH   4  24
HETATM   24  O   UNL     1      -9.410  14.833  66.020  1.00  0.00    -0.284 OA 
BRANCH  24  25
HETATM   25  C   UNL     1      -8.449  15.328  66.843  1.00  0.00    -0.252 C  
HETATM   26  O   UNL     1      -8.382  16.479  67.242  1.00  0.00    -0.165 OA 
BRANCH  25  27
HETATM   27  C   UNL     1      -7.589  14.181  67.343  1.00  0.00    -0.179 C  
BRANCH  27  28
HETATM   28  C   UNL     1      -6.152  14.576  67.605  1.00  0.00    -0.073 C  
BRANCH  28  29
HETATM   29  C   UNL     1      -5.461  13.620  68.572  1.00  0.00    -0.092 C  
BRANCH  29  30
HETATM   30  C   UNL     1      -6.474  12.677  69.211  1.00  0.00    -0.106 C  
HETATM   31  C   UNL     1      -5.787  11.458  69.800  1.00  0.00    -0.099 C  
ENDBRANCH  29  30
ENDBRANCH  28  29
ENDBRANCH  27  28
ENDBRANCH  25  27
ENDBRANCH  24  25
ENDBRANCH   4  24
TORSDOF 7
ENDMDL
MODEL       60
REMARK 921   NORMALIZED FREE ENERGY PREDICTED BY IDOCK:   -3.89 KCAL/MOL
REMARK 922        TOTAL FREE ENERGY PREDICTED BY IDOCK:   -5.69 KCAL/MOL
REMARK 923 INTER-LIGAND FREE ENERGY PREDICTED BY IDOCK:   -5.97 KCAL/MOL
REMARK 924 INTRA-LIGAND FREE ENERGY PREDICTED BY IDOCK:    0.28 KCAL/MOL
REMARK 927      BINDING AFFINITY PREDICTED BY RF-SCORE:    0.00 PKD
ROOT
HETATM    1  C   UNL     1      -8.045   7.635  67.629  1.00  0.00    -0.121 C  
HETATM    2  C   UNL     1      -6.701   8.041  67.430  1.00  0.00    -0.069 C  
HETATM    3  C   UNL     1      -7.384   8.559  68.644  1.00  0.00    -0.088 C  
HETATM    4  C   UNL     1      -9.202   7.677  69.050  1.00  0.00    -0.140 C  
HETATM    5  C   UNL     1     -10.147  11.443  65.827  1.00  0.00    -0.289 C  
HETATM    6  C   UNL     1      -9.471  13.956  66.992  1.00  0.00    -0.256 C  
HETATM    7  C   UNL     1      -7.972   7.465  69.582  1.00  0.00    -0.126 C  
HETATM    8  C   UNL     1      -7.272   6.236  70.133  1.00  0.00    -0.080 C  
HETATM    9  O   UNL     1     -11.088  14.760  65.403  1.00  0.00    -0.325 OA 
HETATM   10  C   UNL     1     -10.096  10.124  65.091  1.00  0.00    -0.329 C  
HETATM   11  C   UNL     1      -9.761  12.839  67.987  1.00  0.00    -0.220 C  
HETATM   12  C   UNL     1      -8.242   9.044  70.544  1.00  0.00    -0.187 C  
HETATM   13  C   UNL     1      -9.184  10.194  69.641  1.00  0.00    -0.206 C  
HETATM   14  C   UNL     1     -10.381  13.849  65.811  1.00  0.00    -0.316 C  
HETATM   15  C   UNL     1     -10.311  12.563  65.101  1.00  0.00    -0.312 C  
HETATM   16  C   UNL     1     -11.610  11.133  67.792  1.00  0.00    -0.303 C  
HETATM   17  C   UNL     1      -9.146  10.345  67.957  1.00  0.00    -0.136 C  
HETATM   18  C   UNL     1      -9.169   8.952  67.101  1.00  0.00    -0.169 C  
HETATM   19  C   UNL     1     -10.152  11.433  67.377  1.00  0.00    -0.208 C  
HETATM   20  C   UNL     1      -8.999   9.203  65.605  1.00  0.00    -0.249 C  
ENDROOT
BRANCH   4  21
HETATM   21  C   UNL     1     -10.123   7.383  70.367  1.00  0.00    -0.192 C  
HETATM   22  O   UNL     1      -9.871   6.521  71.219  1.00  0.00    -0.180 OA 
HETATM   23  C   UNL     1     -11.411   8.132  70.562  1.00  0.00    -0.179 C  
ENDBRANCH   4  21
BRANCH   4  24
HETATM   24  O   UNL     1      -9.486   6.203  68.587  1.00  0.00    -0.124 OA 
BRANCH  24  25
HETATM   25  C   UNL     1     -10.449   5.892  67.681  1.00  0.00    -0.238 C  
HETATM   26  O   UNL     1     -11.410   6.589  67.401  1.00  0.00    -0.304 OA 
BRANCH  25  27
HETATM   27  C   UNL     1     -10.035   4.638  66.932  1.00  0.00    -0.239 C  
BRANCH  27  28
HETATM   28  C   UNL     1      -9.414   4.921  65.582  1.00  0.00    -0.168 C  
BRANCH  28  29
HETATM   29  C   UNL     1      -8.370   3.876  65.200  1.00  0.00    -0.101 C  
BRANCH  29  30
HETATM   30  C   UNL     1      -7.987   3.033  66.410  1.00  0.00    -0.081 C  
HETATM   31  C   UNL     1      -6.482   3.017  66.608  1.00  0.00    -0.036 C  
ENDBRANCH  29  30
ENDBRANCH  28  29
ENDBRANCH  27  28
ENDBRANCH  25  27
ENDBRANCH  24  25
ENDBRANCH   4  24
TORSDOF 7
ENDMDL
MODEL       61
REMARK 921   NORMALIZED FREE ENERGY PREDICTED BY IDOCK:   -3.85 KCAL/MOL
REMARK 922        TOTAL FREE ENERGY PREDICTED BY IDOCK:   -5.63 KCAL/MOL
REMARK 923 INTER-LIGAND FREE ENERGY PREDICTED BY IDOCK:   -5.89 KCAL/MOL
REMARK 924 INTRA-LIGAND FREE ENERGY PREDICTED BY IDOCK:    0.25 KCAL/MOL
REMARK 927      BINDING AFFINITY PREDICTED BY RF-SCORE:    0.00 PKD
ROOT
HETATM    1  C   UNL     1      -8.299  11.890  66.677  1.00  0.00    -0.117 C  
HETATM    2  C   UNL     1      -7.802  10.944  65.745  1.00  0.00    -0.057 C  
HETATM    3  C   UNL     1      -9.270  10.948  65.976  1.00  0.00    -0.210 C  
HETATM    4  C   UNL     1      -9.962  12.549  67.075  1.00  0.00    -0.214 C  
HETATM    5  C   UNL     1      -8.551   9.043  70.418  1.00  0.00    -0.215 C  
HETATM    6  C   UNL     1     -10.138   6.690  70.138  1.00  0.00    -0.200 C  
HETATM    7  C   UNL     1      -9.966  12.320  65.738  1.00  0.00    -0.273 C  
HETATM    8  C   UNL     1      -9.850  13.225  64.525  1.00  0.00     0.048 C  
HETATM    9  O   UNL     1      -9.499   6.379  72.437  1.00  0.00    -0.145 OA 
HETATM   10  C   UNL     1      -7.473  10.091  70.273  1.00  0.00    -0.143 C  
HETATM   11  C   UNL     1     -10.779   7.970  69.616  1.00  0.00    -0.207 C  
HETATM   12  C   UNL     1     -11.398  11.163  66.056  1.00  0.00     0.094 C  
HETATM   13  C   UNL     1     -11.255  10.372  67.599  1.00  0.00    -0.287 C  
HETATM   14  C   UNL     1      -9.351   6.973  71.377  1.00  0.00    -0.155 C  
HETATM   15  C   UNL     1      -8.300   7.988  71.215  1.00  0.00    -0.130 C  
HETATM   16  C   UNL     1     -10.692  10.229  70.737  1.00  0.00    -0.013 C  
HETATM   17  C   UNL     1      -9.786   9.956  68.324  1.00  0.00    -0.159 C  
HETATM   18  C   UNL     1      -8.602  11.082  68.269  1.00  0.00    -0.143 C  
HETATM   19  C   UNL     1      -9.933   9.297  69.765  1.00  0.00    -0.213 C  
HETATM   20  C   UNL     1      -7.287  10.551  68.834  1.00  0.00    -0.098 C  
ENDROOT
BRANCH   4  21
HETATM   21  C   UNL     1     -11.352  13.396  67.211  1.00  0.00    -0.319 C  
HETATM   22  O   UNL     1     -11.860  14.059  66.296  1.00  0.00    -0.372 OA 
HETATM   23  C   UNL     1     -12.058  13.469  68.536  1.00  0.00    -0.303 C  
ENDBRANCH   4  21
BRANCH   4  24
HETATM   24  O   UNL     1      -9.191  13.917  67.050  1.00  0.00    -0.231 OA 
BRANCH  24  25
HETATM   25  C   UNL     1      -8.923  14.627  68.177  1.00  0.00    -0.179 C  
HETATM   26  O   UNL     1      -8.618  14.153  69.258  1.00  0.00     0.132 OA 
BRANCH  25  27
HETATM   27  C   UNL     1      -8.872  16.105  67.828  1.00  0.00    -0.184 C  
BRANCH  27  28
HETATM   28  C   UNL     1      -9.944  16.923  68.513  1.00  0.00    -0.275 C  
BRANCH  28  29
HETATM   29  C   UNL     1     -10.769  17.734  67.520  1.00  0.00    -0.315 C  
BRANCH  29  30
HETATM   30  C   UNL     1     -10.085  19.060  67.210  1.00  0.00    -0.436 C  
HETATM   31  C   UNL     1     -10.589  19.641  65.901  1.00  0.00    -0.566 C  
ENDBRANCH  29  30
ENDBRANCH  28  29
ENDBRANCH  27  28
ENDBRANCH  25  27
ENDBRANCH  24  25
ENDBRANCH   4  24
TORSDOF 7
ENDMDL
MODEL       62
REMARK 921   NORMALIZED FREE ENERGY PREDICTED BY IDOCK:   -3.82 KCAL/MOL
REMARK 922        TOTAL FREE ENERGY PREDICTED BY IDOCK:   -5.59 KCAL/MOL
REMARK 923 INTER-LIGAND FREE ENERGY PREDICTED BY IDOCK:   -5.89 KCAL/MOL
REMARK 924 INTRA-LIGAND FREE ENERGY PREDICTED BY IDOCK:    0.29 KCAL/MOL
REMARK 927      BINDING AFFINITY PREDICTED BY RF-SCORE:    0.00 PKD
ROOT
HETATM    1  C   UNL     1      -9.360  12.413  65.134  1.00  0.00     0.275 C  
HETATM    2  C   UNL     1      -9.755  11.621  64.027  1.00  0.00    -0.225 C  
HETATM    3  C   UNL     1     -10.744  11.777  65.124  1.00  0.00    -0.343 C  
HETATM    4  C   UNL     1     -10.247  13.196  66.534  1.00  0.00    -0.277 C  
HETATM    5  C   UNL     1      -7.992   8.919  67.976  1.00  0.00    -0.102 C  
HETATM    6  C   UNL     1      -9.930   6.912  68.570  1.00  0.00    -0.149 C  
HETATM    7  C   UNL     1     -11.100  13.250  65.480  1.00  0.00    -0.299 C  
HETATM    8  C   UNL     1     -11.521  14.362  64.536  1.00  0.00    -0.352 C  
HETATM    9  O   UNL     1      -8.143   6.050  69.931  1.00  0.00    -0.112 OA 
HETATM   10  C   UNL     1      -7.005   9.818  67.270  1.00  0.00    -0.084 C  
HETATM   11  C   UNL     1     -10.434   8.347  68.664  1.00  0.00    -0.197 C  
HETATM   12  C   UNL     1     -12.281  12.258  66.533  1.00  0.00     0.150 C  
HETATM   13  C   UNL     1     -11.438  11.155  67.582  1.00  0.00    -0.328 C  
HETATM   14  C   UNL     1      -8.520   6.824  69.062  1.00  0.00    -0.128 C  
HETATM   15  C   UNL     1      -7.572   7.698  68.357  1.00  0.00    -0.113 C  
HETATM   16  C   UNL     1      -9.170  10.293  69.655  1.00  0.00    -0.155 C  
HETATM   17  C   UNL     1      -9.975  10.402  67.193  1.00  0.00    -0.239 C  
HETATM   18  C   UNL     1      -8.834  11.344  66.497  1.00  0.00    -0.187 C  
HETATM   19  C   UNL     1      -9.383   9.487  68.354  1.00  0.00    -0.137 C  
HETATM   20  C   UNL     1      -7.611  10.535  66.072  1.00  0.00    -0.140 C  
ENDROOT
BRANCH   4  21
HETATM   21  C   UNL     1     -11.035  14.179  67.574  1.00  0.00    -0.283 C  
HETATM   22  O   UNL     1     -11.771  15.114  67.232  1.00  0.00    -0.295 OA 
HETATM   23  C   UNL     1     -10.824  14.025  69.054  1.00  0.00    -0.268 C  
ENDBRANCH   4  21
BRANCH   4  24
HETATM   24  O   UNL     1      -9.348  14.422  66.138  1.00  0.00    -0.269 OA 
BRANCH  24  25
HETATM   25  C   UNL     1      -8.403  14.936  66.968  1.00  0.00    -0.216 C  
HETATM   26  O   UNL     1      -7.512  14.301  67.507  1.00  0.00    -0.167 OA 
BRANCH  25  27
HETATM   27  C   UNL     1      -8.512  16.451  66.960  1.00  0.00    -0.226 C  
BRANCH  27  28
HETATM   28  C   UNL     1      -7.655  17.121  68.013  1.00  0.00    -0.192 C  
BRANCH  28  29
HETATM   29  C   UNL     1      -6.975  18.379  67.483  1.00  0.00    -0.206 C  
BRANCH  29  30
HETATM   30  C   UNL     1      -7.795  19.001  66.360  1.00  0.00    -0.291 C  
HETATM   31  C   UNL     1      -6.928  19.874  65.470  1.00  0.00    -0.336 C  
ENDBRANCH  29  30
ENDBRANCH  28  29
ENDBRANCH  27  28
ENDBRANCH  25  27
ENDBRANCH  24  25
ENDBRANCH   4  24
TORSDOF 7
ENDMDL
MODEL       63
REMARK 921   NORMALIZED FREE ENERGY PREDICTED BY IDOCK:   -3.82 KCAL/MOL
REMARK 922        TOTAL FREE ENERGY PREDICTED BY IDOCK:   -5.59 KCAL/MOL
REMARK 923 INTER-LIGAND FREE ENERGY PREDICTED BY IDOCK:   -5.58 KCAL/MOL
REMARK 924 INTRA-LIGAND FREE ENERGY PREDICTED BY IDOCK:   -0.01 KCAL/MOL
REMARK 927      BINDING AFFINITY PREDICTED BY RF-SCORE:    0.00 PKD
ROOT
HETATM    1  C   UNL     1     -10.787   7.102  70.549  1.00  0.00    -0.269 C  
HETATM    2  C   UNL     1     -12.077   6.536  70.709  1.00  0.00    -0.286 C  
HETATM    3  C   UNL     1     -10.937   5.780  71.290  1.00  0.00    -0.299 C  
HETATM    4  C   UNL     1      -9.150   6.805  71.319  1.00  0.00    -0.150 C  
HETATM    5  C   UNL     1      -9.448   4.614  66.783  1.00  0.00    -0.172 C  
HETATM    6  C   UNL     1      -9.487   1.774  67.040  1.00  0.00     0.127 C  
HETATM    7  C   UNL     1     -10.064   6.582  72.296  1.00  0.00    -0.191 C  
HETATM    8  C   UNL     1     -10.528   7.392  73.494  1.00  0.00    -0.396 C  
HETATM    9  O   UNL     1      -8.627   1.885  64.796  1.00  0.00    -0.089 OA 
HETATM   10  C   UNL     1      -9.849   6.068  66.690  1.00  0.00    -0.202 C  
HETATM   11  C   UNL     1      -8.862   2.522  68.212  1.00  0.00    -0.162 C  
HETATM   12  C   UNL     1      -9.360   4.855  72.401  1.00  0.00    -0.156 C  
HETATM   13  C   UNL     1      -8.821   4.284  70.849  1.00  0.00    -0.142 C  
HETATM   14  C   UNL     1      -9.143   2.449  65.751  1.00  0.00    -0.088 C  
HETATM   15  C   UNL     1      -9.549   3.860  65.673  1.00  0.00    -0.182 C  
HETATM   16  C   UNL     1      -7.326   4.516  68.039  1.00  0.00    -0.065 C  
HETATM   17  C   UNL     1      -9.537   4.709  69.377  1.00  0.00    -0.257 C  
HETATM   18  C   UNL     1      -9.923   6.286  69.183  1.00  0.00    -0.181 C  
HETATM   19  C   UNL     1      -8.812   4.098  68.099  1.00  0.00    -0.134 C  
HETATM   20  C   UNL     1     -10.678   6.529  67.879  1.00  0.00    -0.357 C  
ENDROOT
BRANCH   4  21
HETATM   21  C   UNL     1      -7.785   6.807  72.216  1.00  0.00    -0.094 C  
HETATM   22  O   UNL     1      -7.725   7.167  73.399  1.00  0.00    -0.085 OA 
HETATM   23  C   UNL     1      -6.474   6.426  71.586  1.00  0.00    -0.050 C  
ENDBRANCH   4  21
BRANCH   4  24
HETATM   24  O   UNL     1      -9.140   8.374  71.396  1.00  0.00    -0.154 OA 
BRANCH  24  25
HETATM   25  C   UNL     1      -8.192   9.132  70.785  1.00  0.00    -0.190 C  
HETATM   26  O   UNL     1      -7.277   9.710  71.347  1.00  0.00    -0.315 OA 
BRANCH  25  27
HETATM   27  C   UNL     1      -8.336   8.983  69.281  1.00  0.00    -0.122 C  
BRANCH  27  28
HETATM   28  C   UNL     1      -8.949  10.195  68.612  1.00  0.00    -0.136 C  
BRANCH  28  29
HETATM   29  C   UNL     1     -10.472  10.175  68.677  1.00  0.00    -0.225 C  
BRANCH  29  30
HETATM   30  C   UNL     1     -11.071  10.377  67.291  1.00  0.00    -0.251 C  
HETATM   31  C   UNL     1     -10.143   9.846  66.213  1.00  0.00    -0.311 C  
ENDBRANCH  29  30
ENDBRANCH  28  29
ENDBRANCH  27  28
ENDBRANCH  25  27
ENDBRANCH  24  25
ENDBRANCH   4  24
TORSDOF 7
ENDMDL
MODEL       64
REMARK 921   NORMALIZED FREE ENERGY PREDICTED BY IDOCK:   -3.78 KCAL/MOL
REMARK 922        TOTAL FREE ENERGY PREDICTED BY IDOCK:   -5.54 KCAL/MOL
REMARK 923 INTER-LIGAND FREE ENERGY PREDICTED BY IDOCK:   -5.36 KCAL/MOL
REMARK 924 INTRA-LIGAND FREE ENERGY PREDICTED BY IDOCK:   -0.18 KCAL/MOL
REMARK 927      BINDING AFFINITY PREDICTED BY RF-SCORE:    0.00 PKD
ROOT
HETATM    1  C   UNL     1      -9.432  11.295  64.997  1.00  0.00    -0.237 C  
HETATM    2  C   UNL     1     -10.396  10.995  64.001  1.00  0.00    -0.436 C  
HETATM    3  C   UNL     1     -10.520  10.269  65.291  1.00  0.00    -0.099 C  
HETATM    4  C   UNL     1      -9.310  10.984  66.799  1.00  0.00    -0.181 C  
HETATM    5  C   UNL     1      -6.521   7.684  64.191  1.00  0.00    -0.052 C  
HETATM    6  C   UNL     1      -7.642   5.067  64.358  1.00  0.00    -0.077 C  
HETATM    7  C   UNL     1     -10.628  11.181  66.547  1.00  0.00    -0.314 C  
HETATM    8  C   UNL     1     -11.568  12.352  66.771  1.00  0.00    -0.444 C  
HETATM    9  O   UNL     1      -5.372   4.419  63.895  1.00  0.00    -0.012 OA 
HETATM   10  C   UNL     1      -6.192   9.097  63.769  1.00  0.00    -0.088 C  
HETATM   11  C   UNL     1      -8.027   6.010  65.492  1.00  0.00    -0.115 C  
HETATM   12  C   UNL     1     -10.899   9.467  67.238  1.00  0.00    -0.165 C  
HETATM   13  C   UNL     1      -9.562   8.412  66.885  1.00  0.00    -0.264 C  
HETATM   14  C   UNL     1      -6.222   5.298  63.951  1.00  0.00    -0.022 C  
HETATM   15  C   UNL     1      -5.921   6.675  63.534  1.00  0.00    -0.034 C  
HETATM   16  C   UNL     1      -6.477   7.625  66.658  1.00  0.00    -0.053 C  
HETATM   17  C   UNL     1      -8.613   8.511  65.488  1.00  0.00    -0.204 C  
HETATM   18  C   UNL     1      -8.157  10.011  65.023  1.00  0.00    -0.145 C  
HETATM   19  C   UNL     1      -7.414   7.467  65.439  1.00  0.00    -0.090 C  
HETATM   20  C   UNL     1      -7.420   9.991  63.686  1.00  0.00    -0.137 C  
ENDROOT
BRANCH   4  21
HETATM   21  C   UNL     1      -9.333  11.031  68.431  1.00  0.00    -0.179 C  
HETATM   22  O   UNL     1     -10.123  11.711  69.100  1.00  0.00    -0.082 OA 
HETATM   23  C   UNL     1      -8.297  10.277  69.217  1.00  0.00    -0.167 C  
ENDBRANCH   4  21
BRANCH   4  24
HETATM   24  O   UNL     1      -8.872  12.492  66.813  1.00  0.00    -0.208 OA 
BRANCH  24  25
HETATM   25  C   UNL     1      -7.605  12.884  67.110  1.00  0.00    -0.028 C  
HETATM   26  O   UNL     1      -6.601  12.207  66.964  1.00  0.00    -0.147 OA 
BRANCH  25  27
HETATM   27  C   UNL     1      -7.617  14.361  67.463  1.00  0.00    -0.212 C  
BRANCH  27  28
HETATM   28  C   UNL     1      -9.003  14.967  67.471  1.00  0.00    -0.190 C  
BRANCH  28  29
HETATM   29  C   UNL     1      -9.019  16.369  66.870  1.00  0.00    -0.240 C  
BRANCH  29  30
HETATM   30  C   UNL     1     -10.154  16.509  65.863  1.00  0.00    -0.359 C  
HETATM   31  C   UNL     1     -10.294  15.253  65.021  1.00  0.00    -0.375 C  
ENDBRANCH  29  30
ENDBRANCH  28  29
ENDBRANCH  27  28
ENDBRANCH  25  27
ENDBRANCH  24  25
ENDBRANCH   4  24
TORSDOF 7
ENDMDL
MODEL       65
REMARK 921   NORMALIZED FREE ENERGY PREDICTED BY IDOCK:   -3.76 KCAL/MOL
REMARK 922        TOTAL FREE ENERGY PREDICTED BY IDOCK:   -5.50 KCAL/MOL
REMARK 923 INTER-LIGAND FREE ENERGY PREDICTED BY IDOCK:   -5.95 KCAL/MOL
REMARK 924 INTRA-LIGAND FREE ENERGY PREDICTED BY IDOCK:    0.45 KCAL/MOL
REMARK 927      BINDING AFFINITY PREDICTED BY RF-SCORE:    0.00 PKD
ROOT
HETATM    1  C   UNL     1      -7.915  11.259  66.351  1.00  0.00    -0.125 C  
HETATM    2  C   UNL     1      -7.212  10.351  65.520  1.00  0.00    -0.138 C  
HETATM    3  C   UNL     1      -8.613   9.995  65.865  1.00  0.00    -0.150 C  
HETATM    4  C   UNL     1      -9.679  11.499  66.788  1.00  0.00    -0.199 C  
HETATM    5  C   UNL     1      -7.216   9.059  70.454  1.00  0.00    -0.069 C  
HETATM    6  C   UNL     1      -8.095   6.351  70.626  1.00  0.00    -0.113 C  
HETATM    7  C   UNL     1      -9.672  11.075  65.499  1.00  0.00    -0.274 C  
HETATM    8  C   UNL     1      -9.861  11.781  64.168  1.00  0.00    -0.248 C  
HETATM    9  O   UNL     1      -7.304   6.580  72.886  1.00  0.00    -0.085 OA 
HETATM   10  C   UNL     1      -6.478  10.323  70.080  1.00  0.00    -0.116 C  
HETATM   11  C   UNL     1      -9.088   7.315  69.987  1.00  0.00    -0.148 C  
HETATM   12  C   UNL     1     -10.711   9.638  66.086  1.00  0.00     0.183 C  
HETATM   13  C   UNL     1     -10.293   9.162  67.706  1.00  0.00    -0.302 C  
HETATM   14  C   UNL     1      -7.369   7.022  71.747  1.00  0.00    -0.086 C  
HETATM   15  C   UNL     1      -6.650   8.246  71.364  1.00  0.00    -0.051 C  
HETATM   16  C   UNL     1      -9.588   9.658  70.779  1.00  0.00    -0.158 C  
HETATM   17  C   UNL     1      -8.738   9.273  68.361  1.00  0.00    -0.129 C  
HETATM   18  C   UNL     1      -7.918  10.654  68.057  1.00  0.00    -0.107 C  
HETATM   19  C   UNL     1      -8.639   8.828  69.885  1.00  0.00    -0.133 C  
HETATM   20  C   UNL     1      -6.486  10.590  68.582  1.00  0.00    -0.051 C  
ENDROOT
BRANCH   4  21
HETATM   21  C   UNL     1     -11.243  11.952  66.918  1.00  0.00    -0.325 C  
HETATM   22  O   UNL     1     -11.945  12.325  65.969  1.00  0.00    -0.570 OA 
HETATM   23  C   UNL     1     -11.896  12.009  68.271  1.00  0.00    -0.351 C  
ENDBRANCH   4  21
BRANCH   4  24
HETATM   24  O   UNL     1      -9.320  13.004  66.515  1.00  0.00    -0.248 OA 
BRANCH  24  25
HETATM   25  C   UNL     1      -9.155  13.910  67.513  1.00  0.00    -0.201 C  
HETATM   26  O   UNL     1      -8.913  13.645  68.679  1.00  0.00    -0.137 OA 
BRANCH  25  27
HETATM   27  C   UNL     1      -9.122  15.305  66.912  1.00  0.00    -0.263 C  
BRANCH  27  28
HETATM   28  C   UNL     1      -9.770  16.353  67.790  1.00  0.00    -0.235 C  
BRANCH  28  29
HETATM   29  C   UNL     1      -8.747  17.316  68.384  1.00  0.00    -0.261 C  
BRANCH  29  30
HETATM   30  C   UNL     1      -9.285  18.741  68.381  1.00  0.00    -0.376 C  
HETATM   31  C   UNL     1     -10.326  18.928  67.292  1.00  0.00    -0.486 C  
ENDBRANCH  29  30
ENDBRANCH  28  29
ENDBRANCH  27  28
ENDBRANCH  25  27
ENDBRANCH  24  25
ENDBRANCH   4  24
TORSDOF 7
ENDMDL
MODEL       66
REMARK 921   NORMALIZED FREE ENERGY PREDICTED BY IDOCK:   -3.73 KCAL/MOL
REMARK 922        TOTAL FREE ENERGY PREDICTED BY IDOCK:   -5.46 KCAL/MOL
REMARK 923 INTER-LIGAND FREE ENERGY PREDICTED BY IDOCK:   -6.15 KCAL/MOL
REMARK 924 INTRA-LIGAND FREE ENERGY PREDICTED BY IDOCK:    0.69 KCAL/MOL
REMARK 927      BINDING AFFINITY PREDICTED BY RF-SCORE:    0.00 PKD
ROOT
HETATM    1  C   UNL     1     -10.976   7.225  70.371  1.00  0.00    -0.273 C  
HETATM    2  C   UNL     1     -11.982   6.351  70.855  1.00  0.00    -0.258 C  
HETATM    3  C   UNL     1     -10.583   6.049  71.256  1.00  0.00    -0.302 C  
HETATM    4  C   UNL     1      -9.221   7.528  70.804  1.00  0.00    -0.158 C  
HETATM    5  C   UNL     1      -9.602   4.649  66.678  1.00  0.00    -0.192 C  
HETATM    6  C   UNL     1      -8.721   1.992  67.222  1.00  0.00    -0.136 C  
HETATM    7  C   UNL     1      -9.840   7.215  71.970  1.00  0.00    -0.174 C  
HETATM    8  C   UNL     1     -10.319   8.041  73.151  1.00  0.00    -0.269 C  
HETATM    9  O   UNL     1      -8.334   1.982  64.847  1.00  0.00    -0.082 OA 
HETATM   10  C   UNL     1     -10.441   5.896  66.525  1.00  0.00    -0.251 C  
HETATM   11  C   UNL     1      -8.165   3.062  68.154  1.00  0.00    -0.089 C  
HETATM   12  C   UNL     1      -8.632   5.796  72.098  1.00  0.00    -0.129 C  
HETATM   13  C   UNL     1      -8.218   5.161  70.532  1.00  0.00    -0.102 C  
HETATM   14  C   UNL     1      -8.827   2.522  65.828  1.00  0.00    -0.131 C  
HETATM   15  C   UNL     1      -9.655   3.730  65.696  1.00  0.00    -0.166 C  
HETATM   16  C   UNL     1      -7.370   5.354  67.461  1.00  0.00    -0.076 C  
HETATM   17  C   UNL     1      -9.271   5.126  69.209  1.00  0.00    -0.151 C  
HETATM   18  C   UNL     1     -10.150   6.479  68.943  1.00  0.00    -0.183 C  
HETATM   19  C   UNL     1      -8.623   4.549  67.875  1.00  0.00    -0.108 C  
HETATM   20  C   UNL     1     -11.155   6.289  67.810  1.00  0.00    -0.361 C  
ENDROOT
BRANCH   4  21
HETATM   21  C   UNL     1      -7.790   8.057  71.388  1.00  0.00    -0.094 C  
HETATM   22  O   UNL     1      -7.645   8.614  72.485  1.00  0.00    -0.311 OA 
HETATM   23  C   UNL     1      -6.551   7.952  70.543  1.00  0.00    -0.037 C  
ENDBRANCH   4  21
BRANCH   4  24
HETATM   24  O   UNL     1      -9.681   9.027  70.719  1.00  0.00    -0.204 OA 
BRANCH  24  25
HETATM   25  C   UNL     1      -9.615   9.750  69.570  1.00  0.00    -0.210 C  
HETATM   26  O   UNL     1      -8.888   9.508  68.622  1.00  0.00    -0.129 OA 
BRANCH  25  27
HETATM   27  C   UNL     1     -10.726  10.786  69.575  1.00  0.00    -0.268 C  
BRANCH  27  28
HETATM   28  C   UNL     1     -10.557  11.854  68.517  1.00  0.00    -0.245 C  
BRANCH  28  29
HETATM   29  C   UNL     1     -11.843  12.640  68.284  1.00  0.00    -0.354 C  
BRANCH  29  30
HETATM   30  C   UNL     1     -11.664  14.097  68.690  1.00  0.00    -0.385 C  
HETATM   31  C   UNL     1     -11.115  14.920  67.539  1.00  0.00    -0.319 C  
ENDBRANCH  29  30
ENDBRANCH  28  29
ENDBRANCH  27  28
ENDBRANCH  25  27
ENDBRANCH  24  25
ENDBRANCH   4  24
TORSDOF 7
ENDMDL
MODEL       67
REMARK 921   NORMALIZED FREE ENERGY PREDICTED BY IDOCK:   -3.73 KCAL/MOL
REMARK 922        TOTAL FREE ENERGY PREDICTED BY IDOCK:   -5.46 KCAL/MOL
REMARK 923 INTER-LIGAND FREE ENERGY PREDICTED BY IDOCK:   -5.89 KCAL/MOL
REMARK 924 INTRA-LIGAND FREE ENERGY PREDICTED BY IDOCK:    0.43 KCAL/MOL
REMARK 927      BINDING AFFINITY PREDICTED BY RF-SCORE:    0.00 PKD
ROOT
HETATM    1  C   UNL     1     -10.495  10.951  69.570  1.00  0.00    -0.176 C  
HETATM    2  C   UNL     1     -11.875  10.816  69.867  1.00  0.00    -0.413 C  
HETATM    3  C   UNL     1     -11.392  10.167  68.621  1.00  0.00    -0.172 C  
HETATM    4  C   UNL     1      -9.342  10.113  68.418  1.00  0.00    -0.136 C  
HETATM    5  C   UNL     1     -10.827  14.571  66.579  1.00  0.00    -0.314 C  
HETATM    6  C   UNL     1     -12.511  14.210  64.306  1.00  0.00    -0.301 C  
HETATM    7  C   UNL     1     -10.222   9.161  68.817  1.00  0.00    -0.228 C  
HETATM    8  C   UNL     1     -10.137   8.012  69.806  1.00  0.00    -0.196 C  
HETATM    9  O   UNL     1     -11.731  16.425  63.783  1.00  0.00    -1.049 OA 
HETATM   10  C   UNL     1     -10.307  14.733  67.988  1.00  0.00    -0.237 C  
HETATM   11  C   UNL     1     -11.577  13.046  64.611  1.00  0.00    -0.389 C  
HETATM   12  C   UNL     1     -10.655   8.966  67.010  1.00  0.00    -0.279 C  
HETATM   13  C   UNL     1     -10.537  10.476  66.155  1.00  0.00    -0.182 C  
HETATM   14  C   UNL     1     -11.830  15.510  64.590  1.00  0.00    -0.171 C  
HETATM   15  C   UNL     1     -11.339  15.655  65.968  1.00  0.00     0.053 C  
HETATM   16  C   UNL     1      -9.166  13.238  65.331  1.00  0.00     0.610 C  
HETATM   17  C   UNL     1     -10.862  11.988  66.840  1.00  0.00    -0.302 C  
HETATM   18  C   UNL     1     -10.258  12.254  68.336  1.00  0.00    -0.220 C  
HETATM   19  C   UNL     1     -10.619  13.216  65.857  1.00  0.00    -0.290 C  
HETATM   20  C   UNL     1     -10.721  13.592  68.905  1.00  0.00    -0.237 C  
ENDROOT
BRANCH   4  21
HETATM   21  C   UNL     1      -8.237   9.169  67.673  1.00  0.00    -0.108 C  
HETATM   22  O   UNL     1      -7.911   8.037  68.056  1.00  0.00    -0.123 OA 
HETATM   23  C   UNL     1      -7.484   9.694  66.483  1.00  0.00    -0.094 C  
ENDBRANCH   4  21
BRANCH   4  24
HETATM   24  O   UNL     1      -8.423  10.095  69.691  1.00  0.00    -0.172 OA 
BRANCH  24  25
HETATM   25  C   UNL     1      -7.174  10.630  69.701  1.00  0.00    -0.139 C  
HETATM   26  O   UNL     1      -6.152  10.038  70.007  1.00  0.00    -0.045 OA 
BRANCH  25  27
HETATM   27  C   UNL     1      -7.226  12.017  69.085  1.00  0.00     0.002 C  
BRANCH  27  28
HETATM   28  C   UNL     1      -5.965  12.822  69.307  1.00  0.00    -0.093 C  
BRANCH  28  29
HETATM   29  C   UNL     1      -6.029  13.646  70.589  1.00  0.00    -0.143 C  
BRANCH  29  30
HETATM   30  C   UNL     1      -5.833  15.126  70.287  1.00  0.00    -0.147 C  
HETATM   31  C   UNL     1      -6.969  15.663  69.434  1.00  0.00    -0.196 C  
ENDBRANCH  29  30
ENDBRANCH  28  29
ENDBRANCH  27  28
ENDBRANCH  25  27
ENDBRANCH  24  25
ENDBRANCH   4  24
TORSDOF 7
ENDMDL
MODEL       68
REMARK 921   NORMALIZED FREE ENERGY PREDICTED BY IDOCK:   -3.68 KCAL/MOL
REMARK 922        TOTAL FREE ENERGY PREDICTED BY IDOCK:   -5.39 KCAL/MOL
REMARK 923 INTER-LIGAND FREE ENERGY PREDICTED BY IDOCK:   -6.61 KCAL/MOL
REMARK 924 INTRA-LIGAND FREE ENERGY PREDICTED BY IDOCK:    1.22 KCAL/MOL
REMARK 927      BINDING AFFINITY PREDICTED BY RF-SCORE:    0.00 PKD
ROOT
HETATM    1  C   UNL     1      -9.951  15.702  68.622  1.00  0.00    -0.208 C  
HETATM    2  C   UNL     1     -10.344  15.642  69.983  1.00  0.00    -0.309 C  
HETATM    3  C   UNL     1      -8.956  15.214  69.668  1.00  0.00    -0.059 C  
HETATM    4  C   UNL     1      -8.342  15.637  67.747  1.00  0.00    -0.148 C  
HETATM    5  C   UNL     1     -10.711  11.187  67.526  1.00  0.00    -0.280 C  
HETATM    6  C   UNL     1      -9.334   9.237  69.085  1.00  0.00    -0.157 C  
HETATM    7  C   UNL     1      -8.098  16.275  68.919  1.00  0.00    -0.231 C  
HETATM    8  C   UNL     1      -7.887  17.732  69.289  1.00  0.00     0.146 C  
HETATM    9  O   UNL     1     -10.437   7.724  67.575  1.00  0.00    -0.240 OA 
HETATM   10  C   UNL     1     -11.634  12.295  67.073  1.00  0.00    -0.418 C  
HETATM   11  C   UNL     1      -8.482  10.411  68.618  1.00  0.00    -0.129 C  
HETATM   12  C   UNL     1      -6.875  14.909  69.276  1.00  0.00    -0.148 C  
HETATM   13  C   UNL     1      -7.392  13.390  68.603  1.00  0.00    -0.106 C  
HETATM   14  C   UNL     1     -10.317   8.855  68.026  1.00  0.00    -0.219 C  
HETATM   15  C   UNL     1     -11.213   9.942  67.604  1.00  0.00    -0.032 C  
HETATM   16  C   UNL     1      -8.569  11.480  66.334  1.00  0.00    -0.159 C  
HETATM   17  C   UNL     1      -9.008  12.920  68.444  1.00  0.00    -0.124 C  
HETATM   18  C   UNL     1     -10.044  14.053  67.883  1.00  0.00    -0.237 C  
HETATM   19  C   UNL     1      -9.210  11.507  67.740  1.00  0.00    -0.165 C  
HETATM   20  C   UNL     1     -11.489  13.561  67.905  1.00  0.00    -0.353 C  
ENDROOT
BRANCH   4  21
HETATM   21  C   UNL     1      -6.930  15.930  66.978  1.00  0.00    -0.138 C  
HETATM   22  O   UNL     1      -5.946  15.180  67.012  1.00  0.00    -0.174 OA 
HETATM   23  C   UNL     1      -6.739  17.219  66.229  1.00  0.00    -0.269 C  
ENDBRANCH   4  21
BRANCH   4  24
HETATM   24  O   UNL     1      -8.958  16.855  66.970  1.00  0.00    -0.204 OA 
BRANCH  24  25
HETATM   25  C   UNL     1      -9.726  16.704  65.860  1.00  0.00    -0.237 C  
HETATM   26  O   UNL     1      -9.793  15.696  65.176  1.00  0.00    -0.337 OA 
BRANCH  25  27
HETATM   27  C   UNL     1     -10.633  17.914  65.719  1.00  0.00    -0.175 C  
BRANCH  27  28
HETATM   28  C   UNL     1     -10.679  18.779  66.960  1.00  0.00    -0.435 C  
BRANCH  28  29
HETATM   29  C   UNL     1     -10.196  20.199  66.687  1.00  0.00    -0.556 C  
BRANCH  29  30
HETATM   30  C   UNL     1      -8.729  20.199  66.276  1.00  0.00    -0.283 C  
HETATM   31  C   UNL     1      -7.866  20.859  67.336  1.00  0.00    -0.223 C  
ENDBRANCH  29  30
ENDBRANCH  28  29
ENDBRANCH  27  28
ENDBRANCH  25  27
ENDBRANCH  24  25
ENDBRANCH   4  24
TORSDOF 7
ENDMDL
MODEL       69
REMARK 921   NORMALIZED FREE ENERGY PREDICTED BY IDOCK:   -3.65 KCAL/MOL
REMARK 922        TOTAL FREE ENERGY PREDICTED BY IDOCK:   -5.35 KCAL/MOL
REMARK 923 INTER-LIGAND FREE ENERGY PREDICTED BY IDOCK:   -5.90 KCAL/MOL
REMARK 924 INTRA-LIGAND FREE ENERGY PREDICTED BY IDOCK:    0.56 KCAL/MOL
REMARK 927      BINDING AFFINITY PREDICTED BY RF-SCORE:    0.00 PKD
ROOT
HETATM    1  C   UNL     1     -10.241   9.886  67.717  1.00  0.00    -0.241 C  
HETATM    2  C   UNL     1     -11.208  10.748  68.292  1.00  0.00    -0.358 C  
HETATM    3  C   UNL     1      -9.828  10.835  68.835  1.00  0.00    -0.209 C  
HETATM    4  C   UNL     1      -8.410   9.811  67.745  1.00  0.00    -0.114 C  
HETATM    5  C   UNL     1     -10.414   6.468  70.951  1.00  0.00    -0.263 C  
HETATM    6  C   UNL     1      -9.890   7.225  73.650  1.00  0.00    -0.353 C  
HETATM    7  C   UNL     1      -8.726  11.130  67.777  1.00  0.00    -0.132 C  
HETATM    8  C   UNL     1      -8.707  12.232  66.733  1.00  0.00    -0.175 C  
HETATM    9  O   UNL     1     -10.186   4.868  74.026  1.00  0.00    -0.181 OA 
HETATM   10  C   UNL     1     -11.033   6.316  69.581  1.00  0.00    -0.440 C  
HETATM   11  C   UNL     1      -8.922   7.792  72.619  1.00  0.00    -0.224 C  
HETATM   12  C   UNL     1      -7.795  11.196  69.395  1.00  0.00     0.063 C  
HETATM   13  C   UNL     1      -7.948   9.710  70.287  1.00  0.00    -0.198 C  
HETATM   14  C   UNL     1     -10.286   5.832  73.279  1.00  0.00    -0.214 C  
HETATM   15  C   UNL     1     -10.896   5.704  71.948  1.00  0.00    -0.302 C  
HETATM   16  C   UNL     1      -7.966   6.539  70.648  1.00  0.00    -0.111 C  
HETATM   17  C   UNL     1      -9.316   8.716  70.255  1.00  0.00    -0.180 C  
HETATM   18  C   UNL     1      -9.986   8.449  68.788  1.00  0.00    -0.197 C  
HETATM   19  C   UNL     1      -9.174   7.383  71.112  1.00  0.00    -0.155 C  
HETATM   20  C   UNL     1     -11.283   7.651  68.894  1.00  0.00     0.316 C  
ENDROOT
BRANCH   4  21
HETATM   21  C   UNL     1      -6.804   9.921  67.467  1.00  0.00    -0.081 C  
HETATM   22  O   UNL     1      -5.954   9.177  67.973  1.00  0.00    -0.048 OA 
HETATM   23  C   UNL     1      -6.267  11.030  66.606  1.00  0.00    -0.124 C  
ENDBRANCH   4  21
BRANCH   4  24
HETATM   24  O   UNL     1      -8.609   9.585  66.204  1.00  0.00    -0.127 OA 
BRANCH  24  25
HETATM   25  C   UNL     1      -8.212   8.450  65.571  1.00  0.00    -0.140 C  
HETATM   26  O   UNL     1      -7.923   7.399  66.118  1.00  0.00    -0.102 OA 
BRANCH  25  27
HETATM   27  C   UNL     1      -8.374   8.638  64.073  1.00  0.00    -0.125 C  
BRANCH  27  28
HETATM   28  C   UNL     1      -8.365  10.089  63.644  1.00  0.00    -0.166 C  
BRANCH  28  29
HETATM   29  C   UNL     1      -9.708  10.523  63.065  1.00  0.00    -0.337 C  
BRANCH  29  30
HETATM   30  C   UNL     1     -10.652  10.969  64.175  1.00  0.00    -0.412 C  
HETATM   31  C   UNL     1     -11.725  11.898  63.636  1.00  0.00    -0.572 C  
ENDBRANCH  29  30
ENDBRANCH  28  29
ENDBRANCH  27  28
ENDBRANCH  25  27
ENDBRANCH  24  25
ENDBRANCH   4  24
TORSDOF 7
ENDMDL
MODEL       70
REMARK 921   NORMALIZED FREE ENERGY PREDICTED BY IDOCK:   -3.64 KCAL/MOL
REMARK 922        TOTAL FREE ENERGY PREDICTED BY IDOCK:   -5.34 KCAL/MOL
REMARK 923 INTER-LIGAND FREE ENERGY PREDICTED BY IDOCK:   -5.60 KCAL/MOL
REMARK 924 INTRA-LIGAND FREE ENERGY PREDICTED BY IDOCK:    0.26 KCAL/MOL
REMARK 927      BINDING AFFINITY PREDICTED BY RF-SCORE:    0.00 PKD
ROOT
HETATM    1  C   UNL     1     -10.553   9.163  67.935  1.00  0.00    -0.272 C  
HETATM    2  C   UNL     1     -10.936   8.823  69.258  1.00  0.00    -0.006 C  
HETATM    3  C   UNL     1      -9.495   9.108  69.030  1.00  0.00    -0.152 C  
HETATM    4  C   UNL     1      -9.059   9.914  67.185  1.00  0.00    -0.138 C  
HETATM    5  C   UNL     1      -9.081   4.905  66.571  1.00  0.00    -0.124 C  
HETATM    6  C   UNL     1      -7.029   3.692  68.137  1.00  0.00    -0.051 C  
HETATM    7  C   UNL     1      -9.194  10.498  68.401  1.00  0.00    -0.154 C  
HETATM    8  C   UNL     1      -9.700  11.856  68.855  1.00  0.00     0.041 C  
HETATM    9  O   UNL     1      -7.234   1.964  66.476  1.00  0.00    -0.053 OA 
HETATM   10  C   UNL     1     -10.390   5.495  66.102  1.00  0.00    -0.145 C  
HETATM   11  C   UNL     1      -6.800   5.158  67.793  1.00  0.00    -0.060 C  
HETATM   12  C   UNL     1      -7.494   9.825  68.786  1.00  0.00    -0.075 C  
HETATM   13  C   UNL     1      -7.216   8.296  68.004  1.00  0.00    -0.094 C  
HETATM   14  C   UNL     1      -7.674   2.984  66.989  1.00  0.00    -0.075 C  
HETATM   15  C   UNL     1      -8.951   3.566  66.551  1.00  0.00    -0.154 C  
HETATM   16  C   UNL     1      -7.267   6.242  65.563  1.00  0.00    -0.070 C  
HETATM   17  C   UNL     1      -8.420   7.149  67.699  1.00  0.00    -0.120 C  
HETATM   18  C   UNL     1      -9.836   7.718  67.114  1.00  0.00    -0.270 C  
HETATM   19  C   UNL     1      -7.911   5.861  66.915  1.00  0.00    -0.101 C  
HETATM   20  C   UNL     1     -10.888   6.617  67.001  1.00  0.00    -0.467 C  
ENDROOT
BRANCH   4  21
HETATM   21  C   UNL     1      -7.911  10.882  66.541  1.00  0.00    -0.152 C  
HETATM   22  O   UNL     1      -7.860  12.108  66.702  1.00  0.00    -0.056 OA 
HETATM   23  C   UNL     1      -6.870  10.302  65.625  1.00  0.00    -0.133 C  
ENDBRANCH   4  21
BRANCH   4  24
HETATM   24  O   UNL     1     -10.134  10.768  66.421  1.00  0.00    -0.212 OA 
BRANCH  24  25
HETATM   25  C   UNL     1     -10.253  10.757  65.068  1.00  0.00    -0.306 C  
HETATM   26  O   UNL     1      -9.907   9.847  64.334  1.00  0.00    -0.236 OA 
BRANCH  25  27
HETATM   27  C   UNL     1     -11.061  11.968  64.634  1.00  0.00    -0.375 C  
BRANCH  27  28
HETATM   28  C   UNL     1     -12.034  12.450  65.688  1.00  0.00    -0.449 C  
BRANCH  28  29
HETATM   29  C   UNL     1     -12.085  13.973  65.766  1.00  0.00    -0.445 C  
BRANCH  29  30
HETATM   30  C   UNL     1     -10.957  14.591  64.951  1.00  0.00    -0.421 C  
HETATM   31  C   UNL     1     -11.391  15.907  64.330  1.00  0.00    -0.276 C  
ENDBRANCH  29  30
ENDBRANCH  28  29
ENDBRANCH  27  28
ENDBRANCH  25  27
ENDBRANCH  24  25
ENDBRANCH   4  24
TORSDOF 7
ENDMDL
MODEL       71
REMARK 921   NORMALIZED FREE ENERGY PREDICTED BY IDOCK:   -3.60 KCAL/MOL
REMARK 922        TOTAL FREE ENERGY PREDICTED BY IDOCK:   -5.28 KCAL/MOL
REMARK 923 INTER-LIGAND FREE ENERGY PREDICTED BY IDOCK:   -5.32 KCAL/MOL
REMARK 924 INTRA-LIGAND FREE ENERGY PREDICTED BY IDOCK:    0.04 KCAL/MOL
REMARK 927      BINDING AFFINITY PREDICTED BY RF-SCORE:    0.00 PKD
ROOT
HETATM    1  C   UNL     1      -9.971   6.013  67.907  1.00  0.00    -0.151 C  
HETATM    2  C   UNL     1     -10.900   6.159  66.846  1.00  0.00    -0.411 C  
HETATM    3  C   UNL     1      -9.869   7.220  66.983  1.00  0.00    -0.265 C  
HETATM    4  C   UNL     1      -8.361   6.785  68.319  1.00  0.00    -0.118 C  
HETATM    5  C   UNL     1     -12.099   8.827  71.024  1.00  0.00    -0.262 C  
HETATM    6  C   UNL     1     -12.574  11.519  70.210  1.00  0.00    -0.193 C  
HETATM    7  C   UNL     1      -8.399   6.711  66.965  1.00  0.00    -0.113 C  
HETATM    8  C   UNL     1      -7.745   5.786  65.953  1.00  0.00    -0.092 C  
HETATM    9  O   UNL     1     -13.450  11.696  72.444  1.00  0.00    -0.291 OA 
HETATM   10  C   UNL     1     -12.128   7.321  71.144  1.00  0.00    -0.376 C  
HETATM   11  C   UNL     1     -11.181  10.984  69.899  1.00  0.00    -0.327 C  
HETATM   12  C   UNL     1      -8.208   8.569  66.972  1.00  0.00    -0.107 C  
HETATM   13  C   UNL     1      -8.995   9.291  68.345  1.00  0.00    -0.129 C  
HETATM   14  C   UNL     1     -13.050  10.992  71.526  1.00  0.00    -0.396 C  
HETATM   15  C   UNL     1     -13.081   9.526  71.622  1.00  0.00    -0.486 C  
HETATM   16  C   UNL     1      -9.774   9.553  71.428  1.00  0.00     0.081 C  
HETATM   17  C   UNL     1     -10.398   8.684  69.067  1.00  0.00    -0.226 C  
HETATM   18  C   UNL     1     -10.456   7.066  69.297  1.00  0.00    -0.223 C  
HETATM   19  C   UNL     1     -10.877   9.499  70.347  1.00  0.00    -0.338 C  
HETATM   20  C   UNL     1     -11.814   6.618  69.832  1.00  0.00    -0.238 C  
ENDROOT
BRANCH   4  21
HETATM   21  C   UNL     1      -6.792   7.189  68.527  1.00  0.00    -0.076 C  
HETATM   22  O   UNL     1      -5.894   6.952  67.708  1.00  0.00    -0.019 OA 
HETATM   23  C   UNL     1      -6.346   7.825  69.814  1.00  0.00    -0.030 C  
ENDBRANCH   4  21
BRANCH   4  24
HETATM   24  O   UNL     1      -7.959   5.292  68.599  1.00  0.00    -0.086 OA 
BRANCH  24  25
HETATM   25  C   UNL     1      -7.983   4.749  69.844  1.00  0.00    -0.069 C  
HETATM   26  O   UNL     1      -8.287   5.336  70.869  1.00  0.00    -0.112 OA 
BRANCH  25  27
HETATM   27  C   UNL     1      -7.763   3.250  69.732  1.00  0.00    -0.044 C  
BRANCH  27  28
HETATM   28  C   UNL     1      -6.623   2.877  68.809  1.00  0.00    -0.033 C  
BRANCH  28  29
HETATM   29  C   UNL     1      -7.108   2.118  67.578  1.00  0.00    -0.047 C  
BRANCH  29  30
HETATM   30  C   UNL     1      -8.621   1.944  67.615  1.00  0.00    -0.106 C  
HETATM   31  C   UNL     1      -9.286   2.717  66.490  1.00  0.00    -0.039 C  
ENDBRANCH  29  30
ENDBRANCH  28  29
ENDBRANCH  27  28
ENDBRANCH  25  27
ENDBRANCH  24  25
ENDBRANCH   4  24
TORSDOF 7
ENDMDL
MODEL       72
REMARK 921   NORMALIZED FREE ENERGY PREDICTED BY IDOCK:   -3.60 KCAL/MOL
REMARK 922        TOTAL FREE ENERGY PREDICTED BY IDOCK:   -5.27 KCAL/MOL
REMARK 923 INTER-LIGAND FREE ENERGY PREDICTED BY IDOCK:   -6.38 KCAL/MOL
REMARK 924 INTRA-LIGAND FREE ENERGY PREDICTED BY IDOCK:    1.11 KCAL/MOL
REMARK 927      BINDING AFFINITY PREDICTED BY RF-SCORE:    0.00 PKD
ROOT
HETATM    1  C   UNL     1     -10.533   9.893  70.111  1.00  0.00    -0.339 C  
HETATM    2  C   UNL     1     -11.886   9.596  70.412  1.00  0.00    -0.219 C  
HETATM    3  C   UNL     1     -11.315   8.957  69.199  1.00  0.00     0.378 C  
HETATM    4  C   UNL     1      -9.273   9.157  69.002  1.00  0.00    -0.143 C  
HETATM    5  C   UNL     1     -11.304  13.296  66.950  1.00  0.00    -0.351 C  
HETATM    6  C   UNL     1     -12.911  12.615  64.695  1.00  0.00    -0.225 C  
HETATM    7  C   UNL     1     -10.027   8.119  69.444  1.00  0.00    -0.188 C  
HETATM    8  C   UNL     1      -9.803   7.038  70.487  1.00  0.00    -0.184 C  
HETATM    9  O   UNL     1     -12.418  14.884  64.068  1.00  0.00    -0.807 OA 
HETATM   10  C   UNL     1     -10.820  13.590  68.351  1.00  0.00    -0.286 C  
HETATM   11  C   UNL     1     -11.837  11.596  65.056  1.00  0.00     0.021 C  
HETATM   12  C   UNL     1     -10.418   7.786  67.648  1.00  0.00    -0.308 C  
HETATM   13  C   UNL     1     -10.488   9.257  66.722  1.00  0.00    -0.263 C  
HETATM   14  C   UNL     1     -12.404  14.004  64.918  1.00  0.00    -0.427 C  
HETATM   15  C   UNL     1     -11.946  14.275  66.288  1.00  0.00    -0.428 C  
HETATM   16  C   UNL     1      -9.476  12.130  65.770  1.00  0.00    -0.156 C  
HETATM   17  C   UNL     1     -11.010  10.744  67.334  1.00  0.00    -0.361 C  
HETATM   18  C   UNL     1     -10.455  11.156  68.816  1.00  0.00    -0.227 C  
HETATM   19  C   UNL     1     -10.918  11.946  66.295  1.00  0.00    -0.345 C  
HETATM   20  C   UNL     1     -11.091  12.449  69.321  1.00  0.00    -0.209 C  
ENDROOT
BRANCH   4  21
HETATM   21  C   UNL     1      -8.051   8.328  68.304  1.00  0.00    -0.124 C  
HETATM   22  O   UNL     1      -7.686   8.476  67.130  1.00  0.00    -0.095 OA 
HETATM   23  C   UNL     1      -7.340   7.251  69.074  1.00  0.00    -0.091 C  
ENDBRANCH   4  21
BRANCH   4  24
HETATM   24  O   UNL     1      -8.368   9.317  70.276  1.00  0.00    -0.145 OA 
BRANCH  24  25
HETATM   25  C   UNL     1      -7.310  10.167  70.321  1.00  0.00    -0.095 C  
HETATM   26  O   UNL     1      -6.339  10.052  71.049  1.00  0.00    -0.253 OA 
BRANCH  25  27
HETATM   27  C   UNL     1      -7.434  11.170  69.187  1.00  0.00    -0.109 C  
BRANCH  27  28
HETATM   28  C   UNL     1      -6.107  11.538  68.561  1.00  0.00    -0.049 C  
BRANCH  28  29
HETATM   29  C   UNL     1      -6.198  11.643  67.042  1.00  0.00    -0.144 C  
BRANCH  29  30
HETATM   30  C   UNL     1      -5.202  10.701  66.377  1.00  0.00    -0.068 C  
HETATM   31  C   UNL     1      -5.470  10.588  64.887  1.00  0.00    -0.142 C  
ENDBRANCH  29  30
ENDBRANCH  28  29
ENDBRANCH  27  28
ENDBRANCH  25  27
ENDBRANCH  24  25
ENDBRANCH   4  24
TORSDOF 7
ENDMDL
MODEL       73
REMARK 921   NORMALIZED FREE ENERGY PREDICTED BY IDOCK:   -3.55 KCAL/MOL
REMARK 922        TOTAL FREE ENERGY PREDICTED BY IDOCK:   -5.21 KCAL/MOL
REMARK 923 INTER-LIGAND FREE ENERGY PREDICTED BY IDOCK:   -5.51 KCAL/MOL
REMARK 924 INTRA-LIGAND FREE ENERGY PREDICTED BY IDOCK:    0.31 KCAL/MOL
REMARK 927      BINDING AFFINITY PREDICTED BY RF-SCORE:    0.00 PKD
ROOT
HETATM    1  C   UNL     1      -9.896   6.902  69.469  1.00  0.00    -0.163 C  
HETATM    2  C   UNL     1      -9.744   5.842  70.399  1.00  0.00    -0.217 C  
HETATM    3  C   UNL     1      -8.497   6.441  69.858  1.00  0.00    -0.131 C  
HETATM    4  C   UNL     1      -8.773   8.177  68.782  1.00  0.00    -0.138 C  
HETATM    5  C   UNL     1      -9.416   4.378  65.525  1.00  0.00    -0.175 C  
HETATM    6  C   UNL     1      -7.009   2.875  65.245  1.00  0.00    -0.053 C  
HETATM    7  C   UNL     1      -8.367   7.978  70.061  1.00  0.00    -0.123 C  
HETATM    8  C   UNL     1      -8.546   8.767  71.346  1.00  0.00    -0.254 C  
HETATM    9  O   UNL     1      -7.989   2.315  63.121  1.00  0.00    -0.066 OA 
HETATM   10  C   UNL     1     -10.755   4.899  65.992  1.00  0.00    -0.247 C  
HETATM   11  C   UNL     1      -6.825   4.308  65.729  1.00  0.00    -0.057 C  
HETATM   12  C   UNL     1      -6.711   7.501  69.340  1.00  0.00    -0.041 C  
HETATM   13  C   UNL     1      -6.884   6.710  67.800  1.00  0.00    -0.080 C  
HETATM   14  C   UNL     1      -8.109   2.805  64.236  1.00  0.00    -0.082 C  
HETATM   15  C   UNL     1      -9.407   3.307  64.710  1.00  0.00    -0.148 C  
HETATM   16  C   UNL     1      -8.060   6.329  64.858  1.00  0.00    -0.130 C  
HETATM   17  C   UNL     1      -8.193   5.728  67.375  1.00  0.00    -0.102 C  
HETATM   18  C   UNL     1      -9.678   6.276  67.785  1.00  0.00    -0.122 C  
HETATM   19  C   UNL     1      -8.138   5.176  65.884  1.00  0.00    -0.109 C  
HETATM   20  C   UNL     1     -10.767   5.253  67.472  1.00  0.00    -0.063 C  
ENDROOT
BRANCH   4  21
HETATM   21  C   UNL     1      -7.907   9.515  68.425  1.00  0.00    -0.086 C  
HETATM   22  O   UNL     1      -7.457   9.778  67.302  1.00  0.00    -0.087 OA 
HETATM   23  C   UNL     1      -7.542  10.485  69.515  1.00  0.00    -0.148 C  
ENDBRANCH   4  21
BRANCH   4  24
HETATM   24  O   UNL     1      -9.995   9.114  69.094  1.00  0.00    -0.177 OA 
BRANCH  24  25
HETATM   25  C   UNL     1     -10.710   9.735  68.119  1.00  0.00    -0.233 C  
HETATM   26  O   UNL     1     -10.881   9.313  66.988  1.00  0.00    -0.186 OA 
BRANCH  25  27
HETATM   27  C   UNL     1     -11.423  10.934  68.719  1.00  0.00    -0.376 C  
BRANCH  27  28
HETATM   28  C   UNL     1     -11.300  11.016  70.225  1.00  0.00    -0.291 C  
BRANCH  28  29
HETATM   29  C   UNL     1     -12.639  11.309  70.894  1.00  0.00    -0.467 C  
BRANCH  29  30
HETATM   30  C   UNL     1     -12.983  10.224  71.907  1.00  0.00    -0.554 C  
HETATM   31  C   UNL     1     -12.261   8.928  71.584  1.00  0.00    -0.409 C  
ENDBRANCH  29  30
ENDBRANCH  28  29
ENDBRANCH  27  28
ENDBRANCH  25  27
ENDBRANCH  24  25
ENDBRANCH   4  24
TORSDOF 7
ENDMDL
MODEL       74
REMARK 921   NORMALIZED FREE ENERGY PREDICTED BY IDOCK:   -3.53 KCAL/MOL
REMARK 922        TOTAL FREE ENERGY PREDICTED BY IDOCK:   -5.19 KCAL/MOL
REMARK 923 INTER-LIGAND FREE ENERGY PREDICTED BY IDOCK:   -5.70 KCAL/MOL
REMARK 924 INTRA-LIGAND FREE ENERGY PREDICTED BY IDOCK:    0.51 KCAL/MOL
REMARK 927      BINDING AFFINITY PREDICTED BY RF-SCORE:    0.00 PKD
ROOT
HETATM    1  C   UNL     1      -6.834   7.532  68.456  1.00  0.00    -0.066 C  
HETATM    2  C   UNL     1      -5.963   7.925  69.503  1.00  0.00    -0.033 C  
HETATM    3  C   UNL     1      -6.668   6.628  69.670  1.00  0.00    -0.050 C  
HETATM    4  C   UNL     1      -7.648   5.959  67.985  1.00  0.00    -0.089 C  
HETATM    5  C   UNL     1     -10.866   9.030  70.369  1.00  0.00    -0.284 C  
HETATM    6  C   UNL     1     -11.535   7.986  72.938  1.00  0.00    -0.329 C  
HETATM    7  C   UNL     1      -6.449   5.610  68.514  1.00  0.00    -0.043 C  
HETATM    8  C   UNL     1      -5.133   5.160  67.905  1.00  0.00    -0.004 C  
HETATM    9  O   UNL     1     -13.504   9.329  72.610  1.00  0.00    -0.444 OA 
HETATM   10  C   UNL     1     -10.193   9.759  69.230  1.00  0.00    -0.216 C  
HETATM   11  C   UNL     1     -11.049   6.955  71.926  1.00  0.00    -0.278 C  
HETATM   12  C   UNL     1      -7.418   4.626  69.772  1.00  0.00    -0.055 C  
HETATM   13  C   UNL     1      -8.934   5.389  70.154  1.00  0.00    -0.157 C  
HETATM   14  C   UNL     1     -12.372   9.024  72.260  1.00  0.00    -0.332 C  
HETATM   15  C   UNL     1     -11.698   9.730  71.161  1.00  0.00    -0.465 C  
HETATM   16  C   UNL     1     -11.679   6.874  69.484  1.00  0.00    -0.008 C  
HETATM   17  C   UNL     1      -9.184   7.061  70.163  1.00  0.00    -0.152 C  
HETATM   18  C   UNL     1      -8.546   7.899  68.912  1.00  0.00    -0.132 C  
HETATM   19  C   UNL     1     -10.681   7.496  70.486  1.00  0.00    -0.244 C  
HETATM   20  C   UNL     1      -8.719   9.405  69.091  1.00  0.00    -0.142 C  
ENDROOT
BRANCH   4  21
HETATM   21  C   UNL     1      -8.097   4.522  67.352  1.00  0.00    -0.101 C  
HETATM   22  O   UNL     1      -7.322   3.724  66.808  1.00  0.00    -0.067 OA 
HETATM   23  C   UNL     1      -9.548   4.130  67.337  1.00  0.00    -0.222 C  
ENDBRANCH   4  21
BRANCH   4  24
HETATM   24  O   UNL     1      -7.136   6.369  66.558  1.00  0.00    -0.065 OA 
BRANCH  24  25
HETATM   25  C   UNL     1      -7.977   6.598  65.515  1.00  0.00    -0.118 C  
HETATM   26  O   UNL     1      -8.115   5.873  64.544  1.00  0.00    -0.128 OA 
BRANCH  25  27
HETATM   27  C   UNL     1      -8.858   7.791  65.844  1.00  0.00    -0.176 C  
BRANCH  27  28
HETATM   28  C   UNL     1      -8.309   9.103  65.329  1.00  0.00    -0.152 C  
BRANCH  28  29
HETATM   29  C   UNL     1      -9.217   9.731  64.277  1.00  0.00    -0.286 C  
BRANCH  29  30
HETATM   30  C   UNL     1     -10.087  10.817  64.896  1.00  0.00    -0.387 C  
HETATM   31  C   UNL     1     -10.950  11.490  63.844  1.00  0.00    -0.474 C  
ENDBRANCH  29  30
ENDBRANCH  28  29
ENDBRANCH  27  28
ENDBRANCH  25  27
ENDBRANCH  24  25
ENDBRANCH   4  24
TORSDOF 7
ENDMDL
MODEL       75
REMARK 921   NORMALIZED FREE ENERGY PREDICTED BY IDOCK:   -3.53 KCAL/MOL
REMARK 922        TOTAL FREE ENERGY PREDICTED BY IDOCK:   -5.18 KCAL/MOL
REMARK 923 INTER-LIGAND FREE ENERGY PREDICTED BY IDOCK:   -4.99 KCAL/MOL
REMARK 924 INTRA-LIGAND FREE ENERGY PREDICTED BY IDOCK:   -0.20 KCAL/MOL
REMARK 927      BINDING AFFINITY PREDICTED BY RF-SCORE:    0.00 PKD
ROOT
HETATM    1  C   UNL     1      -7.598   6.601  68.773  1.00  0.00    -0.104 C  
HETATM    2  C   UNL     1      -6.391   6.750  68.044  1.00  0.00    -0.045 C  
HETATM    3  C   UNL     1      -6.578   7.643  69.216  1.00  0.00    -0.040 C  
HETATM    4  C   UNL     1      -8.179   7.157  70.420  1.00  0.00    -0.126 C  
HETATM    5  C   UNL     1     -10.008  10.107  66.758  1.00  0.00    -0.266 C  
HETATM    6  C   UNL     1      -8.844  12.707  66.886  1.00  0.00    -0.201 C  
HETATM    7  C   UNL     1      -6.852   6.909  70.561  1.00  0.00    -0.058 C  
HETATM    8  C   UNL     1      -6.065   5.767  71.177  1.00  0.00    -0.034 C  
HETATM    9  O   UNL     1     -10.874  13.317  65.749  1.00  0.00    -0.272 OA 
HETATM   10  C   UNL     1     -10.284   8.655  66.446  1.00  0.00    -0.224 C  
HETATM   11  C   UNL     1      -8.821  11.923  68.192  1.00  0.00    -0.178 C  
HETATM   12  C   UNL     1      -6.690   8.698  71.074  1.00  0.00    -0.063 C  
HETATM   13  C   UNL     1      -7.832   9.713  70.242  1.00  0.00    -0.193 C  
HETATM   14  C   UNL     1     -10.114  12.443  66.144  1.00  0.00    -0.248 C  
HETATM   15  C   UNL     1     -10.361  11.026  65.841  1.00  0.00    -0.315 C  
HETATM   16  C   UNL     1     -10.703  10.503  69.094  1.00  0.00    -0.266 C  
HETATM   17  C   UNL     1      -8.379   9.437  68.666  1.00  0.00    -0.117 C  
HETATM   18  C   UNL     1      -8.769   7.894  68.290  1.00  0.00    -0.130 C  
HETATM   19  C   UNL     1      -9.470  10.481  68.162  1.00  0.00    -0.157 C  
HETATM   20  C   UNL     1      -9.123   7.742  66.813  1.00  0.00    -0.185 C  
ENDROOT
BRANCH   4  21
HETATM   21  C   UNL     1      -8.592   7.332  71.990  1.00  0.00    -0.107 C  
HETATM   22  O   UNL     1      -8.080   6.699  72.924  1.00  0.00    -0.107 OA 
HETATM   23  C   UNL     1      -9.716   8.254  72.371  1.00  0.00    -0.373 C  
ENDBRANCH   4  21
BRANCH   4  24
HETATM   24  O   UNL     1      -8.679   5.671  70.507  1.00  0.00    -0.132 OA 
BRANCH  24  25
HETATM   25  C   UNL     1      -9.927   5.294  70.124  1.00  0.00    -0.243 C  
HETATM   26  O   UNL     1     -10.956   5.905  70.358  1.00  0.00    -0.303 OA 
BRANCH  25  27
HETATM   27  C   UNL     1      -9.816   4.100  69.191  1.00  0.00    -0.121 C  
BRANCH  27  28
HETATM   28  C   UNL     1      -8.663   3.179  69.527  1.00  0.00    -0.130 C  
BRANCH  28  29
HETATM   29  C   UNL     1      -7.709   3.003  68.350  1.00  0.00    -0.055 C  
BRANCH  29  30
HETATM   30  C   UNL     1      -8.447   3.179  67.029  1.00  0.00    -0.106 C  
HETATM   31  C   UNL     1      -7.578   3.896  66.011  1.00  0.00    -0.089 C  
ENDBRANCH  29  30
ENDBRANCH  28  29
ENDBRANCH  27  28
ENDBRANCH  25  27
ENDBRANCH  24  25
ENDBRANCH   4  24
TORSDOF 7
ENDMDL
MODEL       76
REMARK 921   NORMALIZED FREE ENERGY PREDICTED BY IDOCK:   -3.52 KCAL/MOL
REMARK 922        TOTAL FREE ENERGY PREDICTED BY IDOCK:   -5.16 KCAL/MOL
REMARK 923 INTER-LIGAND FREE ENERGY PREDICTED BY IDOCK:   -5.05 KCAL/MOL
REMARK 924 INTRA-LIGAND FREE ENERGY PREDICTED BY IDOCK:   -0.11 KCAL/MOL
REMARK 927      BINDING AFFINITY PREDICTED BY RF-SCORE:    0.00 PKD
ROOT
HETATM    1  C   UNL     1     -10.554   9.299  70.648  1.00  0.00    -0.324 C  
HETATM    2  C   UNL     1     -11.969   9.367  70.696  1.00  0.00    -0.232 C  
HETATM    3  C   UNL     1     -11.378   8.397  69.738  1.00  0.00     0.134 C  
HETATM    4  C   UNL     1      -9.349   8.106  69.952  1.00  0.00    -0.159 C  
HETATM    5  C   UNL     1      -9.892  12.114  66.935  1.00  0.00    -0.213 C  
HETATM    6  C   UNL     1     -11.208  11.379  64.514  1.00  0.00    -0.251 C  
HETATM    7  C   UNL     1     -10.404   7.363  70.371  1.00  0.00    -0.215 C  
HETATM    8  C   UNL     1     -10.640   6.480  71.583  1.00  0.00    -0.250 C  
HETATM    9  O   UNL     1     -10.060  13.323  63.681  1.00  0.00    -0.009 OA 
HETATM   10  C   UNL     1      -9.597  12.559  68.348  1.00  0.00    -0.176 C  
HETATM   11  C   UNL     1     -10.502  10.240  65.239  1.00  0.00    -0.099 C  
HETATM   12  C   UNL     1     -10.552   6.784  68.601  1.00  0.00    -0.263 C  
HETATM   13  C   UNL     1     -10.091   8.028  67.476  1.00  0.00    -0.281 C  
HETATM   14  C   UNL     1     -10.414  12.641  64.634  1.00  0.00    -0.337 C  
HETATM   15  C   UNL     1     -10.144  13.064  66.015  1.00  0.00    -0.286 C  
HETATM   16  C   UNL     1      -8.242  10.373  66.352  1.00  0.00    -0.141 C  
HETATM   17  C   UNL     1     -10.318   9.683  67.740  1.00  0.00    -0.286 C  
HETATM   18  C   UNL     1      -9.941  10.241  69.230  1.00  0.00    -0.244 C  
HETATM   19  C   UNL     1      -9.751  10.612  66.580  1.00  0.00    -0.236 C  
HETATM   20  C   UNL     1     -10.308  11.713  69.394  1.00  0.00     0.138 C  
ENDROOT
BRANCH   4  21
HETATM   21  C   UNL     1      -8.273   6.913  69.657  1.00  0.00    -0.131 C  
HETATM   22  O   UNL     1      -8.264   5.820  70.239  1.00  0.00    -0.106 OA 
HETATM   23  C   UNL     1      -7.155   7.137  68.678  1.00  0.00    -0.085 C  
ENDBRANCH   4  21
BRANCH   4  24
HETATM   24  O   UNL     1      -8.665   8.307  71.351  1.00  0.00    -0.132 OA 
BRANCH  24  25
HETATM   25  C   UNL     1      -7.435   8.867  71.492  1.00  0.00    -0.050 C  
HETATM   26  O   UNL     1      -7.066   9.906  70.972  1.00  0.00    -0.339 OA 
BRANCH  25  27
HETATM   27  C   UNL     1      -6.664   8.101  72.553  1.00  0.00    -0.092 C  
BRANCH  27  28
HETATM   28  C   UNL     1      -7.541   7.556  73.659  1.00  0.00    -0.132 C  
BRANCH  28  29
HETATM   29  C   UNL     1      -6.991   6.256  74.238  1.00  0.00    -0.086 C  
BRANCH  29  30
HETATM   30  C   UNL     1      -7.003   5.153  73.188  1.00  0.00    -0.076 C  
HETATM   31  C   UNL     1      -8.134   4.172  73.442  1.00  0.00    -0.090 C  
ENDBRANCH  29  30
ENDBRANCH  28  29
ENDBRANCH  27  28
ENDBRANCH  25  27
ENDBRANCH  24  25
ENDBRANCH   4  24
TORSDOF 7
ENDMDL
MODEL       77
REMARK 921   NORMALIZED FREE ENERGY PREDICTED BY IDOCK:   -3.50 KCAL/MOL
REMARK 922        TOTAL FREE ENERGY PREDICTED BY IDOCK:   -5.13 KCAL/MOL
REMARK 923 INTER-LIGAND FREE ENERGY PREDICTED BY IDOCK:   -6.09 KCAL/MOL
REMARK 924 INTRA-LIGAND FREE ENERGY PREDICTED BY IDOCK:    0.96 KCAL/MOL
REMARK 927      BINDING AFFINITY PREDICTED BY RF-SCORE:    0.00 PKD
ROOT
HETATM    1  C   UNL     1      -7.635   9.830  68.059  1.00  0.00    -0.082 C  
HETATM    2  C   UNL     1      -6.634   8.870  67.765  1.00  0.00    -0.061 C  
HETATM    3  C   UNL     1      -7.995   8.603  67.231  1.00  0.00    -0.101 C  
HETATM    4  C   UNL     1      -9.310  10.180  67.404  1.00  0.00    -0.148 C  
HETATM    5  C   UNL     1      -9.558   7.651  71.763  1.00  0.00    -0.183 C  
HETATM    6  C   UNL     1     -10.527   5.003  71.335  1.00  0.00    -0.213 C  
HETATM    7  C   UNL     1      -8.585   9.738  66.346  1.00  0.00    -0.132 C  
HETATM    8  C   UNL     1      -7.931  10.435  65.166  1.00  0.00    -0.134 C  
HETATM    9  O   UNL     1     -11.174   5.217  73.642  1.00  0.00    -0.296 OA 
HETATM   10  C   UNL     1      -8.670   8.864  71.911  1.00  0.00    -0.086 C  
HETATM   11  C   UNL     1     -10.912   6.015  70.262  1.00  0.00    -0.412 C  
HETATM   12  C   UNL     1      -9.852   8.374  66.193  1.00  0.00    -0.183 C  
HETATM   13  C   UNL     1     -10.474   7.897  67.746  1.00  0.00    -0.278 C  
HETATM   14  C   UNL     1     -10.545   5.646  72.685  1.00  0.00    -0.225 C  
HETATM   15  C   UNL     1      -9.668   6.819  72.814  1.00  0.00    -0.170 C  
HETATM   16  C   UNL     1     -11.644   8.395  70.673  1.00  0.00    -0.205 C  
HETATM   17  C   UNL     1      -9.578   7.925  69.180  1.00  0.00    -0.153 C  
HETATM   18  C   UNL     1      -8.656   9.250  69.437  1.00  0.00    -0.142 C  
HETATM   19  C   UNL     1     -10.402   7.497  70.473  1.00  0.00    -0.217 C  
HETATM   20  C   UNL     1      -7.796   9.110  70.690  1.00  0.00    -0.165 C  
ENDROOT
BRANCH   4  21
HETATM   21  C   UNL     1     -10.634  10.727  66.618  1.00  0.00    -0.232 C  
HETATM   22  O   UNL     1     -11.775  10.748  67.100  1.00  0.00    -0.312 OA 
HETATM   23  C   UNL     1     -10.525  11.173  65.187  1.00  0.00    -0.341 C  
ENDBRANCH   4  21
BRANCH   4  24
HETATM   24  O   UNL     1      -8.776  11.657  67.421  1.00  0.00    -0.146 OA 
BRANCH  24  25
HETATM   25  C   UNL     1      -9.376  12.645  68.135  1.00  0.00    -0.210 C  
HETATM   26  O   UNL     1     -10.097  12.482  69.105  1.00  0.00     0.091 OA 
BRANCH  25  27
HETATM   27  C   UNL     1      -8.852  13.988  67.655  1.00  0.00    -0.190 C  
BRANCH  27  28
HETATM   28  C   UNL     1      -9.107  15.116  68.630  1.00  0.00    -0.195 C  
BRANCH  28  29
HETATM   29  C   UNL     1     -10.098  16.136  68.080  1.00  0.00    -0.242 C  
BRANCH  29  30
HETATM   30  C   UNL     1     -11.530  15.656  68.278  1.00  0.00    -0.353 C  
HETATM   31  C   UNL     1     -11.873  15.558  69.754  1.00  0.00    -0.376 C  
ENDBRANCH  29  30
ENDBRANCH  28  29
ENDBRANCH  27  28
ENDBRANCH  25  27
ENDBRANCH  24  25
ENDBRANCH   4  24
TORSDOF 7
ENDMDL
MODEL       78
REMARK 921   NORMALIZED FREE ENERGY PREDICTED BY IDOCK:   -3.46 KCAL/MOL
REMARK 922        TOTAL FREE ENERGY PREDICTED BY IDOCK:   -5.08 KCAL/MOL
REMARK 923 INTER-LIGAND FREE ENERGY PREDICTED BY IDOCK:   -5.91 KCAL/MOL
REMARK 924 INTRA-LIGAND FREE ENERGY PREDICTED BY IDOCK:    0.83 KCAL/MOL
REMARK 927      BINDING AFFINITY PREDICTED BY RF-SCORE:    0.00 PKD
ROOT
HETATM    1  C   UNL     1      -8.645  13.548  68.270  1.00  0.00    -0.168 C  
HETATM    2  C   UNL     1      -7.313  13.946  67.990  1.00  0.00    -0.141 C  
HETATM    3  C   UNL     1      -8.361  14.403  67.041  1.00  0.00    -0.172 C  
HETATM    4  C   UNL     1     -10.295  14.079  67.675  1.00  0.00    -0.242 C  
HETATM    5  C   UNL     1      -8.825   9.825  65.393  1.00  0.00    -0.199 C  
HETATM    6  C   UNL     1      -8.270  10.303  62.637  1.00  0.00    -0.170 C  
HETATM    7  C   UNL     1      -9.530  15.199  67.689  1.00  0.00    -0.201 C  
HETATM    8  C   UNL     1      -9.439  16.388  68.630  1.00  0.00    -0.239 C  
HETATM    9  O   UNL     1      -8.752   7.952  62.468  1.00  0.00     0.014 OA 
HETATM   10  C   UNL     1      -8.708   9.682  66.893  1.00  0.00    -0.139 C  
HETATM   11  C   UNL     1      -9.215  11.304  63.291  1.00  0.00    -0.235 C  
HETATM   12  C   UNL     1      -9.886  15.329  65.860  1.00  0.00    -0.385 C  
HETATM   13  C   UNL     1     -10.038  13.761  65.122  1.00  0.00    -0.314 C  
HETATM   14  C   UNL     1      -8.522   8.929  63.169  1.00  0.00    -0.159 C  
HETATM   15  C   UNL     1      -8.395   8.805  64.628  1.00  0.00    -0.175 C  
HETATM   16  C   UNL     1     -11.064  10.746  64.914  1.00  0.00     0.247 C  
HETATM   17  C   UNL     1      -9.186  12.387  65.620  1.00  0.00     0.141 C  
HETATM   18  C   UNL     1      -9.092  12.134  67.232  1.00  0.00    -0.181 C  
HETATM   19  C   UNL     1      -9.555  11.064  64.816  1.00  0.00    -0.292 C  
HETATM   20  C   UNL     1      -8.195  10.945  67.569  1.00  0.00    -0.116 C  
ENDROOT
BRANCH   4  21
HETATM   21  C   UNL     1     -11.763  14.754  67.434  1.00  0.00    -0.350 C  
HETATM   22  O   UNL     1     -12.212  15.704  68.089  1.00  0.00     0.059 OA 
HETATM   23  C   UNL     1     -12.696  14.171  66.411  1.00  0.00    -0.076 C  
ENDBRANCH   4  21
BRANCH   4  24
HETATM   24  O   UNL     1     -10.626  14.033  69.209  1.00  0.00    -0.186 OA 
BRANCH  24  25
HETATM   25  C   UNL     1     -11.548  13.184  69.735  1.00  0.00    -0.221 C  
HETATM   26  O   UNL     1     -12.535  13.515  70.370  1.00  0.00    -0.321 OA 
BRANCH  25  27
HETATM   27  C   UNL     1     -11.262  11.777  69.239  1.00  0.00    -0.318 C  
BRANCH  27  28
HETATM   28  C   UNL     1     -11.719  10.698  70.196  1.00  0.00    -0.417 C  
BRANCH  28  29
HETATM   29  C   UNL     1     -10.619   9.681  70.481  1.00  0.00    -0.369 C  
BRANCH  29  30
HETATM   30  C   UNL     1     -11.189   8.269  70.516  1.00  0.00    -0.247 C  
HETATM   31  C   UNL     1     -12.129   8.089  71.695  1.00  0.00    -0.339 C  
ENDBRANCH  29  30
ENDBRANCH  28  29
ENDBRANCH  27  28
ENDBRANCH  25  27
ENDBRANCH  24  25
ENDBRANCH   4  24
TORSDOF 7
ENDMDL
MODEL       79
REMARK 921   NORMALIZED FREE ENERGY PREDICTED BY IDOCK:   -3.40 KCAL/MOL
REMARK 922        TOTAL FREE ENERGY PREDICTED BY IDOCK:   -4.99 KCAL/MOL
REMARK 923 INTER-LIGAND FREE ENERGY PREDICTED BY IDOCK:   -4.89 KCAL/MOL
REMARK 924 INTRA-LIGAND FREE ENERGY PREDICTED BY IDOCK:   -0.10 KCAL/MOL
REMARK 927      BINDING AFFINITY PREDICTED BY RF-SCORE:    0.00 PKD
ROOT
HETATM    1  C   UNL     1      -7.963   6.405  68.664  1.00  0.00    -0.106 C  
HETATM    2  C   UNL     1      -6.714   5.940  69.150  1.00  0.00    -0.060 C  
HETATM    3  C   UNL     1      -7.501   6.816  70.056  1.00  0.00    -0.094 C  
HETATM    4  C   UNL     1      -9.432   7.181  69.436  1.00  0.00    -0.153 C  
HETATM    5  C   UNL     1      -6.540  10.632  67.158  1.00  0.00    -0.076 C  
HETATM    6  C   UNL     1      -5.297  12.330  69.082  1.00  0.00    -0.063 C  
HETATM    7  C   UNL     1      -8.943   6.317  70.360  1.00  0.00    -0.154 C  
HETATM    8  C   UNL     1      -9.373   4.938  70.829  1.00  0.00    -0.211 C  
HETATM    9  O   UNL     1      -5.232  13.850  67.218  1.00  0.00    -0.308 OA 
HETATM   10  C   UNL     1      -6.848   9.498  66.208  1.00  0.00    -0.086 C  
HETATM   11  C   UNL     1      -6.572  11.641  69.554  1.00  0.00    -0.111 C  
HETATM   12  C   UNL     1      -8.759   7.800  71.481  1.00  0.00    -0.140 C  
HETATM   13  C   UNL     1      -8.371   9.240  70.584  1.00  0.00    -0.245 C  
HETATM   14  C   UNL     1      -5.419  12.718  67.643  1.00  0.00    -0.121 C  
HETATM   15  C   UNL     1      -5.710  11.601  66.732  1.00  0.00    -0.139 C  
HETATM   16  C   UNL     1      -8.672  11.328  68.190  1.00  0.00    -0.155 C  
HETATM   17  C   UNL     1      -7.452   9.259  69.165  1.00  0.00    -0.072 C  
HETATM   18  C   UNL     1      -7.793   8.103  68.061  1.00  0.00    -0.122 C  
HETATM   19  C   UNL     1      -7.296  10.701  68.509  1.00  0.00    -0.090 C  
HETATM   20  C   UNL     1      -6.820   8.136  66.885  1.00  0.00    -0.069 C  
ENDROOT
BRANCH   4  21
HETATM   21  C   UNL     1     -10.865   7.543  70.131  1.00  0.00    -0.249 C  
HETATM   22  O   UNL     1     -11.626   6.710  70.641  1.00  0.00    -0.338 OA 
HETATM   23  C   UNL     1     -11.373   8.958  70.108  1.00  0.00    -0.119 C  
ENDBRANCH   4  21
BRANCH   4  24
HETATM   24  O   UNL     1     -10.189   6.130  68.547  1.00  0.00    -0.155 OA 
BRANCH  24  25
HETATM   25  C   UNL     1     -10.696   6.434  67.323  1.00  0.00    -0.353 C  
HETATM   26  O   UNL     1     -10.900   7.560  66.901  1.00  0.00    -0.345 OA 
BRANCH  25  27
HETATM   27  C   UNL     1     -10.782   5.164  66.496  1.00  0.00    -0.262 C  
BRANCH  27  28
HETATM   28  C   UNL     1      -9.433   4.542  66.205  1.00  0.00    -0.174 C  
BRANCH  28  29
HETATM   29  C   UNL     1      -9.252   3.205  66.917  1.00  0.00    -0.187 C  
BRANCH  29  30
HETATM   30  C   UNL     1      -7.774   2.891  67.103  1.00  0.00    -0.074 C  
HETATM   31  C   UNL     1      -6.922   3.677  66.122  1.00  0.00    -0.062 C  
ENDBRANCH  29  30
ENDBRANCH  28  29
ENDBRANCH  27  28
ENDBRANCH  25  27
ENDBRANCH  24  25
ENDBRANCH   4  24
TORSDOF 7
ENDMDL
MODEL       80
REMARK 921   NORMALIZED FREE ENERGY PREDICTED BY IDOCK:   -3.38 KCAL/MOL
REMARK 922        TOTAL FREE ENERGY PREDICTED BY IDOCK:   -4.97 KCAL/MOL
REMARK 923 INTER-LIGAND FREE ENERGY PREDICTED BY IDOCK:   -5.69 KCAL/MOL
REMARK 924 INTRA-LIGAND FREE ENERGY PREDICTED BY IDOCK:    0.72 KCAL/MOL
REMARK 927      BINDING AFFINITY PREDICTED BY RF-SCORE:    0.00 PKD
ROOT
HETATM    1  C   UNL     1      -8.873  11.287  68.071  1.00  0.00    -0.148 C  
HETATM    2  C   UNL     1      -9.528  11.122  69.318  1.00  0.00     0.095 C  
HETATM    3  C   UNL     1     -10.370  11.552  68.172  1.00  0.00    -0.211 C  
HETATM    4  C   UNL     1      -9.440  11.451  66.336  1.00  0.00    -0.204 C  
HETATM    5  C   UNL     1      -8.232  15.945  68.286  1.00  0.00    -0.152 C  
HETATM    6  C   UNL     1     -10.565  17.549  68.635  1.00  0.00    -0.288 C  
HETATM    7  C   UNL     1     -10.321  10.611  66.934  1.00  0.00    -0.288 C  
HETATM    8  C   UNL     1     -10.515   9.105  66.899  1.00  0.00    -0.287 C  
HETATM    9  O   UNL     1      -8.962  19.336  68.485  1.00  0.00    -0.347 OA 
HETATM   10  C   UNL     1      -7.102  14.964  68.493  1.00  0.00    -0.108 C  
HETATM   11  C   UNL     1     -10.687  16.447  67.590  1.00  0.00    -0.312 C  
HETATM   12  C   UNL     1     -11.639  11.853  66.476  1.00  0.00    -0.328 C  
HETATM   13  C   UNL     1     -11.029  13.482  66.514  1.00  0.00    -0.295 C  
HETATM   14  C   UNL     1      -9.192  18.141  68.607  1.00  0.00    -0.282 C  
HETATM   15  C   UNL     1      -8.105  17.174  68.819  1.00  0.00    -0.252 C  
HETATM   16  C   UNL     1      -8.913  15.795  65.918  1.00  0.00    -0.228 C  
HETATM   17  C   UNL     1      -9.830  14.025  67.575  1.00  0.00    -0.236 C  
HETATM   18  C   UNL     1      -8.540  13.042  67.780  1.00  0.00    -0.189 C  
HETATM   19  C   UNL     1      -9.409  15.545  67.360  1.00  0.00    -0.211 C  
HETATM   20  C   UNL     1      -7.590  13.569  68.852  1.00  0.00    -0.002 C  
ENDROOT
BRANCH   4  21
HETATM   21  C   UNL     1      -9.885  11.250  64.777  1.00  0.00    -0.266 C  
HETATM   22  O   UNL     1     -10.116  10.153  64.251  1.00  0.00    -0.253 OA 
HETATM   23  C   UNL     1      -9.960  12.439  63.860  1.00  0.00    -0.262 C  
ENDBRANCH   4  21
BRANCH   4  24
HETATM   24  O   UNL     1      -8.292  10.407  66.088  1.00  0.00    -0.138 OA 
BRANCH  24  25
HETATM   25  C   UNL     1      -7.077  10.758  65.592  1.00  0.00    -0.017 C  
HETATM   26  O   UNL     1      -6.294  11.533  66.117  1.00  0.00    -0.006 OA 
BRANCH  25  27
HETATM   27  C   UNL     1      -6.765   9.886  64.388  1.00  0.00    -0.125 C  
BRANCH  27  28
HETATM   28  C   UNL     1      -6.011   8.622  64.741  1.00  0.00    -0.064 C  
BRANCH  28  29
HETATM   29  C   UNL     1      -6.852   7.671  65.586  1.00  0.00    -0.049 C  
BRANCH  29  30
HETATM   30  C   UNL     1      -8.054   7.169  64.797  1.00  0.00    -0.092 C  
HETATM   31  C   UNL     1      -8.501   5.805  65.292  1.00  0.00    -0.148 C  
ENDBRANCH  29  30
ENDBRANCH  28  29
ENDBRANCH  27  28
ENDBRANCH  25  27
ENDBRANCH  24  25
ENDBRANCH   4  24
TORSDOF 7
ENDMDL
MODEL       81
REMARK 921   NORMALIZED FREE ENERGY PREDICTED BY IDOCK:   -3.35 KCAL/MOL
REMARK 922        TOTAL FREE ENERGY PREDICTED BY IDOCK:   -4.93 KCAL/MOL
REMARK 923 INTER-LIGAND FREE ENERGY PREDICTED BY IDOCK:   -5.37 KCAL/MOL
REMARK 924 INTRA-LIGAND FREE ENERGY PREDICTED BY IDOCK:    0.44 KCAL/MOL
REMARK 927      BINDING AFFINITY PREDICTED BY RF-SCORE:    0.00 PKD
ROOT
HETATM    1  C   UNL     1      -7.541   7.944  70.829  1.00  0.00    -0.078 C  
HETATM    2  C   UNL     1      -6.766   9.115  71.025  1.00  0.00    -0.093 C  
HETATM    3  C   UNL     1      -8.242   9.269  71.100  1.00  0.00    -0.051 C  
HETATM    4  C   UNL     1      -9.290   7.495  71.142  1.00  0.00    -0.151 C  
HETATM    5  C   UNL     1      -8.534   8.575  66.271  1.00  0.00    -0.130 C  
HETATM    6  C   UNL     1      -9.843  11.009  65.566  1.00  0.00    -0.292 C  
HETATM    7  C   UNL     1      -8.944   8.347  72.139  1.00  0.00    -0.293 C  
HETATM    8  C   UNL     1      -8.589   8.151  73.602  1.00  0.00    -0.312 C  
HETATM    9  O   UNL     1      -9.780  10.027  63.371  1.00  0.00    -0.200 OA 
HETATM   10  C   UNL     1      -7.524   7.555  66.744  1.00  0.00    -0.093 C  
HETATM   11  C   UNL     1     -10.416  10.295  66.785  1.00  0.00    -0.279 C  
HETATM   12  C   UNL     1     -10.331   9.440  71.530  1.00  0.00    -0.265 C  
HETATM   13  C   UNL     1     -10.528   9.329  69.805  1.00  0.00    -0.235 C  
HETATM   14  C   UNL     1      -9.411  10.014  64.538  1.00  0.00    -0.286 C  
HETATM   15  C   UNL     1      -8.422   9.035  65.012  1.00  0.00    -0.191 C  
HETATM   16  C   UNL     1     -10.759   7.805  67.010  1.00  0.00    -0.316 C  
HETATM   17  C   UNL     1      -9.262   9.055  68.717  1.00  0.00    -0.133 C  
HETATM   18  C   UNL     1      -8.179   7.905  69.136  1.00  0.00    -0.132 C  
HETATM   19  C   UNL     1      -9.722   8.935  67.198  1.00  0.00    -0.241 C  
HETATM   20  C   UNL     1      -7.015   7.836  68.150  1.00  0.00    -0.079 C  
ENDROOT
BRANCH   4  21
HETATM   21  C   UNL     1     -10.722   6.963  71.721  1.00  0.00    -0.221 C  
HETATM   22  O   UNL     1     -10.997   6.864  72.924  1.00  0.00    -0.262 OA 
HETATM   23  C   UNL     1     -11.781   6.479  70.771  1.00  0.00    -0.427 C  
ENDBRANCH   4  21
BRANCH   4  24
HETATM   24  O   UNL     1      -8.629   6.200  71.736  1.00  0.00    -0.132 OA 
BRANCH  24  25
HETATM   25  C   UNL     1      -8.768   4.976  71.161  1.00  0.00    -0.128 C  
HETATM   26  O   UNL     1      -8.798   4.755  69.962  1.00  0.00    -0.084 OA 
BRANCH  25  27
HETATM   27  C   UNL     1      -8.684   3.912  72.242  1.00  0.00    -0.118 C  
BRANCH  27  28
HETATM   28  C   UNL     1      -7.508   2.974  72.071  1.00  0.00    -0.052 C  
BRANCH  28  29
HETATM   29  C   UNL     1      -6.303   3.409  72.899  1.00  0.00    -0.009 C  
BRANCH  29  30
HETATM   30  C   UNL     1      -6.570   4.749  73.573  1.00  0.00    -0.066 C  
HETATM   31  C   UNL     1      -5.342   5.236  74.322  1.00  0.00    -0.022 C  
ENDBRANCH  29  30
ENDBRANCH  28  29
ENDBRANCH  27  28
ENDBRANCH  25  27
ENDBRANCH  24  25
ENDBRANCH   4  24
TORSDOF 7
ENDMDL
MODEL       82
REMARK 921   NORMALIZED FREE ENERGY PREDICTED BY IDOCK:   -3.35 KCAL/MOL
REMARK 922        TOTAL FREE ENERGY PREDICTED BY IDOCK:   -4.93 KCAL/MOL
REMARK 923 INTER-LIGAND FREE ENERGY PREDICTED BY IDOCK:   -5.27 KCAL/MOL
REMARK 924 INTRA-LIGAND FREE ENERGY PREDICTED BY IDOCK:    0.34 KCAL/MOL
REMARK 927      BINDING AFFINITY PREDICTED BY RF-SCORE:    0.00 PKD
ROOT
HETATM    1  C   UNL     1      -7.432   7.051  68.527  1.00  0.00    -0.102 C  
HETATM    2  C   UNL     1      -6.223   7.333  67.842  1.00  0.00    -0.046 C  
HETATM    3  C   UNL     1      -6.521   8.159  69.040  1.00  0.00    -0.040 C  
HETATM    4  C   UNL     1      -8.106   7.488  70.174  1.00  0.00    -0.119 C  
HETATM    5  C   UNL     1     -10.085  10.410  66.567  1.00  0.00    -0.285 C  
HETATM    6  C   UNL     1      -9.159  13.095  66.828  1.00  0.00    -0.214 C  
HETATM    7  C   UNL     1      -6.767   7.352  70.348  1.00  0.00    -0.047 C  
HETATM    8  C   UNL     1      -5.900   6.259  70.946  1.00  0.00    -0.026 C  
HETATM    9  O   UNL     1     -11.202  13.569  65.650  1.00  0.00    -0.293 OA 
HETATM   10  C   UNL     1     -10.222   8.952  66.194  1.00  0.00    -0.092 C  
HETATM   11  C   UNL     1      -9.104  12.264  68.104  1.00  0.00    -0.196 C  
HETATM   12  C   UNL     1      -6.778   9.126  70.932  1.00  0.00    -0.087 C  
HETATM   13  C   UNL     1      -7.981  10.069  70.102  1.00  0.00    -0.123 C  
HETATM   14  C   UNL     1     -10.380  12.750  66.037  1.00  0.00    -0.276 C  
HETATM   15  C   UNL     1     -10.492  11.330  65.674  1.00  0.00    -0.317 C  
HETATM   16  C   UNL     1     -10.877  10.651  68.893  1.00  0.00    -0.272 C  
HETATM   17  C   UNL     1      -8.457   9.809  68.500  1.00  0.00    -0.115 C  
HETATM   18  C   UNL     1      -8.699   8.255  68.056  1.00  0.00    -0.135 C  
HETATM   19  C   UNL     1      -9.621  10.773  68.001  1.00  0.00    -0.172 C  
HETATM   20  C   UNL     1      -8.996   8.131  66.564  1.00  0.00    -0.191 C  
ENDROOT
BRANCH   4  21
HETATM   21  C   UNL     1      -8.578   7.564  71.736  1.00  0.00    -0.115 C  
HETATM   22  O   UNL     1      -8.036   6.945  72.662  1.00  0.00    -0.101 OA 
HETATM   23  C   UNL     1      -9.792   8.365  72.114  1.00  0.00    -0.372 C  
ENDBRANCH   4  21
BRANCH   4  24
HETATM   24  O   UNL     1      -8.476   5.962  70.191  1.00  0.00    -0.122 OA 
BRANCH  24  25
HETATM   25  C   UNL     1      -9.716   5.504  69.877  1.00  0.00    -0.174 C  
HETATM   26  O   UNL     1     -10.646   6.190  69.487  1.00  0.00    -0.225 OA 
BRANCH  25  27
HETATM   27  C   UNL     1      -9.702   3.986  69.900  1.00  0.00    -0.263 C  
BRANCH  27  28
HETATM   28  C   UNL     1      -8.536   3.407  70.672  1.00  0.00    -0.115 C  
BRANCH  28  29
HETATM   29  C   UNL     1      -8.966   2.848  72.025  1.00  0.00    -0.133 C  
BRANCH  29  30
HETATM   30  C   UNL     1      -9.783   3.876  72.796  1.00  0.00    -0.190 C  
HETATM   31  C   UNL     1     -10.818   3.200  73.678  1.00  0.00    -0.311 C  
ENDBRANCH  29  30
ENDBRANCH  28  29
ENDBRANCH  27  28
ENDBRANCH  25  27
ENDBRANCH  24  25
ENDBRANCH   4  24
TORSDOF 7
ENDMDL
MODEL       83
REMARK 921   NORMALIZED FREE ENERGY PREDICTED BY IDOCK:   -3.25 KCAL/MOL
REMARK 922        TOTAL FREE ENERGY PREDICTED BY IDOCK:   -4.78 KCAL/MOL
REMARK 923 INTER-LIGAND FREE ENERGY PREDICTED BY IDOCK:   -5.14 KCAL/MOL
REMARK 924 INTRA-LIGAND FREE ENERGY PREDICTED BY IDOCK:    0.35 KCAL/MOL
REMARK 927      BINDING AFFINITY PREDICTED BY RF-SCORE:    0.00 PKD
ROOT
HETATM    1  C   UNL     1      -8.077   9.455  70.725  1.00  0.00    -0.157 C  
HETATM    2  C   UNL     1      -6.712   9.805  70.564  1.00  0.00    -0.125 C  
HETATM    3  C   UNL     1      -7.251   8.774  69.641  1.00  0.00    -0.055 C  
HETATM    4  C   UNL     1      -9.299   8.553  69.700  1.00  0.00    -0.157 C  
HETATM    5  C   UNL     1      -7.453   5.597  73.349  1.00  0.00    -0.095 C  
HETATM    6  C   UNL     1      -5.811   3.543  72.244  1.00  0.00    -0.009 C  
HETATM    7  C   UNL     1      -8.501   9.214  68.825  1.00  0.00    -0.130 C  
HETATM    8  C   UNL     1      -8.679  10.477  68.001  1.00  0.00    -0.128 C  
HETATM    9  O   UNL     1      -6.405   2.420  74.287  1.00  0.00    -0.014 OA 
HETATM   10  C   UNL     1      -7.952   6.898  73.932  1.00  0.00    -0.124 C  
HETATM   11  C   UNL     1      -6.839   4.135  71.287  1.00  0.00    -0.035 C  
HETATM   12  C   UNL     1      -8.092   7.538  68.109  1.00  0.00    -0.124 C  
HETATM   13  C   UNL     1      -8.085   6.301  69.332  1.00  0.00    -0.113 C  
HETATM   14  C   UNL     1      -6.381   3.448  73.623  1.00  0.00    -0.024 C  
HETATM   15  C   UNL     1      -6.853   4.724  74.179  1.00  0.00    -0.071 C  
HETATM   16  C   UNL     1      -9.223   4.727  71.865  1.00  0.00    -0.171 C  
HETATM   17  C   UNL     1      -7.633   6.554  70.941  1.00  0.00    -0.089 C  
HETATM   18  C   UNL     1      -8.208   7.908  71.655  1.00  0.00    -0.132 C  
HETATM   19  C   UNL     1      -7.776   5.269  71.869  1.00  0.00    -0.110 C  
HETATM   20  C   UNL     1      -7.633   8.100  73.055  1.00  0.00    -0.187 C  
ENDROOT
BRANCH   4  21
HETATM   21  C   UNL     1     -10.482   8.072  68.681  1.00  0.00    -0.167 C  
HETATM   22  O   UNL     1     -10.880   8.729  67.710  1.00  0.00    -0.167 OA 
HETATM   23  C   UNL     1     -11.219   6.787  68.942  1.00  0.00    -0.196 C  
ENDBRANCH   4  21
BRANCH   4  24
HETATM   24  O   UNL     1     -10.214   9.764  70.105  1.00  0.00    -0.244 OA 
BRANCH  24  25
HETATM   25  C   UNL     1     -11.298   9.626  70.912  1.00  0.00    -0.360 C  
HETATM   26  O   UNL     1     -11.362   8.911  71.898  1.00  0.00    -0.338 OA 
BRANCH  25  27
HETATM   27  C   UNL     1     -12.347  10.648  70.507  1.00  0.00    -0.448 C  
BRANCH  27  28
HETATM   28  C   UNL     1     -12.539  11.749  71.527  1.00  0.00    -0.320 C  
BRANCH  28  29
HETATM   29  C   UNL     1     -13.009  13.050  70.884  1.00  0.00    -0.121 C  
BRANCH  29  30
HETATM   30  C   UNL     1     -11.869  14.058  70.815  1.00  0.00    -0.289 C  
HETATM   31  C   UNL     1     -12.108  15.217  71.767  1.00  0.00    -0.437 C  
ENDBRANCH  29  30
ENDBRANCH  28  29
ENDBRANCH  27  28
ENDBRANCH  25  27
ENDBRANCH  24  25
ENDBRANCH   4  24
TORSDOF 7
ENDMDL
MODEL       84
REMARK 921   NORMALIZED FREE ENERGY PREDICTED BY IDOCK:   -3.24 KCAL/MOL
REMARK 922        TOTAL FREE ENERGY PREDICTED BY IDOCK:   -4.77 KCAL/MOL
REMARK 923 INTER-LIGAND FREE ENERGY PREDICTED BY IDOCK:   -4.87 KCAL/MOL
REMARK 924 INTRA-LIGAND FREE ENERGY PREDICTED BY IDOCK:    0.09 KCAL/MOL
REMARK 927      BINDING AFFINITY PREDICTED BY RF-SCORE:    0.00 PKD
ROOT
HETATM    1  C   UNL     1      -7.283   8.418  70.353  1.00  0.00    -0.037 C  
HETATM    2  C   UNL     1      -6.956   9.604  71.058  1.00  0.00     0.018 C  
HETATM    3  C   UNL     1      -8.331   9.072  71.244  1.00  0.00    -0.180 C  
HETATM    4  C   UNL     1      -8.636   7.187  70.469  1.00  0.00    -0.144 C  
HETATM    5  C   UNL     1      -9.442  10.421  66.680  1.00  0.00    -0.199 C  
HETATM    6  C   UNL     1     -11.658  12.119  67.262  1.00  0.00    -0.404 C  
HETATM    7  C   UNL     1      -8.402   7.599  71.740  1.00  0.00    -0.121 C  
HETATM    8  C   UNL     1      -7.678   6.977  72.921  1.00  0.00    -0.089 C  
HETATM    9  O   UNL     1     -11.748  12.279  64.863  1.00  0.00    -0.349 OA 
HETATM   10  C   UNL     1      -8.055   9.830  66.577  1.00  0.00    -0.116 C  
HETATM   11  C   UNL     1     -11.645  10.791  68.010  1.00  0.00    -0.245 C  
HETATM   12  C   UNL     1     -10.187   8.147  71.770  1.00  0.00    -0.275 C  
HETATM   13  C   UNL     1     -10.717   8.699  70.207  1.00  0.00    -0.243 C  
HETATM   14  C   UNL     1     -11.144  11.935  65.870  1.00  0.00    -0.316 C  
HETATM   15  C   UNL     1      -9.790  11.367  65.789  1.00  0.00    -0.270 C  
HETATM   16  C   UNL     1     -11.015   8.552  67.033  1.00  0.00     0.207 C  
HETATM   17  C   UNL     1      -9.719   9.471  69.081  1.00  0.00    -0.178 C  
HETATM   18  C   UNL     1      -8.231   8.829  68.867  1.00  0.00    -0.118 C  
HETATM   19  C   UNL     1     -10.437   9.819  67.704  1.00  0.00    -0.305 C  
HETATM   20  C   UNL     1      -7.376   9.679  67.931  1.00  0.00    -0.082 C  
ENDROOT
BRANCH   4  21
HETATM   21  C   UNL     1      -9.612   5.912  70.770  1.00  0.00    -0.170 C  
HETATM   22  O   UNL     1      -9.512   5.172  71.758  1.00  0.00    -0.144 OA 
HETATM   23  C   UNL     1     -10.668   5.525  69.773  1.00  0.00    -0.355 C  
ENDBRANCH   4  21
BRANCH   4  24
HETATM   24  O   UNL     1      -7.439   6.177  70.352  1.00  0.00    -0.085 OA 
BRANCH  24  25
HETATM   25  C   UNL     1      -7.336   5.276  69.340  1.00  0.00    -0.061 C  
HETATM   26  O   UNL     1      -7.481   4.070  69.448  1.00  0.00    -0.053 OA 
BRANCH  25  27
HETATM   27  C   UNL     1      -7.207   6.025  68.025  1.00  0.00    -0.080 C  
BRANCH  27  28
HETATM   28  C   UNL     1      -8.358   5.775  67.076  1.00  0.00    -0.108 C  
BRANCH  28  29
HETATM   29  C   UNL     1      -7.929   5.875  65.616  1.00  0.00    -0.118 C  
BRANCH  29  30
HETATM   30  C   UNL     1      -8.376   4.643  64.839  1.00  0.00    -0.129 C  
HETATM   31  C   UNL     1      -8.576   3.457  65.765  1.00  0.00    -0.117 C  
ENDBRANCH  29  30
ENDBRANCH  28  29
ENDBRANCH  27  28
ENDBRANCH  25  27
ENDBRANCH  24  25
ENDBRANCH   4  24
TORSDOF 7
ENDMDL
MODEL       85
REMARK 921   NORMALIZED FREE ENERGY PREDICTED BY IDOCK:   -3.23 KCAL/MOL
REMARK 922        TOTAL FREE ENERGY PREDICTED BY IDOCK:   -4.76 KCAL/MOL
REMARK 923 INTER-LIGAND FREE ENERGY PREDICTED BY IDOCK:   -5.47 KCAL/MOL
REMARK 924 INTRA-LIGAND FREE ENERGY PREDICTED BY IDOCK:    0.72 KCAL/MOL
REMARK 927      BINDING AFFINITY PREDICTED BY RF-SCORE:    0.00 PKD
ROOT
HETATM    1  C   UNL     1     -10.046  14.869  65.721  1.00  0.00    -0.367 C  
HETATM    2  C   UNL     1     -11.331  14.699  65.145  1.00  0.00    -0.375 C  
HETATM    3  C   UNL     1     -11.272  14.820  66.625  1.00  0.00    -0.346 C  
HETATM    4  C   UNL     1      -9.437  15.396  67.367  1.00  0.00    -0.205 C  
HETATM    5  C   UNL     1      -9.256  10.376  66.883  1.00  0.00    -0.170 C  
HETATM    6  C   UNL     1     -11.176   9.132  68.585  1.00  0.00     0.246 C  
HETATM    7  C   UNL     1     -10.571  16.107  67.148  1.00  0.00    -0.294 C  
HETATM    8  C   UNL     1     -10.837  17.545  66.740  1.00  0.00     0.009 C  
HETATM    9  O   UNL     1      -9.656   7.277  68.401  1.00  0.00    -0.139 OA 
HETATM   10  C   UNL     1      -8.569  11.040  65.712  1.00  0.00    -0.151 C  
HETATM   11  C   UNL     1     -10.741  10.529  69.012  1.00  0.00    -0.259 C  
HETATM   12  C   UNL     1     -11.232  15.316  68.706  1.00  0.00    -0.293 C  
HETATM   13  C   UNL     1     -10.627  13.698  68.912  1.00  0.00    -0.211 C  
HETATM   14  C   UNL     1     -10.017   8.380  68.014  1.00  0.00    -0.182 C  
HETATM   15  C   UNL     1      -9.367   9.035  66.870  1.00  0.00    -0.203 C  
HETATM   16  C   UNL     1      -8.385  11.427  68.940  1.00  0.00    -0.042 C  
HETATM   17  C   UNL     1     -10.265  12.647  67.638  1.00  0.00    -0.217 C  
HETATM   18  C   UNL     1      -9.452  13.289  66.373  1.00  0.00    -0.225 C  
HETATM   19  C   UNL     1      -9.668  11.245  68.098  1.00  0.00    -0.188 C  
HETATM   20  C   UNL     1      -9.296  12.288  65.232  1.00  0.00     0.169 C  
ENDROOT
BRANCH   4  21
HETATM   21  C   UNL     1      -8.871  16.181  68.683  1.00  0.00    -0.218 C  
HETATM   22  O   UNL     1      -9.131  17.360  68.960  1.00  0.00    -0.203 OA 
HETATM   23  C   UNL     1      -7.906  15.494  69.608  1.00  0.00    -0.128 C  
ENDBRANCH   4  21
BRANCH   4  24
HETATM   24  O   UNL     1      -8.469  16.270  66.493  1.00  0.00    -0.242 OA 
BRANCH  24  25
HETATM   25  C   UNL     1      -7.131  16.329  66.717  1.00  0.00    -0.165 C  
HETATM   26  O   UNL     1      -6.374  15.373  66.747  1.00  0.00    -0.044 OA 
BRANCH  25  27
HETATM   27  C   UNL     1      -6.696  17.784  66.729  1.00  0.00    -0.225 C  
BRANCH  27  28
HETATM   28  C   UNL     1      -7.133  18.552  65.501  1.00  0.00    -0.123 C  
BRANCH  28  29
HETATM   29  C   UNL     1      -6.455  19.915  65.405  1.00  0.00    -0.297 C  
BRANCH  29  30
HETATM   30  C   UNL     1      -6.260  20.318  63.949  1.00  0.00    -0.213 C  
HETATM   31  C   UNL     1      -5.648  19.184  63.147  1.00  0.00    -0.173 C  
ENDBRANCH  29  30
ENDBRANCH  28  29
ENDBRANCH  27  28
ENDBRANCH  25  27
ENDBRANCH  24  25
ENDBRANCH   4  24
TORSDOF 7
ENDMDL
MODEL       86
REMARK 921   NORMALIZED FREE ENERGY PREDICTED BY IDOCK:   -3.22 KCAL/MOL
REMARK 922        TOTAL FREE ENERGY PREDICTED BY IDOCK:   -4.74 KCAL/MOL
REMARK 923 INTER-LIGAND FREE ENERGY PREDICTED BY IDOCK:   -5.32 KCAL/MOL
REMARK 924 INTRA-LIGAND FREE ENERGY PREDICTED BY IDOCK:    0.58 KCAL/MOL
REMARK 927      BINDING AFFINITY PREDICTED BY RF-SCORE:    0.00 PKD
ROOT
HETATM    1  C   UNL     1     -12.285  13.968  66.689  1.00  0.00    -0.463 C  
HETATM    2  C   UNL     1     -12.904  14.733  65.668  1.00  0.00     0.208 C  
HETATM    3  C   UNL     1     -11.542  14.213  65.382  1.00  0.00    -0.334 C  
HETATM    4  C   UNL     1     -10.839  12.844  66.753  1.00  0.00    -0.267 C  
HETATM    5  C   UNL     1      -9.681  17.401  68.584  1.00  0.00    -0.308 C  
HETATM    6  C   UNL     1      -7.875  18.755  66.842  1.00  0.00    -0.252 C  
HETATM    7  C   UNL     1     -11.386  12.671  65.524  1.00  0.00    -0.356 C  
HETATM    8  C   UNL     1     -12.256  11.586  64.913  1.00  0.00     0.554 C  
HETATM    9  O   UNL     1      -7.305  19.920  68.868  1.00  0.00    -0.310 OA 
HETATM   10  C   UNL     1     -10.927  16.869  69.254  1.00  0.00    -0.112 C  
HETATM   11  C   UNL     1      -7.873  17.236  66.723  1.00  0.00    -0.278 C  
HETATM   12  C   UNL     1      -9.733  13.206  64.839  1.00  0.00     0.091 C  
HETATM   13  C   UNL     1      -8.963  14.383  65.862  1.00  0.00     0.384 C  
HETATM   14  C   UNL     1      -8.057  19.164  68.268  1.00  0.00    -0.332 C  
HETATM   15  C   UNL     1      -9.278  18.645  68.901  1.00  0.00    -0.249 C  
HETATM   16  C   UNL     1      -7.989  15.605  68.645  1.00  0.00    -0.152 C  
HETATM   17  C   UNL     1      -9.794  15.531  66.786  1.00  0.00    -0.252 C  
HETATM   18  C   UNL     1     -11.108  14.998  67.599  1.00  0.00    -0.317 C  
HETATM   19  C   UNL     1      -8.854  16.450  67.683  1.00  0.00    -0.191 C  
HETATM   20  C   UNL     1     -11.850  16.140  68.289  1.00  0.00     0.083 C  
ENDROOT
BRANCH   4  21
HETATM   21  C   UNL     1      -9.792  11.590  66.765  1.00  0.00    -0.203 C  
HETATM   22  O   UNL     1      -9.951  10.539  66.130  1.00  0.00    -0.210 OA 
HETATM   23  C   UNL     1      -8.578  11.637  67.650  1.00  0.00    -0.142 C  
ENDBRANCH   4  21
BRANCH   4  24
HETATM   24  O   UNL     1     -11.844  11.944  67.558  1.00  0.00    -0.552 OA 
BRANCH  24  25
HETATM   25  C   UNL     1     -11.803  11.829  68.911  1.00  0.00    -0.320 C  
HETATM   26  O   UNL     1     -11.597  12.741  69.694  1.00  0.00    -0.287 OA 
BRANCH  25  27
HETATM   27  C   UNL     1     -12.247  10.429  69.300  1.00  0.00     0.081 C  
BRANCH  27  28
HETATM   28  C   UNL     1     -11.453   9.844  70.448  1.00  0.00    -0.372 C  
BRANCH  28  29
HETATM   29  C   UNL     1      -9.962  10.144  70.326  1.00  0.00    -0.081 C  
BRANCH  29  30
HETATM   30  C   UNL     1      -9.146   9.146  71.138  1.00  0.00    -0.275 C  
HETATM   31  C   UNL     1      -8.007   8.575  70.312  1.00  0.00    -0.103 C  
ENDBRANCH  29  30
ENDBRANCH  28  29
ENDBRANCH  27  28
ENDBRANCH  25  27
ENDBRANCH  24  25
ENDBRANCH   4  24
TORSDOF 7
ENDMDL
MODEL       87
REMARK 921   NORMALIZED FREE ENERGY PREDICTED BY IDOCK:   -3.20 KCAL/MOL
REMARK 922        TOTAL FREE ENERGY PREDICTED BY IDOCK:   -4.71 KCAL/MOL
REMARK 923 INTER-LIGAND FREE ENERGY PREDICTED BY IDOCK:   -6.15 KCAL/MOL
REMARK 924 INTRA-LIGAND FREE ENERGY PREDICTED BY IDOCK:    1.44 KCAL/MOL
REMARK 927      BINDING AFFINITY PREDICTED BY RF-SCORE:    0.00 PKD
ROOT
HETATM    1  C   UNL     1      -8.275  10.455  68.503  1.00  0.00    -0.119 C  
HETATM    2  C   UNL     1      -7.420  10.796  69.581  1.00  0.00    -0.082 C  
HETATM    3  C   UNL     1      -7.175   9.488  68.921  1.00  0.00    -0.072 C  
HETATM    4  C   UNL     1      -8.219   9.201  67.168  1.00  0.00    -0.113 C  
HETATM    5  C   UNL     1     -11.294   7.751  70.897  1.00  0.00    -0.288 C  
HETATM    6  C   UNL     1     -10.192   5.526  72.301  1.00  0.00    -0.244 C  
HETATM    7  C   UNL     1      -6.931   9.564  67.387  1.00  0.00    -0.084 C  
HETATM    8  C   UNL     1      -5.960  10.462  66.641  1.00  0.00    -0.066 C  
HETATM    9  O   UNL     1     -12.504   5.135  72.838  1.00  0.00     0.030 OA 
HETATM   10  C   UNL     1     -11.648   9.146  70.439  1.00  0.00    -0.181 C  
HETATM   11  C   UNL     1      -9.684   5.709  70.875  1.00  0.00    -0.223 C  
HETATM   12  C   UNL     1      -6.611   7.767  67.782  1.00  0.00    -0.060 C  
HETATM   13  C   UNL     1      -7.989   7.019  68.535  1.00  0.00    -0.123 C  
HETATM   14  C   UNL     1     -11.643   5.877  72.384  1.00  0.00    -0.288 C  
HETATM   15  C   UNL     1     -11.968   7.241  71.944  1.00  0.00    -0.342 C  
HETATM   16  C   UNL     1     -11.090   6.344  68.878  1.00  0.00    -0.420 C  
HETATM   17  C   UNL     1      -9.072   7.825  69.554  1.00  0.00    -0.146 C  
HETATM   18  C   UNL     1      -9.556   9.310  69.073  1.00  0.00    -0.159 C  
HETATM   19  C   UNL     1     -10.283   6.925  70.062  1.00  0.00    -0.211 C  
HETATM   20  C   UNL     1     -10.424   9.994  70.126  1.00  0.00    -0.338 C  
ENDROOT
BRANCH   4  21
HETATM   21  C   UNL     1      -8.032   8.345  65.789  1.00  0.00    -0.108 C  
HETATM   22  O   UNL     1      -8.679   7.329  65.502  1.00  0.00    -0.122 OA 
HETATM   23  C   UNL     1      -6.963   8.734  64.806  1.00  0.00    -0.073 C  
ENDBRANCH   4  21
BRANCH   4  24
HETATM   24  O   UNL     1      -8.637  10.432  66.286  1.00  0.00    -0.135 OA 
BRANCH  24  25
HETATM   25  C   UNL     1      -9.834  10.503  65.647  1.00  0.00    -0.252 C  
HETATM   26  O   UNL     1     -10.096   9.986  64.574  1.00  0.00    -0.243 OA 
BRANCH  25  27
HETATM   27  C   UNL     1     -10.847  11.159  66.569  1.00  0.00    -0.302 C  
BRANCH  27  28
HETATM   28  C   UNL     1     -11.414  12.449  66.018  1.00  0.00    -0.431 C  
BRANCH  28  29
HETATM   29  C   UNL     1     -10.614  13.666  66.469  1.00  0.00    -0.282 C  
BRANCH  29  30
HETATM   30  C   UNL     1     -11.370  14.952  66.159  1.00  0.00    -0.307 C  
HETATM   31  C   UNL     1     -11.242  15.320  64.692  1.00  0.00    -0.366 C  
ENDBRANCH  29  30
ENDBRANCH  28  29
ENDBRANCH  27  28
ENDBRANCH  25  27
ENDBRANCH  24  25
ENDBRANCH   4  24
TORSDOF 7
ENDMDL
MODEL       88
REMARK 921   NORMALIZED FREE ENERGY PREDICTED BY IDOCK:   -3.14 KCAL/MOL
REMARK 922        TOTAL FREE ENERGY PREDICTED BY IDOCK:   -4.63 KCAL/MOL
REMARK 923 INTER-LIGAND FREE ENERGY PREDICTED BY IDOCK:   -6.48 KCAL/MOL
REMARK 924 INTRA-LIGAND FREE ENERGY PREDICTED BY IDOCK:    1.85 KCAL/MOL
REMARK 927      BINDING AFFINITY PREDICTED BY RF-SCORE:    0.00 PKD
ROOT
HETATM    1  C   UNL     1      -7.907  14.582  68.497  1.00  0.00    -0.136 C  
HETATM    2  C   UNL     1      -6.623  14.531  67.898  1.00  0.00    -0.178 C  
HETATM    3  C   UNL     1      -7.781  14.721  66.986  1.00  0.00    -0.038 C  
HETATM    4  C   UNL     1      -9.567  15.118  67.934  1.00  0.00    -0.203 C  
HETATM    5  C   UNL     1      -9.133  10.093  67.784  1.00  0.00    -0.135 C  
HETATM    6  C   UNL     1      -9.106   9.166  65.087  1.00  0.00    -0.234 C  
HETATM    7  C   UNL     1      -8.683  15.943  67.318  1.00  0.00    -0.206 C  
HETATM    8  C   UNL     1      -8.255  17.380  67.562  1.00  0.00    -0.209 C  
HETATM    9  O   UNL     1      -9.897   7.142  66.117  1.00  0.00    -0.017 OA 
HETATM   10  C   UNL     1      -8.728  10.613  69.143  1.00  0.00    -0.135 C  
HETATM   11  C   UNL     1      -9.765  10.524  65.299  1.00  0.00    -0.328 C  
HETATM   12  C   UNL     1      -9.392  15.314  65.709  1.00  0.00    -0.233 C  
HETATM   13  C   UNL     1      -9.884  13.650  65.830  1.00  0.00    -0.230 C  
HETATM   14  C   UNL     1      -9.410   8.258  66.235  1.00  0.00    -0.204 C  
HETATM   15  C   UNL     1      -9.000   8.775  67.548  1.00  0.00    -0.142 C  
HETATM   16  C   UNL     1     -11.294  11.141  67.210  1.00  0.00    -0.302 C  
HETATM   17  C   UNL     1      -9.123  12.500  66.809  1.00  0.00    -0.214 C  
HETATM   18  C   UNL     1      -8.730  12.979  68.322  1.00  0.00    -0.173 C  
HETATM   19  C   UNL     1      -9.810  11.065  66.784  1.00  0.00    -0.229 C  
HETATM   20  C   UNL     1      -7.935  11.909  69.067  1.00  0.00     0.135 C  
ENDROOT
BRANCH   4  21
HETATM   21  C   UNL     1     -10.958  15.900  67.587  1.00  0.00    -0.298 C  
HETATM   22  O   UNL     1     -12.027  15.338  67.313  1.00  0.00    -0.104 OA 
HETATM   23  C   UNL     1     -10.975  17.401  67.509  1.00  0.00    -0.089 C  
ENDBRANCH   4  21
BRANCH   4  24
HETATM   24  O   UNL     1      -9.577  15.830  69.334  1.00  0.00    -0.256 OA 
BRANCH  24  25
HETATM   25  C   UNL     1     -10.593  15.682  70.224  1.00  0.00    -0.313 C  
HETATM   26  O   UNL     1     -11.190  16.591  70.775  1.00  0.00    -0.304 OA 
BRANCH  25  27
HETATM   27  C   UNL     1     -10.997  14.218  70.273  1.00  0.00     0.154 C  
BRANCH  27  28
HETATM   28  C   UNL     1     -12.493  14.005  70.214  1.00  0.00    -0.403 C  
BRANCH  28  29
HETATM   29  C   UNL     1     -13.223  14.755  71.323  1.00  0.00    -0.447 C  
BRANCH  29  30
HETATM   30  C   UNL     1     -14.157  13.820  72.080  1.00  0.00    -0.604 C  
HETATM   31  C   UNL     1     -13.559  12.429  72.195  1.00  0.00    -0.405 C  
ENDBRANCH  29  30
ENDBRANCH  28  29
ENDBRANCH  27  28
ENDBRANCH  25  27
ENDBRANCH  24  25
ENDBRANCH   4  24
TORSDOF 7
ENDMDL
MODEL       89
REMARK 921   NORMALIZED FREE ENERGY PREDICTED BY IDOCK:   -3.11 KCAL/MOL
REMARK 922        TOTAL FREE ENERGY PREDICTED BY IDOCK:   -4.59 KCAL/MOL
REMARK 923 INTER-LIGAND FREE ENERGY PREDICTED BY IDOCK:   -4.80 KCAL/MOL
REMARK 924 INTRA-LIGAND FREE ENERGY PREDICTED BY IDOCK:    0.21 KCAL/MOL
REMARK 927      BINDING AFFINITY PREDICTED BY RF-SCORE:    0.00 PKD
ROOT
HETATM    1  C   UNL     1      -9.715   6.688  67.969  1.00  0.00    -0.126 C  
HETATM    2  C   UNL     1     -11.023   6.464  67.467  1.00  0.00    -0.454 C  
HETATM    3  C   UNL     1     -10.899   7.390  68.623  1.00  0.00    -0.073 C  
HETATM    4  C   UNL     1      -8.966   7.932  69.087  1.00  0.00    -0.145 C  
HETATM    5  C   UNL     1      -9.841   3.597  71.516  1.00  0.00    -0.227 C  
HETATM    6  C   UNL     1     -11.930   3.921  73.431  1.00  0.00     0.204 C  
HETATM    7  C   UNL     1      -9.933   8.589  68.400  1.00  0.00    -0.208 C  
HETATM    8  C   UNL     1      -9.907   9.561  67.233  1.00  0.00    -0.228 C  
HETATM    9  O   UNL     1     -10.832   2.046  74.463  1.00  0.00    -0.128 OA 
HETATM   10  C   UNL     1      -9.064   3.338  70.247  1.00  0.00    -0.196 C  
HETATM   11  C   UNL     1     -11.203   5.203  73.041  1.00  0.00    -0.390 C  
HETATM   12  C   UNL     1     -10.701   8.961  70.062  1.00  0.00    -0.241 C  
HETATM   13  C   UNL     1     -10.439   7.668  71.195  1.00  0.00    -0.220 C  
HETATM   14  C   UNL     1     -10.967   2.778  73.492  1.00  0.00    -0.216 C  
HETATM   15  C   UNL     1     -10.228   2.534  72.245  1.00  0.00    -0.200 C  
HETATM   16  C   UNL     1      -8.715   5.445  72.703  1.00  0.00    -0.123 C  
HETATM   17  C   UNL     1     -10.337   6.034  70.770  1.00  0.00    -0.280 C  
HETATM   18  C   UNL     1      -9.444   5.681  69.447  1.00  0.00    -0.169 C  
HETATM   19  C   UNL     1     -10.030   5.060  71.990  1.00  0.00    -0.239 C  
HETATM   20  C   UNL     1      -9.530   4.201  69.083  1.00  0.00    -0.248 C  
ENDROOT
BRANCH   4  21
HETATM   21  C   UNL     1      -8.213   9.204  69.783  1.00  0.00    -0.128 C  
HETATM   22  O   UNL     1      -8.296  10.372  69.382  1.00  0.00    -0.160 OA 
HETATM   23  C   UNL     1      -7.287   8.981  70.946  1.00  0.00    -0.119 C  
ENDBRANCH   4  21
BRANCH   4  24
HETATM   24  O   UNL     1      -7.862   7.957  67.970  1.00  0.00    -0.121 OA 
BRANCH  24  25
HETATM   25  C   UNL     1      -6.647   7.369  68.126  1.00  0.00    -0.050 C  
HETATM   26  O   UNL     1      -6.456   6.233  68.527  1.00  0.00    -0.045 OA 
BRANCH  25  27
HETATM   27  C   UNL     1      -5.581   8.276  67.538  1.00  0.00    -0.039 C  
BRANCH  27  28
HETATM   28  C   UNL     1      -6.131   9.575  66.989  1.00  0.00    -0.063 C  
BRANCH  28  29
HETATM   29  C   UNL     1      -5.423  10.791  67.575  1.00  0.00    -0.043 C  
BRANCH  29  30
HETATM   30  C   UNL     1      -5.732  12.039  66.758  1.00  0.00     0.017 C  
HETATM   31  C   UNL     1      -6.869  12.830  67.380  1.00  0.00    -0.137 C  
ENDBRANCH  29  30
ENDBRANCH  28  29
ENDBRANCH  27  28
ENDBRANCH  25  27
ENDBRANCH  24  25
ENDBRANCH   4  24
TORSDOF 7
ENDMDL
MODEL       90
REMARK 921   NORMALIZED FREE ENERGY PREDICTED BY IDOCK:   -3.04 KCAL/MOL
REMARK 922        TOTAL FREE ENERGY PREDICTED BY IDOCK:   -4.49 KCAL/MOL
REMARK 923 INTER-LIGAND FREE ENERGY PREDICTED BY IDOCK:   -4.99 KCAL/MOL
REMARK 924 INTRA-LIGAND FREE ENERGY PREDICTED BY IDOCK:    0.50 KCAL/MOL
REMARK 927      BINDING AFFINITY PREDICTED BY RF-SCORE:    0.00 PKD
ROOT
HETATM    1  C   UNL     1      -7.857   6.619  66.469  1.00  0.00    -0.104 C  
HETATM    2  C   UNL     1      -7.003   6.961  65.391  1.00  0.00    -0.059 C  
HETATM    3  C   UNL     1      -6.475   7.188  66.761  1.00  0.00    -0.054 C  
HETATM    4  C   UNL     1      -7.616   6.368  68.269  1.00  0.00    -0.103 C  
HETATM    5  C   UNL     1      -9.587  10.915  67.315  1.00  0.00    -0.184 C  
HETATM    6  C   UNL     1      -7.697  12.971  67.891  1.00  0.00    -0.145 C  
HETATM    7  C   UNL     1      -6.475   5.932  67.679  1.00  0.00    -0.047 C  
HETATM    8  C   UNL     1      -5.924   4.551  67.370  1.00  0.00    -0.023 C  
HETATM    9  O   UNL     1      -9.695  14.287  68.145  1.00  0.00    -0.213 OA 
HETATM   10  C   UNL     1     -10.397   9.839  66.630  1.00  0.00    -0.276 C  
HETATM   11  C   UNL     1      -7.465  11.654  68.623  1.00  0.00    -0.117 C  
HETATM   12  C   UNL     1      -5.588   7.214  68.708  1.00  0.00    -0.018 C  
HETATM   13  C   UNL     1      -6.568   8.630  68.957  1.00  0.00    -0.048 C  
HETATM   14  C   UNL     1      -9.162  13.249  67.776  1.00  0.00    -0.209 C  
HETATM   15  C   UNL     1      -9.932  12.197  67.098  1.00  0.00    -0.210 C  
HETATM   16  C   UNL     1      -9.254  10.205  69.656  1.00  0.00    -0.206 C  
HETATM   17  C   UNL     1      -7.691   9.219  67.838  1.00  0.00    -0.088 C  
HETATM   18  C   UNL     1      -8.653   8.109  67.119  1.00  0.00    -0.124 C  
HETATM   19  C   UNL     1      -8.501  10.494  68.338  1.00  0.00    -0.128 C  
HETATM   20  C   UNL     1      -9.532   8.735  66.039  1.00  0.00    -0.302 C  
ENDROOT
BRANCH   4  21
HETATM   21  C   UNL     1      -7.374   5.806  69.783  1.00  0.00    -0.071 C  
HETATM   22  O   UNL     1      -6.822   4.730  70.050  1.00  0.00    -0.042 OA 
HETATM   23  C   UNL     1      -7.906   6.573  70.961  1.00  0.00    -0.110 C  
ENDBRANCH   4  21
BRANCH   4  24
HETATM   24  O   UNL     1      -8.494   5.096  67.993  1.00  0.00    -0.101 OA 
BRANCH  24  25
HETATM   25  C   UNL     1      -9.664   4.858  68.642  1.00  0.00    -0.160 C  
HETATM   26  O   UNL     1      -9.804   4.118  69.602  1.00  0.00    -0.217 OA 
BRANCH  25  27
HETATM   27  C   UNL     1     -10.725   5.805  68.110  1.00  0.00    -0.288 C  
BRANCH  27  28
HETATM   28  C   UNL     1     -10.932   7.026  68.980  1.00  0.00    -0.169 C  
BRANCH  28  29
HETATM   29  C   UNL     1     -11.557   6.672  70.325  1.00  0.00    -0.454 C  
BRANCH  29  30
HETATM   30  C   UNL     1     -11.897   7.933  71.108  1.00  0.00    -0.307 C  
HETATM   31  C   UNL     1     -11.128   7.987  72.417  1.00  0.00    -0.416 C  
ENDBRANCH  29  30
ENDBRANCH  28  29
ENDBRANCH  27  28
ENDBRANCH  25  27
ENDBRANCH  24  25
ENDBRANCH   4  24
TORSDOF 7
ENDMDL
MODEL       91
REMARK 921   NORMALIZED FREE ENERGY PREDICTED BY IDOCK:   -2.98 KCAL/MOL
REMARK 922        TOTAL FREE ENERGY PREDICTED BY IDOCK:   -4.41 KCAL/MOL
REMARK 923 INTER-LIGAND FREE ENERGY PREDICTED BY IDOCK:   -4.61 KCAL/MOL
REMARK 924 INTRA-LIGAND FREE ENERGY PREDICTED BY IDOCK:    0.20 KCAL/MOL
REMARK 927      BINDING AFFINITY PREDICTED BY RF-SCORE:    0.00 PKD
ROOT
HETATM    1  C   UNL     1     -10.489  15.975  67.010  1.00  0.00    -0.307 C  
HETATM    2  C   UNL     1     -11.857  15.800  67.338  1.00  0.00     0.374 C  
HETATM    3  C   UNL     1     -10.864  15.374  68.358  1.00  0.00    -0.268 C  
HETATM    4  C   UNL     1      -8.927  15.956  67.968  1.00  0.00    -0.182 C  
HETATM    5  C   UNL     1      -9.613  11.595  65.523  1.00  0.00    -0.241 C  
HETATM    6  C   UNL     1     -10.141   9.483  67.364  1.00  0.00    -0.262 C  
HETATM    7  C   UNL     1      -9.862  16.479  68.799  1.00  0.00    -0.254 C  
HETATM    8  C   UNL     1     -10.176  17.893  69.257  1.00  0.00    -0.078 C  
HETATM    9  O   UNL     1      -9.282   8.137  65.565  1.00  0.00    -0.054 OA 
HETATM   10  C   UNL     1      -9.756  12.758  64.569  1.00  0.00     0.091 C  
HETATM   11  C   UNL     1      -9.393  10.677  67.946  1.00  0.00    -0.154 C  
HETATM   12  C   UNL     1      -9.468  15.062  69.949  1.00  0.00     0.136 C  
HETATM   13  C   UNL     1      -9.040  13.621  69.072  1.00  0.00     0.312 C  
HETATM   14  C   UNL     1      -9.690   9.220  65.964  1.00  0.00    -0.289 C  
HETATM   15  C   UNL     1      -9.845  10.359  65.047  1.00  0.00    -0.384 C  
HETATM   16  C   UNL     1      -7.535  11.950  66.808  1.00  0.00    -0.017 C  
HETATM   17  C   UNL     1      -9.676  13.201  67.563  1.00  0.00    -0.213 C  
HETATM   18  C   UNL     1      -9.784  14.402  66.459  1.00  0.00    -0.305 C  
HETATM   19  C   UNL     1      -9.071  11.863  66.950  1.00  0.00    -0.196 C  
HETATM   20  C   UNL     1     -10.489  13.941  65.186  1.00  0.00    -0.409 C  
ENDROOT
BRANCH   4  21
HETATM   21  C   UNL     1      -7.579  16.288  68.829  1.00  0.00    -0.199 C  
HETATM   22  O   UNL     1      -7.412  17.317  69.498  1.00  0.00    -0.020 OA 
HETATM   23  C   UNL     1      -6.407  15.348  68.778  1.00  0.00    -0.101 C  
ENDBRANCH   4  21
BRANCH   4  24
HETATM   24  O   UNL     1      -8.645  17.252  67.127  1.00  0.00    -0.198 OA 
BRANCH  24  25
HETATM   25  C   UNL     1      -7.522  17.412  66.379  1.00  0.00    -0.305 C  
HETATM   26  O   UNL     1      -7.055  16.583  65.615  1.00  0.00     0.761 OA 
BRANCH  25  27
HETATM   27  C   UNL     1      -7.052  18.851  66.496  1.00  0.00    -0.236 C  
BRANCH  27  28
HETATM   28  C   UNL     1      -8.079  19.859  66.029  1.00  0.00    -0.321 C  
BRANCH  28  29
HETATM   29  C   UNL     1      -8.784  20.542  67.196  1.00  0.00    -0.375 C  
BRANCH  29  30
HETATM   30  C   UNL     1     -10.290  20.331  67.113  1.00  0.00    -0.419 C  
HETATM   31  C   UNL     1     -10.676  19.673  65.800  1.00  0.00    -0.493 C  
ENDBRANCH  29  30
ENDBRANCH  28  29
ENDBRANCH  27  28
ENDBRANCH  25  27
ENDBRANCH  24  25
ENDBRANCH   4  24
TORSDOF 7
ENDMDL
MODEL       92
REMARK 921   NORMALIZED FREE ENERGY PREDICTED BY IDOCK:   -2.98 KCAL/MOL
REMARK 922        TOTAL FREE ENERGY PREDICTED BY IDOCK:   -4.40 KCAL/MOL
REMARK 923 INTER-LIGAND FREE ENERGY PREDICTED BY IDOCK:   -5.16 KCAL/MOL
REMARK 924 INTRA-LIGAND FREE ENERGY PREDICTED BY IDOCK:    0.76 KCAL/MOL
REMARK 927      BINDING AFFINITY PREDICTED BY RF-SCORE:    0.00 PKD
ROOT
HETATM    1  C   UNL     1      -7.982   7.044  72.474  1.00  0.00    -0.101 C  
HETATM    2  C   UNL     1      -7.447   7.912  73.459  1.00  0.00    -0.175 C  
HETATM    3  C   UNL     1      -8.728   8.323  72.830  1.00  0.00    -0.291 C  
HETATM    4  C   UNL     1      -9.617   6.874  71.665  1.00  0.00    -0.161 C  
HETATM    5  C   UNL     1      -6.348   9.288  68.672  1.00  0.00    -0.049 C  
HETATM    6  C   UNL     1      -7.086  12.027  68.381  1.00  0.00    -0.084 C  
HETATM    7  C   UNL     1      -9.874   7.276  72.935  1.00  0.00    -0.240 C  
HETATM    8  C   UNL     1     -10.367   6.554  74.176  1.00  0.00    -0.351 C  
HETATM    9  O   UNL     1      -5.835  11.809  66.338  1.00  0.00    -0.212 OA 
HETATM   10  C   UNL     1      -5.749   7.991  69.164  1.00  0.00    -0.034 C  
HETATM   11  C   UNL     1      -8.222  11.088  68.769  1.00  0.00    -0.146 C  
HETATM   12  C   UNL     1     -10.718   8.758  72.173  1.00  0.00    -0.383 C  
HETATM   13  C   UNL     1      -9.947   9.247  70.693  1.00  0.00    -0.336 C  
HETATM   14  C   UNL     1      -6.157  11.350  67.425  1.00  0.00    -0.074 C  
HETATM   15  C   UNL     1      -5.575  10.095  67.924  1.00  0.00    -0.038 C  
HETATM   16  C   UNL     1      -8.613   8.778  67.831  1.00  0.00    -0.130 C  
HETATM   17  C   UNL     1      -8.291   9.092  70.384  1.00  0.00    -0.206 C  
HETATM   18  C   UNL     1      -7.599   7.678  70.823  1.00  0.00    -0.080 C  
HETATM   19  C   UNL     1      -7.853   9.559  68.927  1.00  0.00    -0.080 C  
HETATM   20  C   UNL     1      -6.086   7.699  70.619  1.00  0.00    -0.034 C  
ENDROOT
BRANCH   4  21
HETATM   21  C   UNL     1     -11.130   6.480  71.191  1.00  0.00    -0.282 C  
HETATM   22  O   UNL     1     -12.035   6.130  71.960  1.00  0.00    -0.324 OA 
HETATM   23  C   UNL     1     -11.473   6.452  69.728  1.00  0.00    -0.468 C  
ENDBRANCH   4  21
BRANCH   4  24
HETATM   24  O   UNL     1      -9.373   5.353  71.971  1.00  0.00    -0.143 OA 
BRANCH  24  25
HETATM   25  C   UNL     1      -8.559   4.574  71.212  1.00  0.00    -0.111 C  
HETATM   26  O   UNL     1      -7.741   3.776  71.640  1.00  0.00    -0.058 OA 
BRANCH  25  27
HETATM   27  C   UNL     1      -8.964   4.710  69.755  1.00  0.00    -0.140 C  
BRANCH  27  28
HETATM   28  C   UNL     1      -7.787   4.757  68.805  1.00  0.00    -0.076 C  
BRANCH  28  29
HETATM   29  C   UNL     1      -8.212   5.108  67.383  1.00  0.00    -0.107 C  
BRANCH  29  30
HETATM   30  C   UNL     1      -8.042   3.908  66.460  1.00  0.00    -0.097 C  
HETATM   31  C   UNL     1      -9.197   3.808  65.479  1.00  0.00    -0.153 C  
ENDBRANCH  29  30
ENDBRANCH  28  29
ENDBRANCH  27  28
ENDBRANCH  25  27
ENDBRANCH  24  25
ENDBRANCH   4  24
TORSDOF 7
ENDMDL
MODEL       93
REMARK 921   NORMALIZED FREE ENERGY PREDICTED BY IDOCK:   -2.94 KCAL/MOL
REMARK 922        TOTAL FREE ENERGY PREDICTED BY IDOCK:   -4.36 KCAL/MOL
REMARK 923 INTER-LIGAND FREE ENERGY PREDICTED BY IDOCK:   -5.21 KCAL/MOL
REMARK 924 INTRA-LIGAND FREE ENERGY PREDICTED BY IDOCK:    0.86 KCAL/MOL
REMARK 927      BINDING AFFINITY PREDICTED BY RF-SCORE:    0.00 PKD
ROOT
HETATM    1  C   UNL     1      -8.402   9.559  69.840  1.00  0.00    -0.180 C  
HETATM    2  C   UNL     1      -7.318   9.480  70.751  1.00  0.00    -0.103 C  
HETATM    3  C   UNL     1      -7.039   9.090  69.345  1.00  0.00    -0.056 C  
HETATM    4  C   UNL     1      -8.546   9.542  68.013  1.00  0.00    -0.120 C  
HETATM    5  C   UNL     1      -9.693   5.034  69.971  1.00  0.00    -0.278 C  
HETATM    6  C   UNL     1      -7.700   3.109  69.297  1.00  0.00    -0.048 C  
HETATM    7  C   UNL     1      -7.379  10.177  68.285  1.00  0.00    -0.081 C  
HETATM    8  C   UNL     1      -6.961  11.637  68.280  1.00  0.00    -0.074 C  
HETATM    9  O   UNL     1      -9.523   1.579  69.649  1.00  0.00    -0.103 OA 
HETATM   10  C   UNL     1     -10.487   6.121  70.658  1.00  0.00    -0.292 C  
HETATM   11  C   UNL     1      -7.786   4.308  68.360  1.00  0.00    -0.070 C  
HETATM   12  C   UNL     1      -6.549   8.841  67.277  1.00  0.00    -0.058 C  
HETATM   13  C   UNL     1      -7.367   7.314  67.436  1.00  0.00    -0.092 C  
HETATM   14  C   UNL     1      -9.067   2.710  69.754  1.00  0.00    -0.121 C  
HETATM   15  C   UNL     1      -9.821   3.776  70.429  1.00  0.00    -0.135 C  
HETATM   16  C   UNL     1      -9.912   5.390  67.538  1.00  0.00    -0.198 C  
HETATM   17  C   UNL     1      -8.168   6.803  68.835  1.00  0.00    -0.121 C  
HETATM   18  C   UNL     1      -9.108   7.913  69.581  1.00  0.00    -0.153 C  
HETATM   19  C   UNL     1      -8.888   5.391  68.695  1.00  0.00    -0.107 C  
HETATM   20  C   UNL     1      -9.674   7.385  70.897  1.00  0.00    -0.169 C  
ENDROOT
BRANCH   4  21
HETATM   21  C   UNL     1      -8.675   9.876  66.419  1.00  0.00    -0.132 C  
HETATM   22  O   UNL     1      -9.280   9.169  65.603  1.00  0.00    -0.210 OA 
HETATM   23  C   UNL     1      -7.965  11.070  65.845  1.00  0.00    -0.054 C  
ENDBRANCH   4  21
BRANCH   4  24
HETATM   24  O   UNL     1      -9.511  10.749  68.291  1.00  0.00    -0.152 OA 
BRANCH  24  25
HETATM   25  C   UNL     1     -10.811  10.755  67.895  1.00  0.00    -0.264 C  
HETATM   26  O   UNL     1     -11.632   9.888  68.143  1.00  0.00    -0.051 OA 
BRANCH  25  27
HETATM   27  C   UNL     1     -11.128  12.100  67.264  1.00  0.00    -0.341 C  
BRANCH  27  28
HETATM   28  C   UNL     1     -11.493  12.006  65.799  1.00  0.00    -0.377 C  
BRANCH  28  29
HETATM   29  C   UNL     1     -11.635  13.381  65.155  1.00  0.00    -0.329 C  
BRANCH  29  30
HETATM   30  C   UNL     1     -11.461  14.482  66.193  1.00  0.00    -0.357 C  
HETATM   31  C   UNL     1     -10.551  15.581  65.675  1.00  0.00    -0.389 C  
ENDBRANCH  29  30
ENDBRANCH  28  29
ENDBRANCH  27  28
ENDBRANCH  25  27
ENDBRANCH  24  25
ENDBRANCH   4  24
TORSDOF 7
ENDMDL
MODEL       94
REMARK 921   NORMALIZED FREE ENERGY PREDICTED BY IDOCK:   -2.91 KCAL/MOL
REMARK 922        TOTAL FREE ENERGY PREDICTED BY IDOCK:   -4.31 KCAL/MOL
REMARK 923 INTER-LIGAND FREE ENERGY PREDICTED BY IDOCK:   -4.60 KCAL/MOL
REMARK 924 INTRA-LIGAND FREE ENERGY PREDICTED BY IDOCK:    0.29 KCAL/MOL
REMARK 927      BINDING AFFINITY PREDICTED BY RF-SCORE:    0.00 PKD
ROOT
HETATM    1  C   UNL     1      -7.831  10.018  66.444  1.00  0.00    -0.113 C  
HETATM    2  C   UNL     1      -7.703   9.354  65.197  1.00  0.00    -0.109 C  
HETATM    3  C   UNL     1      -9.033   9.288  65.857  1.00  0.00    -0.225 C  
HETATM    4  C   UNL     1      -9.250  10.538  67.481  1.00  0.00    -0.142 C  
HETATM    5  C   UNL     1      -7.176   6.286  69.238  1.00  0.00    -0.086 C  
HETATM    6  C   UNL     1      -8.944   4.079  68.869  1.00  0.00    -0.168 C  
HETATM    7  C   UNL     1      -9.665  10.668  66.196  1.00  0.00    -0.253 C  
HETATM    8  C   UNL     1      -9.846  11.862  65.275  1.00  0.00    -0.255 C  
HETATM    9  O   UNL     1      -7.680   3.178  70.707  1.00  0.00    -0.040 OA 
HETATM   10  C   UNL     1      -6.115   7.344  69.041  1.00  0.00    -0.034 C  
HETATM   11  C   UNL     1      -9.615   5.447  68.907  1.00  0.00    -0.188 C  
HETATM   12  C   UNL     1     -11.020   9.458  66.631  1.00  0.00     0.244 C  
HETATM   13  C   UNL     1     -10.487   8.291  67.806  1.00  0.00    -0.280 C  
HETATM   14  C   UNL     1      -7.807   4.031  69.839  1.00  0.00    -0.052 C  
HETATM   15  C   UNL     1      -6.780   5.061  69.627  1.00  0.00    -0.051 C  
HETATM   16  C   UNL     1      -9.035   7.332  70.481  1.00  0.00    -0.154 C  
HETATM   17  C   UNL     1      -8.904   7.709  67.920  1.00  0.00    -0.126 C  
HETATM   18  C   UNL     1      -7.710   8.818  67.793  1.00  0.00    -0.102 C  
HETATM   19  C   UNL     1      -8.667   6.694  69.122  1.00  0.00    -0.130 C  
HETATM   20  C   UNL     1      -6.329   8.167  67.779  1.00  0.00    -0.053 C  
ENDROOT
BRANCH   4  21
HETATM   21  C   UNL     1     -10.471  11.310  68.242  1.00  0.00    -0.196 C  
HETATM   22  O   UNL     1     -11.075  12.289  67.783  1.00  0.00    -0.228 OA 
HETATM   23  C   UNL     1     -10.875  10.890  69.628  1.00  0.00    -0.271 C  
ENDBRANCH   4  21
BRANCH   4  24
HETATM   24  O   UNL     1      -8.422  11.870  67.569  1.00  0.00    -0.147 OA 
BRANCH  24  25
HETATM   25  C   UNL     1      -7.704  12.215  68.670  1.00  0.00    -0.089 C  
HETATM   26  O   UNL     1      -7.083  11.443  69.381  1.00  0.00    -0.115 OA 
BRANCH  25  27
HETATM   27  C   UNL     1      -7.637  13.729  68.760  1.00  0.00    -0.099 C  
BRANCH  27  28
HETATM   28  C   UNL     1      -8.151  14.429  67.521  1.00  0.00    -0.204 C  
BRANCH  28  29
HETATM   29  C   UNL     1      -7.288  15.627  67.140  1.00  0.00    -0.247 C  
BRANCH  29  30
HETATM   30  C   UNL     1      -8.086  16.620  66.305  1.00  0.00    -0.361 C  
HETATM   31  C   UNL     1      -7.266  17.862  66.002  1.00  0.00    -0.325 C  
ENDBRANCH  29  30
ENDBRANCH  28  29
ENDBRANCH  27  28
ENDBRANCH  25  27
ENDBRANCH  24  25
ENDBRANCH   4  24
TORSDOF 7
ENDMDL
MODEL       95
REMARK 921   NORMALIZED FREE ENERGY PREDICTED BY IDOCK:   -2.91 KCAL/MOL
REMARK 922        TOTAL FREE ENERGY PREDICTED BY IDOCK:   -4.30 KCAL/MOL
REMARK 923 INTER-LIGAND FREE ENERGY PREDICTED BY IDOCK:   -5.22 KCAL/MOL
REMARK 924 INTRA-LIGAND FREE ENERGY PREDICTED BY IDOCK:    0.92 KCAL/MOL
REMARK 927      BINDING AFFINITY PREDICTED BY RF-SCORE:    0.00 PKD
ROOT
HETATM    1  C   UNL     1     -10.271   9.179  71.274  1.00  0.00    -0.400 C  
HETATM    2  C   UNL     1     -11.108  10.180  70.720  1.00  0.00    -0.372 C  
HETATM    3  C   UNL     1     -11.399   8.775  70.332  1.00  0.00    -0.213 C  
HETATM    4  C   UNL     1     -10.375   7.354  71.418  1.00  0.00    -0.194 C  
HETATM    5  C   UNL     1      -7.326   8.708  67.632  1.00  0.00    -0.089 C  
HETATM    6  C   UNL     1      -8.490   8.039  65.116  1.00  0.00    -0.117 C  
HETATM    7  C   UNL     1     -11.650   7.806  71.522  1.00  0.00    -0.303 C  
HETATM    8  C   UNL     1     -12.596   7.995  72.695  1.00  0.00    -0.048 C  
HETATM    9  O   UNL     1      -6.188   8.047  64.416  1.00  0.00    -0.055 OA 
HETATM   10  C   UNL     1      -6.930   9.422  68.903  1.00  0.00    -0.063 C  
HETATM   11  C   UNL     1      -9.000   7.228  66.301  1.00  0.00    -0.185 C  
HETATM   12  C   UNL     1     -12.024   6.752  70.026  1.00  0.00    -0.179 C  
HETATM   13  C   UNL     1     -10.666   6.669  68.942  1.00  0.00    -0.304 C  
HETATM   14  C   UNL     1      -7.028   8.314  65.265  1.00  0.00    -0.066 C  
HETATM   15  C   UNL     1      -6.662   9.017  66.503  1.00  0.00    -0.075 C  
HETATM   16  C   UNL     1      -7.586   6.315  68.182  1.00  0.00    -0.102 C  
HETATM   17  C   UNL     1      -9.552   7.920  68.713  1.00  0.00    -0.152 C  
HETATM   18  C   UNL     1      -9.024   8.681  70.060  1.00  0.00    -0.148 C  
HETATM   19  C   UNL     1      -8.367   7.563  67.711  1.00  0.00    -0.119 C  
HETATM   20  C   UNL     1      -8.129   9.871  69.725  1.00  0.00    -0.185 C  
ENDROOT
BRANCH   4  21
HETATM   21  C   UNL     1     -10.598   5.799  71.865  1.00  0.00    -0.232 C  
HETATM   22  O   UNL     1     -11.167   5.446  72.907  1.00  0.00    -0.280 OA 
HETATM   23  C   UNL     1     -10.025   4.690  71.028  1.00  0.00    -0.270 C  
ENDBRANCH   4  21
BRANCH   4  24
HETATM   24  O   UNL     1      -9.923   7.659  72.891  1.00  0.00    -0.211 OA 
BRANCH  24  25
HETATM   25  C   UNL     1      -8.623   7.848  73.235  1.00  0.00    -0.218 C  
HETATM   26  O   UNL     1      -8.217   8.646  74.064  1.00  0.00    -0.359 OA 
BRANCH  25  27
HETATM   27  C   UNL     1      -7.777   6.775  72.571  1.00  0.00    -0.096 C  
BRANCH  27  28
HETATM   28  C   UNL     1      -7.307   5.702  73.529  1.00  0.00    -0.087 C  
BRANCH  28  29
HETATM   29  C   UNL     1      -7.020   4.384  72.816  1.00  0.00    -0.062 C  
BRANCH  29  30
HETATM   30  C   UNL     1      -5.950   4.573  71.748  1.00  0.00    -0.017 C  
HETATM   31  C   UNL     1      -6.203   3.666  70.557  1.00  0.00    -0.019 C  
ENDBRANCH  29  30
ENDBRANCH  28  29
ENDBRANCH  27  28
ENDBRANCH  25  27
ENDBRANCH  24  25
ENDBRANCH   4  24
TORSDOF 7
ENDMDL
MODEL       96
REMARK 921   NORMALIZED FREE ENERGY PREDICTED BY IDOCK:   -2.84 KCAL/MOL
REMARK 922        TOTAL FREE ENERGY PREDICTED BY IDOCK:   -4.21 KCAL/MOL
REMARK 923 INTER-LIGAND FREE ENERGY PREDICTED BY IDOCK:   -4.34 KCAL/MOL
REMARK 924 INTRA-LIGAND FREE ENERGY PREDICTED BY IDOCK:    0.13 KCAL/MOL
REMARK 927      BINDING AFFINITY PREDICTED BY RF-SCORE:    0.00 PKD
ROOT
HETATM    1  C   UNL     1     -10.368   9.744  68.951  1.00  0.00    -0.225 C  
HETATM    2  C   UNL     1     -10.958  10.716  69.798  1.00  0.00    -0.340 C  
HETATM    3  C   UNL     1      -9.532  10.385  70.052  1.00  0.00     0.179 C  
HETATM    4  C   UNL     1      -8.646   9.227  68.596  1.00  0.00    -0.127 C  
HETATM    5  C   UNL     1     -10.884   6.019  71.784  1.00  0.00    -0.312 C  
HETATM    6  C   UNL     1      -9.723   6.209  74.381  1.00  0.00    -0.265 C  
HETATM    7  C   UNL     1      -8.590  10.563  68.827  1.00  0.00    -0.146 C  
HETATM    8  C   UNL     1      -8.459  11.773  67.920  1.00  0.00    -0.154 C  
HETATM    9  O   UNL     1     -10.565   3.963  74.566  1.00  0.00    -0.215 OA 
HETATM   10  C   UNL     1     -11.747   6.230  70.561  1.00  0.00    -0.289 C  
HETATM   11  C   UNL     1      -8.830   6.675  73.237  1.00  0.00    -0.136 C  
HETATM   12  C   UNL     1      -7.411  10.156  70.218  1.00  0.00    -0.077 C  
HETATM   13  C   UNL     1      -7.798   8.634  70.965  1.00  0.00    -0.128 C  
HETATM   14  C   UNL     1     -10.532   5.025  73.959  1.00  0.00    -0.279 C  
HETATM   15  C   UNL     1     -11.372   5.250  72.774  1.00  0.00    -0.342 C  
HETATM   16  C   UNL     1      -8.594   5.543  70.994  1.00  0.00    -0.126 C  
HETATM   17  C   UNL     1      -9.365   8.015  71.112  1.00  0.00    -0.176 C  
HETATM   18  C   UNL     1     -10.324   8.142  69.794  1.00  0.00    -0.216 C  
HETATM   19  C   UNL     1      -9.437   6.573  71.780  1.00  0.00    -0.155 C  
HETATM   20  C   UNL     1     -11.748   7.674  70.081  1.00  0.00     0.081 C  
ENDROOT
BRANCH   4  21
HETATM   21  C   UNL     1      -7.141   8.988  68.007  1.00  0.00    -0.079 C  
HETATM   22  O   UNL     1      -6.465   9.858  67.442  1.00  0.00    -0.067 OA 
HETATM   23  C   UNL     1      -6.523   7.619  68.064  1.00  0.00    -0.054 C  
ENDBRANCH   4  21
BRANCH   4  24
HETATM   24  O   UNL     1      -9.159   9.293  67.113  1.00  0.00    -0.128 OA 
BRANCH  24  25
HETATM   25  C   UNL     1      -9.250   8.194  66.319  1.00  0.00    -0.191 C  
HETATM   26  O   UNL     1      -9.742   7.125  66.642  1.00  0.00    -0.182 OA 
BRANCH  25  27
HETATM   27  C   UNL     1      -8.823   8.566  64.910  1.00  0.00    -0.029 C  
BRANCH  27  28
HETATM   28  C   UNL     1      -8.278   7.397  64.119  1.00  0.00     0.035 C  
BRANCH  28  29
HETATM   29  C   UNL     1      -6.851   7.046  64.525  1.00  0.00    -0.050 C  
BRANCH  29  30
HETATM   30  C   UNL     1      -5.848   7.895  63.755  1.00  0.00    -0.057 C  
HETATM   31  C   UNL     1      -6.369   8.232  62.370  1.00  0.00    -0.088 C  
ENDBRANCH  29  30
ENDBRANCH  28  29
ENDBRANCH  27  28
ENDBRANCH  25  27
ENDBRANCH  24  25
ENDBRANCH   4  24
TORSDOF 7
ENDMDL
MODEL       97
REMARK 921   NORMALIZED FREE ENERGY PREDICTED BY IDOCK:   -2.76 KCAL/MOL
REMARK 922        TOTAL FREE ENERGY PREDICTED BY IDOCK:   -4.09 KCAL/MOL
REMARK 923 INTER-LIGAND FREE ENERGY PREDICTED BY IDOCK:   -4.84 KCAL/MOL
REMARK 924 INTRA-LIGAND FREE ENERGY PREDICTED BY IDOCK:    0.75 KCAL/MOL
REMARK 927      BINDING AFFINITY PREDICTED BY RF-SCORE:    0.00 PKD
ROOT
HETATM    1  C   UNL     1      -6.969   7.068  67.661  1.00  0.00    -0.083 C  
HETATM    2  C   UNL     1      -5.658   6.780  68.115  1.00  0.00    -0.016 C  
HETATM    3  C   UNL     1      -6.506   5.619  67.740  1.00  0.00    -0.047 C  
HETATM    4  C   UNL     1      -8.262   6.113  66.781  1.00  0.00    -0.109 C  
HETATM    5  C   UNL     1      -9.235   6.360  71.726  1.00  0.00    -0.143 C  
HETATM    6  C   UNL     1      -8.926   3.799  72.941  1.00  0.00    -0.109 C  
HETATM    7  C   UNL     1      -7.077   5.666  66.294  1.00  0.00    -0.072 C  
HETATM    8  C   UNL     1      -6.321   5.915  65.001  1.00  0.00    -0.037 C  
HETATM    9  O   UNL     1     -10.444   4.740  74.552  1.00  0.00    -0.269 OA 
HETATM   10  C   UNL     1      -8.984   7.743  71.172  1.00  0.00    -0.146 C  
HETATM   11  C   UNL     1      -9.206   3.775  71.443  1.00  0.00    -0.193 C  
HETATM   12  C   UNL     1      -7.594   3.978  66.903  1.00  0.00    -0.084 C  
HETATM   13  C   UNL     1      -8.547   4.082  68.354  1.00  0.00    -0.113 C  
HETATM   14  C   UNL     1      -9.697   4.899  73.596  1.00  0.00    -0.137 C  
HETATM   15  C   UNL     1      -9.432   6.239  73.051  1.00  0.00    -0.145 C  
HETATM   16  C   UNL     1     -10.852   5.251  70.226  1.00  0.00    -0.105 C  
HETATM   17  C   UNL     1      -8.354   5.274  69.538  1.00  0.00    -0.095 C  
HETATM   18  C   UNL     1      -8.155   6.805  69.003  1.00  0.00    -0.117 C  
HETATM   19  C   UNL     1      -9.396   5.178  70.737  1.00  0.00    -0.210 C  
HETATM   20  C   UNL     1      -7.860   7.773  70.146  1.00  0.00    -0.095 C  
ENDROOT
BRANCH   4  21
HETATM   21  C   UNL     1      -9.279   5.414  65.710  1.00  0.00    -0.138 C  
HETATM   22  O   UNL     1      -9.103   5.401  64.484  1.00  0.00     0.020 OA 
HETATM   23  C   UNL     1     -10.565   4.800  66.189  1.00  0.00    -0.282 C  
ENDBRANCH   4  21
BRANCH   4  24
HETATM   24  O   UNL     1      -8.355   7.430  65.930  1.00  0.00    -0.126 OA 
BRANCH  24  25
HETATM   25  C   UNL     1      -9.380   8.312  66.055  1.00  0.00    -0.149 C  
HETATM   26  O   UNL     1     -10.323   8.200  66.820  1.00  0.00    -0.311 OA 
BRANCH  25  27
HETATM   27  C   UNL     1      -9.067   9.552  65.235  1.00  0.00    -0.276 C  
BRANCH  27  28
HETATM   28  C   UNL     1     -10.212  10.540  65.177  1.00  0.00    -0.358 C  
BRANCH  28  29
HETATM   29  C   UNL     1      -9.734  11.952  64.854  1.00  0.00    -0.158 C  
BRANCH  29  30
HETATM   30  C   UNL     1     -10.913  12.913  64.773  1.00  0.00    -0.344 C  
HETATM   31  C   UNL     1     -10.439  14.354  64.711  1.00  0.00    -0.394 C  
ENDBRANCH  29  30
ENDBRANCH  28  29
ENDBRANCH  27  28
ENDBRANCH  25  27
ENDBRANCH  24  25
ENDBRANCH   4  24
TORSDOF 7
ENDMDL
MODEL       98
REMARK 921   NORMALIZED FREE ENERGY PREDICTED BY IDOCK:   -2.74 KCAL/MOL
REMARK 922        TOTAL FREE ENERGY PREDICTED BY IDOCK:   -4.07 KCAL/MOL
REMARK 923 INTER-LIGAND FREE ENERGY PREDICTED BY IDOCK:   -4.51 KCAL/MOL
REMARK 924 INTRA-LIGAND FREE ENERGY PREDICTED BY IDOCK:    0.45 KCAL/MOL
REMARK 927      BINDING AFFINITY PREDICTED BY RF-SCORE:    0.00 PKD
ROOT
HETATM    1  C   UNL     1      -6.821   7.073  67.833  1.00  0.00    -0.077 C  
HETATM    2  C   UNL     1      -5.603   6.562  68.348  1.00  0.00    -0.012 C  
HETATM    3  C   UNL     1      -6.619   5.566  67.920  1.00  0.00    -0.053 C  
HETATM    4  C   UNL     1      -8.214   6.356  66.881  1.00  0.00    -0.110 C  
HETATM    5  C   UNL     1      -9.374   6.760  71.776  1.00  0.00    -0.147 C  
HETATM    6  C   UNL     1      -9.570   4.181  72.978  1.00  0.00    -0.158 C  
HETATM    7  C   UNL     1      -7.101   5.713  66.448  1.00  0.00    -0.072 C  
HETATM    8  C   UNL     1      -6.250   5.830  65.196  1.00  0.00    -0.036 C  
HETATM    9  O   UNL     1     -10.982   5.368  74.523  1.00  0.00    -0.103 OA 
HETATM   10  C   UNL     1      -8.861   8.080  71.249  1.00  0.00    -0.163 C  
HETATM   11  C   UNL     1      -9.775   4.209  71.468  1.00  0.00    -0.243 C  
HETATM   12  C   UNL     1      -7.930   4.137  67.015  1.00  0.00    -0.097 C  
HETATM   13  C   UNL     1      -8.922   4.402  68.419  1.00  0.00    -0.149 C  
HETATM   14  C   UNL     1     -10.172   5.397  73.606  1.00  0.00    -0.214 C  
HETATM   15  C   UNL     1      -9.654   6.672  73.089  1.00  0.00    -0.170 C  
HETATM   16  C   UNL     1     -11.081   5.948  70.189  1.00  0.00    -0.395 C  
HETATM   17  C   UNL     1      -8.585   5.541  69.622  1.00  0.00    -0.108 C  
HETATM   18  C   UNL     1      -8.100   7.017  69.113  1.00  0.00    -0.121 C  
HETATM   19  C   UNL     1      -9.686   5.624  70.768  1.00  0.00    -0.228 C  
HETATM   20  C   UNL     1      -7.700   7.917  70.279  1.00  0.00    -0.088 C  
ENDROOT
BRANCH   4  21
HETATM   21  C   UNL     1      -9.281   5.845  65.755  1.00  0.00    -0.041 C  
HETATM   22  O   UNL     1      -9.019   5.710  64.553  1.00  0.00     0.054 OA 
HETATM   23  C   UNL     1     -10.709   5.580  66.143  1.00  0.00    -0.097 C  
ENDBRANCH   4  21
BRANCH   4  24
HETATM   24  O   UNL     1      -8.036   7.671  66.041  1.00  0.00    -0.106 OA 
BRANCH  24  25
HETATM   25  C   UNL     1      -8.991   8.636  65.978  1.00  0.00    -0.184 C  
HETATM   26  O   UNL     1      -9.534   9.031  64.960  1.00  0.00    -0.090 OA 
BRANCH  25  27
HETATM   27  C   UNL     1      -9.414   9.002  67.390  1.00  0.00    -0.179 C  
BRANCH  27  28
HETATM   28  C   UNL     1     -10.402  10.147  67.444  1.00  0.00    -0.289 C  
BRANCH  28  29
HETATM   29  C   UNL     1     -11.419   9.975  68.567  1.00  0.00    -0.024 C  
BRANCH  29  30
HETATM   30  C   UNL     1     -10.777  10.256  69.920  1.00  0.00    -0.344 C  
HETATM   31  C   UNL     1     -11.823  10.303  71.020  1.00  0.00    -0.472 C  
ENDBRANCH  29  30
ENDBRANCH  28  29
ENDBRANCH  27  28
ENDBRANCH  25  27
ENDBRANCH  24  25
ENDBRANCH   4  24
TORSDOF 7
ENDMDL
MODEL       99
REMARK 921   NORMALIZED FREE ENERGY PREDICTED BY IDOCK:   -2.69 KCAL/MOL
REMARK 922        TOTAL FREE ENERGY PREDICTED BY IDOCK:   -3.99 KCAL/MOL
REMARK 923 INTER-LIGAND FREE ENERGY PREDICTED BY IDOCK:   -5.16 KCAL/MOL
REMARK 924 INTRA-LIGAND FREE ENERGY PREDICTED BY IDOCK:    1.17 KCAL/MOL
REMARK 927      BINDING AFFINITY PREDICTED BY RF-SCORE:    0.00 PKD
ROOT
HETATM    1  C   UNL     1      -9.902  15.848  66.498  1.00  0.00    -0.277 C  
HETATM    2  C   UNL     1     -11.042  16.263  65.765  1.00  0.00     0.059 C  
HETATM    3  C   UNL     1     -10.645  17.110  66.919  1.00  0.00    -0.209 C  
HETATM    4  C   UNL     1      -8.807  16.649  67.731  1.00  0.00    -0.206 C  
HETATM    5  C   UNL     1     -12.146  13.604  69.975  1.00  0.00    -0.417 C  
HETATM    6  C   UNL     1     -14.045  15.120  71.468  1.00  0.00    -0.636 C  
HETATM    7  C   UNL     1      -9.180  17.633  66.874  1.00  0.00    -0.270 C  
HETATM    8  C   UNL     1      -8.478  18.339  65.728  1.00  0.00     0.346 C  
HETATM    9  O   UNL     1     -14.239  13.059  72.694  1.00  0.00    -0.609 OA 
HETATM   10  C   UNL     1     -11.424  12.866  68.872  1.00  0.00    -0.350 C  
HETATM   11  C   UNL     1     -12.714  15.818  71.214  1.00  0.00    -0.498 C  
HETATM   12  C   UNL     1      -9.899  18.501  68.364  1.00  0.00    -0.404 C  
HETATM   13  C   UNL     1     -10.517  17.369  69.531  1.00  0.00     0.028 C  
HETATM   14  C   UNL     1     -13.827  13.661  71.712  1.00  0.00    -0.278 C  
HETATM   15  C   UNL     1     -13.132  12.957  70.624  1.00  0.00     0.221 C  
HETATM   16  C   UNL     1     -10.435  14.742  71.342  1.00  0.00     1.264 C  
HETATM   17  C   UNL     1     -11.201  15.873  69.139  1.00  0.00    -0.334 C  
HETATM   18  C   UNL     1     -10.420  14.991  68.006  1.00  0.00    -0.242 C  
HETATM   19  C   UNL     1     -11.632  15.002  70.399  1.00  0.00    -0.330 C  
HETATM   20  C   UNL     1     -11.193  13.727  67.638  1.00  0.00    -0.316 C  
ENDROOT
BRANCH   4  21
HETATM   21  C   UNL     1      -7.630  17.432  68.549  1.00  0.00    -0.254 C  
HETATM   22  O   UNL     1      -7.145  17.043  69.620  1.00  0.00    -0.100 OA 
HETATM   23  C   UNL     1      -7.121  18.754  68.047  1.00  0.00    -0.255 C  
ENDBRANCH   4  21
BRANCH   4  24
HETATM   24  O   UNL     1      -7.687  16.007  66.837  1.00  0.00    -0.208 OA 
BRANCH  24  25
HETATM   25  C   UNL     1      -6.766  15.137  67.328  1.00  0.00     0.010 C  
HETATM   26  O   UNL     1      -5.561  15.320  67.353  1.00  0.00    -0.338 OA 
BRANCH  25  27
HETATM   27  C   UNL     1      -7.488  13.992  68.017  1.00  0.00    -0.141 C  
BRANCH  27  28
HETATM   28  C   UNL     1      -7.211  12.642  67.390  1.00  0.00    -0.138 C  
BRANCH  28  29
HETATM   29  C   UNL     1      -8.493  11.860  67.123  1.00  0.00    -0.173 C  
BRANCH  29  30
HETATM   30  C   UNL     1      -8.569  11.436  65.662  1.00  0.00     0.044 C  
HETATM   31  C   UNL     1      -8.214   9.968  65.502  1.00  0.00    -0.146 C  
ENDBRANCH  29  30
ENDBRANCH  28  29
ENDBRANCH  27  28
ENDBRANCH  25  27
ENDBRANCH  24  25
ENDBRANCH   4  24
TORSDOF 7
ENDMDL
MODEL      100
REMARK 921   NORMALIZED FREE ENERGY PREDICTED BY IDOCK:   -2.59 KCAL/MOL
REMARK 922        TOTAL FREE ENERGY PREDICTED BY IDOCK:   -3.85 KCAL/MOL
REMARK 923 INTER-LIGAND FREE ENERGY PREDICTED BY IDOCK:   -4.27 KCAL/MOL
REMARK 924 INTRA-LIGAND FREE ENERGY PREDICTED BY IDOCK:    0.41 KCAL/MOL
REMARK 927      BINDING AFFINITY PREDICTED BY RF-SCORE:    0.00 PKD
ROOT
HETATM    1  C   UNL     1      -9.972   5.805  68.038  1.00  0.00    -0.173 C  
HETATM    2  C   UNL     1     -11.034   5.901  67.105  1.00  0.00    -0.289 C  
HETATM    3  C   UNL     1      -9.655   5.988  66.560  1.00  0.00    -0.182 C  
HETATM    4  C   UNL     1      -8.167   5.511  67.904  1.00  0.00    -0.100 C  
HETATM    5  C   UNL     1      -9.166  10.411  68.581  1.00  0.00    -0.164 C  
HETATM    6  C   UNL     1      -8.558  11.896  66.224  1.00  0.00    -0.016 C  
HETATM    7  C   UNL     1      -8.734   4.783  66.910  1.00  0.00    -0.107 C  
HETATM    8  C   UNL     1      -9.031   3.304  66.739  1.00  0.00    -0.170 C  
HETATM    9  O   UNL     1      -8.343  13.696  67.805  1.00  0.00    -0.153 OA 
HETATM   10  C   UNL     1      -9.865   9.584  69.635  1.00  0.00    -0.220 C  
HETATM   11  C   UNL     1      -7.819  10.570  66.363  1.00  0.00    -0.138 C  
HETATM   12  C   UNL     1      -7.691   5.791  65.733  1.00  0.00    -0.095 C  
HETATM   13  C   UNL     1      -7.464   7.418  66.306  1.00  0.00    -0.083 C  
HETATM   14  C   UNL     1      -8.701  12.552  67.560  1.00  0.00    -0.182 C  
HETATM   15  C   UNL     1      -9.392  11.737  68.570  1.00  0.00    -0.158 C  
HETATM   16  C   UNL     1      -6.818   9.654  68.490  1.00  0.00    -0.057 C  
HETATM   17  C   UNL     1      -8.604   8.276  67.213  1.00  0.00    -0.124 C  
HETATM   18  C   UNL     1      -9.339   7.457  68.421  1.00  0.00    -0.144 C  
HETATM   19  C   UNL     1      -8.122   9.724  67.664  1.00  0.00    -0.113 C  
HETATM   20  C   UNL     1     -10.437   8.286  69.083  1.00  0.00    -0.217 C  
ENDROOT
BRANCH   4  21
HETATM   21  C   UNL     1      -6.648   4.914  67.847  1.00  0.00    -0.050 C  
HETATM   22  O   UNL     1      -6.367   3.738  67.580  1.00  0.00    -0.035 OA 
HETATM   23  C   UNL     1      -5.484   5.794  68.209  1.00  0.00    -0.008 C  
ENDBRANCH   4  21
BRANCH   4  24
HETATM   24  O   UNL     1      -8.458   4.515  69.084  1.00  0.00    -0.078 OA 
BRANCH  24  25
HETATM   25  C   UNL     1      -8.628   4.928  70.367  1.00  0.00    -0.099 C  
HETATM   26  O   UNL     1      -9.557   4.619  71.094  1.00  0.00    -0.149 OA 
BRANCH  25  27
HETATM   27  C   UNL     1      -7.383   5.674  70.814  1.00  0.00    -0.084 C  
BRANCH  27  28
HETATM   28  C   UNL     1      -7.516   6.299  72.185  1.00  0.00    -0.094 C  
BRANCH  28  29
HETATM   29  C   UNL     1      -7.901   7.773  72.108  1.00  0.00    -0.122 C  
BRANCH  29  30
HETATM   30  C   UNL     1      -8.961   8.107  73.150  1.00  0.00    -0.330 C  
HETATM   31  C   UNL     1     -10.299   7.489  72.784  1.00  0.00    -0.331 C  
ENDBRANCH  29  30
ENDBRANCH  28  29
ENDBRANCH  27  28
ENDBRANCH  25  27
ENDBRANCH  24  25
ENDBRANCH   4  24
TORSDOF 7
ENDMDL
MODEL      101
REMARK 921   NORMALIZED FREE ENERGY PREDICTED BY IDOCK:   -2.54 KCAL/MOL
REMARK 922        TOTAL FREE ENERGY PREDICTED BY IDOCK:   -3.78 KCAL/MOL
REMARK 923 INTER-LIGAND FREE ENERGY PREDICTED BY IDOCK:   -4.50 KCAL/MOL
REMARK 924 INTRA-LIGAND FREE ENERGY PREDICTED BY IDOCK:    0.72 KCAL/MOL
REMARK 927      BINDING AFFINITY PREDICTED BY RF-SCORE:    0.00 PKD
ROOT
HETATM    1  C   UNL     1      -7.271   7.458  68.846  1.00  0.00    -0.089 C  
HETATM    2  C   UNL     1      -5.974   7.708  68.330  1.00  0.00    -0.036 C  
HETATM    3  C   UNL     1      -7.120   8.216  67.533  1.00  0.00    -0.083 C  
HETATM    4  C   UNL     1      -8.943   8.118  68.490  1.00  0.00    -0.137 C  
HETATM    5  C   UNL     1      -8.256   3.628  66.292  1.00  0.00    -0.100 C  
HETATM    6  C   UNL     1      -8.128   3.906  63.456  1.00  0.00    -0.089 C  
HETATM    7  C   UNL     1      -8.090   9.156  68.306  1.00  0.00    -0.104 C  
HETATM    8  C   UNL     1      -7.739  10.377  69.138  1.00  0.00    -0.126 C  
HETATM    9  O   UNL     1      -8.837   1.608  63.525  1.00  0.00    -0.085 OA 
HETATM   10  C   UNL     1      -7.905   3.551  67.759  1.00  0.00    -0.076 C  
HETATM   11  C   UNL     1      -8.858   5.028  64.185  1.00  0.00    -0.050 C  
HETATM   12  C   UNL     1      -8.733   9.226  66.553  1.00  0.00    -0.145 C  
HETATM   13  C   UNL     1      -9.143   7.644  65.956  1.00  0.00    -0.152 C  
HETATM   14  C   UNL     1      -8.409   2.592  64.112  1.00  0.00    -0.083 C  
HETATM   15  C   UNL     1      -8.052   2.533  65.537  1.00  0.00    -0.084 C  
HETATM   16  C   UNL     1     -10.454   4.739  66.118  1.00  0.00    -0.332 C  
HETATM   17  C   UNL     1      -8.346   6.221  66.401  1.00  0.00    -0.118 C  
HETATM   18  C   UNL     1      -8.008   6.043  67.991  1.00  0.00    -0.109 C  
HETATM   19  C   UNL     1      -8.960   4.901  65.757  1.00  0.00    -0.142 C  
HETATM   20  C   UNL     1      -7.177   4.791  68.257  1.00  0.00    -0.065 C  
ENDROOT
BRANCH   4  21
HETATM   21  C   UNL     1     -10.365   8.921  68.443  1.00  0.00    -0.200 C  
HETATM   22  O   UNL     1     -11.380   8.513  67.862  1.00  0.00     0.452 OA 
HETATM   23  C   UNL     1     -10.476  10.284  69.067  1.00  0.00    -0.238 C  
ENDBRANCH   4  21
BRANCH   4  24
HETATM   24  O   UNL     1      -9.017   8.183  70.057  1.00  0.00    -0.141 OA 
BRANCH  24  25
HETATM   25  C   UNL     1      -9.895   7.440  70.781  1.00  0.00    -0.178 C  
HETATM   26  O   UNL     1     -10.185   6.276  70.564  1.00  0.00    -0.184 OA 
BRANCH  25  27
HETATM   27  C   UNL     1     -10.307   8.226  72.014  1.00  0.00    -0.350 C  
BRANCH  27  28
HETATM   28  C   UNL     1     -11.702   7.898  72.498  1.00  0.00    -0.423 C  
BRANCH  28  29
HETATM   29  C   UNL     1     -12.586   9.138  72.583  1.00  0.00    -0.204 C  
BRANCH  29  30
HETATM   30  C   UNL     1     -13.656   9.111  71.499  1.00  0.00    -0.406 C  
HETATM   31  C   UNL     1     -14.163   7.698  71.269  1.00  0.00    -0.427 C  
ENDBRANCH  29  30
ENDBRANCH  28  29
ENDBRANCH  27  28
ENDBRANCH  25  27
ENDBRANCH  24  25
ENDBRANCH   4  24
TORSDOF 7
ENDMDL
MODEL      102
REMARK 921   NORMALIZED FREE ENERGY PREDICTED BY IDOCK:   -2.46 KCAL/MOL
REMARK 922        TOTAL FREE ENERGY PREDICTED BY IDOCK:   -3.67 KCAL/MOL
REMARK 923 INTER-LIGAND FREE ENERGY PREDICTED BY IDOCK:   -4.14 KCAL/MOL
REMARK 924 INTRA-LIGAND FREE ENERGY PREDICTED BY IDOCK:    0.47 KCAL/MOL
REMARK 927      BINDING AFFINITY PREDICTED BY RF-SCORE:    0.00 PKD
ROOT
HETATM    1  C   UNL     1      -7.644   8.881  69.629  1.00  0.00    -0.072 C  
HETATM    2  C   UNL     1      -6.472   9.024  70.413  1.00  0.00    -0.046 C  
HETATM    3  C   UNL     1      -6.430   8.011  69.327  1.00  0.00    -0.036 C  
HETATM    4  C   UNL     1      -8.024   8.083  68.023  1.00  0.00    -0.128 C  
HETATM    5  C   UNL     1      -9.486   5.182  71.885  1.00  0.00    -0.184 C  
HETATM    6  C   UNL     1      -7.864   2.842  72.054  1.00  0.00    -0.054 C  
HETATM    7  C   UNL     1      -6.759   8.559  67.908  1.00  0.00    -0.066 C  
HETATM    8  C   UNL     1      -6.159   9.768  67.214  1.00  0.00    -0.055 C  
HETATM    9  O   UNL     1      -9.809   1.970  73.169  1.00  0.00    -0.087 OA 
HETATM   10  C   UNL     1     -10.036   6.580  72.042  1.00  0.00    -0.201 C  
HETATM   11  C   UNL     1      -7.913   3.498  70.680  1.00  0.00    -0.056 C  
HETATM   12  C   UNL     1      -6.247   6.793  67.578  1.00  0.00    -0.040 C  
HETATM   13  C   UNL     1      -7.230   5.662  68.462  1.00  0.00    -0.075 C  
HETATM   14  C   UNL     1      -9.200   2.931  72.719  1.00  0.00    -0.087 C  
HETATM   15  C   UNL     1      -9.716   4.299  72.873  1.00  0.00    -0.172 C  
HETATM   16  C   UNL     1      -9.968   4.458  69.574  1.00  0.00    -0.187 C  
HETATM   17  C   UNL     1      -7.903   5.971  69.982  1.00  0.00    -0.105 C  
HETATM   18  C   UNL     1      -8.586   7.441  70.191  1.00  0.00    -0.139 C  
HETATM   19  C   UNL     1      -8.813   4.791  70.545  1.00  0.00    -0.142 C  
HETATM   20  C   UNL     1      -9.042   7.656  71.632  1.00  0.00    -0.157 C  
ENDROOT
BRANCH   4  21
HETATM   21  C   UNL     1      -8.313   7.695  66.463  1.00  0.00    -0.129 C  
HETATM   22  O   UNL     1      -7.735   8.209  65.496  1.00  0.00    -0.086 OA 
HETATM   23  C   UNL     1      -9.396   6.710  66.124  1.00  0.00    -0.097 C  
ENDBRANCH   4  21
BRANCH   4  24
HETATM   24  O   UNL     1      -8.780   9.437  67.772  1.00  0.00    -0.117 OA 
BRANCH  24  25
HETATM   25  C   UNL     1     -10.127   9.558  67.901  1.00  0.00    -0.191 C  
HETATM   26  O   UNL     1     -10.750   9.477  68.946  1.00  0.00    -0.222 OA 
BRANCH  25  27
HETATM   27  C   UNL     1     -10.711  10.006  66.572  1.00  0.00    -0.094 C  
BRANCH  27  28
HETATM   28  C   UNL     1      -9.900  11.088  65.893  1.00  0.00    -0.278 C  
BRANCH  28  29
HETATM   29  C   UNL     1     -10.403  11.381  64.483  1.00  0.00    -0.369 C  
BRANCH  29  30
HETATM   30  C   UNL     1      -9.256  11.332  63.482  1.00  0.00    -0.154 C  
HETATM   31  C   UNL     1      -9.191   9.981  62.793  1.00  0.00    -0.313 C  
ENDBRANCH  29  30
ENDBRANCH  28  29
ENDBRANCH  27  28
ENDBRANCH  25  27
ENDBRANCH  24  25
ENDBRANCH   4  24
TORSDOF 7
ENDMDL
MODEL      103
REMARK 921   NORMALIZED FREE ENERGY PREDICTED BY IDOCK:   -2.45 KCAL/MOL
REMARK 922        TOTAL FREE ENERGY PREDICTED BY IDOCK:   -3.66 KCAL/MOL
REMARK 923 INTER-LIGAND FREE ENERGY PREDICTED BY IDOCK:   -4.57 KCAL/MOL
REMARK 924 INTRA-LIGAND FREE ENERGY PREDICTED BY IDOCK:    0.91 KCAL/MOL
REMARK 927      BINDING AFFINITY PREDICTED BY RF-SCORE:    0.00 PKD
ROOT
HETATM    1  C   UNL     1      -7.662   8.244  65.967  1.00  0.00    -0.093 C  
HETATM    2  C   UNL     1      -6.762   8.642  64.946  1.00  0.00    -0.068 C  
HETATM    3  C   UNL     1      -6.465   9.116  66.323  1.00  0.00    -0.066 C  
HETATM    4  C   UNL     1      -7.605   8.239  67.798  1.00  0.00    -0.102 C  
HETATM    5  C   UNL     1     -10.289  12.149  66.074  1.00  0.00    -0.268 C  
HETATM    6  C   UNL     1      -8.924  14.603  66.573  1.00  0.00    -0.236 C  
HETATM    7  C   UNL     1      -6.336   7.991  67.389  1.00  0.00    -0.056 C  
HETATM    8  C   UNL     1      -5.492   6.731  67.317  1.00  0.00    -0.013 C  
HETATM    9  O   UNL     1     -11.156  15.492  66.451  1.00  0.00    -0.283 OA 
HETATM   10  C   UNL     1     -10.780  10.862  65.453  1.00  0.00    -0.189 C  
HETATM   11  C   UNL     1      -8.534  13.447  67.487  1.00  0.00    -0.192 C  
HETATM   12  C   UNL     1      -5.853   9.530  68.331  1.00  0.00    -0.040 C  
HETATM   13  C   UNL     1      -7.114  10.728  68.295  1.00  0.00    -0.078 C  
HETATM   14  C   UNL     1     -10.388  14.556  66.274  1.00  0.00    -0.294 C  
HETATM   15  C   UNL     1     -10.847  13.301  65.661  1.00  0.00    -0.291 C  
HETATM   16  C   UNL     1     -10.122  11.773  68.509  1.00  0.00    -0.212 C  
HETATM   17  C   UNL     1      -8.180  10.950  67.001  1.00  0.00    -0.134 C  
HETATM   18  C   UNL     1      -8.808   9.596  66.336  1.00  0.00    -0.168 C  
HETATM   19  C   UNL     1      -9.280  12.074  67.248  1.00  0.00    -0.182 C  
HETATM   20  C   UNL     1      -9.649   9.908  65.100  1.00  0.00    -0.367 C  
ENDROOT
BRANCH   4  21
HETATM   21  C   UNL     1      -7.451   7.901  69.389  1.00  0.00    -0.091 C  
HETATM   22  O   UNL     1      -7.903   8.605  70.301  1.00  0.00    -0.085 OA 
HETATM   23  C   UNL     1      -6.650   6.706  69.827  1.00  0.00    -0.048 C  
ENDBRANCH   4  21
BRANCH   4  24
HETATM   24  O   UNL     1      -8.177   6.790  67.599  1.00  0.00    -0.117 OA 
BRANCH  24  25
HETATM   25  C   UNL     1      -9.488   6.486  67.789  1.00  0.00    -0.119 C  
HETATM   26  O   UNL     1     -10.090   6.573  68.846  1.00  0.00    -0.153 OA 
BRANCH  25  27
HETATM   27  C   UNL     1     -10.130   6.212  66.440  1.00  0.00    -0.119 C  
BRANCH  27  28
HETATM   28  C   UNL     1      -9.782   4.853  65.873  1.00  0.00    -0.197 C  
BRANCH  28  29
HETATM   29  C   UNL     1      -8.715   4.942  64.786  1.00  0.00    -0.154 C  
BRANCH  29  30
HETATM   30  C   UNL     1      -7.575   3.973  65.073  1.00  0.00    -0.077 C  
HETATM   31  C   UNL     1      -7.869   2.599  64.498  1.00  0.00    -0.077 C  
ENDBRANCH  29  30
ENDBRANCH  28  29
ENDBRANCH  27  28
ENDBRANCH  25  27
ENDBRANCH  24  25
ENDBRANCH   4  24
TORSDOF 7
ENDMDL
MODEL      104
REMARK 921   NORMALIZED FREE ENERGY PREDICTED BY IDOCK:   -2.33 KCAL/MOL
REMARK 922        TOTAL FREE ENERGY PREDICTED BY IDOCK:   -3.49 KCAL/MOL
REMARK 923 INTER-LIGAND FREE ENERGY PREDICTED BY IDOCK:   -4.81 KCAL/MOL
REMARK 924 INTRA-LIGAND FREE ENERGY PREDICTED BY IDOCK:    1.33 KCAL/MOL
REMARK 927      BINDING AFFINITY PREDICTED BY RF-SCORE:    0.00 PKD
ROOT
HETATM    1  C   UNL     1      -9.301   7.125  66.952  1.00  0.00    -0.189 C  
HETATM    2  C   UNL     1     -10.460   6.584  66.342  1.00  0.00     0.001 C  
HETATM    3  C   UNL     1     -10.646   7.811  67.159  1.00  0.00    -0.401 C  
HETATM    4  C   UNL     1      -8.895   8.731  67.737  1.00  0.00    -0.136 C  
HETATM    5  C   UNL     1      -9.851   5.199  71.212  1.00  0.00    -0.239 C  
HETATM    6  C   UNL     1     -12.295   5.761  72.571  1.00  0.00     0.106 C  
HETATM    7  C   UNL     1      -9.762   9.019  66.735  1.00  0.00    -0.279 C  
HETATM    8  C   UNL     1      -9.591   9.607  65.346  1.00  0.00    -0.361 C  
HETATM    9  O   UNL     1     -11.263   4.437  74.294  1.00  0.00    -0.207 OA 
HETATM   10  C   UNL     1      -8.822   4.698  70.226  1.00  0.00    -0.122 C  
HETATM   11  C   UNL     1     -11.619   6.966  71.927  1.00  0.00    -0.321 C  
HETATM   12  C   UNL     1     -10.869   9.741  68.055  1.00  0.00    -0.276 C  
HETATM   13  C   UNL     1     -10.723   8.878  69.559  1.00  0.00    -0.206 C  
HETATM   14  C   UNL     1     -11.268   4.832  73.136  1.00  0.00    -0.308 C  
HETATM   15  C   UNL     1     -10.281   4.347  72.161  1.00  0.00    -0.247 C  
HETATM   16  C   UNL     1      -9.143   7.450  71.936  1.00  0.00    -0.146 C  
HETATM   17  C   UNL     1     -10.400   7.223  69.680  1.00  0.00    -0.227 C  
HETATM   18  C   UNL     1      -9.238   6.634  68.693  1.00  0.00    -0.128 C  
HETATM   19  C   UNL     1     -10.256   6.694  71.175  1.00  0.00    -0.216 C  
HETATM   20  C   UNL     1      -9.123   5.115  68.795  1.00  0.00    -0.140 C  
ENDROOT
BRANCH   4  21
HETATM   21  C   UNL     1      -8.405  10.242  68.119  1.00  0.00    -0.118 C  
HETATM   22  O   UNL     1      -8.562  10.768  69.229  1.00  0.00    -0.129 OA 
HETATM   23  C   UNL     1      -7.787  11.117  67.065  1.00  0.00    -0.142 C  
ENDBRANCH   4  21
BRANCH   4  24
HETATM   24  O   UNL     1      -7.600   8.589  66.860  1.00  0.00    -0.089 OA 
BRANCH  24  25
HETATM   25  C   UNL     1      -6.642   7.659  67.111  1.00  0.00    -0.063 C  
HETATM   26  O   UNL     1      -6.490   6.615  66.499  1.00  0.00    -0.041 OA 
BRANCH  25  27
HETATM   27  C   UNL     1      -5.673   8.214  68.140  1.00  0.00    -0.034 C  
BRANCH  27  28
HETATM   28  C   UNL     1      -5.676   7.446  69.444  1.00  0.00    -0.023 C  
BRANCH  28  29
HETATM   29  C   UNL     1      -6.196   8.289  70.604  1.00  0.00    -0.036 C  
BRANCH  29  30
HETATM   30  C   UNL     1      -5.154   8.380  71.712  1.00  0.00    -0.034 C  
HETATM   31  C   UNL     1      -5.797   8.228  73.079  1.00  0.00    -0.065 C  
ENDBRANCH  29  30
ENDBRANCH  28  29
ENDBRANCH  27  28
ENDBRANCH  25  27
ENDBRANCH  24  25
ENDBRANCH   4  24
TORSDOF 7
ENDMDL
MODEL      105
REMARK 921   NORMALIZED FREE ENERGY PREDICTED BY IDOCK:   -2.26 KCAL/MOL
REMARK 922        TOTAL FREE ENERGY PREDICTED BY IDOCK:   -3.39 KCAL/MOL
REMARK 923 INTER-LIGAND FREE ENERGY PREDICTED BY IDOCK:   -5.01 KCAL/MOL
REMARK 924 INTRA-LIGAND FREE ENERGY PREDICTED BY IDOCK:    1.62 KCAL/MOL
REMARK 927      BINDING AFFINITY PREDICTED BY RF-SCORE:    0.00 PKD
ROOT
HETATM    1  C   UNL     1      -9.629   6.202  67.977  1.00  0.00    -0.115 C  
HETATM    2  C   UNL     1     -10.869   5.866  67.378  1.00  0.00    -0.341 C  
HETATM    3  C   UNL     1      -9.955   6.729  66.585  1.00  0.00    -0.207 C  
HETATM    4  C   UNL     1      -8.053   6.904  67.358  1.00  0.00    -0.115 C  
HETATM    5  C   UNL     1     -10.838  10.434  69.647  1.00  0.00    -0.320 C  
HETATM    6  C   UNL     1     -11.808  12.333  67.754  1.00  0.00    -0.341 C  
HETATM    7  C   UNL     1      -8.536   6.136  66.349  1.00  0.00    -0.131 C  
HETATM    8  C   UNL     1      -8.177   4.757  65.825  1.00  0.00    -0.112 C  
HETATM    9  O   UNL     1     -11.895  13.743  69.702  1.00  0.00    -0.293 OA 
HETATM   10  C   UNL     1     -10.685   9.226  70.542  1.00  0.00    -0.313 C  
HETATM   11  C   UNL     1     -10.557  11.575  67.328  1.00  0.00    -0.266 C  
HETATM   12  C   UNL     1      -8.528   7.691  65.315  1.00  0.00    -0.090 C  
HETATM   13  C   UNL     1      -8.872   9.102  66.272  1.00  0.00    -0.176 C  
HETATM   14  C   UNL     1     -11.763  12.626  69.220  1.00  0.00    -0.322 C  
HETATM   15  C   UNL     1     -11.623  11.439  70.076  1.00  0.00    -0.382 C  
HETATM   16  C   UNL     1      -8.591  11.018  68.809  1.00  0.00    -0.144 C  
HETATM   17  C   UNL     1      -9.888   9.112  67.624  1.00  0.00    -0.217 C  
HETATM   18  C   UNL     1      -9.715   7.871  68.673  1.00  0.00    -0.162 C  
HETATM   19  C   UNL     1      -9.983  10.521  68.358  1.00  0.00    -0.177 C  
HETATM   20  C   UNL     1     -10.766   7.912  69.780  1.00  0.00    -0.233 C  
ENDROOT
BRANCH   4  21
HETATM   21  C   UNL     1      -6.550   7.192  66.786  1.00  0.00    -0.055 C  
HETATM   22  O   UNL     1      -6.033   8.314  66.712  1.00  0.00    -0.050 OA 
HETATM   23  C   UNL     1      -5.730   6.061  66.230  1.00  0.00    -0.016 C  
ENDBRANCH   4  21
BRANCH   4  24
HETATM   24  O   UNL     1      -7.443   5.747  68.228  1.00  0.00    -0.078 OA 
BRANCH  24  25
HETATM   25  C   UNL     1      -7.272   5.853  69.571  1.00  0.00    -0.070 C  
HETATM   26  O   UNL     1      -7.747   5.103  70.408  1.00  0.00    -0.071 OA 
BRANCH  25  27
HETATM   27  C   UNL     1      -6.238   6.929  69.853  1.00  0.00    -0.031 C  
BRANCH  27  28
HETATM   28  C   UNL     1      -5.478   6.710  71.143  1.00  0.00    -0.027 C  
BRANCH  28  29
HETATM   29  C   UNL     1      -5.971   7.622  72.261  1.00  0.00    -0.039 C  
BRANCH  29  30
HETATM   30  C   UNL     1      -5.356   7.218  73.595  1.00  0.00    -0.046 C  
HETATM   31  C   UNL     1      -6.081   6.024  74.191  1.00  0.00    -0.064 C  
ENDBRANCH  29  30
ENDBRANCH  28  29
ENDBRANCH  27  28
ENDBRANCH  25  27
ENDBRANCH  24  25
ENDBRANCH   4  24
TORSDOF 7
ENDMDL
MODEL      106
REMARK 921   NORMALIZED FREE ENERGY PREDICTED BY IDOCK:   -2.22 KCAL/MOL
REMARK 922        TOTAL FREE ENERGY PREDICTED BY IDOCK:   -3.33 KCAL/MOL
REMARK 923 INTER-LIGAND FREE ENERGY PREDICTED BY IDOCK:   -5.25 KCAL/MOL
REMARK 924 INTRA-LIGAND FREE ENERGY PREDICTED BY IDOCK:    1.92 KCAL/MOL
REMARK 927      BINDING AFFINITY PREDICTED BY RF-SCORE:    0.00 PKD
ROOT
HETATM    1  C   UNL     1      -8.838  15.747  67.589  1.00  0.00    -0.180 C  
HETATM    2  C   UNL     1      -7.787  16.169  66.736  1.00  0.00    -0.296 C  
HETATM    3  C   UNL     1      -8.677  15.096  66.221  1.00  0.00    -0.125 C  
HETATM    4  C   UNL     1     -10.366  14.763  67.353  1.00  0.00    -0.242 C  
HETATM    5  C   UNL     1      -6.708  11.968  69.418  1.00  0.00    -0.070 C  
HETATM    6  C   UNL     1      -5.793   9.992  67.577  1.00  0.00    -0.049 C  
HETATM    7  C   UNL     1     -10.191  15.455  66.199  1.00  0.00    -0.324 C  
HETATM    8  C   UNL     1     -10.847  16.694  65.616  1.00  0.00    -0.142 C  
HETATM    9  O   UNL     1      -5.151   8.867  69.605  1.00  0.00    -0.030 OA 
HETATM   10  C   UNL     1      -6.893  13.247  70.200  1.00  0.00     0.535 C  
HETATM   11  C   UNL     1      -7.202  10.512  67.321  1.00  0.00    -0.090 C  
HETATM   12  C   UNL     1     -10.132  13.793  65.347  1.00  0.00    -0.307 C  
HETATM   13  C   UNL     1      -9.411  12.576  66.359  1.00  0.00    -0.209 C  
HETATM   14  C   UNL     1      -5.538   9.885  69.047  1.00  0.00    -0.035 C  
HETATM   15  C   UNL     1      -5.714  11.141  69.790  1.00  0.00    -0.073 C  
HETATM   16  C   UNL     1      -8.946  10.980  69.084  1.00  0.00    -0.000 C  
HETATM   17  C   UNL     1      -8.189  12.878  67.489  1.00  0.00    -0.184 C  
HETATM   18  C   UNL     1      -8.372  14.208  68.421  1.00  0.00    -0.161 C  
HETATM   19  C   UNL     1      -7.748  11.601  68.329  1.00  0.00    -0.128 C  
HETATM   20  C   UNL     1      -7.153  14.452  69.307  1.00  0.00    -0.124 C  
ENDROOT
BRANCH   4  21
HETATM   21  C   UNL     1     -11.881  14.203  67.108  1.00  0.00    -0.423 C  
HETATM   22  O   UNL     1     -12.781  14.841  66.545  1.00  0.00     0.162 OA 
HETATM   23  C   UNL     1     -12.278  12.858  67.649  1.00  0.00    -0.053 C  
ENDBRANCH   4  21
BRANCH   4  24
HETATM   24  O   UNL     1     -10.991  15.928  68.202  1.00  0.00    -0.309 OA 
BRANCH  24  25
HETATM   25  C   UNL     1     -11.843  15.706  69.236  1.00  0.00    -0.363 C  
HETATM   26  O   UNL     1     -13.002  16.082  69.293  1.00  0.00     0.448 OA 
BRANCH  25  27
HETATM   27  C   UNL     1     -11.188  14.750  70.218  1.00  0.00    -0.239 C  
BRANCH  27  28
HETATM   28  C   UNL     1     -11.454  15.099  71.666  1.00  0.00    -0.445 C  
BRANCH  28  29
HETATM   29  C   UNL     1     -12.846  15.690  71.866  1.00  0.00    -0.522 C  
BRANCH  29  30
HETATM   30  C   UNL     1     -13.345  15.422  73.281  1.00  0.00    -0.559 C  
HETATM   31  C   UNL     1     -12.405  16.020  74.312  1.00  0.00    -0.717 C  
ENDBRANCH  29  30
ENDBRANCH  28  29
ENDBRANCH  27  28
ENDBRANCH  25  27
ENDBRANCH  24  25
ENDBRANCH   4  24
TORSDOF 7
ENDMDL
MODEL      107
REMARK 921   NORMALIZED FREE ENERGY PREDICTED BY IDOCK:   -2.20 KCAL/MOL
REMARK 922        TOTAL FREE ENERGY PREDICTED BY IDOCK:   -3.31 KCAL/MOL
REMARK 923 INTER-LIGAND FREE ENERGY PREDICTED BY IDOCK:   -4.03 KCAL/MOL
REMARK 924 INTRA-LIGAND FREE ENERGY PREDICTED BY IDOCK:    0.73 KCAL/MOL
REMARK 927      BINDING AFFINITY PREDICTED BY RF-SCORE:    0.00 PKD
ROOT
HETATM    1  C   UNL     1      -7.950  15.984  69.715  1.00  0.00     0.297 C  
HETATM    2  C   UNL     1      -7.549  14.740  70.264  1.00  0.00     0.550 C  
HETATM    3  C   UNL     1      -7.034  15.071  68.910  1.00  0.00    -0.114 C  
HETATM    4  C   UNL     1      -7.372  17.014  68.314  1.00  0.00    -0.203 C  
HETATM    5  C   UNL     1     -11.513  14.412  67.071  1.00  0.00    -0.376 C  
HETATM    6  C   UNL     1     -10.896  12.399  65.148  1.00  0.00    -0.333 C  
HETATM    7  C   UNL     1      -6.261  16.418  68.816  1.00  0.00    -0.132 C  
HETATM    8  C   UNL     1      -5.125  16.905  69.697  1.00  0.00    -0.148 C  
HETATM    9  O   UNL     1     -13.230  12.646  64.620  1.00  0.00    -0.828 OA 
HETATM   10  C   UNL     1     -11.736  15.167  68.361  1.00  0.00    -0.338 C  
HETATM   11  C   UNL     1      -9.921  13.570  65.195  1.00  0.00    -0.201 C  
HETATM   12  C   UNL     1      -6.032  15.673  67.118  1.00  0.00     0.218 C  
HETATM   13  C   UNL     1      -7.558  15.343  66.349  1.00  0.00     0.757 C  
HETATM   14  C   UNL     1     -12.294  12.878  65.374  1.00  0.00    -0.485 C  
HETATM   15  C   UNL     1     -12.495  13.601  66.638  1.00  0.00    -0.291 C  
HETATM   16  C   UNL     1     -10.547  16.001  65.447  1.00  0.00    -0.428 C  
HETATM   17  C   UNL     1      -8.964  14.896  67.176  1.00  0.00    -0.230 C  
HETATM   18  C   UNL     1      -9.303  15.730  68.540  1.00  0.00    -0.198 C  
HETATM   19  C   UNL     1     -10.239  14.712  66.241  1.00  0.00    -0.302 C  
HETATM   20  C   UNL     1     -10.515  15.158  69.269  1.00  0.00    -0.261 C  
ENDROOT
BRANCH   4  21
HETATM   21  C   UNL     1      -6.671  18.098  67.313  1.00  0.00    -0.190 C  
HETATM   22  O   UNL     1      -5.629  18.717  67.570  1.00  0.00    -0.153 OA 
HETATM   23  C   UNL     1      -7.338  18.460  66.015  1.00  0.00    -0.273 C  
ENDBRANCH   4  21
BRANCH   4  24
HETATM   24  O   UNL     1      -7.496  18.159  69.382  1.00  0.00    -0.055 OA 
BRANCH  24  25
HETATM   25  C   UNL     1      -8.227  19.284  69.168  1.00  0.00    -0.148 C  
HETATM   26  O   UNL     1      -7.800  20.328  68.703  1.00  0.00    -0.048 OA 
BRANCH  25  27
HETATM   27  C   UNL     1      -9.693  18.975  69.415  1.00  0.00    -0.076 C  
BRANCH  27  28
HETATM   28  C   UNL     1     -10.434  18.545  68.168  1.00  0.00    -0.361 C  
BRANCH  28  29
HETATM   29  C   UNL     1     -11.185  19.704  67.519  1.00  0.00     0.027 C  
BRANCH  29  30
HETATM   30  C   UNL     1     -10.399  20.259  66.338  1.00  0.00    -0.412 C  
HETATM   31  C   UNL     1     -11.145  20.038  65.034  1.00  0.00     0.699 C  
ENDBRANCH  29  30
ENDBRANCH  28  29
ENDBRANCH  27  28
ENDBRANCH  25  27
ENDBRANCH  24  25
ENDBRANCH   4  24
TORSDOF 7
ENDMDL
MODEL      108
REMARK 921   NORMALIZED FREE ENERGY PREDICTED BY IDOCK:   -2.18 KCAL/MOL
REMARK 922        TOTAL FREE ENERGY PREDICTED BY IDOCK:   -3.28 KCAL/MOL
REMARK 923 INTER-LIGAND FREE ENERGY PREDICTED BY IDOCK:   -3.83 KCAL/MOL
REMARK 924 INTRA-LIGAND FREE ENERGY PREDICTED BY IDOCK:    0.56 KCAL/MOL
REMARK 927      BINDING AFFINITY PREDICTED BY RF-SCORE:    0.00 PKD
ROOT
HETATM    1  C   UNL     1      -7.105   5.994  66.202  1.00  0.00    -0.067 C  
HETATM    2  C   UNL     1      -5.964   6.576  65.595  1.00  0.00    -0.033 C  
HETATM    3  C   UNL     1      -6.007   6.582  67.080  1.00  0.00    -0.021 C  
HETATM    4  C   UNL     1      -7.511   5.436  67.900  1.00  0.00    -0.077 C  
HETATM    5  C   UNL     1      -9.541   9.955  66.939  1.00  0.00    -0.225 C  
HETATM    6  C   UNL     1      -8.262  11.981  68.487  1.00  0.00    -0.113 C  
HETATM    7  C   UNL     1      -6.189   5.182  67.735  1.00  0.00    -0.038 C  
HETATM    8  C   UNL     1      -5.397   3.915  67.462  1.00  0.00    -0.012 C  
HETATM    9  O   UNL     1     -10.360  13.108  68.147  1.00  0.00    -0.231 OA 
HETATM   10  C   UNL     1      -9.903   8.975  65.847  1.00  0.00    -0.257 C  
HETATM   11  C   UNL     1      -8.154  10.569  69.052  1.00  0.00    -0.143 C  
HETATM   12  C   UNL     1      -5.907   6.306  69.200  1.00  0.00    -0.020 C  
HETATM   13  C   UNL     1      -7.076   7.593  69.258  1.00  0.00    -0.076 C  
HETATM   14  C   UNL     1      -9.605  12.188  67.862  1.00  0.00    -0.198 C  
HETATM   15  C   UNL     1      -9.937  11.233  66.796  1.00  0.00    -0.238 C  
HETATM   16  C   UNL     1     -10.004   8.853  69.099  1.00  0.00    -0.192 C  
HETATM   17  C   UNL     1      -7.775   8.307  67.894  1.00  0.00    -0.103 C  
HETATM   18  C   UNL     1      -8.261   7.292  66.709  1.00  0.00    -0.121 C  
HETATM   19  C   UNL     1      -8.862   9.421  68.226  1.00  0.00    -0.128 C  
HETATM   20  C   UNL     1      -8.753   8.050  65.478  1.00  0.00    -0.134 C  
ENDROOT
BRANCH   4  21
HETATM   21  C   UNL     1      -7.774   4.623  69.293  1.00  0.00    -0.063 C  
HETATM   22  O   UNL     1      -7.079   3.680  69.694  1.00  0.00    -0.041 OA 
HETATM   23  C   UNL     1      -8.971   4.955  70.140  1.00  0.00    -0.146 C  
ENDBRANCH   4  21
BRANCH   4  24
HETATM   24  O   UNL     1      -8.063   4.185  67.127  1.00  0.00    -0.099 OA 
BRANCH  24  25
HETATM   25  C   UNL     1      -9.358   3.783  67.213  1.00  0.00    -0.197 C  
HETATM   26  O   UNL     1      -9.749   2.760  67.749  1.00  0.00    -0.104 OA 
BRANCH  25  27
HETATM   27  C   UNL     1     -10.256   4.901  66.711  1.00  0.00    -0.274 C  
BRANCH  27  28
HETATM   28  C   UNL     1     -10.999   4.551  65.441  1.00  0.00     0.005 C  
BRANCH  28  29
HETATM   29  C   UNL     1     -10.140   3.737  64.479  1.00  0.00    -0.212 C  
BRANCH  29  30
HETATM   30  C   UNL     1     -10.988   3.169  63.349  1.00  0.00    -0.131 C  
HETATM   31  C   UNL     1     -11.064   1.655  63.433  1.00  0.00    -0.144 C  
ENDBRANCH  29  30
ENDBRANCH  28  29
ENDBRANCH  27  28
ENDBRANCH  25  27
ENDBRANCH  24  25
ENDBRANCH   4  24
TORSDOF 7
ENDMDL
MODEL      109
REMARK 921   NORMALIZED FREE ENERGY PREDICTED BY IDOCK:   -2.10 KCAL/MOL
REMARK 922        TOTAL FREE ENERGY PREDICTED BY IDOCK:   -3.16 KCAL/MOL
REMARK 923 INTER-LIGAND FREE ENERGY PREDICTED BY IDOCK:   -3.86 KCAL/MOL
REMARK 924 INTRA-LIGAND FREE ENERGY PREDICTED BY IDOCK:    0.70 KCAL/MOL
REMARK 927      BINDING AFFINITY PREDICTED BY RF-SCORE:    0.00 PKD
ROOT
HETATM    1  C   UNL     1      -6.227   7.903  68.093  1.00  0.00    -0.046 C  
HETATM    2  C   UNL     1      -5.662   8.112  69.377  1.00  0.00    -0.030 C  
HETATM    3  C   UNL     1      -6.879   7.262  69.312  1.00  0.00    -0.054 C  
HETATM    4  C   UNL     1      -7.453   6.726  67.407  1.00  0.00    -0.096 C  
HETATM    5  C   UNL     1      -9.558  11.223  68.304  1.00  0.00    -0.193 C  
HETATM    6  C   UNL     1     -11.406  11.055  70.469  1.00  0.00    -0.116 C  
HETATM    7  C   UNL     1      -6.773   6.038  68.358  1.00  0.00    -0.064 C  
HETATM    8  C   UNL     1      -5.674   4.991  68.303  1.00  0.00    -0.017 C  
HETATM    9  O   UNL     1     -12.356  12.979  69.382  1.00  0.00    -0.166 OA 
HETATM   10  C   UNL     1      -8.305  11.387  67.475  1.00  0.00    -0.137 C  
HETATM   11  C   UNL     1     -11.129   9.740  69.750  1.00  0.00    -0.272 C  
HETATM   12  C   UNL     1      -8.424   5.787  69.195  1.00  0.00    -0.107 C  
HETATM   13  C   UNL     1      -9.480   7.149  68.955  1.00  0.00    -0.143 C  
HETATM   14  C   UNL     1     -11.430  12.186  69.492  1.00  0.00    -0.265 C  
HETATM   15  C   UNL     1     -10.200  12.337  68.701  1.00  0.00    -0.177 C  
HETATM   16  C   UNL     1     -10.906   9.442  67.254  1.00  0.00    -0.165 C  
HETATM   17  C   UNL     1      -8.953   8.749  68.811  1.00  0.00    -0.138 C  
HETATM   18  C   UNL     1      -7.646   9.002  67.862  1.00  0.00    -0.093 C  
HETATM   19  C   UNL     1     -10.118   9.797  68.535  1.00  0.00    -0.185 C  
HETATM   20  C   UNL     1      -7.183  10.456  67.910  1.00  0.00    -0.085 C  
ENDROOT
BRANCH   4  21
HETATM   21  C   UNL     1      -8.260   5.493  66.703  1.00  0.00    -0.105 C  
HETATM   22  O   UNL     1      -9.412   5.575  66.255  1.00  0.00    -0.152 OA 
HETATM   23  C   UNL     1      -7.634   4.128  66.637  1.00  0.00    -0.089 C  
ENDBRANCH   4  21
BRANCH   4  24
HETATM   24  O   UNL     1      -6.384   6.611  66.262  1.00  0.00    -0.039 OA 
BRANCH  24  25
HETATM   25  C   UNL     1      -6.601   7.085  65.007  1.00  0.00    -0.046 C  
HETATM   26  O   UNL     1      -7.267   6.533  64.147  1.00  0.00    -0.060 OA 
BRANCH  25  27
HETATM   27  C   UNL     1      -6.049   8.496  64.910  1.00  0.00    -0.060 C  
BRANCH  27  28
HETATM   28  C   UNL     1      -6.277   9.140  63.560  1.00  0.00    -0.089 C  
BRANCH  28  29
HETATM   29  C   UNL     1      -7.300  10.269  63.629  1.00  0.00    -0.082 C  
BRANCH  29  30
HETATM   30  C   UNL     1      -8.648   9.745  64.108  1.00  0.00    -0.207 C  
HETATM   31  C   UNL     1      -9.768  10.698  63.733  1.00  0.00    -0.382 C  
ENDBRANCH  29  30
ENDBRANCH  28  29
ENDBRANCH  27  28
ENDBRANCH  25  27
ENDBRANCH  24  25
ENDBRANCH   4  24
TORSDOF 7
ENDMDL
MODEL      110
REMARK 921   NORMALIZED FREE ENERGY PREDICTED BY IDOCK:   -2.09 KCAL/MOL
REMARK 922        TOTAL FREE ENERGY PREDICTED BY IDOCK:   -3.15 KCAL/MOL
REMARK 923 INTER-LIGAND FREE ENERGY PREDICTED BY IDOCK:   -4.29 KCAL/MOL
REMARK 924 INTRA-LIGAND FREE ENERGY PREDICTED BY IDOCK:    1.14 KCAL/MOL
REMARK 927      BINDING AFFINITY PREDICTED BY RF-SCORE:    0.00 PKD
ROOT
HETATM    1  C   UNL     1      -7.542   7.699  70.929  1.00  0.00    -0.080 C  
HETATM    2  C   UNL     1      -6.549   8.708  70.995  1.00  0.00    -0.053 C  
HETATM    3  C   UNL     1      -7.946   9.159  70.770  1.00  0.00    -0.192 C  
HETATM    4  C   UNL     1      -9.373   7.692  71.017  1.00  0.00    -0.152 C  
HETATM    5  C   UNL     1      -7.781   7.326  66.243  1.00  0.00    -0.097 C  
HETATM    6  C   UNL     1      -8.394   9.704  64.794  1.00  0.00    -0.156 C  
HETATM    7  C   UNL     1      -8.967   8.687  71.845  1.00  0.00    -0.301 C  
HETATM    8  C   UNL     1      -8.853   8.806  73.355  1.00  0.00     0.449 C  
HETATM    9  O   UNL     1      -8.284   8.201  62.918  1.00  0.00    -0.172 OA 
HETATM   10  C   UNL     1      -7.102   6.285  67.102  1.00  0.00    -0.073 C  
HETATM   11  C   UNL     1      -9.264   9.450  66.019  1.00  0.00    -0.253 C  
HETATM   12  C   UNL     1      -9.976   9.836  70.772  1.00  0.00    -0.151 C  
HETATM   13  C   UNL     1      -9.975   9.328  69.108  1.00  0.00    -0.181 C  
HETATM   14  C   UNL     1      -8.077   8.415  64.105  1.00  0.00    -0.145 C  
HETATM   15  C   UNL     1      -7.409   7.418  64.953  1.00  0.00    -0.080 C  
HETATM   16  C   UNL     1     -10.199   7.216  66.726  1.00  0.00    -0.289 C  
HETATM   17  C   UNL     1      -8.681   8.546  68.351  1.00  0.00    -0.143 C  
HETATM   18  C   UNL     1      -7.953   7.354  69.201  1.00  0.00    -0.118 C  
HETATM   19  C   UNL     1      -8.961   8.133  66.840  1.00  0.00    -0.163 C  
HETATM   20  C   UNL     1      -6.723   6.811  68.478  1.00  0.00    -0.064 C  
ENDROOT
BRANCH   4  21
HETATM   21  C   UNL     1     -10.950   7.613  71.436  1.00  0.00    -0.231 C  
HETATM   22  O   UNL     1     -11.380   7.805  72.581  1.00  0.00    -0.348 OA 
HETATM   23  C   UNL     1     -11.976   7.212  70.414  1.00  0.00    -0.190 C  
ENDBRANCH   4  21
BRANCH   4  24
HETATM   24  O   UNL     1      -9.108   6.489  71.991  1.00  0.00    -0.141 OA 
BRANCH  24  25
HETATM   25  C   UNL     1      -9.022   5.203  71.561  1.00  0.00    -0.137 C  
HETATM   26  O   UNL     1      -8.026   4.678  71.092  1.00  0.00    -0.082 OA 
BRANCH  25  27
HETATM   27  C   UNL     1     -10.297   4.470  71.938  1.00  0.00    -0.198 C  
BRANCH  27  28
HETATM   28  C   UNL     1     -10.051   3.100  72.531  1.00  0.00    -0.231 C  
BRANCH  28  29
HETATM   29  C   UNL     1     -10.159   3.106  74.053  1.00  0.00    -0.184 C  
BRANCH  29  30
HETATM   30  C   UNL     1     -10.802   1.819  74.551  1.00  0.00    -0.121 C  
HETATM   31  C   UNL     1     -12.186   1.633  73.954  1.00  0.00    -0.012 C  
ENDBRANCH  29  30
ENDBRANCH  28  29
ENDBRANCH  27  28
ENDBRANCH  25  27
ENDBRANCH  24  25
ENDBRANCH   4  24
TORSDOF 7
ENDMDL
MODEL      111
REMARK 921   NORMALIZED FREE ENERGY PREDICTED BY IDOCK:   -1.95 KCAL/MOL
REMARK 922        TOTAL FREE ENERGY PREDICTED BY IDOCK:   -2.96 KCAL/MOL
REMARK 923 INTER-LIGAND FREE ENERGY PREDICTED BY IDOCK:   -4.44 KCAL/MOL
REMARK 924 INTRA-LIGAND FREE ENERGY PREDICTED BY IDOCK:    1.48 KCAL/MOL
REMARK 927      BINDING AFFINITY PREDICTED BY RF-SCORE:    0.00 PKD
ROOT
HETATM    1  C   UNL     1      -8.087   9.320  66.591  1.00  0.00    -0.108 C  
HETATM    2  C   UNL     1      -7.298   9.352  65.413  1.00  0.00    -0.096 C  
HETATM    3  C   UNL     1      -6.660   9.852  66.659  1.00  0.00    -0.072 C  
HETATM    4  C   UNL     1      -7.726   9.473  68.382  1.00  0.00    -0.085 C  
HETATM    5  C   UNL     1      -9.541  13.797  66.518  1.00  0.00    -0.295 C  
HETATM    6  C   UNL     1      -7.516  15.805  66.485  1.00  0.00     0.185 C  
HETATM    7  C   UNL     1      -6.654   8.841  67.842  1.00  0.00    -0.061 C  
HETATM    8  C   UNL     1      -6.194   7.394  67.830  1.00  0.00    -0.044 C  
HETATM    9  O   UNL     1      -9.424  17.269  66.546  1.00  0.00    -0.251 OA 
HETATM   10  C   UNL     1     -10.449  12.647  66.151  1.00  0.00    -0.278 C  
HETATM   11  C   UNL     1      -7.295  14.679  67.487  1.00  0.00    -0.220 C  
HETATM   12  C   UNL     1      -5.633  10.265  68.489  1.00  0.00    -0.038 C  
HETATM   13  C   UNL     1      -6.522  11.760  68.460  1.00  0.00    -0.056 C  
HETATM   14  C   UNL     1      -8.970  16.143  66.396  1.00  0.00    -0.318 C  
HETATM   15  C   UNL     1      -9.838  15.015  66.029  1.00  0.00    -0.347 C  
HETATM   16  C   UNL     1      -9.071  13.622  68.935  1.00  0.00     0.174 C  
HETATM   17  C   UNL     1      -7.695  12.148  67.306  1.00  0.00    -0.168 C  
HETATM   18  C   UNL     1      -8.759  10.968  66.923  1.00  0.00    -0.148 C  
HETATM   19  C   UNL     1      -8.404  13.554  67.542  1.00  0.00    -0.185 C  
HETATM   20  C   UNL     1      -9.684  11.384  65.783  1.00  0.00    -0.263 C  
ENDROOT
BRANCH   4  21
HETATM   21  C   UNL     1      -7.400   9.258  69.968  1.00  0.00    -0.083 C  
HETATM   22  O   UNL     1      -7.855   9.964  70.878  1.00  0.00    -0.235 OA 
HETATM   23  C   UNL     1      -6.430   8.192  70.395  1.00  0.00    -0.036 C  
ENDBRANCH   4  21
BRANCH   4  24
HETATM   24  O   UNL     1      -8.683   8.230  68.463  1.00  0.00    -0.132 OA 
BRANCH  24  25
HETATM   25  C   UNL     1      -9.674   8.127  69.386  1.00  0.00    -0.170 C  
HETATM   26  O   UNL     1      -9.614   7.483  70.420  1.00  0.00    -0.169 OA 
BRANCH  25  27
HETATM   27  C   UNL     1     -10.787   9.094  69.025  1.00  0.00    -0.115 C  
BRANCH  27  28
HETATM   28  C   UNL     1     -10.785  10.354  69.863  1.00  0.00    -0.331 C  
BRANCH  28  29
HETATM   29  C   UNL     1     -11.660  10.217  71.106  1.00  0.00    -0.430 C  
BRANCH  29  30
HETATM   30  C   UNL     1     -12.990  10.932  70.908  1.00  0.00    -0.347 C  
HETATM   31  C   UNL     1     -13.999  10.506  71.959  1.00  0.00     0.276 C  
ENDBRANCH  29  30
ENDBRANCH  28  29
ENDBRANCH  27  28
ENDBRANCH  25  27
ENDBRANCH  24  25
ENDBRANCH   4  24
TORSDOF 7
ENDMDL
MODEL      112
REMARK 921   NORMALIZED FREE ENERGY PREDICTED BY IDOCK:   -1.78 KCAL/MOL
REMARK 922        TOTAL FREE ENERGY PREDICTED BY IDOCK:   -2.72 KCAL/MOL
REMARK 923 INTER-LIGAND FREE ENERGY PREDICTED BY IDOCK:   -4.47 KCAL/MOL
REMARK 924 INTRA-LIGAND FREE ENERGY PREDICTED BY IDOCK:    1.76 KCAL/MOL
REMARK 927      BINDING AFFINITY PREDICTED BY RF-SCORE:    0.00 PKD
ROOT
HETATM    1  C   UNL     1      -9.107   9.222  65.400  1.00  0.00    -0.277 C  
HETATM    2  C   UNL     1      -9.208   9.784  64.103  1.00  0.00    -0.277 C  
HETATM    3  C   UNL     1      -7.885   9.879  64.772  1.00  0.00    -0.141 C  
HETATM    4  C   UNL     1      -7.711   8.761  66.495  1.00  0.00    -0.099 C  
HETATM    5  C   UNL     1      -9.719  13.181  67.873  1.00  0.00    -0.221 C  
HETATM    6  C   UNL     1      -7.903  15.316  67.349  1.00  0.00    -0.220 C  
HETATM    7  C   UNL     1      -7.284   8.518  65.230  1.00  0.00    -0.083 C  
HETATM    8  C   UNL     1      -7.116   7.250  64.412  1.00  0.00    -0.062 C  
HETATM    9  O   UNL     1      -9.169  16.388  69.092  1.00  0.00    -0.257 OA 
HETATM   10  C   UNL     1     -10.799  12.132  67.748  1.00  0.00    -0.263 C  
HETATM   11  C   UNL     1      -7.260  13.944  67.507  1.00  0.00    -0.178 C  
HETATM   12  C   UNL     1      -5.910   9.733  65.584  1.00  0.00    -0.063 C  
HETATM   13  C   UNL     1      -6.433  11.003  66.653  1.00  0.00    -0.129 C  
HETATM   14  C   UNL     1      -9.049  15.465  68.297  1.00  0.00    -0.187 C  
HETATM   15  C   UNL     1     -10.095  14.441  68.156  1.00  0.00    -0.226 C  
HETATM   16  C   UNL     1      -7.896  12.205  69.221  1.00  0.00     0.426 C  
HETATM   17  C   UNL     1      -8.005  11.622  66.698  1.00  0.00    -0.098 C  
HETATM   18  C   UNL     1      -9.220  10.530  66.646  1.00  0.00    -0.177 C  
HETATM   19  C   UNL     1      -8.236  12.737  67.811  1.00  0.00    -0.176 C  
HETATM   20  C   UNL     1     -10.587  11.204  66.561  1.00  0.00    -0.314 C  
ENDROOT
BRANCH   4  21
HETATM   21  C   UNL     1      -6.515   8.030  67.333  1.00  0.00    -0.057 C  
HETATM   22  O   UNL     1      -5.949   8.522  68.318  1.00  0.00    -0.044 OA 
HETATM   23  C   UNL     1      -5.979   6.704  66.870  1.00  0.00    -0.021 C  
ENDBRANCH   4  21
BRANCH   4  24
HETATM   24  O   UNL     1      -8.567   7.457  66.680  1.00  0.00    -0.118 OA 
BRANCH  24  25
HETATM   25  C   UNL     1      -9.614   7.384  67.544  1.00  0.00    -0.140 C  
HETATM   26  O   UNL     1     -10.789   7.520  67.246  1.00  0.00    -0.299 OA 
BRANCH  25  27
HETATM   27  C   UNL     1      -9.106   6.912  68.895  1.00  0.00    -0.134 C  
BRANCH  27  28
HETATM   28  C   UNL     1     -10.203   6.736  69.922  1.00  0.00    -0.211 C  
BRANCH  28  29
HETATM   29  C   UNL     1      -9.693   6.074  71.198  1.00  0.00    -0.206 C  
BRANCH  29  30
HETATM   30  C   UNL     1      -8.189   6.269  71.340  1.00  0.00    -0.122 C  
HETATM   31  C   UNL     1      -7.561   5.121  72.110  1.00  0.00    -0.098 C  
ENDBRANCH  29  30
ENDBRANCH  28  29
ENDBRANCH  27  28
ENDBRANCH  25  27
ENDBRANCH  24  25
ENDBRANCH   4  24
TORSDOF 7
ENDMDL
MODEL      113
REMARK 921   NORMALIZED FREE ENERGY PREDICTED BY IDOCK:   -1.74 KCAL/MOL
REMARK 922        TOTAL FREE ENERGY PREDICTED BY IDOCK:   -2.66 KCAL/MOL
REMARK 923 INTER-LIGAND FREE ENERGY PREDICTED BY IDOCK:   -3.63 KCAL/MOL
REMARK 924 INTRA-LIGAND FREE ENERGY PREDICTED BY IDOCK:    0.97 KCAL/MOL
REMARK 927      BINDING AFFINITY PREDICTED BY RF-SCORE:    0.00 PKD
ROOT
HETATM    1  C   UNL     1      -6.407   6.592  68.427  1.00  0.00    -0.037 C  
HETATM    2  C   UNL     1      -5.173   6.372  67.764  1.00  0.00    -0.004 C  
HETATM    3  C   UNL     1      -6.168   7.223  67.061  1.00  0.00    -0.046 C  
HETATM    4  C   UNL     1      -7.788   7.776  68.208  1.00  0.00    -0.121 C  
HETATM    5  C   UNL     1      -8.924   3.274  66.232  1.00  0.00    -0.151 C  
HETATM    6  C   UNL     1      -9.050   3.428  63.387  1.00  0.00    -0.094 C  
HETATM    7  C   UNL     1      -6.663   8.456  67.872  1.00  0.00    -0.066 C  
HETATM    8  C   UNL     1      -5.824   9.501  68.586  1.00  0.00    -0.040 C  
HETATM    9  O   UNL     1     -10.479   1.514  63.672  1.00  0.00    -0.131 OA 
HETATM   10  C   UNL     1      -8.447   3.115  67.657  1.00  0.00    -0.103 C  
HETATM   11  C   UNL     1      -9.266   4.748  64.117  1.00  0.00    -0.010 C  
HETATM   12  C   UNL     1      -7.450   8.701  66.196  1.00  0.00    -0.086 C  
HETATM   13  C   UNL     1      -8.438   7.343  65.744  1.00  0.00    -0.149 C  
HETATM   14  C   UNL     1      -9.677   2.305  64.149  1.00  0.00    -0.127 C  
HETATM   15  C   UNL     1      -9.194   2.159  65.530  1.00  0.00    -0.033 C  
HETATM   16  C   UNL     1     -10.623   5.066  66.221  1.00  0.00    -0.332 C  
HETATM   17  C   UNL     1      -8.121   5.743  66.190  1.00  0.00    -0.108 C  
HETATM   18  C   UNL     1      -7.675   5.496  67.743  1.00  0.00    -0.092 C  
HETATM   19  C   UNL     1      -9.216   4.699  65.697  1.00  0.00    -0.151 C  
HETATM   20  C   UNL     1      -7.289   4.041  67.998  1.00  0.00    -0.063 C  
ENDROOT
BRANCH   4  21
HETATM   21  C   UNL     1      -8.851   9.016  68.261  1.00  0.00    -0.134 C  
HETATM   22  O   UNL     1     -10.028   8.945  67.885  1.00  0.00    -0.162 OA 
HETATM   23  C   UNL     1      -8.395  10.374  68.718  1.00  0.00    -0.134 C  
ENDBRANCH   4  21
BRANCH   4  24
HETATM   24  O   UNL     1      -7.648   7.898  69.768  1.00  0.00    -0.086 OA 
BRANCH  24  25
HETATM   25  C   UNL     1      -8.652   7.567  70.622  1.00  0.00    -0.137 C  
HETATM   26  O   UNL     1      -9.153   8.311  71.449  1.00  0.00    -0.145 OA 
BRANCH  25  27
HETATM   27  C   UNL     1      -9.182   6.193  70.251  1.00  0.00    -0.165 C  
BRANCH  27  28
HETATM   28  C   UNL     1      -9.160   5.210  71.401  1.00  0.00    -0.171 C  
BRANCH  28  29
HETATM   29  C   UNL     1     -10.188   4.097  71.223  1.00  0.00    -0.067 C  
BRANCH  29  30
HETATM   30  C   UNL     1      -9.734   2.828  71.933  1.00  0.00    -0.221 C  
HETATM   31  C   UNL     1     -10.568   2.570  73.176  1.00  0.00    -0.260 C  
ENDBRANCH  29  30
ENDBRANCH  28  29
ENDBRANCH  27  28
ENDBRANCH  25  27
ENDBRANCH  24  25
ENDBRANCH   4  24
TORSDOF 7
ENDMDL
MODEL      114
REMARK 921   NORMALIZED FREE ENERGY PREDICTED BY IDOCK:   -1.73 KCAL/MOL
REMARK 922        TOTAL FREE ENERGY PREDICTED BY IDOCK:   -2.64 KCAL/MOL
REMARK 923 INTER-LIGAND FREE ENERGY PREDICTED BY IDOCK:   -4.71 KCAL/MOL
REMARK 924 INTRA-LIGAND FREE ENERGY PREDICTED BY IDOCK:    2.06 KCAL/MOL
REMARK 927      BINDING AFFINITY PREDICTED BY RF-SCORE:    0.00 PKD
ROOT
HETATM    1  C   UNL     1      -9.638   8.326  71.085  1.00  0.00    -0.206 C  
HETATM    2  C   UNL     1     -10.606   9.361  71.093  1.00  0.00    -0.403 C  
HETATM    3  C   UNL     1     -10.886   8.191  70.221  1.00  0.00    -0.244 C  
HETATM    4  C   UNL     1      -9.622   6.587  70.505  1.00  0.00    -0.169 C  
HETATM    5  C   UNL     1      -7.327   9.627  67.195  1.00  0.00    -0.087 C  
HETATM    6  C   UNL     1      -8.863   9.850  64.802  1.00  0.00    -0.232 C  
HETATM    7  C   UNL     1     -10.883   6.816  70.951  1.00  0.00    -0.289 C  
HETATM    8  C   UNL     1     -11.627   6.431  72.217  1.00  0.00    -0.341 C  
HETATM    9  O   UNL     1      -6.715  10.386  63.861  1.00  0.00    -0.100 OA 
HETATM   10  C   UNL     1      -6.760   9.837  68.580  1.00  0.00    -0.052 C  
HETATM   11  C   UNL     1      -9.124   8.593  65.625  1.00  0.00    -0.221 C  
HETATM   12  C   UNL     1     -11.450   6.384  69.224  1.00  0.00    -0.318 C  
HETATM   13  C   UNL     1     -10.291   6.877  68.024  1.00  0.00    -0.230 C  
HETATM   14  C   UNL     1      -7.412  10.209  64.851  1.00  0.00    -0.137 C  
HETATM   15  C   UNL     1      -6.879  10.419  66.204  1.00  0.00    -0.125 C  
HETATM   16  C   UNL     1      -7.369   7.194  66.779  1.00  0.00    -0.084 C  
HETATM   17  C   UNL     1      -9.296   8.238  68.163  1.00  0.00    -0.140 C  
HETATM   18  C   UNL     1      -8.589   8.477  69.617  1.00  0.00    -0.131 C  
HETATM   19  C   UNL     1      -8.281   8.430  66.953  1.00  0.00    -0.103 C  
HETATM   20  C   UNL     1      -7.825   9.797  69.666  1.00  0.00    -0.142 C  
ENDROOT
BRANCH   4  21
HETATM   21  C   UNL     1      -9.687   4.965  70.323  1.00  0.00    -0.217 C  
HETATM   22  O   UNL     1     -10.194   4.189  71.144  1.00  0.00    -0.122 OA 
HETATM   23  C   UNL     1      -9.035   4.318  69.133  1.00  0.00    -0.157 C  
ENDBRANCH   4  21
BRANCH   4  24
HETATM   24  O   UNL     1      -8.946   6.351  71.903  1.00  0.00    -0.139 OA 
BRANCH  24  25
HETATM   25  C   UNL     1      -7.608   6.163  72.047  1.00  0.00    -0.096 C  
HETATM   26  O   UNL     1      -6.972   5.225  71.595  1.00  0.00    -0.061 OA 
BRANCH  25  27
HETATM   27  C   UNL     1      -7.002   7.400  72.687  1.00  0.00    -0.068 C  
BRANCH  27  28
HETATM   28  C   UNL     1      -5.925   8.046  71.843  1.00  0.00    -0.037 C  
BRANCH  28  29
HETATM   29  C   UNL     1      -5.166   7.026  71.001  1.00  0.00    -0.023 C  
BRANCH  29  30
HETATM   30  C   UNL     1      -5.149   7.444  69.537  1.00  0.00    -0.015 C  
HETATM   31  C   UNL     1      -5.675   6.331  68.647  1.00  0.00    -0.016 C  
ENDBRANCH  29  30
ENDBRANCH  28  29
ENDBRANCH  27  28
ENDBRANCH  25  27
ENDBRANCH  24  25
ENDBRANCH   4  24
TORSDOF 7
ENDMDL
MODEL      115
REMARK 921   NORMALIZED FREE ENERGY PREDICTED BY IDOCK:   -1.64 KCAL/MOL
REMARK 922        TOTAL FREE ENERGY PREDICTED BY IDOCK:   -2.52 KCAL/MOL
REMARK 923 INTER-LIGAND FREE ENERGY PREDICTED BY IDOCK:   -4.50 KCAL/MOL
REMARK 924 INTRA-LIGAND FREE ENERGY PREDICTED BY IDOCK:    1.99 KCAL/MOL
REMARK 927      BINDING AFFINITY PREDICTED BY RF-SCORE:    0.00 PKD
ROOT
HETATM    1  C   UNL     1      -9.141   7.156  66.780  1.00  0.00    -0.169 C  
HETATM    2  C   UNL     1     -10.276   6.468  66.282  1.00  0.00     0.082 C  
HETATM    3  C   UNL     1     -10.534   7.707  67.061  1.00  0.00    -0.419 C  
HETATM    4  C   UNL     1      -8.855   8.831  67.467  1.00  0.00    -0.134 C  
HETATM    5  C   UNL     1      -9.174   5.390  71.144  1.00  0.00    -0.175 C  
HETATM    6  C   UNL     1     -11.560   5.760  72.662  1.00  0.00    -0.304 C  
HETATM    7  C   UNL     1      -9.818   8.980  66.523  1.00  0.00    -0.338 C  
HETATM    8  C   UNL     1      -9.811   9.515  65.102  1.00  0.00    -0.101 C  
HETATM    9  O   UNL     1     -10.271   4.634  74.353  1.00  0.00    -0.198 OA 
HETATM   10  C   UNL     1      -8.170   4.953  70.103  1.00  0.00    -0.073 C  
HETATM   11  C   UNL     1     -11.066   6.996  71.920  1.00  0.00    -0.274 C  
HETATM   12  C   UNL     1     -10.899   9.644  67.894  1.00  0.00    -0.272 C  
HETATM   13  C   UNL     1     -10.553   8.875  69.416  1.00  0.00    -0.226 C  
HETATM   14  C   UNL     1     -10.402   4.971  73.184  1.00  0.00    -0.187 C  
HETATM   15  C   UNL     1      -9.440   4.545  72.157  1.00  0.00    -0.189 C  
HETATM   16  C   UNL     1      -8.662   7.735  71.720  1.00  0.00    -0.147 C  
HETATM   17  C   UNL     1     -10.046   7.270  69.579  1.00  0.00    -0.182 C  
HETATM   18  C   UNL     1      -8.901   6.759  68.530  1.00  0.00    -0.123 C  
HETATM   19  C   UNL     1      -9.739   6.832  71.077  1.00  0.00    -0.182 C  
HETATM   20  C   UNL     1      -8.617   5.267  68.683  1.00  0.00    -0.087 C  
ENDROOT
BRANCH   4  21
HETATM   21  C   UNL     1      -8.504  10.402  67.749  1.00  0.00    -0.114 C  
HETATM   22  O   UNL     1      -8.627  11.307  66.914  1.00  0.00    -0.139 OA 
HETATM   23  C   UNL     1      -7.920  10.813  69.072  1.00  0.00    -0.137 C  
ENDBRANCH   4  21
BRANCH   4  24
HETATM   24  O   UNL     1      -7.619   8.784  66.499  1.00  0.00    -0.093 OA 
BRANCH  24  25
HETATM   25  C   UNL     1      -6.351   8.569  66.939  1.00  0.00    -0.056 C  
HETATM   26  O   UNL     1      -6.033   8.317  68.089  1.00  0.00    -0.040 OA 
BRANCH  25  27
HETATM   27  C   UNL     1      -5.419   8.498  65.742  1.00  0.00    -0.035 C  
BRANCH  27  28
HETATM   28  C   UNL     1      -5.647   9.605  64.735  1.00  0.00    -0.068 C  
BRANCH  28  29
HETATM   29  C   UNL     1      -7.098   9.663  64.267  1.00  0.00    -0.119 C  
BRANCH  29  30
HETATM   30  C   UNL     1      -7.175  10.112  62.814  1.00  0.00    -0.135 C  
HETATM   31  C   UNL     1      -6.112  11.152  62.507  1.00  0.00     0.131 C  
ENDBRANCH  29  30
ENDBRANCH  28  29
ENDBRANCH  27  28
ENDBRANCH  25  27
ENDBRANCH  24  25
ENDBRANCH   4  24
TORSDOF 7
ENDMDL
MODEL      116
REMARK 921   NORMALIZED FREE ENERGY PREDICTED BY IDOCK:   -1.63 KCAL/MOL
REMARK 922        TOTAL FREE ENERGY PREDICTED BY IDOCK:   -2.50 KCAL/MOL
REMARK 923 INTER-LIGAND FREE ENERGY PREDICTED BY IDOCK:   -2.71 KCAL/MOL
REMARK 924 INTRA-LIGAND FREE ENERGY PREDICTED BY IDOCK:    0.21 KCAL/MOL
REMARK 927      BINDING AFFINITY PREDICTED BY RF-SCORE:    0.00 PKD
ROOT
HETATM    1  C   UNL     1      -6.561   8.812  68.112  1.00  0.00    -0.061 C  
HETATM    2  C   UNL     1      -5.857   8.599  69.324  1.00  0.00    -0.038 C  
HETATM    3  C   UNL     1      -7.261   9.072  69.440  1.00  0.00    -0.057 C  
HETATM    4  C   UNL     1      -8.326   9.041  67.676  1.00  0.00    -0.117 C  
HETATM    5  C   UNL     1      -5.891  13.460  67.780  1.00  0.00    -0.128 C  
HETATM    6  C   UNL     1      -6.781  15.047  69.976  1.00  0.00    -0.147 C  
HETATM    7  C   UNL     1      -8.314   8.179  68.723  1.00  0.00    -0.126 C  
HETATM    8  C   UNL     1      -8.493   6.675  68.838  1.00  0.00    -0.123 C  
HETATM    9  O   UNL     1      -6.001  16.840  68.575  1.00  0.00    -0.127 OA 
HETATM   10  C   UNL     1      -5.148  12.473  66.910  1.00  0.00     0.254 C  
HETATM   11  C   UNL     1      -7.767  13.985  69.503  1.00  0.00     0.359 C  
HETATM   12  C   UNL     1      -9.361   9.436  69.624  1.00  0.00    -0.199 C  
HETATM   13  C   UNL     1      -8.954  11.063  69.161  1.00  0.00    -0.000 C  
HETATM   14  C   UNL     1      -6.058  15.640  68.809  1.00  0.00    -0.100 C  
HETATM   15  C   UNL     1      -5.333  14.667  67.980  1.00  0.00    -0.114 C  
HETATM   16  C   UNL     1      -8.263  13.399  67.099  1.00  0.00    -0.121 C  
HETATM   17  C   UNL     1      -7.402  11.567  68.717  1.00  0.00    -0.115 C  
HETATM   18  C   UNL     1      -6.575  10.577  67.712  1.00  0.00    -0.061 C  
HETATM   19  C   UNL     1      -7.312  13.094  68.278  1.00  0.00    -0.116 C  
HETATM   20  C   UNL     1      -5.146  11.064  67.485  1.00  0.00    -0.038 C  
ENDROOT
BRANCH   4  21
HETATM   21  C   UNL     1      -9.890   8.900  67.224  1.00  0.00    -0.199 C  
HETATM   22  O   UNL     1     -10.540   7.847  67.274  1.00  0.00    -0.297 OA 
HETATM   23  C   UNL     1     -10.608  10.080  66.631  1.00  0.00    -0.196 C  
ENDBRANCH   4  21
BRANCH   4  24
HETATM   24  O   UNL     1      -7.961   8.009  66.550  1.00  0.00    -0.098 OA 
BRANCH  24  25
HETATM   25  C   UNL     1      -7.730   8.379  65.264  1.00  0.00    -0.098 C  
HETATM   26  O   UNL     1      -7.488   9.513  64.885  1.00  0.00    -0.104 OA 
BRANCH  25  27
HETATM   27  C   UNL     1      -7.626   7.132  64.403  1.00  0.00    -0.112 C  
BRANCH  27  28
HETATM   28  C   UNL     1      -6.778   6.042  65.023  1.00  0.00    -0.043 C  
BRANCH  28  29
HETATM   29  C   UNL     1      -7.627   4.903  65.579  1.00  0.00    -0.085 C  
BRANCH  29  30
HETATM   30  C   UNL     1      -9.030   4.941  64.989  1.00  0.00    -0.147 C  
HETATM   31  C   UNL     1      -9.466   3.561  64.529  1.00  0.00    -0.154 C  
ENDBRANCH  29  30
ENDBRANCH  28  29
ENDBRANCH  27  28
ENDBRANCH  25  27
ENDBRANCH  24  25
ENDBRANCH   4  24
TORSDOF 7
ENDMDL
MODEL      117
REMARK 921   NORMALIZED FREE ENERGY PREDICTED BY IDOCK:   -1.44 KCAL/MOL
REMARK 922        TOTAL FREE ENERGY PREDICTED BY IDOCK:   -2.24 KCAL/MOL
REMARK 923 INTER-LIGAND FREE ENERGY PREDICTED BY IDOCK:   -4.27 KCAL/MOL
REMARK 924 INTRA-LIGAND FREE ENERGY PREDICTED BY IDOCK:    2.02 KCAL/MOL
REMARK 927      BINDING AFFINITY PREDICTED BY RF-SCORE:    0.00 PKD
ROOT
HETATM    1  C   UNL     1      -7.023   8.112  68.991  1.00  0.00    -0.061 C  
HETATM    2  C   UNL     1      -6.658   8.512  70.301  1.00  0.00    -0.039 C  
HETATM    3  C   UNL     1      -8.102   8.261  70.056  1.00  0.00    -0.116 C  
HETATM    4  C   UNL     1      -8.525   7.368  68.248  1.00  0.00    -0.125 C  
HETATM    5  C   UNL     1      -8.325  12.332  67.362  1.00  0.00    -0.177 C  
HETATM    6  C   UNL     1     -10.369  13.695  68.811  1.00  0.00    -0.182 C  
HETATM    7  C   UNL     1      -8.435   6.848  69.497  1.00  0.00    -0.133 C  
HETATM    8  C   UNL     1      -7.984   5.502  70.036  1.00  0.00    -0.086 C  
HETATM    9  O   UNL     1     -10.072  15.320  67.063  1.00  0.00    -0.243 OA 
HETATM   10  C   UNL     1      -7.027  11.675  66.956  1.00  0.00    -0.144 C  
HETATM   11  C   UNL     1     -10.639  12.219  68.542  1.00  0.00    -0.254 C  
HETATM   12  C   UNL     1     -10.120   7.595  69.805  1.00  0.00    -0.196 C  
HETATM   13  C   UNL     1     -10.331   9.086  68.935  1.00  0.00    -0.232 C  
HETATM   14  C   UNL     1      -9.677  14.317  67.641  1.00  0.00    -0.220 C  
HETATM   15  C   UNL     1      -8.411  13.671  67.265  1.00  0.00    -0.182 C  
HETATM   16  C   UNL     1     -10.160  11.000  66.386  1.00  0.00    -0.275 C  
HETATM   17  C   UNL     1      -9.083  10.176  68.595  1.00  0.00    -0.143 C  
HETATM   18  C   UNL     1      -7.674   9.530  68.075  1.00  0.00    -0.087 C  
HETATM   19  C   UNL     1      -9.533  11.434  67.730  1.00  0.00    -0.167 C  
HETATM   20  C   UNL     1      -6.585  10.589  67.926  1.00  0.00    -0.061 C  
ENDROOT
BRANCH   4  21
HETATM   21  C   UNL     1      -9.690   6.403  67.632  1.00  0.00    -0.118 C  
HETATM   22  O   UNL     1     -10.708   6.813  67.059  1.00  0.00    -0.303 OA 
HETATM   23  C   UNL     1      -9.603   4.913  67.816  1.00  0.00    -0.184 C  
ENDBRANCH   4  21
BRANCH   4  24
HETATM   24  O   UNL     1      -7.463   6.439  67.558  1.00  0.00    -0.088 OA 
BRANCH  24  25
HETATM   25  C   UNL     1      -6.710   6.844  66.502  1.00  0.00    -0.052 C  
HETATM   26  O   UNL     1      -5.731   7.569  66.567  1.00  0.00    -0.030 OA 
BRANCH  25  27
HETATM   27  C   UNL     1      -7.159   6.096  65.259  1.00  0.00    -0.064 C  
BRANCH  27  28
HETATM   28  C   UNL     1      -6.222   4.979  64.858  1.00  0.00    -0.033 C  
BRANCH  28  29
HETATM   29  C   UNL     1      -6.973   3.768  64.313  1.00  0.00    -0.046 C  
BRANCH  29  30
HETATM   30  C   UNL     1      -8.391   4.151  63.912  1.00  0.00    -0.097 C  
HETATM   31  C   UNL     1      -9.353   2.998  64.140  1.00  0.00    -0.127 C  
ENDBRANCH  29  30
ENDBRANCH  28  29
ENDBRANCH  27  28
ENDBRANCH  25  27
ENDBRANCH  24  25
ENDBRANCH   4  24
TORSDOF 7
ENDMDL
MODEL      118
REMARK 921   NORMALIZED FREE ENERGY PREDICTED BY IDOCK:   -1.39 KCAL/MOL
REMARK 922        TOTAL FREE ENERGY PREDICTED BY IDOCK:   -2.17 KCAL/MOL
REMARK 923 INTER-LIGAND FREE ENERGY PREDICTED BY IDOCK:   -3.13 KCAL/MOL
REMARK 924 INTRA-LIGAND FREE ENERGY PREDICTED BY IDOCK:    0.96 KCAL/MOL
REMARK 927      BINDING AFFINITY PREDICTED BY RF-SCORE:    0.00 PKD
ROOT
HETATM    1  C   UNL     1      -7.647  10.402  69.536  1.00  0.00    -0.158 C  
HETATM    2  C   UNL     1      -6.677   9.653  70.249  1.00  0.00    -0.099 C  
HETATM    3  C   UNL     1      -6.308  10.092  68.878  1.00  0.00    -0.044 C  
HETATM    4  C   UNL     1      -7.610  11.445  68.030  1.00  0.00    -0.110 C  
HETATM    5  C   UNL     1      -9.477   6.866  67.023  1.00  0.00    -0.183 C  
HETATM    6  C   UNL     1      -7.671   5.382  65.389  1.00  0.00    -0.092 C  
HETATM    7  C   UNL     1      -6.408  11.625  68.632  1.00  0.00    -0.055 C  
HETATM    8  C   UNL     1      -5.821  12.744  69.473  1.00  0.00    -0.105 C  
HETATM    9  O   UNL     1      -9.689   4.226  64.774  1.00  0.00    -0.168 OA 
HETATM   10  C   UNL     1     -10.199   7.479  68.200  1.00  0.00    -0.228 C  
HETATM   11  C   UNL     1      -7.519   6.896  65.312  1.00  0.00    -0.089 C  
HETATM   12  C   UNL     1      -5.648  10.986  67.050  1.00  0.00    -0.066 C  
HETATM   13  C   UNL     1      -6.655   9.788  66.291  1.00  0.00    -0.073 C  
HETATM   14  C   UNL     1      -9.113   5.011  65.516  1.00  0.00    -0.158 C  
HETATM   15  C   UNL     1      -9.798   5.608  66.672  1.00  0.00    -0.191 C  
HETATM   16  C   UNL     1      -9.408   8.567  65.235  1.00  0.00     0.156 C  
HETATM   17  C   UNL     1      -7.646   8.706  67.131  1.00  0.00    -0.092 C  
HETATM   18  C   UNL     1      -8.516   9.326  68.368  1.00  0.00    -0.120 C  
HETATM   19  C   UNL     1      -8.512   7.753  66.195  1.00  0.00    -0.143 C  
HETATM   20  C   UNL     1      -9.269   8.240  69.133  1.00  0.00    -0.151 C  
ENDROOT
BRANCH   4  21
HETATM   21  C   UNL     1      -7.540  12.639  66.917  1.00  0.00     0.124 C  
HETATM   22  O   UNL     1      -6.947  13.714  67.081  1.00  0.00    -0.105 OA 
HETATM   23  C   UNL     1      -8.291  12.502  65.622  1.00  0.00     1.391 C  
ENDBRANCH   4  21
BRANCH   4  24
HETATM   24  O   UNL     1      -8.448  12.414  68.940  1.00  0.00     0.072 OA 
BRANCH  24  25
HETATM   25  C   UNL     1      -9.626  12.959  68.540  1.00  0.00    -0.111 C  
HETATM   26  O   UNL     1      -9.926  14.138  68.625  1.00  0.00    -0.232 OA 
BRANCH  25  27
HETATM   27  C   UNL     1     -10.428  11.908  67.793  1.00  0.00    -0.224 C  
BRANCH  27  28
HETATM   28  C   UNL     1     -11.820  12.368  67.417  1.00  0.00    -0.360 C  
BRANCH  28  29
HETATM   29  C   UNL     1     -11.805  13.338  66.241  1.00  0.00    -0.444 C  
BRANCH  29  30
HETATM   30  C   UNL     1     -12.526  12.739  65.040  1.00  0.00    -0.572 C  
HETATM   31  C   UNL     1     -11.543  12.099  64.077  1.00  0.00    -0.504 C  
ENDBRANCH  29  30
ENDBRANCH  28  29
ENDBRANCH  27  28
ENDBRANCH  25  27
ENDBRANCH  24  25
ENDBRANCH   4  24
TORSDOF 7
ENDMDL
MODEL      119
REMARK 921   NORMALIZED FREE ENERGY PREDICTED BY IDOCK:   -1.37 KCAL/MOL
REMARK 922        TOTAL FREE ENERGY PREDICTED BY IDOCK:   -2.14 KCAL/MOL
REMARK 923 INTER-LIGAND FREE ENERGY PREDICTED BY IDOCK:   -2.92 KCAL/MOL
REMARK 924 INTRA-LIGAND FREE ENERGY PREDICTED BY IDOCK:    0.78 KCAL/MOL
REMARK 927      BINDING AFFINITY PREDICTED BY RF-SCORE:    0.00 PKD
ROOT
HETATM    1  C   UNL     1      -9.709   3.575  71.979  1.00  0.00    -0.232 C  
HETATM    2  C   UNL     1     -10.339   2.361  71.606  1.00  0.00     0.225 C  
HETATM    3  C   UNL     1      -8.854   2.390  71.550  1.00  0.00    -0.121 C  
HETATM    4  C   UNL     1      -7.994   4.050  72.416  1.00  0.00    -0.082 C  
HETATM    5  C   UNL     1      -9.082   5.338  67.660  1.00  0.00    -0.113 C  
HETATM    6  C   UNL     1      -7.602   3.738  65.821  1.00  0.00    -0.081 C  
HETATM    7  C   UNL     1      -8.157   2.787  72.883  1.00  0.00    -0.066 C  
HETATM    8  C   UNL     1      -8.394   2.211  74.268  1.00  0.00    -0.058 C  
HETATM    9  O   UNL     1      -7.967   5.631  64.382  1.00  0.00    -0.111 OA 
HETATM   10  C   UNL     1     -10.142   5.862  68.600  1.00  0.00    -0.213 C  
HETATM   11  C   UNL     1      -6.995   3.852  67.215  1.00  0.00    -0.055 C  
HETATM   12  C   UNL     1      -6.728   2.315  71.777  1.00  0.00    -0.019 C  
HETATM   13  C   UNL     1      -6.703   3.263  70.318  1.00  0.00    -0.033 C  
HETATM   14  C   UNL     1      -8.226   5.035  65.419  1.00  0.00    -0.120 C  
HETATM   15  C   UNL     1      -9.262   5.526  66.340  1.00  0.00    -0.155 C  
HETATM   16  C   UNL     1      -6.888   5.952  68.609  1.00  0.00    -0.066 C  
HETATM   17  C   UNL     1      -8.085   3.850  69.540  1.00  0.00    -0.062 C  
HETATM   18  C   UNL     1      -9.238   4.503  70.499  1.00  0.00    -0.190 C  
HETATM   19  C   UNL     1      -7.783   4.742  68.258  1.00  0.00    -0.081 C  
HETATM   20  C   UNL     1     -10.488   4.878  69.708  1.00  0.00    -0.074 C  
ENDROOT
BRANCH   4  21
HETATM   21  C   UNL     1      -6.576   4.427  73.135  1.00  0.00    -0.051 C  
HETATM   22  O   UNL     1      -6.207   3.982  74.230  1.00  0.00    -0.030 OA 
HETATM   23  C   UNL     1      -5.659   5.435  72.501  1.00  0.00    -0.018 C  
ENDBRANCH   4  21
BRANCH   4  24
HETATM   24  O   UNL     1      -8.726   4.802  73.584  1.00  0.00    -0.107 OA 
BRANCH  24  25
HETATM   25  C   UNL     1      -9.446   5.938  73.387  1.00  0.00    -0.138 C  
HETATM   26  O   UNL     1     -10.583   6.133  73.782  1.00  0.00    -0.265 OA 
BRANCH  25  27
HETATM   27  C   UNL     1      -8.544   6.993  72.772  1.00  0.00    -0.131 C  
BRANCH  27  28
HETATM   28  C   UNL     1      -9.252   7.881  71.771  1.00  0.00    -0.194 C  
BRANCH  28  29
HETATM   29  C   UNL     1      -8.339   8.975  71.229  1.00  0.00    -0.180 C  
BRANCH  29  30
HETATM   30  C   UNL     1      -6.936   8.434  70.988  1.00  0.00    -0.056 C  
HETATM   31  C   UNL     1      -6.334   9.024  69.725  1.00  0.00    -0.038 C  
ENDBRANCH  29  30
ENDBRANCH  28  29
ENDBRANCH  27  28
ENDBRANCH  25  27
ENDBRANCH  24  25
ENDBRANCH   4  24
TORSDOF 7
ENDMDL
MODEL      120
REMARK 921   NORMALIZED FREE ENERGY PREDICTED BY IDOCK:   -1.36 KCAL/MOL
REMARK 922        TOTAL FREE ENERGY PREDICTED BY IDOCK:   -2.12 KCAL/MOL
REMARK 923 INTER-LIGAND FREE ENERGY PREDICTED BY IDOCK:   -3.85 KCAL/MOL
REMARK 924 INTRA-LIGAND FREE ENERGY PREDICTED BY IDOCK:    1.73 KCAL/MOL
REMARK 927      BINDING AFFINITY PREDICTED BY RF-SCORE:    0.00 PKD
ROOT
HETATM    1  C   UNL     1      -8.306  13.708  68.394  1.00  0.00    -0.147 C  
HETATM    2  C   UNL     1      -7.700  13.562  69.668  1.00  0.00     0.811 C  
HETATM    3  C   UNL     1      -8.955  14.355  69.611  1.00  0.00     0.585 C  
HETATM    4  C   UNL     1      -9.957  14.252  67.812  1.00  0.00    -0.227 C  
HETATM    5  C   UNL     1      -6.552  17.944  67.324  1.00  0.00    -0.188 C  
HETATM    6  C   UNL     1      -7.094  20.060  69.158  1.00  0.00    -0.228 C  
HETATM    7  C   UNL     1     -10.172  13.612  68.989  1.00  0.00    -0.006 C  
HETATM    8  C   UNL     1     -10.704  12.234  69.344  1.00  0.00     0.085 C  
HETATM    9  O   UNL     1      -5.881  21.347  67.527  1.00  0.00    -0.325 OA 
HETATM   10  C   UNL     1      -6.042  16.674  66.684  1.00  0.00    -0.007 C  
HETATM   11  C   UNL     1      -8.291  19.183  68.808  1.00  0.00    -0.377 C  
HETATM   12  C   UNL     1     -10.915  15.215  69.594  1.00  0.00    -0.291 C  
HETATM   13  C   UNL     1     -10.125  16.596  68.890  1.00  0.00    -0.274 C  
HETATM   14  C   UNL     1      -6.225  20.254  67.957  1.00  0.00    -0.256 C  
HETATM   15  C   UNL     1      -5.730  19.009  67.353  1.00  0.00    -0.168 C  
HETATM   16  C   UNL     1      -8.855  18.304  66.512  1.00  0.00    -0.284 C  
HETATM   17  C   UNL     1      -8.488  16.645  68.469  1.00  0.00    -0.233 C  
HETATM   18  C   UNL     1      -7.894  15.329  67.701  1.00  0.00    -0.177 C  
HETATM   19  C   UNL     1      -8.031  18.007  67.784  1.00  0.00    -0.235 C  
HETATM   20  C   UNL     1      -6.386  15.429  67.488  1.00  0.00    -0.148 C  
ENDROOT
BRANCH   4  21
HETATM   21  C   UNL     1     -11.498  14.391  67.291  1.00  0.00    -0.359 C  
HETATM   22  O   UNL     1     -12.333  13.477  67.322  1.00  0.00    -0.297 OA 
HETATM   23  C   UNL     1     -11.960  15.671  66.652  1.00  0.00     0.720 C  
ENDBRANCH   4  21
BRANCH   4  24
HETATM   24  O   UNL     1      -9.819  12.978  66.903  1.00  0.00    -0.229 OA 
BRANCH  24  25
HETATM   25  C   UNL     1     -10.097  12.994  65.573  1.00  0.00    -0.259 C  
HETATM   26  O   UNL     1      -9.964  13.953  64.833  1.00  0.00    -0.311 OA 
BRANCH  25  27
HETATM   27  C   UNL     1     -10.410  11.579  65.119  1.00  0.00    -0.329 C  
BRANCH  27  28
HETATM   28  C   UNL     1     -10.439  10.576  66.251  1.00  0.00    -0.250 C  
BRANCH  28  29
HETATM   29  C   UNL     1      -9.115  10.525  67.006  1.00  0.00    -0.156 C  
BRANCH  29  30
HETATM   30  C   UNL     1      -9.057   9.300  67.909  1.00  0.00    -0.133 C  
HETATM   31  C   UNL     1      -8.634   9.679  69.317  1.00  0.00    -0.153 C  
ENDBRANCH  29  30
ENDBRANCH  28  29
ENDBRANCH  27  28
ENDBRANCH  25  27
ENDBRANCH  24  25
ENDBRANCH   4  24
TORSDOF 7
ENDMDL
MODEL      121
REMARK 921   NORMALIZED FREE ENERGY PREDICTED BY IDOCK:   -1.19 KCAL/MOL
REMARK 922        TOTAL FREE ENERGY PREDICTED BY IDOCK:   -1.89 KCAL/MOL
REMARK 923 INTER-LIGAND FREE ENERGY PREDICTED BY IDOCK:   -2.04 KCAL/MOL
REMARK 924 INTRA-LIGAND FREE ENERGY PREDICTED BY IDOCK:    0.15 KCAL/MOL
REMARK 927      BINDING AFFINITY PREDICTED BY RF-SCORE:    0.00 PKD
ROOT
HETATM    1  C   UNL     1     -11.442  11.102  65.528  1.00  0.00     0.272 C  
HETATM    2  C   UNL     1     -12.471  11.774  64.820  1.00  0.00     0.283 C  
HETATM    3  C   UNL     1     -11.110  12.365  64.743  1.00  0.00    -0.345 C  
HETATM    4  C   UNL     1      -9.611  11.173  65.506  1.00  0.00    -0.226 C  
HETATM    5  C   UNL     1     -11.484  13.763  69.411  1.00  0.00    -0.341 C  
HETATM    6  C   UNL     1     -11.063  16.561  69.056  1.00  0.00    -0.284 C  
HETATM    7  C   UNL     1     -10.004  11.399  64.227  1.00  0.00    -0.329 C  
HETATM    8  C   UNL     1     -10.028  10.538  62.977  1.00  0.00    -0.160 C  
HETATM    9  O   UNL     1     -11.227  16.560  71.456  1.00  0.00    -0.129 OA 
HETATM   10  C   UNL     1     -12.063  12.368  69.382  1.00  0.00    -0.237 C  
HETATM   11  C   UNL     1     -10.107  15.659  68.284  1.00  0.00    -0.218 C  
HETATM   12  C   UNL     1      -9.113  13.035  64.363  1.00  0.00     1.835 C  
HETATM   13  C   UNL     1      -9.198  13.682  65.976  1.00  0.00     0.072 C  
HETATM   14  C   UNL     1     -11.368  15.968  70.394  1.00  0.00    -0.391 C  
HETATM   15  C   UNL     1     -11.940  14.615  70.347  1.00  0.00    -0.375 C  
HETATM   16  C   UNL     1      -9.037  13.549  69.160  1.00  0.00     0.530 C  
HETATM   17  C   UNL     1     -10.504  13.455  67.026  1.00  0.00    -0.257 C  
HETATM   18  C   UNL     1     -11.127  11.945  67.098  1.00  0.00    -0.347 C  
HETATM   19  C   UNL     1     -10.303  14.101  68.466  1.00  0.00    -0.249 C  
HETATM   20  C   UNL     1     -12.377  11.888  67.972  1.00  0.00     0.614 C  
ENDROOT
BRANCH   4  21
HETATM   21  C   UNL     1      -8.009  10.964  65.266  1.00  0.00     0.094 C  
HETATM   22  O   UNL     1      -7.519  10.359  64.304  1.00  0.00    -0.108 OA 
HETATM   23  C   UNL     1      -7.028  11.454  66.294  1.00  0.00     0.072 C  
ENDBRANCH   4  21
BRANCH   4  24
HETATM   24  O   UNL     1      -9.764   9.610  65.499  1.00  0.00    -0.280 OA 
BRANCH  24  25
HETATM   25  C   UNL     1      -9.360   8.829  66.535  1.00  0.00    -0.203 C  
HETATM   26  O   UNL     1      -8.554   7.917  66.464  1.00  0.00    -0.129 OA 
BRANCH  25  27
HETATM   27  C   UNL     1      -9.920   9.398  67.828  1.00  0.00    -0.228 C  
BRANCH  27  28
HETATM   28  C   UNL     1      -8.858   9.692  68.865  1.00  0.00    -0.136 C  
BRANCH  28  29
HETATM   29  C   UNL     1      -9.261   9.203  70.252  1.00  0.00    -0.249 C  
BRANCH  29  30
HETATM   30  C   UNL     1     -10.767   8.988  70.330  1.00  0.00    -0.262 C  
HETATM   31  C   UNL     1     -11.156   8.320  71.637  1.00  0.00    -0.326 C  
ENDBRANCH  29  30
ENDBRANCH  28  29
ENDBRANCH  27  28
ENDBRANCH  25  27
ENDBRANCH  24  25
ENDBRANCH   4  24
TORSDOF 7
ENDMDL
MODEL      122
REMARK 921   NORMALIZED FREE ENERGY PREDICTED BY IDOCK:   -1.10 KCAL/MOL
REMARK 922        TOTAL FREE ENERGY PREDICTED BY IDOCK:   -1.76 KCAL/MOL
REMARK 923 INTER-LIGAND FREE ENERGY PREDICTED BY IDOCK:   -2.86 KCAL/MOL
REMARK 924 INTRA-LIGAND FREE ENERGY PREDICTED BY IDOCK:    1.10 KCAL/MOL
REMARK 927      BINDING AFFINITY PREDICTED BY RF-SCORE:    0.00 PKD
ROOT
HETATM    1  C   UNL     1     -10.335  12.694  66.110  1.00  0.00    -0.273 C  
HETATM    2  C   UNL     1     -11.374  12.269  65.244  1.00  0.00    -0.384 C  
HETATM    3  C   UNL     1     -11.751  13.211  66.330  1.00  0.00    -0.424 C  
HETATM    4  C   UNL     1     -10.158  14.044  67.336  1.00  0.00    -0.244 C  
HETATM    5  C   UNL     1     -11.117   9.641  69.607  1.00  0.00    -0.223 C  
HETATM    6  C   UNL     1     -13.723   9.655  70.766  1.00  0.00     0.119 C  
HETATM    7  C   UNL     1     -10.946  14.542  66.351  1.00  0.00    -0.324 C  
HETATM    8  C   UNL     1     -10.696  15.499  65.199  1.00  0.00    -0.460 C  
HETATM    9  O   UNL     1     -12.746   7.976  72.185  1.00  0.00    -0.308 OA 
HETATM   10  C   UNL     1      -9.954   9.496  68.654  1.00  0.00    -0.181 C  
HETATM   11  C   UNL     1     -13.103  11.030  70.551  1.00  0.00    -0.031 C  
HETATM   12  C   UNL     1     -12.239  14.802  67.674  1.00  0.00     0.008 C  
HETATM   13  C   UNL     1     -12.161  13.571  68.901  1.00  0.00    -0.315 C  
HETATM   14  C   UNL     1     -12.675   8.673  71.182  1.00  0.00    -0.123 C  
HETATM   15  C   UNL     1     -11.556   8.537  70.238  1.00  0.00     0.004 C  
HETATM   16  C   UNL     1     -10.694  11.647  70.982  1.00  0.00     3.515 C  
HETATM   17  C   UNL     1     -11.699  11.970  68.615  1.00  0.00    -0.380 C  
HETATM   18  C   UNL     1     -10.397  11.749  67.652  1.00  0.00    -0.219 C  
HETATM   19  C   UNL     1     -11.653  11.061  69.921  1.00  0.00    -0.416 C  
HETATM   20  C   UNL     1     -10.152  10.271  67.359  1.00  0.00    -0.246 C  
ENDROOT
BRANCH   4  21
HETATM   21  C   UNL     1      -9.850  15.420  68.162  1.00  0.00    -0.213 C  
HETATM   22  O   UNL     1      -9.641  16.521  67.634  1.00  0.00    -0.231 OA 
HETATM   23  C   UNL     1      -9.727  15.384  69.659  1.00  0.00    -0.251 C  
ENDBRANCH   4  21
BRANCH   4  24
HETATM   24  O   UNL     1      -8.776  14.231  66.613  1.00  0.00    -0.184 OA 
BRANCH  24  25
HETATM   25  C   UNL     1      -7.587  14.066  67.250  1.00  0.00    -0.070 C  
HETATM   26  O   UNL     1      -7.054  12.996  67.489  1.00  0.00    -0.146 OA 
BRANCH  25  27
HETATM   27  C   UNL     1      -6.936  15.425  67.440  1.00  0.00    -0.222 C  
BRANCH  27  28
HETATM   28  C   UNL     1      -5.723  15.390  68.342  1.00  0.00    -0.105 C  
BRANCH  28  29
HETATM   29  C   UNL     1      -5.957  16.144  69.647  1.00  0.00    -0.171 C  
BRANCH  29  30
HETATM   30  C   UNL     1      -5.835  17.647  69.430  1.00  0.00    -0.227 C  
HETATM   31  C   UNL     1      -5.616  18.372  70.745  1.00  0.00    -0.131 C  
ENDBRANCH  29  30
ENDBRANCH  28  29
ENDBRANCH  27  28
ENDBRANCH  25  27
ENDBRANCH  24  25
ENDBRANCH   4  24
TORSDOF 7
ENDMDL
MODEL      123
REMARK 921   NORMALIZED FREE ENERGY PREDICTED BY IDOCK:   -1.02 KCAL/MOL
REMARK 922        TOTAL FREE ENERGY PREDICTED BY IDOCK:   -1.65 KCAL/MOL
REMARK 923 INTER-LIGAND FREE ENERGY PREDICTED BY IDOCK:   -2.97 KCAL/MOL
REMARK 924 INTRA-LIGAND FREE ENERGY PREDICTED BY IDOCK:    1.32 KCAL/MOL
REMARK 927      BINDING AFFINITY PREDICTED BY RF-SCORE:    0.00 PKD
ROOT
HETATM    1  C   UNL     1      -8.664  15.796  69.522  1.00  0.00    -0.160 C  
HETATM    2  C   UNL     1      -8.315  15.293  70.801  1.00  0.00     2.047 C  
HETATM    3  C   UNL     1      -7.367  15.015  69.692  1.00  0.00    -0.181 C  
HETATM    4  C   UNL     1      -7.756  16.045  67.950  1.00  0.00    -0.138 C  
HETATM    5  C   UNL     1     -10.573  11.862  67.777  1.00  0.00    -0.233 C  
HETATM    6  C   UNL     1      -8.920   9.538  67.740  1.00  0.00    -0.126 C  
HETATM    7  C   UNL     1      -6.854  16.275  68.937  1.00  0.00    -0.165 C  
HETATM    8  C   UNL     1      -6.259  17.539  69.531  1.00  0.00    -0.246 C  
HETATM    9  O   UNL     1     -10.859   8.574  66.693  1.00  0.00    -0.090 OA 
HETATM   10  C   UNL     1     -11.411  13.040  68.218  1.00  0.00    -0.323 C  
HETATM   11  C   UNL     1      -8.252  10.816  67.246  1.00  0.00    -0.121 C  
HETATM   12  C   UNL     1      -5.851  14.890  68.187  1.00  0.00    -0.141 C  
HETATM   13  C   UNL     1      -6.869  13.660  67.495  1.00  0.00    -0.152 C  
HETATM   14  C   UNL     1     -10.351   9.501  67.309  1.00  0.00    -0.255 C  
HETATM   15  C   UNL     1     -11.154  10.649  67.755  1.00  0.00    -0.385 C  
HETATM   16  C   UNL     1      -9.319  12.563  65.769  1.00  0.00     0.014 C  
HETATM   17  C   UNL     1      -8.392  13.237  68.095  1.00  0.00    -0.161 C  
HETATM   18  C   UNL     1      -9.377  14.471  68.516  1.00  0.00    -0.203 C  
HETATM   19  C   UNL     1      -9.142  12.123  67.240  1.00  0.00    -0.181 C  
HETATM   20  C   UNL     1     -10.667  13.973  69.162  1.00  0.00    -0.198 C  
ENDROOT
BRANCH   4  21
HETATM   21  C   UNL     1      -6.905  16.596  66.669  1.00  0.00    -0.184 C  
HETATM   22  O   UNL     1      -7.280  16.512  65.492  1.00  0.00     0.972 OA 
HETATM   23  C   UNL     1      -5.537  17.184  66.875  1.00  0.00    -0.215 C  
ENDBRANCH   4  21
BRANCH   4  24
HETATM   24  O   UNL     1      -8.481  17.438  68.001  1.00  0.00    -0.223 OA 
BRANCH  24  25
HETATM   25  C   UNL     1      -9.284  17.883  66.999  1.00  0.00    -0.260 C  
HETATM   26  O   UNL     1      -9.053  18.839  66.278  1.00  0.00    -0.374 OA 
BRANCH  25  27
HETATM   27  C   UNL     1     -10.412  16.888  66.791  1.00  0.00    -0.260 C  
BRANCH  27  28
HETATM   28  C   UNL     1     -10.766  16.676  65.335  1.00  0.00    -0.228 C  
BRANCH  28  29
HETATM   29  C   UNL     1     -10.628  15.215  64.918  1.00  0.00    -0.392 C  
BRANCH  29  30
HETATM   30  C   UNL     1     -11.778  14.805  64.008  1.00  0.00    -0.012 C  
HETATM   31  C   UNL     1     -12.379  13.482  64.450  1.00  0.00    -0.391 C  
ENDBRANCH  29  30
ENDBRANCH  28  29
ENDBRANCH  27  28
ENDBRANCH  25  27
ENDBRANCH  24  25
ENDBRANCH   4  24
TORSDOF 7
ENDMDL
MODEL      124
REMARK 921   NORMALIZED FREE ENERGY PREDICTED BY IDOCK:   -0.68 KCAL/MOL
REMARK 922        TOTAL FREE ENERGY PREDICTED BY IDOCK:   -1.17 KCAL/MOL
REMARK 923 INTER-LIGAND FREE ENERGY PREDICTED BY IDOCK:   -3.39 KCAL/MOL
REMARK 924 INTRA-LIGAND FREE ENERGY PREDICTED BY IDOCK:    2.23 KCAL/MOL
REMARK 927      BINDING AFFINITY PREDICTED BY RF-SCORE:    0.00 PKD
ROOT
HETATM    1  C   UNL     1      -8.302  10.555  67.506  1.00  0.00    -0.118 C  
HETATM    2  C   UNL     1      -8.089  10.072  68.822  1.00  0.00    -0.106 C  
HETATM    3  C   UNL     1      -9.216  11.022  68.633  1.00  0.00    -0.186 C  
HETATM    4  C   UNL     1      -9.680  11.423  66.666  1.00  0.00    -0.200 C  
HETATM    5  C   UNL     1      -6.009  14.644  67.937  1.00  0.00    -0.151 C  
HETATM    6  C   UNL     1      -6.883  16.394  70.012  1.00  0.00     0.334 C  
HETATM    7  C   UNL     1     -10.262  10.591  67.565  1.00  0.00    -0.245 C  
HETATM    8  C   UNL     1     -10.973   9.255  67.442  1.00  0.00    -0.022 C  
HETATM    9  O   UNL     1      -5.170  17.811  69.091  1.00  0.00    -0.170 OA 
HETATM   10  C   UNL     1      -5.437  13.474  67.171  1.00  0.00     0.646 C  
HETATM   11  C   UNL     1      -7.996  15.777  69.174  1.00  0.00    -0.231 C  
HETATM   12  C   UNL     1     -11.023  12.123  68.317  1.00  0.00    -0.273 C  
HETATM   13  C   UNL     1      -9.967  13.499  68.179  1.00  0.00    -0.240 C  
HETATM   14  C   UNL     1      -5.701  16.710  69.152  1.00  0.00    -0.146 C  
HETATM   15  C   UNL     1      -5.151  15.559  68.422  1.00  0.00    -0.096 C  
HETATM   16  C   UNL     1      -7.960  15.469  66.670  1.00  0.00    -0.134 C  
HETATM   17  C   UNL     1      -8.279  13.411  68.214  1.00  0.00    -0.160 C  
HETATM   18  C   UNL     1      -7.594  12.212  67.339  1.00  0.00    -0.155 C  
HETATM   19  C   UNL     1      -7.549  14.810  68.006  1.00  0.00    -0.130 C  
HETATM   20  C   UNL     1      -6.083  12.149  67.548  1.00  0.00    -0.124 C  
ENDROOT
BRANCH   4  21
HETATM   21  C   UNL     1     -11.000  11.872  65.814  1.00  0.00    -0.311 C  
HETATM   22  O   UNL     1     -12.136  11.986  66.293  1.00  0.00    -0.596 OA 
HETATM   23  C   UNL     1     -10.893  12.101  64.332  1.00  0.00    -0.372 C  
ENDBRANCH   4  21
BRANCH   4  24
HETATM   24  O   UNL     1      -9.389  10.355  65.551  1.00  0.00    -0.173 OA 
BRANCH  24  25
HETATM   25  C   UNL     1      -8.161  10.192  64.994  1.00  0.00    -0.149 C  
HETATM   26  O   UNL     1      -7.500  11.071  64.466  1.00  0.00     0.376 OA 
BRANCH  25  27
HETATM   27  C   UNL     1      -7.658   8.794  65.309  1.00  0.00    -0.091 C  
BRANCH  27  28
HETATM   28  C   UNL     1      -6.149   8.683  65.309  1.00  0.00    -0.049 C  
BRANCH  28  29
HETATM   29  C   UNL     1      -5.660   7.514  66.157  1.00  0.00    -0.032 C  
BRANCH  29  30
HETATM   30  C   UNL     1      -6.777   6.997  67.055  1.00  0.00    -0.059 C  
HETATM   31  C   UNL     1      -6.254   6.674  68.444  1.00  0.00    -0.030 C  
ENDBRANCH  29  30
ENDBRANCH  28  29
ENDBRANCH  27  28
ENDBRANCH  25  27
ENDBRANCH  24  25
ENDBRANCH   4  24
TORSDOF 7
ENDMDL
MODEL      125
REMARK 921   NORMALIZED FREE ENERGY PREDICTED BY IDOCK:   -0.47 KCAL/MOL
REMARK 922        TOTAL FREE ENERGY PREDICTED BY IDOCK:   -0.87 KCAL/MOL
REMARK 923 INTER-LIGAND FREE ENERGY PREDICTED BY IDOCK:   -6.46 KCAL/MOL
REMARK 924 INTRA-LIGAND FREE ENERGY PREDICTED BY IDOCK:    5.59 KCAL/MOL
REMARK 927      BINDING AFFINITY PREDICTED BY RF-SCORE:    0.00 PKD
ROOT
HETATM    1  C   UNL     1      -9.148  14.693  67.632  1.00  0.00    -0.193 C  
HETATM    2  C   UNL     1      -9.319  14.805  66.229  1.00  0.00    -0.310 C  
HETATM    3  C   UNL     1     -10.457  14.239  66.998  1.00  0.00    -0.271 C  
HETATM    4  C   UNL     1     -10.282  14.410  69.044  1.00  0.00    -0.179 C  
HETATM    5  C   UNL     1      -7.872  10.164  67.770  1.00  0.00    -0.098 C  
HETATM    6  C   UNL     1      -9.686   8.282  66.629  1.00  0.00    -0.321 C  
HETATM    7  C   UNL     1     -10.986  15.144  68.147  1.00  0.00    -0.287 C  
HETATM    8  C   UNL     1     -11.374  16.611  68.075  1.00  0.00    -0.052 C  
HETATM    9  O   UNL     1      -8.029   6.714  67.394  1.00  0.00    -0.111 OA 
HETATM   10  C   UNL     1      -6.882  11.288  67.969  1.00  0.00    -0.067 C  
HETATM   11  C   UNL     1     -10.323   9.330  67.533  1.00  0.00    -0.323 C  
HETATM   12  C   UNL     1     -12.207  13.730  68.120  1.00  0.00    -0.178 C  
HETATM   13  C   UNL     1     -11.418  12.196  68.344  1.00  0.00    -0.356 C  
HETATM   14  C   UNL     1      -8.353   7.872  67.170  1.00  0.00    -0.117 C  
HETATM   15  C   UNL     1      -7.400   8.977  67.348  1.00  0.00    -0.084 C  
HETATM   16  C   UNL     1      -9.383  10.161  69.722  1.00  0.00    -0.183 C  
HETATM   17  C   UNL     1      -9.854  11.841  67.806  1.00  0.00    -0.186 C  
HETATM   18  C   UNL     1      -8.718  12.988  68.064  1.00  0.00    -0.187 C  
HETATM   19  C   UNL     1      -9.346  10.384  68.194  1.00  0.00    -0.149 C  
HETATM   20  C   UNL     1      -7.383  12.618  67.425  1.00  0.00    -0.140 C  
ENDROOT
BRANCH   4  21
HETATM   21  C   UNL     1     -11.288  14.509  70.328  1.00  0.00    -0.171 C  
HETATM   22  O   UNL     1     -11.730  13.532  70.947  1.00  0.00    -0.082 OA 
HETATM   23  C   UNL     1     -11.798  15.849  70.778  1.00  0.00    -0.423 C  
ENDBRANCH   4  21
BRANCH   4  24
HETATM   24  O   UNL     1      -9.451  15.586  69.671  1.00  0.00    -0.273 OA 
BRANCH  24  25
HETATM   25  C   UNL     1      -8.215  15.930  69.223  1.00  0.00    -0.227 C  
HETATM   26  O   UNL     1      -7.213  15.241  69.310  1.00  0.00    -0.152 OA 
BRANCH  25  27
HETATM   27  C   UNL     1      -8.320  17.218  68.426  1.00  0.00    -0.261 C  
BRANCH  27  28
HETATM   28  C   UNL     1      -6.977  17.806  68.053  1.00  0.00    -0.197 C  
BRANCH  28  29
HETATM   29  C   UNL     1      -6.867  19.277  68.441  1.00  0.00    -0.309 C  
BRANCH  29  30
HETATM   30  C   UNL     1      -5.434  19.628  68.821  1.00  0.00    -0.222 C  
HETATM   31  C   UNL     1      -5.400  20.552  70.024  1.00  0.00    -0.354 C  
ENDBRANCH  29  30
ENDBRANCH  28  29
ENDBRANCH  27  28
ENDBRANCH  25  27
ENDBRANCH  24  25
ENDBRANCH   4  24
TORSDOF 7
ENDMDL
MODEL      126
REMARK 921   NORMALIZED FREE ENERGY PREDICTED BY IDOCK:   -0.36 KCAL/MOL
REMARK 922        TOTAL FREE ENERGY PREDICTED BY IDOCK:   -0.71 KCAL/MOL
REMARK 923 INTER-LIGAND FREE ENERGY PREDICTED BY IDOCK:   -5.96 KCAL/MOL
REMARK 924 INTRA-LIGAND FREE ENERGY PREDICTED BY IDOCK:    5.25 KCAL/MOL
REMARK 927      BINDING AFFINITY PREDICTED BY RF-SCORE:    0.00 PKD
ROOT
HETATM    1  C   UNL     1     -10.338  13.870  67.566  1.00  0.00    -0.245 C  
HETATM    2  C   UNL     1      -9.053  13.272  67.608  1.00  0.00    -0.204 C  
HETATM    3  C   UNL     1      -9.494  13.996  68.828  1.00  0.00    -0.076 C  
HETATM    4  C   UNL     1     -11.479  14.549  68.830  1.00  0.00    -0.300 C  
HETATM    5  C   UNL     1      -8.984  18.242  66.463  1.00  0.00    -0.285 C  
HETATM    6  C   UNL     1      -7.134  19.499  68.232  1.00  0.00    -0.330 C  
HETATM    7  C   UNL     1     -10.845  13.508  69.426  1.00  0.00    -0.032 C  
HETATM    8  C   UNL     1     -11.260  12.085  69.755  1.00  0.00    -0.105 C  
HETATM    9  O   UNL     1      -7.422  21.336  66.706  1.00  0.00    -0.185 OA 
HETATM   10  C   UNL     1      -9.631  17.319  65.457  1.00  0.00     0.419 C  
HETATM   11  C   UNL     1      -8.298  18.787  68.912  1.00  0.00    -0.244 C  
HETATM   12  C   UNL     1     -10.241  14.747  70.687  1.00  0.00     0.676 C  
HETATM   13  C   UNL     1      -9.973  16.312  69.974  1.00  0.00     0.223 C  
HETATM   14  C   UNL     1      -7.592  20.153  66.968  1.00  0.00    -0.299 C  
HETATM   15  C   UNL     1      -8.210  19.239  65.997  1.00  0.00    -0.206 C  
HETATM   16  C   UNL     1     -10.701  18.821  68.141  1.00  0.00    -0.180 C  
HETATM   17  C   UNL     1      -9.459  16.558  68.382  1.00  0.00    -0.223 C  
HETATM   18  C   UNL     1     -10.180  15.643  67.235  1.00  0.00    -0.266 C  
HETATM   19  C   UNL     1      -9.351  18.089  67.961  1.00  0.00    -0.273 C  
HETATM   20  C   UNL     1      -9.549  15.854  65.861  1.00  0.00    -0.378 C  
ENDROOT
BRANCH   4  21
HETATM   21  C   UNL     1     -12.642  14.834  69.941  1.00  0.00    -0.174 C  
HETATM   22  O   UNL     1     -13.215  15.921  70.091  1.00  0.00    -0.109 OA 
HETATM   23  C   UNL     1     -13.022  13.759  70.921  1.00  0.00    -0.287 C  
ENDBRANCH   4  21
BRANCH   4  24
HETATM   24  O   UNL     1     -12.533  13.714  68.018  1.00  0.00    -0.085 OA 
BRANCH  24  25
HETATM   25  C   UNL     1     -12.210  13.019  66.896  1.00  0.00    -0.168 C  
HETATM   26  O   UNL     1     -11.789  11.875  66.868  1.00  0.00    -0.590 OA 
BRANCH  25  27
HETATM   27  C   UNL     1     -12.643  13.819  65.679  1.00  0.00    -0.551 C  
BRANCH  27  28
HETATM   28  C   UNL     1     -12.917  12.961  64.463  1.00  0.00    -0.168 C  
BRANCH  28  29
HETATM   29  C   UNL     1     -11.841  13.122  63.394  1.00  0.00    -0.490 C  
BRANCH  29  30
HETATM   30  C   UNL     1     -10.535  12.481  63.845  1.00  0.00    -0.464 C  
HETATM   31  C   UNL     1     -10.607  10.968  63.743  1.00  0.00    -0.365 C  
ENDBRANCH  29  30
ENDBRANCH  28  29
ENDBRANCH  27  28
ENDBRANCH  25  27
ENDBRANCH  24  25
ENDBRANCH   4  24
TORSDOF 7
ENDMDL
MODEL      127
REMARK 921   NORMALIZED FREE ENERGY PREDICTED BY IDOCK:   -0.21 KCAL/MOL
REMARK 922        TOTAL FREE ENERGY PREDICTED BY IDOCK:   -0.50 KCAL/MOL
REMARK 923 INTER-LIGAND FREE ENERGY PREDICTED BY IDOCK:   -4.24 KCAL/MOL
REMARK 924 INTRA-LIGAND FREE ENERGY PREDICTED BY IDOCK:    3.74 KCAL/MOL
REMARK 927      BINDING AFFINITY PREDICTED BY RF-SCORE:    0.00 PKD
ROOT
HETATM    1  C   UNL     1      -9.458   7.011  67.217  1.00  0.00    -0.165 C  
HETATM    2  C   UNL     1     -10.568   6.292  66.707  1.00  0.00    -0.335 C  
HETATM    3  C   UNL     1     -10.766   7.001  67.997  1.00  0.00    -0.252 C  
HETATM    4  C   UNL     1      -9.242   8.289  68.513  1.00  0.00    -0.136 C  
HETATM    5  C   UNL     1      -7.878   3.735  70.205  1.00  0.00    -0.047 C  
HETATM    6  C   UNL     1      -9.713   2.806  72.180  1.00  0.00    -0.223 C  
HETATM    7  C   UNL     1     -10.458   8.526  67.960  1.00  0.00    -0.249 C  
HETATM    8  C   UNL     1     -10.970   9.557  66.970  1.00  0.00     0.014 C  
HETATM    9  O   UNL     1      -7.809   1.507  72.870  1.00  0.00    -0.038 OA 
HETATM   10  C   UNL     1      -7.184   4.037  68.897  1.00  0.00    -0.054 C  
HETATM   11  C   UNL     1      -9.670   4.318  71.997  1.00  0.00    -0.227 C  
HETATM   12  C   UNL     1     -11.159   8.272  69.673  1.00  0.00    -0.009 C  
HETATM   13  C   UNL     1     -10.249   7.093  70.572  1.00  0.00    -0.206 C  
HETATM   14  C   UNL     1      -8.342   2.227  72.036  1.00  0.00    -0.057 C  
HETATM   15  C   UNL     1      -7.686   2.522  70.755  1.00  0.00    -0.042 C  
HETATM   16  C   UNL     1      -7.590   5.706  71.663  1.00  0.00    -0.099 C  
HETATM   17  C   UNL     1      -9.470   5.761  69.880  1.00  0.00    -0.185 C  
HETATM   18  C   UNL     1      -8.635   6.040  68.503  1.00  0.00    -0.111 C  
HETATM   19  C   UNL     1      -8.655   4.871  70.918  1.00  0.00    -0.128 C  
HETATM   20  C   UNL     1      -8.087   4.749  67.901  1.00  0.00    -0.092 C  
ENDROOT
BRANCH   4  21
HETATM   21  C   UNL     1      -9.074   9.652  69.398  1.00  0.00    -0.188 C  
HETATM   22  O   UNL     1      -8.151   9.858  70.197  1.00  0.00    -0.179 OA 
HETATM   23  C   UNL     1     -10.125  10.724  69.329  1.00  0.00    -0.200 C  
ENDBRANCH   4  21
BRANCH   4  24
HETATM   24  O   UNL     1      -8.369   8.968  67.397  1.00  0.00    -0.111 OA 
BRANCH  24  25
HETATM   25  C   UNL     1      -7.566  10.036  67.644  1.00  0.00    -0.091 C  
HETATM   26  O   UNL     1      -6.577  10.029  68.357  1.00  0.00    -0.054 OA 
BRANCH  25  27
HETATM   27  C   UNL     1      -7.980  11.183  66.738  1.00  0.00    -0.156 C  
BRANCH  27  28
HETATM   28  C   UNL     1      -7.737  12.547  67.347  1.00  0.00    -0.167 C  
BRANCH  28  29
HETATM   29  C   UNL     1      -8.635  13.616  66.733  1.00  0.00    -0.050 C  
BRANCH  29  30
HETATM   30  C   UNL     1      -8.962  14.696  67.757  1.00  0.00    -0.181 C  
HETATM   31  C   UNL     1      -9.083  16.057  67.095  1.00  0.00    -0.224 C  
ENDBRANCH  29  30
ENDBRANCH  28  29
ENDBRANCH  27  28
ENDBRANCH  25  27
ENDBRANCH  24  25
ENDBRANCH   4  24
TORSDOF 7
ENDMDL
MODEL      128
REMARK 921   NORMALIZED FREE ENERGY PREDICTED BY IDOCK:   -0.21 KCAL/MOL
REMARK 922        TOTAL FREE ENERGY PREDICTED BY IDOCK:   -0.50 KCAL/MOL
REMARK 923 INTER-LIGAND FREE ENERGY PREDICTED BY IDOCK:   -1.56 KCAL/MOL
REMARK 924 INTRA-LIGAND FREE ENERGY PREDICTED BY IDOCK:    1.06 KCAL/MOL
REMARK 927      BINDING AFFINITY PREDICTED BY RF-SCORE:    0.00 PKD
ROOT
HETATM    1  C   UNL     1     -11.203  10.724  65.412  1.00  0.00     0.335 C  
HETATM    2  C   UNL     1     -12.245  11.365  64.696  1.00  0.00     0.573 C  
HETATM    3  C   UNL     1     -10.898  11.986  64.617  1.00  0.00    -0.357 C  
HETATM    4  C   UNL     1      -9.374  10.836  65.393  1.00  0.00    -0.207 C  
HETATM    5  C   UNL     1     -11.313  13.419  69.271  1.00  0.00    -0.314 C  
HETATM    6  C   UNL     1     -10.955  16.222  68.890  1.00  0.00    -0.334 C  
HETATM    7  C   UNL     1      -9.770  11.041  64.112  1.00  0.00    -0.332 C  
HETATM    8  C   UNL     1      -9.771  10.168  62.869  1.00  0.00    -0.096 C  
HETATM    9  O   UNL     1     -11.124  16.240  71.290  1.00  0.00    -0.173 OA 
HETATM   10  C   UNL     1     -11.860  12.011  69.253  1.00  0.00    -0.377 C  
HETATM   11  C   UNL     1      -9.977  15.335  68.128  1.00  0.00    -0.221 C  
HETATM   12  C   UNL     1      -8.916  12.698  64.234  1.00  0.00     1.660 C  
HETATM   13  C   UNL     1      -9.019  13.358  65.840  1.00  0.00     0.497 C  
HETATM   14  C   UNL     1     -11.249  15.635  70.233  1.00  0.00    -0.344 C  
HETATM   15  C   UNL     1     -11.790  14.269  70.198  1.00  0.00    -0.379 C  
HETATM   16  C   UNL     1      -8.861  13.258  69.026  1.00  0.00     0.444 C  
HETATM   17  C   UNL     1     -10.322  13.111  66.890  1.00  0.00    -0.247 C  
HETATM   18  C   UNL     1     -10.910  11.588  66.975  1.00  0.00    -0.320 C  
HETATM   19  C   UNL     1     -10.138  13.775  68.325  1.00  0.00    -0.239 C  
HETATM   20  C   UNL     1     -12.160  11.511  67.848  1.00  0.00     0.054 C  
ENDROOT
BRANCH   4  21
HETATM   21  C   UNL     1      -7.767  10.661  65.158  1.00  0.00     0.011 C  
HETATM   22  O   UNL     1      -7.261   9.945  64.283  1.00  0.00    -0.125 OA 
HETATM   23  C   UNL     1      -6.796  11.333  66.088  1.00  0.00     0.066 C  
ENDBRANCH   4  21
BRANCH   4  24
HETATM   24  O   UNL     1      -9.491   9.270  65.400  1.00  0.00    -0.254 OA 
BRANCH  24  25
HETATM   25  C   UNL     1      -9.788   8.562  66.522  1.00  0.00    -0.272 C  
HETATM   26  O   UNL     1     -10.744   7.818  66.657  1.00  0.00    -0.231 OA 
BRANCH  25  27
HETATM   27  C   UNL     1      -8.637   8.691  67.505  1.00  0.00    -0.135 C  
BRANCH  27  28
HETATM   28  C   UNL     1      -7.774   7.451  67.587  1.00  0.00    -0.112 C  
BRANCH  28  29
HETATM   29  C   UNL     1      -6.490   7.592  66.777  1.00  0.00    -0.053 C  
BRANCH  29  30
HETATM   30  C   UNL     1      -6.161   6.289  66.059  1.00  0.00    -0.037 C  
HETATM   31  C   UNL     1      -6.683   6.306  64.633  1.00  0.00    -0.038 C  
ENDBRANCH  29  30
ENDBRANCH  28  29
ENDBRANCH  27  28
ENDBRANCH  25  27
ENDBRANCH  24  25
ENDBRANCH   4  24
TORSDOF 7
ENDMDL
MODEL      129
REMARK 921   NORMALIZED FREE ENERGY PREDICTED BY IDOCK:   -0.01 KCAL/MOL
REMARK 922        TOTAL FREE ENERGY PREDICTED BY IDOCK:   -0.23 KCAL/MOL
REMARK 923 INTER-LIGAND FREE ENERGY PREDICTED BY IDOCK:   -2.61 KCAL/MOL
REMARK 924 INTRA-LIGAND FREE ENERGY PREDICTED BY IDOCK:    2.38 KCAL/MOL
REMARK 927      BINDING AFFINITY PREDICTED BY RF-SCORE:    0.00 PKD
ROOT
HETATM    1  C   UNL     1      -9.213  13.461  68.329  1.00  0.00    -0.198 C  
HETATM    2  C   UNL     1      -9.029  14.234  69.503  1.00  0.00     0.558 C  
HETATM    3  C   UNL     1      -8.072  13.120  69.279  1.00  0.00     0.647 C  
HETATM    4  C   UNL     1      -8.183  12.254  67.412  1.00  0.00    -0.178 C  
HETATM    5  C   UNL     1     -11.624   9.910  70.264  1.00  0.00    -0.319 C  
HETATM    6  C   UNL     1     -10.370   8.531  72.422  1.00  0.00    -0.372 C  
HETATM    7  C   UNL     1      -7.318  13.167  67.919  1.00  0.00    -0.131 C  
HETATM    8  C   UNL     1      -6.563  14.337  67.312  1.00  0.00     0.271 C  
HETATM    9  O   UNL     1     -12.372   7.202  72.308  1.00  0.00    -0.219 OA 
HETATM   10  C   UNL     1     -12.286  10.961  69.403  1.00  0.00    -0.293 C  
HETATM   11  C   UNL     1      -9.475   8.799  71.217  1.00  0.00    -0.320 C  
HETATM   12  C   UNL     1      -6.508  11.738  68.807  1.00  0.00    -0.066 C  
HETATM   13  C   UNL     1      -7.668  10.523  69.261  1.00  0.00    -0.144 C  
HETATM   14  C   UNL     1     -11.759   8.208  71.974  1.00  0.00    -0.332 C  
HETATM   15  C   UNL     1     -12.391   9.245  71.146  1.00  0.00    -0.363 C  
HETATM   16  C   UNL     1     -10.154   8.576  68.797  1.00  0.00    -0.210 C  
HETATM   17  C   UNL     1      -9.273  10.848  69.681  1.00  0.00     0.372 C  
HETATM   18  C   UNL     1     -10.069  11.920  68.738  1.00  0.00    -0.133 C  
HETATM   19  C   UNL     1     -10.140   9.551  69.996  1.00  0.00    -0.279 C  
HETATM   20  C   UNL     1     -11.460  12.233  69.285  1.00  0.00    -0.352 C  
ENDROOT
BRANCH   4  21
HETATM   21  C   UNL     1      -7.179  11.458  66.399  1.00  0.00     0.001 C  
HETATM   22  O   UNL     1      -6.091  11.898  66.003  1.00  0.00     0.154 OA 
HETATM   23  C   UNL     1      -7.592  10.133  65.823  1.00  0.00    -0.134 C  
ENDBRANCH   4  21
BRANCH   4  24
HETATM   24  O   UNL     1      -8.676  13.094  66.179  1.00  0.00     0.198 OA 
BRANCH  24  25
HETATM   25  C   UNL     1      -9.848  12.840  65.540  1.00  0.00    -0.156 C  
HETATM   26  O   UNL     1     -10.958  12.920  66.038  1.00  0.00    -0.272 OA 
BRANCH  25  27
HETATM   27  C   UNL     1      -9.569  12.633  64.062  1.00  0.00     0.337 C  
BRANCH  27  28
HETATM   28  C   UNL     1     -10.344  11.483  63.458  1.00  0.00    -0.484 C  
BRANCH  28  29
HETATM   29  C   UNL     1     -11.676  11.256  64.166  1.00  0.00     0.186 C  
BRANCH  29  30
HETATM   30  C   UNL     1     -12.812  11.925  63.402  1.00  0.00    -0.393 C  
HETATM   31  C   UNL     1     -12.526  13.400  63.182  1.00  0.00     0.018 C  
ENDBRANCH  29  30
ENDBRANCH  28  29
ENDBRANCH  27  28
ENDBRANCH  25  27
ENDBRANCH  24  25
ENDBRANCH   4  24
TORSDOF 7
ENDMDL
MODEL      130
REMARK 921   NORMALIZED FREE ENERGY PREDICTED BY IDOCK:    0.76 KCAL/MOL
REMARK 922        TOTAL FREE ENERGY PREDICTED BY IDOCK:    0.87 KCAL/MOL
REMARK 923 INTER-LIGAND FREE ENERGY PREDICTED BY IDOCK:   -2.96 KCAL/MOL
REMARK 924 INTRA-LIGAND FREE ENERGY PREDICTED BY IDOCK:    3.82 KCAL/MOL
REMARK 927      BINDING AFFINITY PREDICTED BY RF-SCORE:    0.00 PKD
ROOT
HETATM    1  C   UNL     1      -9.655   6.606  66.448  1.00  0.00    -0.147 C  
HETATM    2  C   UNL     1     -11.040   6.879  66.316  1.00  0.00     1.172 C  
HETATM    3  C   UNL     1     -10.202   7.948  66.918  1.00  0.00    -0.380 C  
HETATM    4  C   UNL     1      -8.171   7.631  66.776  1.00  0.00    -0.124 C  
HETATM    5  C   UNL     1      -9.688   5.239  70.952  1.00  0.00    -0.244 C  
HETATM    6  C   UNL     1     -10.730   7.095  72.851  1.00  0.00    -0.339 C  
HETATM    7  C   UNL     1      -9.002   8.411  66.042  1.00  0.00    -0.228 C  
HETATM    8  C   UNL     1      -9.021   8.830  64.582  1.00  0.00     0.032 C  
HETATM    9  O   UNL     1     -10.113   5.359  74.399  1.00  0.00    -0.210 OA 
HETATM   10  C   UNL     1      -9.541   4.259  69.812  1.00  0.00    -0.279 C  
HETATM   11  C   UNL     1      -9.764   7.686  71.830  1.00  0.00    -0.203 C  
HETATM   12  C   UNL     1      -8.967   9.603  67.479  1.00  0.00    -0.136 C  
HETATM   13  C   UNL     1      -8.828   8.772  69.001  1.00  0.00    -0.137 C  
HETATM   14  C   UNL     1     -10.293   5.720  73.243  1.00  0.00    -0.214 C  
HETATM   15  C   UNL     1     -10.164   4.777  72.123  1.00  0.00    -0.258 C  
HETATM   16  C   UNL     1      -7.634   6.606  71.017  1.00  0.00    -0.085 C  
HETATM   17  C   UNL     1      -9.481   7.245  69.316  1.00  0.00    -0.153 C  
HETATM   18  C   UNL     1      -9.285   6.115  68.150  1.00  0.00    -0.117 C  
HETATM   19  C   UNL     1      -9.157   6.683  70.769  1.00  0.00    -0.151 C  
HETATM   20  C   UNL     1     -10.024   4.822  68.484  1.00  0.00    -0.160 C  
ENDROOT
BRANCH   4  21
HETATM   21  C   UNL     1      -6.817   8.543  66.718  1.00  0.00    -0.069 C  
HETATM   22  O   UNL     1      -6.625   9.460  65.908  1.00  0.00    -0.073 OA 
HETATM   23  C   UNL     1      -5.669   8.239  67.640  1.00  0.00    -0.039 C  
ENDBRANCH   4  21
BRANCH   4  24
HETATM   24  O   UNL     1      -7.584   6.779  65.594  1.00  0.00    -0.082 OA 
BRANCH  24  25
HETATM   25  C   UNL     1      -7.019   5.557  65.781  1.00  0.00    -0.066 C  
HETATM   26  O   UNL     1      -6.313   4.973  64.976  1.00  0.00    -0.033 OA 
BRANCH  25  27
HETATM   27  C   UNL     1      -7.243   5.125  67.219  1.00  0.00    -0.081 C  
BRANCH  27  28
HETATM   28  C   UNL     1      -7.699   3.688  67.352  1.00  0.00    -0.078 C  
BRANCH  28  29
HETATM   29  C   UNL     1      -6.530   2.735  67.581  1.00  0.00    -0.036 C  
BRANCH  29  30
HETATM   30  C   UNL     1      -5.637   3.241  68.706  1.00  0.00    -0.021 C  
HETATM   31  C   UNL     1      -5.688   2.309  69.904  1.00  0.00    -0.018 C  
ENDBRANCH  29  30
ENDBRANCH  28  29
ENDBRANCH  27  28
ENDBRANCH  25  27
ENDBRANCH  24  25
ENDBRANCH   4  24
TORSDOF 7
ENDMDL
MODEL      131
REMARK 921   NORMALIZED FREE ENERGY PREDICTED BY IDOCK:    0.88 KCAL/MOL
REMARK 922        TOTAL FREE ENERGY PREDICTED BY IDOCK:    1.04 KCAL/MOL
REMARK 923 INTER-LIGAND FREE ENERGY PREDICTED BY IDOCK:   -4.32 KCAL/MOL
REMARK 924 INTRA-LIGAND FREE ENERGY PREDICTED BY IDOCK:    5.36 KCAL/MOL
REMARK 927      BINDING AFFINITY PREDICTED BY RF-SCORE:    0.00 PKD
ROOT
HETATM    1  C   UNL     1      -7.409   8.704  69.720  1.00  0.00    -0.052 C  
HETATM    2  C   UNL     1      -6.332   8.696  70.642  1.00  0.00    -0.039 C  
HETATM    3  C   UNL     1      -6.396   7.567  69.679  1.00  0.00    -0.031 C  
HETATM    4  C   UNL     1      -7.773   7.805  68.165  1.00  0.00    -0.119 C  
HETATM    5  C   UNL     1     -10.282   5.796  72.055  1.00  0.00    -0.245 C  
HETATM    6  C   UNL     1      -9.260   3.208  72.681  1.00  0.00    -0.131 C  
HETATM    7  C   UNL     1      -6.428   7.985  68.181  1.00  0.00    -0.055 C  
HETATM    8  C   UNL     1      -5.496   8.942  67.460  1.00  0.00    -0.035 C  
HETATM    9  O   UNL     1     -11.466   2.915  73.595  1.00  0.00    -0.224 OA 
HETATM   10  C   UNL     1     -10.518   7.287  71.994  1.00  0.00    -0.228 C  
HETATM   11  C   UNL     1      -9.002   3.678  71.254  1.00  0.00    -0.159 C  
HETATM   12  C   UNL     1      -6.294   6.123  68.103  1.00  0.00    -0.043 C  
HETATM   13  C   UNL     1      -7.601   5.348  68.950  1.00  0.00    -0.079 C  
HETATM   14  C   UNL     1     -10.609   3.661  73.141  1.00  0.00    -0.180 C  
HETATM   15  C   UNL     1     -10.817   5.115  73.085  1.00  0.00    -0.344 C  
HETATM   16  C   UNL     1     -10.648   4.900  69.784  1.00  0.00     0.109 C  
HETATM   17  C   UNL     1      -8.356   5.983  70.323  1.00  0.00    -0.124 C  
HETATM   18  C   UNL     1      -8.709   7.579  70.286  1.00  0.00    -0.145 C  
HETATM   19  C   UNL     1      -9.566   5.104  70.867  1.00  0.00    -0.235 C  
HETATM   20  C   UNL     1      -9.266   8.068  71.621  1.00  0.00    -0.196 C  
ENDROOT
BRANCH   4  21
HETATM   21  C   UNL     1      -7.962   7.291  66.626  1.00  0.00    -0.114 C  
HETATM   22  O   UNL     1      -7.075   7.327  65.762  1.00  0.00    -0.062 OA 
HETATM   23  C   UNL     1      -9.305   6.803  66.159  1.00  0.00    -0.095 C  
ENDBRANCH   4  21
BRANCH   4  24
HETATM   24  O   UNL     1      -8.171   9.245  67.678  1.00  0.00    -0.114 OA 
BRANCH  24  25
HETATM   25  C   UNL     1      -7.767  10.373  68.318  1.00  0.00    -0.096 C  
HETATM   26  O   UNL     1      -6.683  10.915  68.183  1.00  0.00    -0.062 OA 
BRANCH  25  27
HETATM   27  C   UNL     1      -8.946  10.959  69.075  1.00  0.00    -0.104 C  
BRANCH  27  28
HETATM   28  C   UNL     1     -10.288  10.550  68.508  1.00  0.00    -0.199 C  
BRANCH  28  29
HETATM   29  C   UNL     1     -11.434  11.354  69.112  1.00  0.00    -0.365 C  
BRANCH  29  30
HETATM   30  C   UNL     1     -12.350  10.453  69.931  1.00  0.00    -0.176 C  
HETATM   31  C   UNL     1     -11.952  10.459  71.397  1.00  0.00    -0.379 C  
ENDBRANCH  29  30
ENDBRANCH  28  29
ENDBRANCH  27  28
ENDBRANCH  25  27
ENDBRANCH  24  25
ENDBRANCH   4  24
TORSDOF 7
ENDMDL
MODEL      132
REMARK 921   NORMALIZED FREE ENERGY PREDICTED BY IDOCK:    0.89 KCAL/MOL
REMARK 922        TOTAL FREE ENERGY PREDICTED BY IDOCK:    1.05 KCAL/MOL
REMARK 923 INTER-LIGAND FREE ENERGY PREDICTED BY IDOCK:   -6.56 KCAL/MOL
REMARK 924 INTRA-LIGAND FREE ENERGY PREDICTED BY IDOCK:    7.62 KCAL/MOL
REMARK 927      BINDING AFFINITY PREDICTED BY RF-SCORE:    0.00 PKD
ROOT
HETATM    1  C   UNL     1      -9.401  14.509  67.669  1.00  0.00    -0.202 C  
HETATM    2  C   UNL     1      -9.454  14.969  66.329  1.00  0.00    -0.342 C  
HETATM    3  C   UNL     1     -10.507  14.008  66.748  1.00  0.00    -0.277 C  
HETATM    4  C   UNL     1     -10.576  13.639  68.775  1.00  0.00    -0.231 C  
HETATM    5  C   UNL     1      -7.167  10.443  66.871  1.00  0.00    -0.099 C  
HETATM    6  C   UNL     1      -8.395   8.640  65.034  1.00  0.00    -0.181 C  
HETATM    7  C   UNL     1     -11.335  14.445  67.991  1.00  0.00    -0.316 C  
HETATM    8  C   UNL     1     -12.031  15.774  68.227  1.00  0.00     0.032 C  
HETATM    9  O   UNL     1      -6.514   7.264  65.629  1.00  0.00    -0.043 OA 
HETATM   10  C   UNL     1      -6.477  11.635  67.492  1.00  0.00    -0.087 C  
HETATM   11  C   UNL     1      -9.336   9.259  66.061  1.00  0.00    -0.283 C  
HETATM   12  C   UNL     1     -12.200  12.889  67.426  1.00  0.00    -0.100 C  
HETATM   13  C   UNL     1     -11.115  11.530  67.380  1.00  0.00    -0.339 C  
HETATM   14  C   UNL     1      -7.064   8.357  65.653  1.00  0.00    -0.075 C  
HETATM   15  C   UNL     1      -6.403   9.529  66.244  1.00  0.00    -0.069 C  
HETATM   16  C   UNL     1      -8.822   9.617  68.505  1.00  0.00    -0.124 C  
HETATM   17  C   UNL     1      -9.467  11.639  67.018  1.00  0.00    -0.191 C  
HETATM   18  C   UNL     1      -8.647  12.864  67.724  1.00  0.00    -0.185 C  
HETATM   19  C   UNL     1      -8.687  10.255  67.104  1.00  0.00    -0.131 C  
HETATM   20  C   UNL     1      -7.206  12.944  67.226  1.00  0.00    -0.075 C  
ENDROOT
BRANCH   4  21
HETATM   21  C   UNL     1     -11.699  13.189  69.872  1.00  0.00    -0.257 C  
HETATM   22  O   UNL     1     -12.134  12.036  69.996  1.00  0.00    -0.310 OA 
HETATM   23  C   UNL     1     -12.332  14.221  70.763  1.00  0.00    -0.427 C  
ENDBRANCH   4  21
BRANCH   4  24
HETATM   24  O   UNL     1     -10.093  14.732  69.794  1.00  0.00    -0.072 OA 
BRANCH  24  25
HETATM   25  C   UNL     1      -9.355  15.809  69.419  1.00  0.00    -0.269 C  
HETATM   26  O   UNL     1      -8.166  15.794  69.149  1.00  0.00    -0.216 OA 
BRANCH  25  27
HETATM   27  C   UNL     1     -10.283  16.991  69.199  1.00  0.00    -0.288 C  
BRANCH  27  28
HETATM   28  C   UNL     1      -9.558  18.260  68.806  1.00  0.00    -0.317 C  
BRANCH  28  29
HETATM   29  C   UNL     1      -9.529  18.458  67.294  1.00  0.00    -0.279 C  
BRANCH  29  30
HETATM   30  C   UNL     1      -9.669  19.934  66.942  1.00  0.00    -0.532 C  
HETATM   31  C   UNL     1     -10.693  20.137  65.840  1.00  0.00    -0.280 C  
ENDBRANCH  29  30
ENDBRANCH  28  29
ENDBRANCH  27  28
ENDBRANCH  25  27
ENDBRANCH  24  25
ENDBRANCH   4  24
TORSDOF 7
ENDMDL
MODEL      133
REMARK 921   NORMALIZED FREE ENERGY PREDICTED BY IDOCK:    1.22 KCAL/MOL
REMARK 922        TOTAL FREE ENERGY PREDICTED BY IDOCK:    1.51 KCAL/MOL
REMARK 923 INTER-LIGAND FREE ENERGY PREDICTED BY IDOCK:   -0.84 KCAL/MOL
REMARK 924 INTRA-LIGAND FREE ENERGY PREDICTED BY IDOCK:    2.36 KCAL/MOL
REMARK 927      BINDING AFFINITY PREDICTED BY RF-SCORE:    0.00 PKD
ROOT
HETATM    1  C   UNL     1     -11.300  17.611  66.608  1.00  0.00     1.003 C  
HETATM    2  C   UNL     1     -11.260  18.645  65.639  1.00  0.00     0.776 C  
HETATM    3  C   UNL     1     -10.197  17.610  65.557  1.00  0.00     0.091 C  
HETATM    4  C   UNL     1     -10.499  15.970  66.768  1.00  0.00    -0.308 C  
HETATM    5  C   UNL     1      -8.161  19.420  69.614  1.00  0.00     0.326 C  
HETATM    6  C   UNL     1      -5.566  19.989  68.575  1.00  0.00    -0.258 C  
HETATM    7  C   UNL     1     -10.715  16.147  65.441  1.00  0.00    -0.374 C  
HETATM    8  C   UNL     1     -11.744  15.597  64.470  1.00  0.00    -0.220 C  
HETATM    9  O   UNL     1      -5.150  20.631  70.856  1.00  0.00    -0.291 OA 
HETATM   10  C   UNL     1      -9.645  19.429  69.894  1.00  0.00     0.436 C  
HETATM   11  C   UNL     1      -6.139  18.633  68.180  1.00  0.00    -0.202 C  
HETATM   12  C   UNL     1      -8.867  15.965  65.233  1.00  0.00     1.561 C  
HETATM   13  C   UNL     1      -8.000  16.610  66.595  1.00  0.00    -0.315 C  
HETATM   14  C   UNL     1      -5.949  20.324  69.981  1.00  0.00    -0.354 C  
HETATM   15  C   UNL     1      -7.397  20.338  70.233  1.00  0.00     0.677 C  
HETATM   16  C   UNL     1      -7.411  17.070  69.698  1.00  0.00     0.338 C  
HETATM   17  C   UNL     1      -8.519  17.928  67.518  1.00  0.00    -0.232 C  
HETATM   18  C   UNL     1     -10.103  17.955  67.922  1.00  0.00    -0.350 C  
HETATM   19  C   UNL     1      -7.571  18.278  68.748  1.00  0.00    -0.294 C  
HETATM   20  C   UNL     1     -10.484  19.249  68.638  1.00  0.00    -0.178 C  
ENDROOT
BRANCH   4  21
HETATM   21  C   UNL     1     -10.084  14.390  66.770  1.00  0.00    -0.266 C  
HETATM   22  O   UNL     1     -10.487  13.561  65.943  1.00  0.00    -0.280 OA 
HETATM   23  C   UNL     1      -9.221  13.843  67.872  1.00  0.00    -0.198 C  
ENDBRANCH   4  21
BRANCH   4  24
HETATM   24  O   UNL     1     -11.956  15.535  67.161  1.00  0.00     0.109 OA 
BRANCH  24  25
HETATM   25  C   UNL     1     -12.210  14.618  68.131  1.00  0.00    -0.059 C  
HETATM   26  O   UNL     1     -11.946  13.429  68.069  1.00  0.00    -0.350 OA 
BRANCH  25  27
HETATM   27  C   UNL     1     -12.694  15.339  69.377  1.00  0.00     0.189 C  
BRANCH  27  28
HETATM   28  C   UNL     1     -11.636  15.458  70.452  1.00  0.00    -0.352 C  
BRANCH  28  29
HETATM   29  C   UNL     1     -12.186  16.080  71.732  1.00  0.00    -0.535 C  
BRANCH  29  30
HETATM   30  C   UNL     1     -11.469  15.518  72.953  1.00  0.00    -0.275 C  
HETATM   31  C   UNL     1     -12.164  15.940  74.235  1.00  0.00    -0.657 C  
ENDBRANCH  29  30
ENDBRANCH  28  29
ENDBRANCH  27  28
ENDBRANCH  25  27
ENDBRANCH  24  25
ENDBRANCH   4  24
TORSDOF 7
ENDMDL
MODEL      134
REMARK 921   NORMALIZED FREE ENERGY PREDICTED BY IDOCK:    1.76 KCAL/MOL
REMARK 922        TOTAL FREE ENERGY PREDICTED BY IDOCK:    2.27 KCAL/MOL
REMARK 923 INTER-LIGAND FREE ENERGY PREDICTED BY IDOCK:    1.38 KCAL/MOL
REMARK 924 INTRA-LIGAND FREE ENERGY PREDICTED BY IDOCK:    0.89 KCAL/MOL
REMARK 927      BINDING AFFINITY PREDICTED BY RF-SCORE:    0.00 PKD
ROOT
HETATM    1  C   UNL     1      -9.662   8.335  70.990  1.00  0.00    -0.201 C  
HETATM    2  C   UNL     1     -10.605   9.370  71.214  1.00  0.00    -0.400 C  
HETATM    3  C   UNL     1     -10.762   8.580  69.965  1.00  0.00    -0.234 C  
HETATM    4  C   UNL     1      -9.582   6.894  69.860  1.00  0.00    -0.156 C  
HETATM    5  C   UNL     1      -6.757  10.707  68.145  1.00  0.00    -0.064 C  
HETATM    6  C   UNL     1      -7.898  11.819  65.780  1.00  0.00     0.700 C  
HETATM    7  C   UNL     1     -10.893   7.043  70.175  1.00  0.00    -0.285 C  
HETATM    8  C   UNL     1     -11.830   6.307  71.116  1.00  0.00    -0.234 C  
HETATM    9  O   UNL     1      -5.623  12.497  65.391  1.00  0.00     3.136 OA 
HETATM   10  C   UNL     1      -6.409  10.403  69.584  1.00  0.00    -0.068 C  
HETATM   11  C   UNL     1      -8.302  10.380  66.080  1.00  0.00    -0.149 C  
HETATM   12  C   UNL     1     -11.191   7.253  68.342  1.00  0.00     0.195 C  
HETATM   13  C   UNL     1      -9.852   8.041  67.559  1.00  0.00    -0.224 C  
HETATM   14  C   UNL     1      -6.468  12.045  66.153  1.00  0.00     1.090 C  
HETATM   15  C   UNL     1      -6.149  11.754  67.558  1.00  0.00    -0.092 C  
HETATM   16  C   UNL     1      -6.769   8.563  66.923  1.00  0.00    -0.062 C  
HETATM   17  C   UNL     1      -8.872   9.208  68.293  1.00  0.00    -0.129 C  
HETATM   18  C   UNL     1      -8.396   8.899  69.826  1.00  0.00    -0.125 C  
HETATM   19  C   UNL     1      -7.678   9.726  67.377  1.00  0.00    -0.095 C  
HETATM   20  C   UNL     1      -7.629  10.073  70.429  1.00  0.00    -0.037 C  
ENDROOT
BRANCH   4  21
HETATM   21  C   UNL     1      -9.641   5.434  69.129  1.00  0.00    -0.141 C  
HETATM   22  O   UNL     1     -10.355   4.493  69.501  1.00  0.00    -0.078 OA 
HETATM   23  C   UNL     1      -8.731   5.140  67.969  1.00  0.00    -0.102 C  
ENDBRANCH   4  21
BRANCH   4  24
HETATM   24  O   UNL     1      -9.134   6.159  71.174  1.00  0.00    -0.145 OA 
BRANCH  24  25
HETATM   25  C   UNL     1      -7.998   5.417  71.248  1.00  0.00    -0.110 C  
HETATM   26  O   UNL     1      -6.993   5.590  70.579  1.00  0.00    -0.053 OA 
BRANCH  25  27
HETATM   27  C   UNL     1      -8.107   4.466  72.428  1.00  0.00    -0.100 C  
BRANCH  27  28
HETATM   28  C   UNL     1      -7.378   4.954  73.662  1.00  0.00    -0.090 C  
BRANCH  28  29
HETATM   29  C   UNL     1      -6.483   6.152  73.363  1.00  0.00    -0.069 C  
BRANCH  29  30
HETATM   30  C   UNL     1      -6.812   7.314  74.290  1.00  0.00    -0.097 C  
HETATM   31  C   UNL     1      -7.683   8.341  73.589  1.00  0.00    -0.202 C  
ENDBRANCH  29  30
ENDBRANCH  28  29
ENDBRANCH  27  28
ENDBRANCH  25  27
ENDBRANCH  24  25
ENDBRANCH   4  24
TORSDOF 7
ENDMDL
MODEL      135
REMARK 921   NORMALIZED FREE ENERGY PREDICTED BY IDOCK:    2.20 KCAL/MOL
REMARK 922        TOTAL FREE ENERGY PREDICTED BY IDOCK:    2.90 KCAL/MOL
REMARK 923 INTER-LIGAND FREE ENERGY PREDICTED BY IDOCK:   -0.33 KCAL/MOL
REMARK 924 INTRA-LIGAND FREE ENERGY PREDICTED BY IDOCK:    3.22 KCAL/MOL
REMARK 927      BINDING AFFINITY PREDICTED BY RF-SCORE:    0.00 PKD
ROOT
HETATM    1  C   UNL     1      -8.044  13.913  68.502  1.00  0.00    -0.133 C  
HETATM    2  C   UNL     1      -7.264  13.834  69.683  1.00  0.00     0.287 C  
HETATM    3  C   UNL     1      -8.485  14.679  69.743  1.00  0.00     0.394 C  
HETATM    4  C   UNL     1      -9.742  14.489  68.122  1.00  0.00    -0.219 C  
HETATM    5  C   UNL     1      -6.315  17.970  66.855  1.00  0.00    -0.200 C  
HETATM    6  C   UNL     1      -6.506  20.240  68.572  1.00  0.00    -0.340 C  
HETATM    7  C   UNL     1      -9.806  13.949  69.364  1.00  0.00     0.441 C  
HETATM    8  C   UNL     1     -10.329  12.628  69.901  1.00  0.00     1.476 C  
HETATM    9  O   UNL     1      -5.500  21.344  66.686  1.00  0.00    -0.243 OA 
HETATM   10  C   UNL     1      -5.951  16.634  66.253  1.00  0.00     0.597 C  
HETATM   11  C   UNL     1      -7.772  19.397  68.469  1.00  0.00    -0.380 C  
HETATM   12  C   UNL     1     -10.393  15.626  69.939  1.00  0.00    -0.322 C  
HETATM   13  C   UNL     1      -9.666  16.912  69.020  1.00  0.00    -0.231 C  
HETATM   14  C   UNL     1      -5.816  20.303  67.247  1.00  0.00    -0.171 C  
HETATM   15  C   UNL     1      -5.460  18.994  66.681  1.00  0.00    -0.161 C  
HETATM   16  C   UNL     1      -8.698  18.377  66.355  1.00  0.00    -0.263 C  
HETATM   17  C   UNL     1      -8.108  16.852  68.366  1.00  0.00    -0.237 C  
HETATM   18  C   UNL     1      -7.681  15.457  67.630  1.00  0.00    -0.180 C  
HETATM   19  C   UNL     1      -7.707  18.137  67.516  1.00  0.00    -0.220 C  
HETATM   20  C   UNL     1      -6.217  15.469  67.195  1.00  0.00     0.202 C  
ENDROOT
BRANCH   4  21
HETATM   21  C   UNL     1     -11.337  14.662  67.817  1.00  0.00    -0.322 C  
HETATM   22  O   UNL     1     -11.809  14.985  66.718  1.00  0.00    -0.245 OA 
HETATM   23  C   UNL     1     -12.335  14.503  68.930  1.00  0.00    -0.091 C  
ENDBRANCH   4  21
BRANCH   4  24
HETATM   24  O   UNL     1      -9.785  13.147  67.307  1.00  0.00    -0.220 OA 
BRANCH  24  25
HETATM   25  C   UNL     1     -10.199  13.087  66.015  1.00  0.00    -0.287 C  
HETATM   26  O   UNL     1      -9.953  13.913  65.152  1.00  0.00    -0.308 OA 
BRANCH  25  27
HETATM   27  C   UNL     1     -10.847  11.735  65.767  1.00  0.00    -0.341 C  
BRANCH  27  28
HETATM   28  C   UNL     1     -12.281  11.834  65.292  1.00  0.00     0.368 C  
BRANCH  28  29
HETATM   29  C   UNL     1     -12.371  12.202  63.815  1.00  0.00    -0.635 C  
BRANCH  29  30
HETATM   30  C   UNL     1     -12.969  13.592  63.643  1.00  0.00     0.793 C  
HETATM   31  C   UNL     1     -13.513  14.118  64.959  1.00  0.00     0.864 C  
ENDBRANCH  29  30
ENDBRANCH  28  29
ENDBRANCH  27  28
ENDBRANCH  25  27
ENDBRANCH  24  25
ENDBRANCH   4  24
TORSDOF 7
ENDMDL
MODEL      136
REMARK 921   NORMALIZED FREE ENERGY PREDICTED BY IDOCK:    2.52 KCAL/MOL
REMARK 922        TOTAL FREE ENERGY PREDICTED BY IDOCK:    3.35 KCAL/MOL
REMARK 923 INTER-LIGAND FREE ENERGY PREDICTED BY IDOCK:    2.23 KCAL/MOL
REMARK 924 INTRA-LIGAND FREE ENERGY PREDICTED BY IDOCK:    1.12 KCAL/MOL
REMARK 927      BINDING AFFINITY PREDICTED BY RF-SCORE:    0.00 PKD
ROOT
HETATM    1  C   UNL     1     -11.464  13.832  67.638  1.00  0.00    -0.354 C  
HETATM    2  C   UNL     1     -12.266  13.108  68.556  1.00  0.00    -0.067 C  
HETATM    3  C   UNL     1     -11.190  13.954  69.131  1.00  0.00    -0.311 C  
HETATM    4  C   UNL     1     -10.285  15.227  67.786  1.00  0.00    -0.237 C  
HETATM    5  C   UNL     1      -7.850  10.822  67.422  1.00  0.00    -0.111 C  
HETATM    6  C   UNL     1      -6.567  10.176  69.886  1.00  0.00    -0.100 C  
HETATM    7  C   UNL     1     -11.244  15.454  68.719  1.00  0.00    -0.305 C  
HETATM    8  C   UNL     1     -12.433  16.396  68.783  1.00  0.00     1.339 C  
HETATM    9  O   UNL     1      -5.152   8.881  68.434  1.00  0.00    -0.030 OA 
HETATM   10  C   UNL     1      -8.855  10.959  66.302  1.00  0.00    -0.187 C  
HETATM   11  C   UNL     1      -6.850  11.658  69.672  1.00  0.00    -0.006 C  
HETATM   12  C   UNL     1      -9.867  15.407  69.980  1.00  0.00    -0.110 C  
HETATM   13  C   UNL     1      -8.613  14.292  69.522  1.00  0.00     0.524 C  
HETATM   14  C   UNL     1      -6.176   9.531  68.595  1.00  0.00    -0.044 C  
HETATM   15  C   UNL     1      -7.169   9.666  67.519  1.00  0.00    -0.090 C  
HETATM   16  C   UNL     1      -6.553  12.920  67.507  1.00  0.00    -0.160 C  
HETATM   17  C   UNL     1      -8.877  12.865  68.654  1.00  0.00     0.065 C  
HETATM   18  C   UNL     1      -9.895  12.966  67.379  1.00  0.00    -0.207 C  
HETATM   19  C   UNL     1      -7.550  12.055  68.311  1.00  0.00    -0.117 C  
HETATM   20  C   UNL     1     -10.159  11.599  66.754  1.00  0.00    -0.242 C  
ENDROOT
BRANCH   4  21
HETATM   21  C   UNL     1      -9.514  16.666  67.832  1.00  0.00    -0.225 C  
HETATM   22  O   UNL     1      -8.473  16.882  68.467  1.00  0.00    -0.238 OA 
HETATM   23  C   UNL     1     -10.109  17.857  67.135  1.00  0.00    -0.340 C  
ENDBRANCH   4  21
BRANCH   4  24
HETATM   24  O   UNL     1     -11.079  15.751  66.537  1.00  0.00    -0.227 OA 
BRANCH  24  25
HETATM   25  C   UNL     1     -10.668  15.531  65.261  1.00  0.00    -0.422 C  
HETATM   26  O   UNL     1      -9.520  15.307  64.916  1.00  0.00     0.150 OA 
BRANCH  25  27
HETATM   27  C   UNL     1     -11.887  15.411  64.364  1.00  0.00    -0.260 C  
BRANCH  27  28
HETATM   28  C   UNL     1     -11.626  14.628  63.096  1.00  0.00     2.223 C  
BRANCH  28  29
HETATM   29  C   UNL     1     -12.503  13.384  62.999  1.00  0.00     0.243 C  
BRANCH  29  30
HETATM   30  C   UNL     1     -13.228  13.135  64.316  1.00  0.00     0.630 C  
HETATM   31  C   UNL     1     -13.021  11.707  64.790  1.00  0.00     1.444 C  
ENDBRANCH  29  30
ENDBRANCH  28  29
ENDBRANCH  27  28
ENDBRANCH  25  27
ENDBRANCH  24  25
ENDBRANCH   4  24
TORSDOF 7
ENDMDL
MODEL      137
REMARK 921   NORMALIZED FREE ENERGY PREDICTED BY IDOCK:    2.54 KCAL/MOL
REMARK 922        TOTAL FREE ENERGY PREDICTED BY IDOCK:    3.37 KCAL/MOL
REMARK 923 INTER-LIGAND FREE ENERGY PREDICTED BY IDOCK:   -3.14 KCAL/MOL
REMARK 924 INTRA-LIGAND FREE ENERGY PREDICTED BY IDOCK:    6.51 KCAL/MOL
REMARK 927      BINDING AFFINITY PREDICTED BY RF-SCORE:    0.00 PKD
ROOT
HETATM    1  C   UNL     1      -7.737   8.335  68.533  1.00  0.00    -0.112 C  
HETATM    2  C   UNL     1      -7.231   7.676  67.384  1.00  0.00    -0.087 C  
HETATM    3  C   UNL     1      -8.583   7.269  67.848  1.00  0.00    -0.120 C  
HETATM    4  C   UNL     1      -9.394   8.483  69.302  1.00  0.00    -0.154 C  
HETATM    5  C   UNL     1      -6.565   5.077  71.722  1.00  0.00    -0.036 C  
HETATM    6  C   UNL     1      -7.584   2.446  71.305  1.00  0.00    -0.040 C  
HETATM    7  C   UNL     1      -9.612   8.430  67.964  1.00  0.00    -0.168 C  
HETATM    8  C   UNL     1      -9.956   9.479  66.921  1.00  0.00    -0.278 C  
HETATM    9  O   UNL     1      -6.444   2.027  73.381  1.00  0.00    -0.012 OA 
HETATM   10  C   UNL     1      -5.813   6.379  71.584  1.00  0.00    -0.036 C  
HETATM   11  C   UNL     1      -8.597   3.570  71.120  1.00  0.00    -0.109 C  
HETATM   12  C   UNL     1     -10.642   6.910  68.308  1.00  0.00    -0.258 C  
HETATM   13  C   UNL     1     -10.013   5.997  69.649  1.00  0.00    -0.217 C  
HETATM   14  C   UNL     1      -6.653   2.767  72.429  1.00  0.00    -0.015 C  
HETATM   15  C   UNL     1      -5.922   4.033  72.275  1.00  0.00    -0.009 C  
HETATM   16  C   UNL     1      -8.816   5.614  72.582  1.00  0.00    -0.123 C  
HETATM   17  C   UNL     1      -8.373   5.891  70.044  1.00  0.00    -0.122 C  
HETATM   18  C   UNL     1      -7.519   7.284  69.990  1.00  0.00    -0.085 C  
HETATM   19  C   UNL     1      -8.071   5.042  71.355  1.00  0.00    -0.112 C  
HETATM   20  C   UNL     1      -6.031   7.048  70.235  1.00  0.00    -0.024 C  
ENDROOT
BRANCH   4  21
HETATM   21  C   UNL     1     -10.887   8.916  69.805  1.00  0.00    -0.200 C  
HETATM   22  O   UNL     1     -11.811   9.249  69.051  1.00  0.00     0.658 OA 
HETATM   23  C   UNL     1     -11.185   9.004  71.276  1.00  0.00    -0.385 C  
ENDBRANCH   4  21
BRANCH   4  24
HETATM   24  O   UNL     1      -8.984   9.997  69.387  1.00  0.00    -0.169 OA 
BRANCH  24  25
HETATM   25  C   UNL     1      -9.306  10.899  68.423  1.00  0.00    -0.172 C  
HETATM   26  O   UNL     1     -10.438  11.213  68.096  1.00  0.00    -0.176 OA 
BRANCH  25  27
HETATM   27  C   UNL     1      -8.039  11.597  67.958  1.00  0.00    -0.139 C  
BRANCH  27  28
HETATM   28  C   UNL     1      -6.871  11.415  68.902  1.00  0.00    -0.089 C  
BRANCH  28  29
HETATM   29  C   UNL     1      -6.187  12.739  69.229  1.00  0.00    -0.105 C  
BRANCH  29  30
HETATM   30  C   UNL     1      -7.040  13.913  68.765  1.00  0.00    -0.109 C  
HETATM   31  C   UNL     1      -6.177  15.011  68.169  1.00  0.00    -0.142 C  
ENDBRANCH  29  30
ENDBRANCH  28  29
ENDBRANCH  27  28
ENDBRANCH  25  27
ENDBRANCH  24  25
ENDBRANCH   4  24
TORSDOF 7
ENDMDL
MODEL      138
REMARK 921   NORMALIZED FREE ENERGY PREDICTED BY IDOCK:    3.40 KCAL/MOL
REMARK 922        TOTAL FREE ENERGY PREDICTED BY IDOCK:    4.58 KCAL/MOL
REMARK 923 INTER-LIGAND FREE ENERGY PREDICTED BY IDOCK:   -4.29 KCAL/MOL
REMARK 924 INTRA-LIGAND FREE ENERGY PREDICTED BY IDOCK:    8.87 KCAL/MOL
REMARK 927      BINDING AFFINITY PREDICTED BY RF-SCORE:    0.00 PKD
ROOT
HETATM    1  C   UNL     1      -9.281  17.349  68.064  1.00  0.00    -0.266 C  
HETATM    2  C   UNL     1     -10.008  17.580  69.259  1.00  0.00    -0.107 C  
HETATM    3  C   UNL     1      -8.752  16.796  69.381  1.00  0.00     0.188 C  
HETATM    4  C   UNL     1      -7.581  16.780  67.686  1.00  0.00    -0.167 C  
HETATM    5  C   UNL     1     -10.915  13.032  67.136  1.00  0.00    -0.293 C  
HETATM    6  C   UNL     1     -10.551  11.057  69.161  1.00  0.00    -0.253 C  
HETATM    7  C   UNL     1      -7.482  17.504  68.829  1.00  0.00    -0.258 C  
HETATM    8  C   UNL     1      -6.990  18.908  69.134  1.00  0.00    -0.314 C  
HETATM    9  O   UNL     1     -11.596   9.647  67.516  1.00  0.00     0.353 OA 
HETATM   10  C   UNL     1     -11.362  14.249  66.360  1.00  0.00    -0.346 C  
HETATM   11  C   UNL     1      -9.327  11.917  68.867  1.00  0.00     0.117 C  
HETATM   12  C   UNL     1      -6.799  15.954  69.617  1.00  0.00    -0.160 C  
HETATM   13  C   UNL     1      -7.514  14.520  68.940  1.00  0.00    -0.133 C  
HETATM   14  C   UNL     1     -11.298  10.770  67.898  1.00  0.00    -0.299 C  
HETATM   15  C   UNL     1     -11.734  11.965  67.161  1.00  0.00    -0.311 C  
HETATM   16  C   UNL     1      -8.543  12.635  66.579  1.00  0.00     0.051 C  
HETATM   17  C   UNL     1      -9.102  14.427  68.367  1.00  0.00    -0.193 C  
HETATM   18  C   UNL     1      -9.621  15.679  67.453  1.00  0.00    -0.217 C  
HETATM   19  C   UNL     1      -9.488  13.015  67.741  1.00  0.00    -0.209 C  
HETATM   20  C   UNL     1     -11.101  15.551  67.102  1.00  0.00    -0.256 C  
ENDROOT
BRANCH   4  21
HETATM   21  C   UNL     1      -5.995  16.617  67.328  1.00  0.00    -0.160 C  
HETATM   22  O   UNL     1      -5.131  16.242  68.132  1.00  0.00    -0.094 OA 
HETATM   23  C   UNL     1      -5.491  17.008  65.967  1.00  0.00     0.400 C  
ENDBRANCH   4  21
BRANCH   4  24
HETATM   24  O   UNL     1      -7.631  17.984  66.679  1.00  0.00    -0.208 OA 
BRANCH  24  25
HETATM   25  C   UNL     1      -6.915  19.124  66.863  1.00  0.00    -0.199 C  
HETATM   26  O   UNL     1      -5.811  19.350  66.396  1.00  0.00    -0.165 OA 
BRANCH  25  27
HETATM   27  C   UNL     1      -7.786  20.144  67.575  1.00  0.00    -0.344 C  
BRANCH  27  28
HETATM   28  C   UNL     1      -8.873  20.724  66.697  1.00  0.00     0.049 C  
BRANCH  28  29
HETATM   29  C   UNL     1     -10.250  20.616  67.342  1.00  0.00    -0.231 C  
BRANCH  29  30
HETATM   30  C   UNL     1     -10.959  19.347  66.886  1.00  0.00    -0.406 C  
HETATM   31  C   UNL     1     -10.655  19.046  65.429  1.00  0.00     0.137 C  
ENDBRANCH  29  30
ENDBRANCH  28  29
ENDBRANCH  27  28
ENDBRANCH  25  27
ENDBRANCH  24  25
ENDBRANCH   4  24
TORSDOF 7
ENDMDL
MODEL      139
REMARK 921   NORMALIZED FREE ENERGY PREDICTED BY IDOCK:    4.08 KCAL/MOL
REMARK 922        TOTAL FREE ENERGY PREDICTED BY IDOCK:    5.55 KCAL/MOL
REMARK 923 INTER-LIGAND FREE ENERGY PREDICTED BY IDOCK:   -2.70 KCAL/MOL
REMARK 924 INTRA-LIGAND FREE ENERGY PREDICTED BY IDOCK:    8.24 KCAL/MOL
REMARK 927      BINDING AFFINITY PREDICTED BY RF-SCORE:    0.00 PKD
ROOT
HETATM    1  C   UNL     1      -7.798  15.360  67.515  1.00  0.00    -0.193 C  
HETATM    2  C   UNL     1      -7.037  15.637  66.352  1.00  0.00     1.138 C  
HETATM    3  C   UNL     1      -8.253  14.802  66.173  1.00  0.00     1.010 C  
HETATM    4  C   UNL     1      -9.486  14.715  67.822  1.00  0.00    -0.205 C  
HETATM    5  C   UNL     1      -6.019  11.104  68.456  1.00  0.00    -0.042 C  
HETATM    6  C   UNL     1      -6.223   9.142  66.396  1.00  0.00    -0.065 C  
HETATM    7  C   UNL     1      -9.573  15.449  66.684  1.00  0.00    -0.276 C  
HETATM    8  C   UNL     1     -10.112  16.835  66.376  1.00  0.00    -0.327 C  
HETATM    9  O   UNL     1      -5.181   7.755  68.063  1.00  0.00    -0.028 OA 
HETATM   10  C   UNL     1      -5.654  12.328  69.262  1.00  0.00    -0.074 C  
HETATM   11  C   UNL     1      -7.492   9.946  66.653  1.00  0.00    -0.099 C  
HETATM   12  C   UNL     1     -10.159  13.882  65.853  1.00  0.00    -0.331 C  
HETATM   13  C   UNL     1      -9.410  12.471  66.540  1.00  0.00    -0.233 C  
HETATM   14  C   UNL     1      -5.512   8.870  67.683  1.00  0.00    -0.035 C  
HETATM   15  C   UNL     1      -5.155  10.073  68.450  1.00  0.00    -0.036 C  
HETATM   16  C   UNL     1      -8.392  10.601  68.918  1.00  0.00    -0.150 C  
HETATM   17  C   UNL     1      -7.842  12.437  67.173  1.00  0.00    -0.138 C  
HETATM   18  C   UNL     1      -7.412  13.698  68.120  1.00  0.00    -0.125 C  
HETATM   19  C   UNL     1      -7.420  11.035  67.797  1.00  0.00    -0.094 C  
HETATM   20  C   UNL     1      -5.942  13.628  68.526  1.00  0.00    -0.092 C  
ENDROOT
BRANCH   4  21
HETATM   21  C   UNL     1     -11.076  14.481  68.117  1.00  0.00    -0.266 C  
HETATM   22  O   UNL     1     -11.531  14.017  69.171  1.00  0.00    -0.259 OA 
HETATM   23  C   UNL     1     -12.087  14.763  67.042  1.00  0.00    -0.120 C  
ENDBRANCH   4  21
BRANCH   4  24
HETATM   24  O   UNL     1      -9.525  15.907  68.844  1.00  0.00    -0.207 OA 
BRANCH  24  25
HETATM   25  C   UNL     1      -9.108  17.160  68.524  1.00  0.00    -0.265 C  
HETATM   26  O   UNL     1      -9.693  17.934  67.785  1.00  0.00    -0.269 OA 
BRANCH  25  27
HETATM   27  C   UNL     1      -7.908  17.515  69.384  1.00  0.00     0.277 C  
BRANCH  27  28
HETATM   28  C   UNL     1      -6.860  18.322  68.650  1.00  0.00    -0.261 C  
BRANCH  28  29
HETATM   29  C   UNL     1      -7.128  19.821  68.734  1.00  0.00    -0.365 C  
BRANCH  29  30
HETATM   30  C   UNL     1      -7.263  20.422  67.340  1.00  0.00    -0.351 C  
HETATM   31  C   UNL     1      -5.921  20.457  66.630  1.00  0.00    -0.215 C  
ENDBRANCH  29  30
ENDBRANCH  28  29
ENDBRANCH  27  28
ENDBRANCH  25  27
ENDBRANCH  24  25
ENDBRANCH   4  24
TORSDOF 7
ENDMDL
MODEL      140
REMARK 921   NORMALIZED FREE ENERGY PREDICTED BY IDOCK:    5.04 KCAL/MOL
REMARK 922        TOTAL FREE ENERGY PREDICTED BY IDOCK:    6.89 KCAL/MOL
REMARK 923 INTER-LIGAND FREE ENERGY PREDICTED BY IDOCK:   -1.27 KCAL/MOL
REMARK 924 INTRA-LIGAND FREE ENERGY PREDICTED BY IDOCK:    8.16 KCAL/MOL
REMARK 927      BINDING AFFINITY PREDICTED BY RF-SCORE:    0.00 PKD
ROOT
HETATM    1  C   UNL     1      -7.200   8.455  66.573  1.00  0.00    -0.076 C  
HETATM    2  C   UNL     1      -6.009   9.021  66.054  1.00  0.00    -0.051 C  
HETATM    3  C   UNL     1      -6.678   9.762  67.154  1.00  0.00    -0.075 C  
HETATM    4  C   UNL     1      -8.201   8.731  68.083  1.00  0.00    -0.114 C  
HETATM    5  C   UNL     1     -10.272  11.014  64.088  1.00  0.00    -0.419 C  
HETATM    6  C   UNL     1     -10.084  13.849  64.341  1.00  0.00     0.260 C  
HETATM    7  C   UNL     1      -6.912   8.937  68.452  1.00  0.00    -0.065 C  
HETATM    8  C   UNL     1      -5.902   8.105  69.222  1.00  0.00    -0.034 C  
HETATM    9  O   UNL     1     -11.980  13.780  62.862  1.00  0.00    -0.017 OA 
HETATM   10  C   UNL     1      -9.988   9.564  63.773  1.00  0.00     1.373 C  
HETATM   11  C   UNL     1     -10.019  13.076  65.653  1.00  0.00    -0.239 C  
HETATM   12  C   UNL     1      -7.446  10.660  68.938  1.00  0.00    -0.108 C  
HETATM   13  C   UNL     1      -8.705  11.260  67.898  1.00  0.00    -0.138 C  
HETATM   14  C   UNL     1     -11.049  13.198  63.403  1.00  0.00     0.158 C  
HETATM   15  C   UNL     1     -10.753  11.791  63.100  1.00  0.00    -0.319 C  
HETATM   16  C   UNL     1     -11.439  11.081  66.262  1.00  0.00     0.325 C  
HETATM   17  C   UNL     1      -8.856  10.867  66.260  1.00  0.00    -0.187 C  
HETATM   18  C   UNL     1      -8.638   9.296  65.866  1.00  0.00    -0.163 C  
HETATM   19  C   UNL     1     -10.133  11.502  65.552  1.00  0.00    -0.286 C  
HETATM   20  C   UNL     1      -8.668   9.081  64.355  1.00  0.00    -0.151 C  
ENDROOT
BRANCH   4  21
HETATM   21  C   UNL     1      -8.906   8.708  69.556  1.00  0.00    -0.144 C  
HETATM   22  O   UNL     1      -8.628   7.899  70.452  1.00  0.00    -0.129 OA 
HETATM   23  C   UNL     1     -10.025   9.662  69.866  1.00  0.00    -0.273 C  
ENDBRANCH   4  21
BRANCH   4  24
HETATM   24  O   UNL     1      -8.182   7.161  68.125  1.00  0.00    -0.122 OA 
BRANCH  24  25
HETATM   25  C   UNL     1      -7.388   6.416  67.312  1.00  0.00    -0.087 C  
HETATM   26  O   UNL     1      -7.281   6.554  66.105  1.00  0.00    -0.069 OA 
BRANCH  25  27
HETATM   27  C   UNL     1      -6.512   5.518  68.167  1.00  0.00    -0.044 C  
BRANCH  27  28
HETATM   28  C   UNL     1      -5.369   4.887  67.401  1.00  0.00    -0.012 C  
BRANCH  28  29
HETATM   29  C   UNL     1      -5.839   3.738  66.515  1.00  0.00    -0.023 C  
BRANCH  29  30
HETATM   30  C   UNL     1      -5.789   2.418  67.274  1.00  0.00    -0.019 C  
HETATM   31  C   UNL     1      -5.793   2.652  68.774  1.00  0.00    -0.023 C  
ENDBRANCH  29  30
ENDBRANCH  28  29
ENDBRANCH  27  28
ENDBRANCH  25  27
ENDBRANCH  24  25
ENDBRANCH   4  24
TORSDOF 7
ENDMDL
MODEL      141
REMARK 921   NORMALIZED FREE ENERGY PREDICTED BY IDOCK:    5.34 KCAL/MOL
REMARK 922        TOTAL FREE ENERGY PREDICTED BY IDOCK:    7.32 KCAL/MOL
REMARK 923 INTER-LIGAND FREE ENERGY PREDICTED BY IDOCK:   -0.94 KCAL/MOL
REMARK 924 INTRA-LIGAND FREE ENERGY PREDICTED BY IDOCK:    8.26 KCAL/MOL
REMARK 927      BINDING AFFINITY PREDICTED BY RF-SCORE:    0.00 PKD
ROOT
HETATM    1  C   UNL     1      -8.364   8.294  66.544  1.00  0.00    -0.112 C  
HETATM    2  C   UNL     1      -7.113   8.952  66.652  1.00  0.00    -0.084 C  
HETATM    3  C   UNL     1      -8.131   9.277  67.684  1.00  0.00    -0.104 C  
HETATM    4  C   UNL     1      -9.790   8.053  67.670  1.00  0.00    -0.167 C  
HETATM    5  C   UNL     1     -10.711  11.723  64.331  1.00  0.00    -0.381 C  
HETATM    6  C   UNL     1     -10.801  14.262  65.627  1.00  0.00    -0.311 C  
HETATM    7  C   UNL     1      -8.689   8.050  68.463  1.00  0.00    -0.131 C  
HETATM    8  C   UNL     1      -7.904   6.948  69.152  1.00  0.00    -0.111 C  
HETATM    9  O   UNL     1     -12.154  14.823  63.719  1.00  0.00    -0.425 OA 
HETATM   10  C   UNL     1     -10.247  10.473  63.620  1.00  0.00    -0.113 C  
HETATM   11  C   UNL     1     -11.082  13.064  66.527  1.00  0.00    -0.315 C  
HETATM   12  C   UNL     1      -9.460   9.504  69.346  1.00  0.00    -0.182 C  
HETATM   13  C   UNL     1     -10.385  10.499  68.259  1.00  0.00    -0.193 C  
HETATM   14  C   UNL     1     -11.392  14.041  64.271  1.00  0.00    -0.262 C  
HETATM   15  C   UNL     1     -10.923  12.826  63.591  1.00  0.00    -0.403 C  
HETATM   16  C   UNL     1     -12.481  11.055  65.917  1.00  0.00     3.809 C  
HETATM   17  C   UNL     1     -10.009  10.733  66.627  1.00  0.00    -0.251 C  
HETATM   18  C   UNL     1      -9.576   9.402  65.782  1.00  0.00    -0.340 C  
HETATM   19  C   UNL     1     -11.053  11.641  65.840  1.00  0.00    -0.320 C  
HETATM   20  C   UNL     1      -9.134   9.749  64.363  1.00  0.00    -0.296 C  
ENDROOT
BRANCH   4  21
HETATM   21  C   UNL     1     -10.903   7.533  68.746  1.00  0.00    -0.015 C  
HETATM   22  O   UNL     1     -11.814   8.234  69.205  1.00  0.00     0.902 OA 
HETATM   23  C   UNL     1     -10.811   6.140  69.304  1.00  0.00    -0.418 C  
ENDBRANCH   4  21
BRANCH   4  24
HETATM   24  O   UNL     1      -9.677   6.576  67.150  1.00  0.00    -0.132 OA 
BRANCH  24  25
HETATM   25  C   UNL     1      -8.859   6.219  66.125  1.00  0.00    -0.153 C  
HETATM   26  O   UNL     1      -8.419   6.974  65.275  1.00  0.00    -0.129 OA 
BRANCH  25  27
HETATM   27  C   UNL     1      -8.423   4.778  66.321  1.00  0.00    -0.111 C  
BRANCH  27  28
HETATM   28  C   UNL     1      -8.138   4.054  65.023  1.00  0.00    -0.093 C  
BRANCH  28  29
HETATM   29  C   UNL     1      -6.797   4.462  64.422  1.00  0.00    -0.045 C  
BRANCH  29  30
HETATM   30  C   UNL     1      -6.000   5.305  65.409  1.00  0.00    -0.025 C  
HETATM   31  C   UNL     1      -5.198   6.374  64.689  1.00  0.00    -0.021 C  
ENDBRANCH  29  30
ENDBRANCH  28  29
ENDBRANCH  27  28
ENDBRANCH  25  27
ENDBRANCH  24  25
ENDBRANCH   4  24
TORSDOF 7
ENDMDL
MODEL      142
REMARK 921   NORMALIZED FREE ENERGY PREDICTED BY IDOCK:    5.78 KCAL/MOL
REMARK 922        TOTAL FREE ENERGY PREDICTED BY IDOCK:    7.94 KCAL/MOL
REMARK 923 INTER-LIGAND FREE ENERGY PREDICTED BY IDOCK:   -1.43 KCAL/MOL
REMARK 924 INTRA-LIGAND FREE ENERGY PREDICTED BY IDOCK:    9.37 KCAL/MOL
REMARK 927      BINDING AFFINITY PREDICTED BY RF-SCORE:    0.00 PKD
ROOT
HETATM    1  C   UNL     1      -9.399   8.909  68.999  1.00  0.00    -0.144 C  
HETATM    2  C   UNL     1      -9.465   8.417  67.671  1.00  0.00    -0.176 C  
HETATM    3  C   UNL     1     -10.557   8.006  68.591  1.00  0.00    -0.143 C  
HETATM    4  C   UNL     1     -10.589   9.011  70.390  1.00  0.00    -0.218 C  
HETATM    5  C   UNL     1      -7.417   5.133  70.992  1.00  0.00    -0.078 C  
HETATM    6  C   UNL     1      -8.794   2.653  70.699  1.00  0.00    -0.143 C  
HETATM    7  C   UNL     1     -11.324   9.182  69.263  1.00  0.00     0.232 C  
HETATM    8  C   UNL     1     -11.938  10.398  68.593  1.00  0.00     0.210 C  
HETATM    9  O   UNL     1      -6.976   1.855  72.057  1.00  0.00    -0.024 OA 
HETATM   10  C   UNL     1      -6.645   6.404  70.725  1.00  0.00    -0.053 C  
HETATM   11  C   UNL     1      -9.670   3.838  71.088  1.00  0.00    -0.245 C  
HETATM   12  C   UNL     1     -12.290   7.676  69.802  1.00  0.00     1.252 C  
HETATM   13  C   UNL     1     -11.283   6.534  70.643  1.00  0.00    -0.386 C  
HETATM   14  C   UNL     1      -7.464   2.747  71.376  1.00  0.00    -0.040 C  
HETATM   15  C   UNL     1      -6.723   3.985  71.097  1.00  0.00    -0.031 C  
HETATM   16  C   UNL     1      -9.069   5.633  72.757  1.00  0.00    -0.130 C  
HETATM   17  C   UNL     1      -9.642   6.288  70.316  1.00  0.00    -0.182 C  
HETATM   18  C   UNL     1      -8.736   7.630  70.095  1.00  0.00    -0.141 C  
HETATM   19  C   UNL     1      -8.938   5.228  71.271  1.00  0.00    -0.158 C  
HETATM   20  C   UNL     1      -7.307   7.288  69.679  1.00  0.00    -0.088 C  
ENDROOT
BRANCH   4  21
HETATM   21  C   UNL     1     -11.703   9.428  71.509  1.00  0.00    -0.394 C  
HETATM   22  O   UNL     1     -12.307  10.509  71.526  1.00  0.00    -0.371 OA 
HETATM   23  C   UNL     1     -11.994   8.503  72.657  1.00  0.00    -0.309 C  
ENDBRANCH   4  21
BRANCH   4  24
HETATM   24  O   UNL     1     -10.018  10.471  70.490  1.00  0.00     0.350 OA 
BRANCH  24  25
HETATM   25  C   UNL     1     -10.691  11.555  70.024  1.00  0.00     0.560 C  
HETATM   26  O   UNL     1     -11.807  11.900  70.374  1.00  0.00    -0.332 OA 
BRANCH  25  27
HETATM   27  C   UNL     1      -9.759  12.376  69.150  1.00  0.00     0.466 C  
BRANCH  27  28
HETATM   28  C   UNL     1      -8.461  11.670  68.826  1.00  0.00    -0.027 C  
BRANCH  28  29
HETATM   29  C   UNL     1      -8.301  11.420  67.330  1.00  0.00    -0.149 C  
BRANCH  29  30
HETATM   30  C   UNL     1      -9.305  12.248  66.537  1.00  0.00    -0.230 C  
HETATM   31  C   UNL     1     -10.441  11.382  66.023  1.00  0.00    -0.305 C  
ENDBRANCH  29  30
ENDBRANCH  28  29
ENDBRANCH  27  28
ENDBRANCH  25  27
ENDBRANCH  24  25
ENDBRANCH   4  24
TORSDOF 7
ENDMDL
MODEL      143
REMARK 921   NORMALIZED FREE ENERGY PREDICTED BY IDOCK:    5.81 KCAL/MOL
REMARK 922        TOTAL FREE ENERGY PREDICTED BY IDOCK:    7.99 KCAL/MOL
REMARK 923 INTER-LIGAND FREE ENERGY PREDICTED BY IDOCK:   -2.03 KCAL/MOL
REMARK 924 INTRA-LIGAND FREE ENERGY PREDICTED BY IDOCK:   10.02 KCAL/MOL
REMARK 927      BINDING AFFINITY PREDICTED BY RF-SCORE:    0.00 PKD
ROOT
HETATM    1  C   UNL     1      -7.459   9.587  68.103  1.00  0.00    -0.079 C  
HETATM    2  C   UNL     1      -7.522  10.116  69.417  1.00  0.00    -0.119 C  
HETATM    3  C   UNL     1      -8.692   9.324  68.958  1.00  0.00    -0.135 C  
HETATM    4  C   UNL     1      -8.403   8.312  67.186  1.00  0.00    -0.123 C  
HETATM    5  C   UNL     1      -9.927  12.955  65.929  1.00  0.00    -0.273 C  
HETATM    6  C   UNL     1     -12.564  13.444  66.898  1.00  0.00     0.109 C  
HETATM    7  C   UNL     1      -8.359   7.884  68.472  1.00  0.00    -0.128 C  
HETATM    8  C   UNL     1      -7.543   6.824  69.190  1.00  0.00    -0.100 C  
HETATM    9  O   UNL     1     -12.582  15.034  65.093  1.00  0.00    -0.030 OA 
HETATM   10  C   UNL     1      -8.426  12.845  65.802  1.00  0.00     1.354 C  
HETATM   11  C   UNL     1     -12.204  11.975  66.714  1.00  0.00     0.441 C  
HETATM   12  C   UNL     1     -10.226   7.927  68.432  1.00  0.00    -0.232 C  
HETATM   13  C   UNL     1     -10.817   9.209  67.415  1.00  0.00    -0.140 C  
HETATM   14  C   UNL     1     -11.953  14.269  65.811  1.00  0.00    -0.393 C  
HETATM   15  C   UNL     1     -10.491  14.156  65.707  1.00  0.00    -0.320 C  
HETATM   16  C   UNL     1     -10.909  11.005  64.778  1.00  0.00    -0.234 C  
HETATM   17  C   UNL     1     -10.032  10.691  67.197  1.00  0.00    -0.234 C  
HETATM   18  C   UNL     1      -8.414  10.632  66.975  1.00  0.00    -0.129 C  
HETATM   19  C   UNL     1     -10.754  11.666  66.166  1.00  0.00    -0.325 C  
HETATM   20  C   UNL     1      -7.797  12.027  66.920  1.00  0.00    -0.095 C  
ENDROOT
BRANCH   4  21
HETATM   21  C   UNL     1      -8.983   6.963  66.469  1.00  0.00    -0.150 C  
HETATM   22  O   UNL     1      -8.277   6.092  65.942  1.00  0.00    -0.118 OA 
HETATM   23  C   UNL     1     -10.467   6.757  66.349  1.00  0.00     0.061 C  
ENDBRANCH   4  21
BRANCH   4  24
HETATM   24  O   UNL     1      -6.962   7.854  66.763  1.00  0.00    -0.069 OA 
BRANCH  24  25
HETATM   25  C   UNL     1      -6.524   7.905  65.478  1.00  0.00    -0.042 C  
HETATM   26  O   UNL     1      -6.577   6.989  64.674  1.00  0.00    -0.041 OA 
BRANCH  25  27
HETATM   27  C   UNL     1      -6.142   9.336  65.143  1.00  0.00    -0.064 C  
BRANCH  27  28
HETATM   28  C   UNL     1      -7.124  10.019  64.215  1.00  0.00    -0.130 C  
BRANCH  28  29
HETATM   29  C   UNL     1      -7.914   9.018  63.379  1.00  0.00    -0.149 C  
BRANCH  29  30
HETATM   30  C   UNL     1      -7.014   8.351  62.347  1.00  0.00    -0.094 C  
HETATM   31  C   UNL     1      -6.105   7.324  62.998  1.00  0.00    -0.053 C  
ENDBRANCH  29  30
ENDBRANCH  28  29
ENDBRANCH  27  28
ENDBRANCH  25  27
ENDBRANCH  24  25
ENDBRANCH   4  24
TORSDOF 7
ENDMDL
MODEL      144
REMARK 921   NORMALIZED FREE ENERGY PREDICTED BY IDOCK:    5.93 KCAL/MOL
REMARK 922        TOTAL FREE ENERGY PREDICTED BY IDOCK:    8.15 KCAL/MOL
REMARK 923 INTER-LIGAND FREE ENERGY PREDICTED BY IDOCK:    6.50 KCAL/MOL
REMARK 924 INTRA-LIGAND FREE ENERGY PREDICTED BY IDOCK:    1.66 KCAL/MOL
REMARK 927      BINDING AFFINITY PREDICTED BY RF-SCORE:    0.00 PKD
ROOT
HETATM    1  C   UNL     1     -10.151  18.893  67.587  1.00  0.00    -0.425 C  
HETATM    2  C   UNL     1     -10.761  20.028  68.177  1.00  0.00    -0.155 C  
HETATM    3  C   UNL     1      -9.627  19.418  68.918  1.00  0.00    -0.477 C  
HETATM    4  C   UNL     1      -8.577  17.994  67.861  1.00  0.00    -0.257 C  
HETATM    5  C   UNL     1     -12.447  15.581  70.020  1.00  0.00    -0.293 C  
HETATM    6  C   UNL     1     -12.249  15.706  72.863  1.00  0.00    -0.563 C  
HETATM    7  C   UNL     1      -8.304  19.300  68.108  1.00  0.00    -0.358 C  
HETATM    8  C   UNL     1      -7.596  20.385  67.316  1.00  0.00    -0.371 C  
HETATM    9  O   UNL     1     -13.588  13.712  72.718  1.00  0.00    -0.672 OA 
HETATM   10  C   UNL     1     -12.760  15.883  68.573  1.00  0.00     1.444 C  
HETATM   11  C   UNL     1     -10.934  15.886  72.113  1.00  0.00     0.552 C  
HETATM   12  C   UNL     1      -7.806  18.752  69.823  1.00  0.00     0.674 C  
HETATM   13  C   UNL     1      -8.762  17.406  70.371  1.00  0.00     3.612 C  
HETATM   14  C   UNL     1     -13.107  14.696  72.171  1.00  0.00    -0.347 C  
HETATM   15  C   UNL     1     -13.409  15.010  70.767  1.00  0.00    -0.362 C  
HETATM   16  C   UNL     1     -10.197  14.569  70.091  1.00  0.00     0.489 C  
HETATM   17  C   UNL     1     -10.379  17.151  69.948  1.00  0.00     0.221 C  
HETATM   18  C   UNL     1     -10.765  17.385  68.377  1.00  0.00    -0.301 C  
HETATM   19  C   UNL     1     -11.003  15.810  70.535  1.00  0.00    -0.361 C  
HETATM   20  C   UNL     1     -12.267  17.255  68.136  1.00  0.00     2.400 C  
ENDROOT
BRANCH   4  21
HETATM   21  C   UNL     1      -7.057  17.396  67.842  1.00  0.00    -0.173 C  
HETATM   22  O   UNL     1      -6.041  18.072  67.633  1.00  0.00    -0.154 OA 
HETATM   23  C   UNL     1      -6.831  15.919  68.010  1.00  0.00    -0.137 C  
ENDBRANCH   4  21
BRANCH   4  24
HETATM   24  O   UNL     1      -8.514  18.061  66.293  1.00  0.00    -0.382 OA 
BRANCH  24  25
HETATM   25  C   UNL     1      -8.143  17.000  65.528  1.00  0.00     1.127 C  
HETATM   26  O   UNL     1      -7.001  16.594  65.387  1.00  0.00     1.226 OA 
BRANCH  25  27
HETATM   27  C   UNL     1      -9.389  16.285  65.038  1.00  0.00     1.541 C  
BRANCH  27  28
HETATM   28  C   UNL     1      -9.884  15.218  65.991  1.00  0.00    -0.357 C  
BRANCH  28  29
HETATM   29  C   UNL     1     -10.960  14.341  65.360  1.00  0.00    -0.335 C  
BRANCH  29  30
HETATM   30  C   UNL     1     -10.380  13.515  64.218  1.00  0.00    -0.169 C  
HETATM   31  C   UNL     1     -11.469  13.073  63.257  1.00  0.00    -0.142 C  
ENDBRANCH  29  30
ENDBRANCH  28  29
ENDBRANCH  27  28
ENDBRANCH  25  27
ENDBRANCH  24  25
ENDBRANCH   4  24
TORSDOF 7
ENDMDL
MODEL      145
REMARK 921   NORMALIZED FREE ENERGY PREDICTED BY IDOCK:    6.27 KCAL/MOL
REMARK 922        TOTAL FREE ENERGY PREDICTED BY IDOCK:    8.63 KCAL/MOL
REMARK 923 INTER-LIGAND FREE ENERGY PREDICTED BY IDOCK:    7.18 KCAL/MOL
REMARK 924 INTRA-LIGAND FREE ENERGY PREDICTED BY IDOCK:    1.45 KCAL/MOL
REMARK 927      BINDING AFFINITY PREDICTED BY RF-SCORE:    0.00 PKD
ROOT
HETATM    1  C   UNL     1     -10.412  14.481  69.415  1.00  0.00    -0.139 C  
HETATM    2  C   UNL     1     -10.346  14.648  70.822  1.00  0.00     0.868 C  
HETATM    3  C   UNL     1      -9.058  14.437  70.112  1.00  0.00     1.418 C  
HETATM    4  C   UNL     1      -9.182  14.536  68.058  1.00  0.00    -0.190 C  
HETATM    5  C   UNL     1     -10.291   9.776  69.314  1.00  0.00    -0.230 C  
HETATM    6  C   UNL     1      -8.057   8.521  70.565  1.00  0.00    -0.112 C  
HETATM    7  C   UNL     1      -8.767  15.451  68.969  1.00  0.00    -0.231 C  
HETATM    8  C   UNL     1      -8.833  16.967  69.028  1.00  0.00    -0.130 C  
HETATM    9  O   UNL     1      -9.141   6.529  69.764  1.00  0.00    -0.141 OA 
HETATM   10  C   UNL     1     -11.558  10.557  69.052  1.00  0.00    -0.278 C  
HETATM   11  C   UNL     1      -7.716   9.705  69.668  1.00  0.00    -0.124 C  
HETATM   12  C   UNL     1      -7.187  14.460  69.074  1.00  0.00    -0.129 C  
HETATM   13  C   UNL     1      -7.478  12.760  68.848  1.00  0.00     0.022 C  
HETATM   14  C   UNL     1      -9.184   7.733  69.978  1.00  0.00    -0.153 C  
HETATM   15  C   UNL     1     -10.411   8.506  69.739  1.00  0.00    -0.220 C  
HETATM   16  C   UNL     1      -8.759  10.206  67.426  1.00  0.00    -0.125 C  
HETATM   17  C   UNL     1      -8.891  11.963  69.327  1.00  0.00     0.683 C  
HETATM   18  C   UNL     1     -10.301  12.723  69.000  1.00  0.00     0.040 C  
HETATM   19  C   UNL     1      -8.929  10.418  68.948  1.00  0.00    -0.170 C  
HETATM   20  C   UNL     1     -11.496  11.979  69.590  1.00  0.00    -0.322 C  
ENDROOT
BRANCH   4  21
HETATM   21  C   UNL     1      -8.193  14.919  66.815  1.00  0.00    -0.051 C  
HETATM   22  O   UNL     1      -7.362  14.147  66.319  1.00  0.00     1.499 OA 
HETATM   23  C   UNL     1      -8.203  16.313  66.252  1.00  0.00    -0.312 C  
ENDBRANCH   4  21
BRANCH   4  24
HETATM   24  O   UNL     1     -10.294  15.411  67.374  1.00  0.00    -0.253 OA 
BRANCH  24  25
HETATM   25  C   UNL     1     -10.947  15.018  66.249  1.00  0.00    -0.338 C  
HETATM   26  O   UNL     1     -10.727  13.995  65.623  1.00  0.00    -0.287 OA 
BRANCH  25  27
HETATM   27  C   UNL     1     -12.120  15.952  66.009  1.00  0.00     1.303 C  
BRANCH  27  28
HETATM   28  C   UNL     1     -11.914  17.337  66.584  1.00  0.00     2.832 C  
BRANCH  28  29
HETATM   29  C   UNL     1     -10.890  18.141  65.790  1.00  0.00     0.024 C  
BRANCH  29  30
HETATM   30  C   UNL     1     -11.528  19.392  65.201  1.00  0.00     1.760 C  
HETATM   31  C   UNL     1     -10.722  20.630  65.547  1.00  0.00     0.664 C  
ENDBRANCH  29  30
ENDBRANCH  28  29
ENDBRANCH  27  28
ENDBRANCH  25  27
ENDBRANCH  24  25
ENDBRANCH   4  24
TORSDOF 7
ENDMDL
MODEL      146
REMARK 921   NORMALIZED FREE ENERGY PREDICTED BY IDOCK:    6.64 KCAL/MOL
REMARK 922        TOTAL FREE ENERGY PREDICTED BY IDOCK:    9.15 KCAL/MOL
REMARK 923 INTER-LIGAND FREE ENERGY PREDICTED BY IDOCK:    1.25 KCAL/MOL
REMARK 924 INTRA-LIGAND FREE ENERGY PREDICTED BY IDOCK:    7.90 KCAL/MOL
REMARK 927      BINDING AFFINITY PREDICTED BY RF-SCORE:    0.00 PKD
ROOT
HETATM    1  C   UNL     1      -9.886  10.975  66.593  1.00  0.00    -0.235 C  
HETATM    2  C   UNL     1     -10.227   9.823  65.841  1.00  0.00    -0.245 C  
HETATM    3  C   UNL     1     -10.886   9.977  67.164  1.00  0.00    -0.240 C  
HETATM    4  C   UNL     1     -10.610  11.817  68.051  1.00  0.00    -0.206 C  
HETATM    5  C   UNL     1      -6.633   9.002  69.365  1.00  0.00    -0.044 C  
HETATM    6  C   UNL     1      -7.459   6.758  70.920  1.00  0.00    -0.083 C  
HETATM    7  C   UNL     1     -11.661  11.313  67.357  1.00  0.00    -0.214 C  
HETATM    8  C   UNL     1     -12.694  11.933  66.433  1.00  0.00     2.597 C  
HETATM    9  O   UNL     1      -5.195   6.893  71.723  1.00  0.00    -0.027 OA 
HETATM   10  C   UNL     1      -6.270   9.919  68.221  1.00  0.00    -0.050 C  
HETATM   11  C   UNL     1      -8.420   7.941  70.928  1.00  0.00    -0.126 C  
HETATM   12  C   UNL     1     -12.074  10.350  68.904  1.00  0.00     0.223 C  
HETATM   13  C   UNL     1     -10.641   9.893  69.779  1.00  0.00    -0.296 C  
HETATM   14  C   UNL     1      -6.044   7.240  70.912  1.00  0.00    -0.035 C  
HETATM   15  C   UNL     1      -5.705   8.124  69.787  1.00  0.00    -0.026 C  
HETATM   16  C   UNL     1      -7.766  10.374  71.077  1.00  0.00     1.902 C  
HETATM   17  C   UNL     1      -9.155   9.538  69.055  1.00  0.00    -0.144 C  
HETATM   18  C   UNL     1      -8.669  10.543  67.861  1.00  0.00    -0.126 C  
HETATM   19  C   UNL     1      -7.989   9.209  70.087  1.00  0.00    -0.124 C  
HETATM   20  C   UNL     1      -7.385  10.053  67.195  1.00  0.00    -0.091 C  
ENDROOT
BRANCH   4  21
HETATM   21  C   UNL     1     -11.412  12.768  69.109  1.00  0.00    -0.306 C  
HETATM   22  O   UNL     1     -11.003  13.864  69.515  1.00  0.00    -0.181 OA 
HETATM   23  C   UNL     1     -12.702  12.291  69.717  1.00  0.00     0.456 C  
ENDBRANCH   4  21
BRANCH   4  24
HETATM   24  O   UNL     1     -10.368  13.093  67.168  1.00  0.00    -0.245 OA 
BRANCH  24  25
HETATM   25  C   UNL     1     -11.380  13.766  66.561  1.00  0.00    -0.325 C  
HETATM   26  O   UNL     1     -12.524  13.849  66.974  1.00  0.00    -0.323 OA 
BRANCH  25  27
HETATM   27  C   UNL     1     -10.815  14.560  65.396  1.00  0.00    -0.362 C  
BRANCH  27  28
HETATM   28  C   UNL     1      -9.307  14.483  65.291  1.00  0.00     0.579 C  
BRANCH  28  29
HETATM   29  C   UNL     1      -8.619  15.554  66.132  1.00  0.00    -0.078 C  
BRANCH  29  30
HETATM   30  C   UNL     1      -9.211  16.928  65.842  1.00  0.00    -0.112 C  
HETATM   31  C   UNL     1      -9.386  17.726  67.122  1.00  0.00    -0.264 C  
ENDBRANCH  29  30
ENDBRANCH  28  29
ENDBRANCH  27  28
ENDBRANCH  25  27
ENDBRANCH  24  25
ENDBRANCH   4  24
TORSDOF 7
ENDMDL
MODEL      147
REMARK 921   NORMALIZED FREE ENERGY PREDICTED BY IDOCK:    6.86 KCAL/MOL
REMARK 922        TOTAL FREE ENERGY PREDICTED BY IDOCK:    9.46 KCAL/MOL
REMARK 923 INTER-LIGAND FREE ENERGY PREDICTED BY IDOCK:    7.53 KCAL/MOL
REMARK 924 INTRA-LIGAND FREE ENERGY PREDICTED BY IDOCK:    1.93 KCAL/MOL
REMARK 927      BINDING AFFINITY PREDICTED BY RF-SCORE:    0.00 PKD
ROOT
HETATM    1  C   UNL     1     -10.724  10.606  65.547  1.00  0.00    -0.105 C  
HETATM    2  C   UNL     1     -11.843  11.260  64.973  1.00  0.00     0.515 C  
HETATM    3  C   UNL     1     -10.759  12.128  65.501  1.00  0.00    -0.321 C  
HETATM    4  C   UNL     1      -9.030  11.129  66.012  1.00  0.00    -0.200 C  
HETATM    5  C   UNL     1     -12.038  10.911  70.058  1.00  0.00    -0.433 C  
HETATM    6  C   UNL     1     -12.548  13.526  71.074  1.00  0.00    -0.438 C  
HETATM    7  C   UNL     1      -9.348  11.848  64.907  1.00  0.00     0.103 C  
HETATM    8  C   UNL     1      -8.958  11.737  63.443  1.00  0.00     0.308 C  
HETATM    9  O   UNL     1     -12.938  12.306  73.110  1.00  0.00     1.408 OA 
HETATM   10  C   UNL     1     -12.110   9.616  69.281  1.00  0.00     0.811 C  
HETATM   11  C   UNL     1     -11.273  13.389  70.249  1.00  0.00     0.366 C  
HETATM   12  C   UNL     1      -9.076  13.368  65.957  1.00  0.00     0.207 C  
HETATM   13  C   UNL     1      -9.531  13.095  67.614  1.00  0.00    -0.207 C  
HETATM   14  C   UNL     1     -12.767  12.298  71.898  1.00  0.00    -0.091 C  
HETATM   15  C   UNL     1     -12.844  11.050  71.126  1.00  0.00    -0.491 C  
HETATM   16  C   UNL     1      -9.650  11.460  70.352  1.00  0.00     3.127 C  
HETATM   17  C   UNL     1     -10.782  12.068  68.101  1.00  0.00    -0.246 C  
HETATM   18  C   UNL     1     -10.866  10.617  67.352  1.00  0.00    -0.353 C  
HETATM   19  C   UNL     1     -10.952  11.949  69.679  1.00  0.00    -0.012 C  
HETATM   20  C   UNL     1     -12.104   9.831  67.775  1.00  0.00     3.190 C  
ENDROOT
BRANCH   4  21
HETATM   21  C   UNL     1      -7.435  11.468  66.109  1.00  0.00     0.210 C  
HETATM   22  O   UNL     1      -6.927  12.201  66.968  1.00  0.00    -0.137 OA 
HETATM   23  C   UNL     1      -6.492  10.939  65.065  1.00  0.00     0.277 C  
ENDBRANCH   4  21
BRANCH   4  24
HETATM   24  O   UNL     1      -8.648   9.789  65.287  1.00  0.00    -0.137 OA 
BRANCH  24  25
HETATM   25  C   UNL     1      -8.954   8.567  65.797  1.00  0.00    -0.182 C  
HETATM   26  O   UNL     1      -9.637   7.720  65.246  1.00  0.00     0.629 OA 
BRANCH  25  27
HETATM   27  C   UNL     1      -8.151   8.348  67.067  1.00  0.00    -0.104 C  
BRANCH  27  28
HETATM   28  C   UNL     1      -6.749   7.838  66.812  1.00  0.00    -0.067 C  
BRANCH  28  29
HETATM   29  C   UNL     1      -6.748   6.431  66.224  1.00  0.00    -0.056 C  
BRANCH  29  30
HETATM   30  C   UNL     1      -5.393   6.106  65.610  1.00  0.00    -0.013 C  
HETATM   31  C   UNL     1      -5.342   6.519  64.150  1.00  0.00    -0.026 C  
ENDBRANCH  29  30
ENDBRANCH  28  29
ENDBRANCH  27  28
ENDBRANCH  25  27
ENDBRANCH  24  25
ENDBRANCH   4  24
TORSDOF 7
ENDMDL
MODEL      148
REMARK 921   NORMALIZED FREE ENERGY PREDICTED BY IDOCK:    6.94 KCAL/MOL
REMARK 922        TOTAL FREE ENERGY PREDICTED BY IDOCK:    9.58 KCAL/MOL
REMARK 923 INTER-LIGAND FREE ENERGY PREDICTED BY IDOCK:    7.32 KCAL/MOL
REMARK 924 INTRA-LIGAND FREE ENERGY PREDICTED BY IDOCK:    2.26 KCAL/MOL
REMARK 927      BINDING AFFINITY PREDICTED BY RF-SCORE:    0.00 PKD
ROOT
HETATM    1  C   UNL     1      -8.545  12.265  69.962  1.00  0.00     3.304 C  
HETATM    2  C   UNL     1      -7.459  13.172  69.867  1.00  0.00     1.179 C  
HETATM    3  C   UNL     1      -8.374  13.101  68.699  1.00  0.00     0.019 C  
HETATM    4  C   UNL     1     -10.103  12.027  69.026  1.00  0.00     0.092 C  
HETATM    5  C   UNL     1      -6.603   8.678  67.613  1.00  0.00    -0.062 C  
HETATM    6  C   UNL     1      -5.717   9.211  64.955  1.00  0.00    -0.058 C  
HETATM    7  C   UNL     1      -9.873  13.364  69.026  1.00  0.00     0.209 C  
HETATM    8  C   UNL     1     -10.468  14.525  69.803  1.00  0.00     0.049 C  
HETATM    9  O   UNL     1      -5.167   6.870  65.016  1.00  0.00    -0.025 OA 
HETATM   10  C   UNL     1      -6.760   8.669  69.115  1.00  0.00    -0.047 C  
HETATM   11  C   UNL     1      -7.099   9.754  65.298  1.00  0.00    -0.119 C  
HETATM   12  C   UNL     1      -9.855  13.244  67.161  1.00  0.00    -0.237 C  
HETATM   13  C   UNL     1      -9.205  11.724  66.621  1.00  0.00    -0.201 C  
HETATM   14  C   UNL     1      -5.503   7.885  65.612  1.00  0.00    -0.029 C  
HETATM   15  C   UNL     1      -5.649   7.896  67.074  1.00  0.00    -0.033 C  
HETATM   16  C   UNL     1      -8.867   8.550  66.636  1.00  0.00    -0.157 C  
HETATM   17  C   UNL     1      -8.001  10.859  67.435  1.00  0.00    -0.113 C  
HETATM   18  C   UNL     1      -8.157  10.746  69.058  1.00  0.00    -0.140 C  
HETATM   19  C   UNL     1      -7.629   9.467  66.760  1.00  0.00    -0.097 C  
HETATM   20  C   UNL     1      -6.952  10.061  69.698  1.00  0.00    -0.096 C  
ENDROOT
BRANCH   4  21
HETATM   21  C   UNL     1     -11.630  12.012  68.448  1.00  0.00    -0.311 C  
HETATM   22  O   UNL     1     -12.103  11.110  67.745  1.00  0.00    -0.606 OA 
HETATM   23  C   UNL     1     -12.537  13.185  68.697  1.00  0.00     0.671 C  
ENDBRANCH   4  21
BRANCH   4  24
HETATM   24  O   UNL     1     -10.704  11.919  70.473  1.00  0.00     1.374 OA 
BRANCH  24  25
HETATM   25  C   UNL     1     -10.994  10.728  71.060  1.00  0.00     0.945 C  
HETATM   26  O   UNL     1     -12.037  10.110  70.929  1.00  0.00    -0.302 OA 
BRANCH  25  27
HETATM   27  C   UNL     1      -9.745  10.197  71.740  1.00  0.00     3.404 C  
BRANCH  27  28
HETATM   28  C   UNL     1      -9.812   8.717  72.050  1.00  0.00    -0.376 C  
BRANCH  28  29
HETATM   29  C   UNL     1     -11.108   8.338  72.760  1.00  0.00    -0.319 C  
BRANCH  29  30
HETATM   30  C   UNL     1     -11.672   7.042  72.193  1.00  0.00    -0.321 C  
HETATM   31  C   UNL     1     -10.564   6.158  71.648  1.00  0.00    -0.276 C  
ENDBRANCH  29  30
ENDBRANCH  28  29
ENDBRANCH  27  28
ENDBRANCH  25  27
ENDBRANCH  24  25
ENDBRANCH   4  24
TORSDOF 7
ENDMDL
MODEL      149
REMARK 921   NORMALIZED FREE ENERGY PREDICTED BY IDOCK:    7.03 KCAL/MOL
REMARK 922        TOTAL FREE ENERGY PREDICTED BY IDOCK:    9.70 KCAL/MOL
REMARK 923 INTER-LIGAND FREE ENERGY PREDICTED BY IDOCK:    1.44 KCAL/MOL
REMARK 924 INTRA-LIGAND FREE ENERGY PREDICTED BY IDOCK:    8.26 KCAL/MOL
REMARK 927      BINDING AFFINITY PREDICTED BY RF-SCORE:    0.00 PKD
ROOT
HETATM    1  C   UNL     1      -9.413   8.208  64.378  1.00  0.00     1.810 C  
HETATM    2  C   UNL     1      -9.001   8.856  63.186  1.00  0.00     0.189 C  
HETATM    3  C   UNL     1      -8.045   8.877  64.323  1.00  0.00    -0.158 C  
HETATM    4  C   UNL     1      -8.553   7.646  65.896  1.00  0.00    -0.148 C  
HETATM    5  C   UNL     1     -10.961  12.010  66.682  1.00  0.00    -0.330 C  
HETATM    6  C   UNL     1      -9.095  14.134  67.057  1.00  0.00    -0.255 C  
HETATM    7  C   UNL     1      -7.665   7.477  64.884  1.00  0.00    -0.115 C  
HETATM    8  C   UNL     1      -7.185   6.261  64.111  1.00  0.00    -0.061 C  
HETATM    9  O   UNL     1     -10.946  15.117  68.237  1.00  0.00    -0.256 OA 
HETATM   10  C   UNL     1     -11.901  10.996  66.075  1.00  0.00     1.257 C  
HETATM   11  C   UNL     1      -8.558  12.740  67.358  1.00  0.00    -0.194 C  
HETATM   12  C   UNL     1      -6.544   8.635  65.829  1.00  0.00    -0.057 C  
HETATM   13  C   UNL     1      -7.449   9.843  66.694  1.00  0.00    -0.099 C  
HETATM   14  C   UNL     1     -10.521  14.246  67.491  1.00  0.00    -0.252 C  
HETATM   15  C   UNL     1     -11.424  13.257  66.883  1.00  0.00    -0.376 C  
HETATM   16  C   UNL     1      -9.805  10.907  68.564  1.00  0.00    -0.188 C  
HETATM   17  C   UNL     1      -8.917  10.494  66.165  1.00  0.00    -0.178 C  
HETATM   18  C   UNL     1     -10.010   9.434  65.568  1.00  0.00    -0.129 C  
HETATM   19  C   UNL     1      -9.569  11.538  67.173  1.00  0.00    -0.189 C  
HETATM   20  C   UNL     1     -11.238  10.143  65.003  1.00  0.00     1.977 C  
ENDROOT
BRANCH   4  21
HETATM   21  C   UNL     1      -7.775   6.835  67.081  1.00  0.00    -0.104 C  
HETATM   22  O   UNL     1      -8.316   6.026  67.847  1.00  0.00    -0.115 OA 
HETATM   23  C   UNL     1      -6.322   7.111  67.349  1.00  0.00    -0.050 C  
ENDBRANCH   4  21
BRANCH   4  24
HETATM   24  O   UNL     1      -9.407   6.352  65.642  1.00  0.00     0.031 OA 
BRANCH  24  25
HETATM   25  C   UNL     1      -8.852   5.117  65.533  1.00  0.00    -0.148 C  
HETATM   26  O   UNL     1      -8.120   4.593  66.357  1.00  0.00    -0.102 OA 
BRANCH  25  27
HETATM   27  C   UNL     1      -9.441   4.416  64.321  1.00  0.00    -0.106 C  
BRANCH  27  28
HETATM   28  C   UNL     1      -8.995   2.977  64.182  1.00  0.00    -0.104 C  
BRANCH  28  29
HETATM   29  C   UNL     1      -7.760   2.843  63.297  1.00  0.00    -0.064 C  
BRANCH  29  30
HETATM   30  C   UNL     1      -6.488   3.001  64.120  1.00  0.00    -0.031 C  
HETATM   31  C   UNL     1      -5.913   1.648  64.498  1.00  0.00    -0.013 C  
ENDBRANCH  29  30
ENDBRANCH  28  29
ENDBRANCH  27  28
ENDBRANCH  25  27
ENDBRANCH  24  25
ENDBRANCH   4  24
TORSDOF 7
ENDMDL
MODEL      150
REMARK 921   NORMALIZED FREE ENERGY PREDICTED BY IDOCK:    7.57 KCAL/MOL
REMARK 922        TOTAL FREE ENERGY PREDICTED BY IDOCK:   10.46 KCAL/MOL
REMARK 923 INTER-LIGAND FREE ENERGY PREDICTED BY IDOCK:    3.18 KCAL/MOL
REMARK 924 INTRA-LIGAND FREE ENERGY PREDICTED BY IDOCK:    7.28 KCAL/MOL
REMARK 927      BINDING AFFINITY PREDICTED BY RF-SCORE:    0.00 PKD
ROOT
HETATM    1  C   UNL     1      -8.565  18.600  68.349  1.00  0.00    -0.366 C  
HETATM    2  C   UNL     1      -8.720  19.589  69.353  1.00  0.00     0.145 C  
HETATM    3  C   UNL     1      -8.008  18.345  69.744  1.00  0.00     0.948 C  
HETATM    4  C   UNL     1      -7.524  17.102  68.174  1.00  0.00    -0.205 C  
HETATM    5  C   UNL     1     -12.231  15.894  69.534  1.00  0.00    -0.107 C  
HETATM    6  C   UNL     1     -12.280  14.894  72.204  1.00  0.00    -0.428 C  
HETATM    7  C   UNL     1      -6.773  17.994  68.866  1.00  0.00    -0.245 C  
HETATM    8  C   UNL     1      -5.612  18.897  68.486  1.00  0.00    -0.200 C  
HETATM    9  O   UNL     1     -14.289  13.826  71.421  1.00  0.00     0.011 OA 
HETATM   10  C   UNL     1     -12.251  16.796  68.322  1.00  0.00     1.489 C  
HETATM   11  C   UNL     1     -10.938  14.773  71.492  1.00  0.00     0.408 C  
HETATM   12  C   UNL     1      -6.710  16.714  70.225  1.00  0.00     0.755 C  
HETATM   13  C   UNL     1      -8.177  15.782  70.299  1.00  0.00     1.132 C  
HETATM   14  C   UNL     1     -13.400  14.649  71.245  1.00  0.00    -0.383 C  
HETATM   15  C   UNL     1     -13.410  15.542  70.077  1.00  0.00     0.534 C  
HETATM   16  C   UNL     1     -10.600  14.096  69.085  1.00  0.00    -0.176 C  
HETATM   17  C   UNL     1      -9.709  16.385  69.913  1.00  0.00     0.329 C  
HETATM   18  C   UNL     1      -9.811  17.305  68.566  1.00  0.00    -0.307 C  
HETATM   19  C   UNL     1     -10.876  15.307  70.005  1.00  0.00    -0.303 C  
HETATM   20  C   UNL     1     -11.206  17.899  68.390  1.00  0.00     0.587 C  
ENDROOT
BRANCH   4  21
HETATM   21  C   UNL     1      -6.382  15.983  67.841  1.00  0.00    -0.138 C  
HETATM   22  O   UNL     1      -6.480  15.124  66.954  1.00  0.00    -0.107 OA 
HETATM   23  C   UNL     1      -5.143  15.901  68.689  1.00  0.00    -0.095 C  
ENDBRANCH   4  21
BRANCH   4  24
HETATM   24  O   UNL     1      -7.286  17.696  66.739  1.00  0.00    -0.181 OA 
BRANCH  24  25
HETATM   25  C   UNL     1      -6.049  17.805  66.187  1.00  0.00    -0.226 C  
HETATM   26  O   UNL     1      -5.321  16.873  65.889  1.00  0.00    -0.148 OA 
BRANCH  25  27
HETATM   27  C   UNL     1      -5.800  19.258  65.821  1.00  0.00    -0.194 C  
BRANCH  27  28
HETATM   28  C   UNL     1      -6.369  19.644  64.473  1.00  0.00    -0.171 C  
BRANCH  28  29
HETATM   29  C   UNL     1      -7.605  20.528  64.604  1.00  0.00     0.862 C  
BRANCH  29  30
HETATM   30  C   UNL     1      -8.455  20.089  65.789  1.00  0.00    -0.021 C  
HETATM   31  C   UNL     1      -9.932  20.309  65.511  1.00  0.00    -0.015 C  
ENDBRANCH  29  30
ENDBRANCH  28  29
ENDBRANCH  27  28
ENDBRANCH  25  27
ENDBRANCH  24  25
ENDBRANCH   4  24
TORSDOF 7
ENDMDL
MODEL      151
REMARK 921   NORMALIZED FREE ENERGY PREDICTED BY IDOCK:    7.59 KCAL/MOL
REMARK 922        TOTAL FREE ENERGY PREDICTED BY IDOCK:   10.50 KCAL/MOL
REMARK 923 INTER-LIGAND FREE ENERGY PREDICTED BY IDOCK:    1.36 KCAL/MOL
REMARK 924 INTRA-LIGAND FREE ENERGY PREDICTED BY IDOCK:    9.14 KCAL/MOL
REMARK 927      BINDING AFFINITY PREDICTED BY RF-SCORE:    0.00 PKD
ROOT
HETATM    1  C   UNL     1      -8.997  13.585  68.911  1.00  0.00     0.221 C  
HETATM    2  C   UNL     1      -9.527  14.028  70.149  1.00  0.00     2.035 C  
HETATM    3  C   UNL     1      -8.110  13.583  70.149  1.00  0.00     2.494 C  
HETATM    4  C   UNL     1      -7.306  13.273  68.277  1.00  0.00    -0.113 C  
HETATM    5  C   UNL     1      -9.588   8.961  69.568  1.00  0.00    -0.171 C  
HETATM    6  C   UNL     1      -8.356   7.824  71.875  1.00  0.00    -0.136 C  
HETATM    7  C   UNL     1      -7.192  14.320  69.131  1.00  0.00    -0.104 C  
HETATM    8  C   UNL     1      -7.036  15.817  68.930  1.00  0.00    -0.139 C  
HETATM    9  O   UNL     1      -9.280   5.796  70.968  1.00  0.00    -0.147 OA 
HETATM   10  C   UNL     1     -10.472   9.765  68.643  1.00  0.00    -0.233 C  
HETATM   11  C   UNL     1      -7.474   8.773  71.072  1.00  0.00    -0.105 C  
HETATM   12  C   UNL     1      -5.996  13.257  70.095  1.00  0.00    -0.139 C  
HETATM   13  C   UNL     1      -6.423  11.572  70.013  1.00  0.00    -0.067 C  
HETATM   14  C   UNL     1      -9.221   7.018  70.959  1.00  0.00    -0.155 C  
HETATM   15  C   UNL     1     -10.081   7.816  70.073  1.00  0.00    -0.201 C  
HETATM   16  C   UNL     1      -7.339   8.885  68.554  1.00  0.00    -0.081 C  
HETATM   17  C   UNL     1      -8.009  10.996  69.901  1.00  0.00     0.653 C  
HETATM   18  C   UNL     1      -8.995  11.776  68.856  1.00  0.00     0.118 C  
HETATM   19  C   UNL     1      -8.121   9.413  69.778  1.00  0.00    -0.134 C  
HETATM   20  C   UNL     1     -10.428  11.258  68.934  1.00  0.00    -0.232 C  
ENDROOT
BRANCH   4  21
HETATM   21  C   UNL     1      -5.827  13.321  67.586  1.00  0.00    -0.103 C  
HETATM   22  O   UNL     1      -5.152  14.350  67.449  1.00  0.00    -0.321 OA 
HETATM   23  C   UNL     1      -5.235  12.073  66.993  1.00  0.00    -0.079 C  
ENDBRANCH   4  21
BRANCH   4  24
HETATM   24  O   UNL     1      -7.853  14.070  67.040  1.00  0.00    -0.090 OA 
BRANCH  24  25
HETATM   25  C   UNL     1      -7.779  15.424  66.949  1.00  0.00    -0.124 C  
HETATM   26  O   UNL     1      -6.999  16.134  67.562  1.00  0.00    -0.136 OA 
BRANCH  25  27
HETATM   27  C   UNL     1      -8.683  15.893  65.823  1.00  0.00     0.190 C  
BRANCH  27  28
HETATM   28  C   UNL     1      -9.988  16.487  66.307  1.00  0.00    -0.346 C  
BRANCH  28  29
HETATM   29  C   UNL     1      -9.958  16.797  67.801  1.00  0.00    -0.268 C  
BRANCH  29  30
HETATM   30  C   UNL     1     -10.583  18.157  68.081  1.00  0.00    -0.320 C  
HETATM   31  C   UNL     1      -9.583  19.275  67.848  1.00  0.00    -0.409 C  
ENDBRANCH  29  30
ENDBRANCH  28  29
ENDBRANCH  27  28
ENDBRANCH  25  27
ENDBRANCH  24  25
ENDBRANCH   4  24
TORSDOF 7
ENDMDL
MODEL      152
REMARK 921   NORMALIZED FREE ENERGY PREDICTED BY IDOCK:    8.84 KCAL/MOL
REMARK 922        TOTAL FREE ENERGY PREDICTED BY IDOCK:   12.25 KCAL/MOL
REMARK 923 INTER-LIGAND FREE ENERGY PREDICTED BY IDOCK:    5.99 KCAL/MOL
REMARK 924 INTRA-LIGAND FREE ENERGY PREDICTED BY IDOCK:    6.26 KCAL/MOL
REMARK 927      BINDING AFFINITY PREDICTED BY RF-SCORE:    0.00 PKD
ROOT
HETATM    1  C   UNL     1     -12.016  10.874  70.465  1.00  0.00    -0.466 C  
HETATM    2  C   UNL     1     -13.430  10.974  70.479  1.00  0.00     0.656 C  
HETATM    3  C   UNL     1     -12.837  10.007  69.519  1.00  0.00     1.103 C  
HETATM    4  C   UNL     1     -10.821   9.665  69.778  1.00  0.00    -0.250 C  
HETATM    5  C   UNL     1     -11.197  13.734  66.817  1.00  0.00    -0.327 C  
HETATM    6  C   UNL     1     -12.469  13.069  64.352  1.00  0.00    -0.406 C  
HETATM    7  C   UNL     1     -11.902   8.940  70.159  1.00  0.00     0.221 C  
HETATM    8  C   UNL     1     -12.189   8.043  71.350  1.00  0.00    -0.335 C  
HETATM    9  O   UNL     1     -11.257  14.999  63.581  1.00  0.00     0.721 OA 
HETATM   10  C   UNL     1     -10.927  14.148  68.244  1.00  0.00    -0.266 C  
HETATM   11  C   UNL     1     -11.808  11.901  65.076  1.00  0.00    -0.213 C  
HETATM   12  C   UNL     1     -12.020   8.393  68.376  1.00  0.00     2.905 C  
HETATM   13  C   UNL     1     -11.503   9.645  67.284  1.00  0.00     1.069 C  
HETATM   14  C   UNL     1     -11.650  14.309  64.513  1.00  0.00    -0.387 C  
HETATM   15  C   UNL     1     -11.405  14.704  65.908  1.00  0.00    -0.338 C  
HETATM   16  C   UNL     1      -9.573  11.965  66.245  1.00  0.00    -0.243 C  
HETATM   17  C   UNL     1     -11.699  11.300  67.570  1.00  0.00    -0.166 C  
HETATM   18  C   UNL     1     -11.346  11.824  69.078  1.00  0.00    -0.338 C  
HETATM   19  C   UNL     1     -11.082  12.235  66.440  1.00  0.00    -0.345 C  
HETATM   20  C   UNL     1     -11.683  13.302  69.258  1.00  0.00    -0.380 C  
ENDROOT
BRANCH   4  21
HETATM   21  C   UNL     1      -9.766   8.452  69.490  1.00  0.00    -0.177 C  
HETATM   22  O   UNL     1     -10.034   7.249  69.606  1.00  0.00    -0.172 OA 
HETATM   23  C   UNL     1      -8.341   8.769  69.131  1.00  0.00    -0.125 C  
ENDBRANCH   4  21
BRANCH   4  24
HETATM   24  O   UNL     1     -10.168   9.827  71.197  1.00  0.00    -0.212 OA 
BRANCH  24  25
HETATM   25  C   UNL     1      -8.823   9.828  71.389  1.00  0.00     1.304 C  
HETATM   26  O   UNL     1      -8.175   8.915  71.874  1.00  0.00    -0.345 OA 
BRANCH  25  27
HETATM   27  C   UNL     1      -8.231  11.060  70.726  1.00  0.00     3.759 C  
BRANCH  27  28
HETATM   28  C   UNL     1      -7.605  10.776  69.379  1.00  0.00    -0.114 C  
BRANCH  28  29
HETATM   29  C   UNL     1      -6.096  10.999  69.389  1.00  0.00    -0.060 C  
BRANCH  29  30
HETATM   30  C   UNL     1      -5.770  12.449  69.725  1.00  0.00    -0.113 C  
HETATM   31  C   UNL     1      -5.654  12.648  71.226  1.00  0.00     0.025 C  
ENDBRANCH  29  30
ENDBRANCH  28  29
ENDBRANCH  27  28
ENDBRANCH  25  27
ENDBRANCH  24  25
ENDBRANCH   4  24
TORSDOF 7
ENDMDL
MODEL      153
REMARK 921   NORMALIZED FREE ENERGY PREDICTED BY IDOCK:   10.72 KCAL/MOL
REMARK 922        TOTAL FREE ENERGY PREDICTED BY IDOCK:   14.90 KCAL/MOL
REMARK 923 INTER-LIGAND FREE ENERGY PREDICTED BY IDOCK:    7.24 KCAL/MOL
REMARK 924 INTRA-LIGAND FREE ENERGY PREDICTED BY IDOCK:    7.67 KCAL/MOL
REMARK 927      BINDING AFFINITY PREDICTED BY RF-SCORE:    0.00 PKD
ROOT
HETATM    1  C   UNL     1      -8.451  10.315  66.103  1.00  0.00    -0.144 C  
HETATM    2  C   UNL     1      -9.014   9.640  67.215  1.00  0.00    -0.146 C  
HETATM    3  C   UNL     1      -9.738  10.842  66.726  1.00  0.00    -0.221 C  
HETATM    4  C   UNL     1      -9.063  11.576  64.922  1.00  0.00     0.092 C  
HETATM    5  C   UNL     1      -6.161  13.674  68.476  1.00  0.00    -0.091 C  
HETATM    6  C   UNL     1      -7.722  15.315  70.209  1.00  0.00     0.564 C  
HETATM    7  C   UNL     1     -10.135  10.800  65.222  1.00  0.00    -0.353 C  
HETATM    8  C   UNL     1     -10.859   9.691  64.479  1.00  0.00     3.413 C  
HETATM    9  O   UNL     1      -5.601  16.395  70.563  1.00  0.00    -0.171 OA 
HETATM   10  C   UNL     1      -5.446  12.505  67.840  1.00  0.00    -0.094 C  
HETATM   11  C   UNL     1      -8.319  15.081  68.827  1.00  0.00    -0.174 C  
HETATM   12  C   UNL     1     -10.951  12.364  65.837  1.00  0.00    -0.323 C  
HETATM   13  C   UNL     1      -9.794  13.462  66.532  1.00  0.00    -0.286 C  
HETATM   14  C   UNL     1      -6.236  15.449  70.116  1.00  0.00    -0.113 C  
HETATM   15  C   UNL     1      -5.556  14.299  69.503  1.00  0.00    -0.093 C  
HETATM   16  C   UNL     1      -7.045  15.079  66.649  1.00  0.00     1.166 C  
HETATM   17  C   UNL     1      -8.395  12.980  67.350  1.00  0.00    -0.194 C  
HETATM   18  C   UNL     1      -7.534  11.770  66.669  1.00  0.00     0.014 C  
HETATM   19  C   UNL     1      -7.475  14.185  67.834  1.00  0.00    -0.158 C  
HETATM   20  C   UNL     1      -6.371  11.331  67.556  1.00  0.00    -0.068 C  
ENDROOT
BRANCH   4  21
HETATM   21  C   UNL     1      -9.680  12.420  63.667  1.00  0.00     0.115 C  
HETATM   22  O   UNL     1      -9.118  13.383  63.128  1.00  0.00     4.057 OA 
HETATM   23  C   UNL     1     -11.051  12.093  63.145  1.00  0.00    -0.257 C  
ENDBRANCH   4  21
BRANCH   4  24
HETATM   24  O   UNL     1      -8.394  10.613  63.877  1.00  0.00    -0.130 OA 
BRANCH  24  25
HETATM   25  C   UNL     1      -8.691   9.289  63.805  1.00  0.00    -0.167 C  
HETATM   26  O   UNL     1      -9.620   8.805  63.180  1.00  0.00     1.280 OA 
BRANCH  25  27
HETATM   27  C   UNL     1      -7.574   8.496  64.459  1.00  0.00    -0.115 C  
BRANCH  27  28
HETATM   28  C   UNL     1      -7.534   7.046  64.029  1.00  0.00    -0.099 C  
BRANCH  28  29
HETATM   29  C   UNL     1      -6.135   6.451  64.148  1.00  0.00    -0.026 C  
BRANCH  29  30
HETATM   30  C   UNL     1      -5.384   7.073  65.319  1.00  0.00    -0.028 C  
HETATM   31  C   UNL     1      -5.322   6.116  66.497  1.00  0.00    -0.012 C  
ENDBRANCH  29  30
ENDBRANCH  28  29
ENDBRANCH  27  28
ENDBRANCH  25  27
ENDBRANCH  24  25
ENDBRANCH   4  24
TORSDOF 7
ENDMDL
MODEL      154
REMARK 921   NORMALIZED FREE ENERGY PREDICTED BY IDOCK:   10.80 KCAL/MOL
REMARK 922        TOTAL FREE ENERGY PREDICTED BY IDOCK:   15.02 KCAL/MOL
REMARK 923 INTER-LIGAND FREE ENERGY PREDICTED BY IDOCK:   10.49 KCAL/MOL
REMARK 924 INTRA-LIGAND FREE ENERGY PREDICTED BY IDOCK:    4.53 KCAL/MOL
REMARK 927      BINDING AFFINITY PREDICTED BY RF-SCORE:    0.00 PKD
ROOT
HETATM    1  C   UNL     1     -11.933  14.106  67.333  1.00  0.00    -0.439 C  
HETATM    2  C   UNL     1     -12.796  13.309  68.126  1.00  0.00     1.599 C  
HETATM    3  C   UNL     1     -11.451  13.599  68.686  1.00  0.00    -0.342 C  
HETATM    4  C   UNL     1     -10.379  15.023  67.652  1.00  0.00    -0.243 C  
HETATM    5  C   UNL     1      -9.455  10.620  65.366  1.00  0.00    -0.263 C  
HETATM    6  C   UNL     1      -8.131   8.824  67.143  1.00  0.00    -0.100 C  
HETATM    7  C   UNL     1     -11.101  15.111  68.797  1.00  0.00    -0.272 C  
HETATM    8  C   UNL     1     -11.932  16.217  69.423  1.00  0.00     0.072 C  
HETATM    9  O   UNL     1      -7.365   7.859  65.076  1.00  0.00    -0.066 OA 
HETATM   10  C   UNL     1     -10.502  11.396  64.603  1.00  0.00    -0.373 C  
HETATM   11  C   UNL     1      -7.977  10.302  67.482  1.00  0.00    -0.106 C  
HETATM   12  C   UNL     1      -9.657  14.274  69.637  1.00  0.00     0.583 C  
HETATM   13  C   UNL     1      -8.865  13.143  68.579  1.00  0.00    -0.045 C  
HETATM   14  C   UNL     1      -8.117   8.628  65.660  1.00  0.00    -0.110 C  
HETATM   15  C   UNL     1      -9.148   9.383  64.935  1.00  0.00    -0.258 C  
HETATM   16  C   UNL     1      -7.584  12.163  65.825  1.00  0.00     1.564 C  
HETATM   17  C   UNL     1      -9.654  12.245  67.382  1.00  0.00    -0.179 C  
HETATM   18  C   UNL     1     -10.744  13.050  66.468  1.00  0.00    -0.290 C  
HETATM   19  C   UNL     1      -8.688  11.328  66.512  1.00  0.00    -0.178 C  
HETATM   20  C   UNL     1     -11.485  12.116  65.515  1.00  0.00    -0.394 C  
ENDROOT
BRANCH   4  21
HETATM   21  C   UNL     1      -9.209  16.114  67.982  1.00  0.00    -0.195 C  
HETATM   22  O   UNL     1      -8.019  15.982  67.666  1.00  0.00    -0.135 OA 
HETATM   23  C   UNL     1      -9.535  17.342  68.786  1.00  0.00    -0.256 C  
ENDBRANCH   4  21
BRANCH   4  24
HETATM   24  O   UNL     1     -11.126  16.145  66.846  1.00  0.00    -0.164 OA 
BRANCH  24  25
HETATM   25  C   UNL     1     -10.980  16.305  65.505  1.00  0.00    -0.149 C  
HETATM   26  O   UNL     1      -9.927  16.233  64.893  1.00  0.00    -0.301 OA 
BRANCH  25  27
HETATM   27  C   UNL     1     -12.355  16.393  64.866  1.00  0.00     1.827 C  
BRANCH  27  28
HETATM   28  C   UNL     1     -12.449  15.668  63.541  1.00  0.00     1.376 C  
BRANCH  28  29
HETATM   29  C   UNL     1     -13.214  14.354  63.660  1.00  0.00     2.189 C  
BRANCH  29  30
HETATM   30  C   UNL     1     -13.513  14.036  65.119  1.00  0.00     0.687 C  
HETATM   31  C   UNL     1     -14.375  15.117  65.747  1.00  0.00     5.452 C  
ENDBRANCH  29  30
ENDBRANCH  28  29
ENDBRANCH  27  28
ENDBRANCH  25  27
ENDBRANCH  24  25
ENDBRANCH   4  24
TORSDOF 7
ENDMDL
MODEL      155
REMARK 921   NORMALIZED FREE ENERGY PREDICTED BY IDOCK:   11.70 KCAL/MOL
REMARK 922        TOTAL FREE ENERGY PREDICTED BY IDOCK:   16.28 KCAL/MOL
REMARK 923 INTER-LIGAND FREE ENERGY PREDICTED BY IDOCK:    1.12 KCAL/MOL
REMARK 924 INTRA-LIGAND FREE ENERGY PREDICTED BY IDOCK:   15.16 KCAL/MOL
REMARK 927      BINDING AFFINITY PREDICTED BY RF-SCORE:    0.00 PKD
ROOT
HETATM    1  C   UNL     1      -8.087  13.643  68.661  1.00  0.00    -0.071 C  
HETATM    2  C   UNL     1      -7.401  13.527  69.897  1.00  0.00     0.783 C  
HETATM    3  C   UNL     1      -8.606  14.397  69.879  1.00  0.00     0.883 C  
HETATM    4  C   UNL     1      -9.740  14.260  68.164  1.00  0.00    -0.226 C  
HETATM    5  C   UNL     1      -6.160  17.689  67.223  1.00  0.00    -0.168 C  
HETATM    6  C   UNL     1      -6.437  19.934  68.960  1.00  0.00    -0.356 C  
HETATM    7  C   UNL     1      -9.908  13.701  69.388  1.00  0.00     0.584 C  
HETATM    8  C   UNL     1     -10.496  12.383  69.861  1.00  0.00     1.210 C  
HETATM    9  O   UNL     1      -5.269  21.047  67.176  1.00  0.00    -0.180 OA 
HETATM   10  C   UNL     1      -5.777  16.355  66.626  1.00  0.00     0.329 C  
HETATM   11  C   UNL     1      -7.707  19.119  68.747  1.00  0.00    -0.390 C  
HETATM   12  C   UNL     1     -10.505  15.380  69.947  1.00  0.00    -0.310 C  
HETATM   13  C   UNL     1      -9.685  16.666  69.109  1.00  0.00    -0.226 C  
HETATM   14  C   UNL     1      -5.647  20.004  67.693  1.00  0.00    -0.183 C  
HETATM   15  C   UNL     1      -5.274  18.698  67.132  1.00  0.00    -0.132 C  
HETATM   16  C   UNL     1      -8.490  18.154  66.551  1.00  0.00    -0.283 C  
HETATM   17  C   UNL     1      -8.083  16.584  68.573  1.00  0.00    -0.218 C  
HETATM   18  C   UNL     1      -7.629  15.192  67.847  1.00  0.00    -0.151 C  
HETATM   19  C   UNL     1      -7.595  17.874  67.779  1.00  0.00    -0.214 C  
HETATM   20  C   UNL     1      -6.137  15.181  67.524  1.00  0.00    -0.048 C  
ENDROOT
BRANCH   4  21
HETATM   21  C   UNL     1     -11.304  14.471  67.742  1.00  0.00    -0.317 C  
HETATM   22  O   UNL     1     -12.079  15.259  68.300  1.00  0.00    -0.212 OA 
HETATM   23  C   UNL     1     -11.909  13.621  66.660  1.00  0.00    -0.447 C  
ENDBRANCH   4  21
BRANCH   4  24
HETATM   24  O   UNL     1      -9.747  12.932  67.325  1.00  0.00    -0.212 OA 
BRANCH  24  25
HETATM   25  C   UNL     1     -10.171  11.746  67.834  1.00  0.00    -0.191 C  
HETATM   26  O   UNL     1      -9.471  10.765  68.022  1.00  0.00    -0.154 OA 
BRANCH  25  27
HETATM   27  C   UNL     1     -11.604  11.899  68.312  1.00  0.00    -0.390 C  
BRANCH  27  28
HETATM   28  C   UNL     1     -12.216  10.604  68.803  1.00  0.00     0.230 C  
BRANCH  28  29
HETATM   29  C   UNL     1     -12.746  10.725  70.228  1.00  0.00    -0.286 C  
BRANCH  29  30
HETATM   30  C   UNL     1     -12.658  12.166  70.714  1.00  0.00    -0.305 C  
HETATM   31  C   UNL     1     -13.854  12.974  70.243  1.00  0.00     2.766 C  
ENDBRANCH  29  30
ENDBRANCH  28  29
ENDBRANCH  27  28
ENDBRANCH  25  27
ENDBRANCH  24  25
ENDBRANCH   4  24
TORSDOF 7
ENDMDL
MODEL      156
REMARK 921   NORMALIZED FREE ENERGY PREDICTED BY IDOCK:   13.68 KCAL/MOL
REMARK 922        TOTAL FREE ENERGY PREDICTED BY IDOCK:   19.07 KCAL/MOL
REMARK 923 INTER-LIGAND FREE ENERGY PREDICTED BY IDOCK:   12.51 KCAL/MOL
REMARK 924 INTRA-LIGAND FREE ENERGY PREDICTED BY IDOCK:    6.56 KCAL/MOL
REMARK 927      BINDING AFFINITY PREDICTED BY RF-SCORE:    0.00 PKD
ROOT
HETATM    1  C   UNL     1      -8.435  15.770  67.686  1.00  0.00    -0.171 C  
HETATM    2  C   UNL     1      -9.795  16.151  67.555  1.00  0.00    -0.237 C  
HETATM    3  C   UNL     1      -9.459  15.247  68.686  1.00  0.00    -0.204 C  
HETATM    4  C   UNL     1      -7.441  15.001  69.020  1.00  0.00    -0.156 C  
HETATM    5  C   UNL     1      -8.716  11.603  65.515  1.00  0.00     0.188 C  
HETATM    6  C   UNL     1     -10.592   9.729  66.567  1.00  0.00    -0.150 C  
HETATM    7  C   UNL     1      -8.358  15.780  69.646  1.00  0.00    -0.013 C  
HETATM    8  C   UNL     1      -8.286  17.140  70.318  1.00  0.00     2.916 C  
HETATM    9  O   UNL     1      -9.687   8.339  64.825  1.00  0.00     1.215 OA 
HETATM   10  C   UNL     1      -8.080  12.809  64.867  1.00  0.00     4.268 C  
HETATM   11  C   UNL     1      -9.728  10.434  67.607  1.00  0.00    -0.191 C  
HETATM   12  C   UNL     1      -8.941  14.218  70.489  1.00  0.00     2.735 C  
HETATM   13  C   UNL     1      -8.774  12.829  69.455  1.00  0.00     1.600 C  
HETATM   14  C   UNL     1      -9.793   9.446  65.335  1.00  0.00    -0.089 C  
HETATM   15  C   UNL     1      -9.189  10.632  64.712  1.00  0.00    -0.255 C  
HETATM   16  C   UNL     1      -7.262  10.922  67.391  1.00  0.00    -0.094 C  
HETATM   17  C   UNL     1      -8.929  12.870  67.772  1.00  0.00    -0.191 C  
HETATM   18  C   UNL     1      -8.194  14.111  67.003  1.00  0.00    -0.097 C  
HETATM   19  C   UNL     1      -8.668  11.472  67.059  1.00  0.00    -0.169 C  
HETATM   20  C   UNL     1      -8.509  14.120  65.510  1.00  0.00     2.690 C  
ENDROOT
BRANCH   4  21
HETATM   21  C   UNL     1      -6.471  14.649  70.287  1.00  0.00    -0.149 C  
HETATM   22  O   UNL     1      -6.697  14.987  71.456  1.00  0.00     0.824 OA 
HETATM   23  C   UNL     1      -5.169  13.934  70.057  1.00  0.00    -0.092 C  
ENDBRANCH   4  21
BRANCH   4  24
HETATM   24  O   UNL     1      -6.431  16.139  68.631  1.00  0.00    -0.114 OA 
BRANCH  24  25
HETATM   25  C   UNL     1      -5.742  16.857  69.556  1.00  0.00    -0.187 C  
HETATM   26  O   UNL     1      -5.513  16.502  70.700  1.00  0.00    -0.180 OA 
BRANCH  25  27
HETATM   27  C   UNL     1      -5.137  18.077  68.884  1.00  0.00    -0.177 C  
BRANCH  27  28
HETATM   28  C   UNL     1      -6.124  18.845  68.032  1.00  0.00    -0.218 C  
BRANCH  28  29
HETATM   29  C   UNL     1      -6.602  20.121  68.718  1.00  0.00    -0.339 C  
BRANCH  29  30
HETATM   30  C   UNL     1      -6.961  21.184  67.687  1.00  0.00    -0.262 C  
HETATM   31  C   UNL     1      -8.257  20.838  66.976  1.00  0.00    -0.193 C  
ENDBRANCH  29  30
ENDBRANCH  28  29
ENDBRANCH  27  28
ENDBRANCH  25  27
ENDBRANCH  24  25
ENDBRANCH   4  24
TORSDOF 7
ENDMDL
MODEL      157
REMARK 921   NORMALIZED FREE ENERGY PREDICTED BY IDOCK:   14.46 KCAL/MOL
REMARK 922        TOTAL FREE ENERGY PREDICTED BY IDOCK:   20.17 KCAL/MOL
REMARK 923 INTER-LIGAND FREE ENERGY PREDICTED BY IDOCK:    8.71 KCAL/MOL
REMARK 924 INTRA-LIGAND FREE ENERGY PREDICTED BY IDOCK:   11.46 KCAL/MOL
REMARK 927      BINDING AFFINITY PREDICTED BY RF-SCORE:    0.00 PKD
ROOT
HETATM    1  C   UNL     1     -10.788  16.520  70.112  1.00  0.00    -0.208 C  
HETATM    2  C   UNL     1     -11.424  17.771  69.916  1.00  0.00     2.842 C  
HETATM    3  C   UNL     1     -11.673  16.727  68.889  1.00  0.00     0.450 C  
HETATM    4  C   UNL     1     -11.001  14.846  69.397  1.00  0.00    -0.271 C  
HETATM    5  C   UNL     1      -7.079  17.232  67.301  1.00  0.00    -0.192 C  
HETATM    6  C   UNL     1      -7.634  17.881  64.580  1.00  0.00     4.573 C  
HETATM    7  C   UNL     1     -12.243  15.388  69.442  1.00  0.00    -0.250 C  
HETATM    8  C   UNL     1     -13.434  15.192  70.364  1.00  0.00     0.020 C  
HETATM    9  O   UNL     1      -5.234  17.854  64.424  1.00  0.00     0.206 OA 
HETATM   10  C   UNL     1      -6.969  17.267  68.808  1.00  0.00    -0.230 C  
HETATM   11  C   UNL     1      -8.447  16.724  65.149  1.00  0.00     2.737 C  
HETATM   12  C   UNL     1     -12.293  15.143  67.590  1.00  0.00     0.544 C  
HETATM   13  C   UNL     1     -10.720  15.336  66.874  1.00  0.00    -0.313 C  
HETATM   14  C   UNL     1      -6.240  17.850  65.120  1.00  0.00     0.244 C  
HETATM   15  C   UNL     1      -6.152  17.894  66.587  1.00  0.00    -0.203 C  
HETATM   16  C   UNL     1      -7.566  14.900  66.653  1.00  0.00     0.626 C  
HETATM   17  C   UNL     1      -9.531  16.389  67.454  1.00  0.00    -0.227 C  
HETATM   18  C   UNL     1      -9.309  16.414  69.074  1.00  0.00    -0.248 C  
HETATM   19  C   UNL     1      -8.157  16.327  66.652  1.00  0.00    -0.323 C  
HETATM   20  C   UNL     1      -8.309  17.489  69.493  1.00  0.00     0.670 C  
ENDROOT
BRANCH   4  21
HETATM   21  C   UNL     1     -11.390  13.299  69.043  1.00  0.00    -0.285 C  
HETATM   22  O   UNL     1     -11.053  12.320  69.722  1.00  0.00    -0.049 OA 
HETATM   23  C   UNL     1     -12.144  12.986  67.781  1.00  0.00    -0.244 C  
ENDBRANCH   4  21
BRANCH   4  24
HETATM   24  O   UNL     1     -10.903  14.421  70.906  1.00  0.00     0.306 OA 
BRANCH  24  25
HETATM   25  C   UNL     1     -11.953  14.515  71.763  1.00  0.00    -0.210 C  
HETATM   26  O   UNL     1     -12.070  15.342  72.651  1.00  0.00    -0.363 OA 
BRANCH  25  27
HETATM   27  C   UNL     1     -13.042  13.556  71.316  1.00  0.00    -0.339 C  
BRANCH  27  28
HETATM   28  C   UNL     1     -12.996  12.220  72.025  1.00  0.00    -0.375 C  
BRANCH  28  29
HETATM   29  C   UNL     1     -13.347  11.064  71.095  1.00  0.00     0.001 C  
BRANCH  29  30
HETATM   30  C   UNL     1     -12.728   9.765  71.595  1.00  0.00    -0.517 C  
HETATM   31  C   UNL     1     -12.534   8.780  70.455  1.00  0.00     0.341 C  
ENDBRANCH  29  30
ENDBRANCH  28  29
ENDBRANCH  27  28
ENDBRANCH  25  27
ENDBRANCH  24  25
ENDBRANCH   4  24
TORSDOF 7
ENDMDL
MODEL      158
REMARK 921   NORMALIZED FREE ENERGY PREDICTED BY IDOCK:   14.47 KCAL/MOL
REMARK 922        TOTAL FREE ENERGY PREDICTED BY IDOCK:   20.19 KCAL/MOL
REMARK 923 INTER-LIGAND FREE ENERGY PREDICTED BY IDOCK:   13.90 KCAL/MOL
REMARK 924 INTRA-LIGAND FREE ENERGY PREDICTED BY IDOCK:    6.29 KCAL/MOL
REMARK 927      BINDING AFFINITY PREDICTED BY RF-SCORE:    0.00 PKD
ROOT
HETATM    1  C   UNL     1      -8.540  15.739  67.683  1.00  0.00    -0.173 C  
HETATM    2  C   UNL     1      -9.911  15.487  67.425  1.00  0.00    -0.224 C  
HETATM    3  C   UNL     1      -9.422  15.190  68.797  1.00  0.00    -0.209 C  
HETATM    4  C   UNL     1      -7.524  15.884  69.202  1.00  0.00    -0.210 C  
HETATM    5  C   UNL     1      -6.945  11.354  67.055  1.00  0.00    -0.135 C  
HETATM    6  C   UNL     1      -8.114   9.318  68.674  1.00  0.00    -0.105 C  
HETATM    7  C   UNL     1      -8.743  16.387  69.523  1.00  0.00     0.177 C  
HETATM    8  C   UNL     1      -9.276  17.798  69.693  1.00  0.00     0.824 C  
HETATM    9  O   UNL     1      -6.525   7.936  67.511  1.00  0.00    -0.053 OA 
HETATM   10  C   UNL     1      -6.722  12.448  66.037  1.00  0.00     2.295 C  
HETATM   11  C   UNL     1      -7.727  10.592  69.415  1.00  0.00    -0.132 C  
HETATM   12  C   UNL     1      -8.812  15.068  70.844  1.00  0.00     2.403 C  
HETATM   13  C   UNL     1      -7.998  13.614  70.344  1.00  0.00     2.868 C  
HETATM   14  C   UNL     1      -7.105   9.008  67.614  1.00  0.00    -0.076 C  
HETATM   15  C   UNL     1      -6.907  10.079  66.627  1.00  0.00    -0.082 C  
HETATM   16  C   UNL     1      -5.616  11.926  69.054  1.00  0.00    -0.051 C  
HETATM   17  C   UNL     1      -7.924  13.065  68.746  1.00  0.00     0.058 C  
HETATM   18  C   UNL     1      -7.606  14.190  67.604  1.00  0.00    -0.193 C  
HETATM   19  C   UNL     1      -7.065  11.739  68.551  1.00  0.00    -0.091 C  
HETATM   20  C   UNL     1      -7.692  13.609  66.195  1.00  0.00     2.477 C  
ENDROOT
BRANCH   4  21
HETATM   21  C   UNL     1      -6.678  16.358  70.516  1.00  0.00     1.111 C  
HETATM   22  O   UNL     1      -7.174  16.913  71.505  1.00  0.00     4.969 OA 
HETATM   23  C   UNL     1      -5.183  16.200  70.541  1.00  0.00    -0.183 C  
ENDBRANCH   4  21
BRANCH   4  24
HETATM   24  O   UNL     1      -6.968  17.147  68.452  1.00  0.00    -0.179 OA 
BRANCH  24  25
HETATM   25  C   UNL     1      -6.962  18.386  69.009  1.00  0.00    -0.256 C  
HETATM   26  O   UNL     1      -6.836  18.629  70.197  1.00  0.00     0.234 OA 
BRANCH  25  27
HETATM   27  C   UNL     1      -6.937  19.425  67.901  1.00  0.00    -0.278 C  
BRANCH  27  28
HETATM   28  C   UNL     1      -6.857  18.823  66.514  1.00  0.00    -0.227 C  
BRANCH  28  29
HETATM   29  C   UNL     1      -7.058  19.870  65.423  1.00  0.00    -0.289 C  
BRANCH  29  30
HETATM   30  C   UNL     1      -5.787  20.039  64.601  1.00  0.00    -0.276 C  
HETATM   31  C   UNL     1      -5.581  18.859  63.667  1.00  0.00    -0.098 C  
ENDBRANCH  29  30
ENDBRANCH  28  29
ENDBRANCH  27  28
ENDBRANCH  25  27
ENDBRANCH  24  25
ENDBRANCH   4  24
TORSDOF 7
ENDMDL
MODEL      159
REMARK 921   NORMALIZED FREE ENERGY PREDICTED BY IDOCK:   15.76 KCAL/MOL
REMARK 922        TOTAL FREE ENERGY PREDICTED BY IDOCK:   22.01 KCAL/MOL
REMARK 923 INTER-LIGAND FREE ENERGY PREDICTED BY IDOCK:   20.12 KCAL/MOL
REMARK 924 INTRA-LIGAND FREE ENERGY PREDICTED BY IDOCK:    1.88 KCAL/MOL
REMARK 927      BINDING AFFINITY PREDICTED BY RF-SCORE:    0.00 PKD
ROOT
HETATM    1  C   UNL     1      -7.858  18.723  65.744  1.00  0.00     0.036 C  
HETATM    2  C   UNL     1      -7.393  20.015  65.391  1.00  0.00    -0.194 C  
HETATM    3  C   UNL     1      -6.527  19.217  66.297  1.00  0.00    -0.213 C  
HETATM    4  C   UNL     1      -7.086  17.244  66.502  1.00  0.00    -0.265 C  
HETATM    5  C   UNL     1      -9.770  19.835  69.900  1.00  0.00     0.337 C  
HETATM    6  C   UNL     1      -8.051  21.055  71.821  1.00  0.00     3.591 C  
HETATM    7  C   UNL     1      -6.117  17.820  65.747  1.00  0.00    -0.192 C  
HETATM    8  C   UNL     1      -5.518  17.491  64.392  1.00  0.00     1.826 C  
HETATM    9  O   UNL     1     -10.034  20.955  73.179  1.00  0.00     3.748 OA 
HETATM   10  C   UNL     1     -10.608  19.553  68.675  1.00  0.00    -0.046 C  
HETATM   11  C   UNL     1      -7.466  19.843  71.105  1.00  0.00     1.339 C  
HETATM   12  C   UNL     1      -5.131  17.965  67.328  1.00  0.00    -0.144 C  
HETATM   13  C   UNL     1      -6.160  18.231  68.705  1.00  0.00    -0.207 C  
HETATM   14  C   UNL     1      -9.509  20.852  72.078  1.00  0.00     2.941 C  
HETATM   15  C   UNL     1     -10.311  20.589  70.874  1.00  0.00     2.262 C  
HETATM   16  C   UNL     1      -8.701  17.711  70.564  1.00  0.00     4.296 C  
HETATM   17  C   UNL     1      -7.617  19.088  68.655  1.00  0.00    -0.372 C  
HETATM   18  C   UNL     1      -8.605  18.769  67.392  1.00  0.00    -0.289 C  
HETATM   19  C   UNL     1      -8.396  19.133  70.042  1.00  0.00     1.134 C  
HETATM   20  C   UNL     1      -9.823  19.689  67.379  1.00  0.00    -0.489 C  
ENDROOT
BRANCH   4  21
HETATM   21  C   UNL     1      -6.357  15.822  66.844  1.00  0.00     0.381 C  
HETATM   22  O   UNL     1      -5.272  15.460  66.369  1.00  0.00     1.271 OA 
HETATM   23  C   UNL     1      -7.046  14.821  67.729  1.00  0.00    -0.191 C  
ENDBRANCH   4  21
BRANCH   4  24
HETATM   24  O   UNL     1      -7.850  16.513  65.340  1.00  0.00     0.824 OA 
BRANCH  24  25
HETATM   25  C   UNL     1      -9.189  16.289  65.372  1.00  0.00     0.573 C  
HETATM   26  O   UNL     1     -10.052  17.106  65.095  1.00  0.00    -0.370 OA 
BRANCH  25  27
HETATM   27  C   UNL     1      -9.436  14.810  65.613  1.00  0.00    -0.125 C  
BRANCH  27  28
HETATM   28  C   UNL     1     -10.718  14.529  66.366  1.00  0.00    -0.309 C  
BRANCH  28  29
HETATM   29  C   UNL     1     -11.585  13.495  65.656  1.00  0.00    -0.343 C  
BRANCH  29  30
HETATM   30  C   UNL     1     -11.793  12.271  66.537  1.00  0.00    -0.378 C  
HETATM   31  C   UNL     1     -10.563  11.380  66.532  1.00  0.00    -0.309 C  
ENDBRANCH  29  30
ENDBRANCH  28  29
ENDBRANCH  27  28
ENDBRANCH  25  27
ENDBRANCH  24  25
ENDBRANCH   4  24
TORSDOF 7
ENDMDL
MODEL      160
REMARK 921   NORMALIZED FREE ENERGY PREDICTED BY IDOCK:   16.76 KCAL/MOL
REMARK 922        TOTAL FREE ENERGY PREDICTED BY IDOCK:   23.41 KCAL/MOL
REMARK 923 INTER-LIGAND FREE ENERGY PREDICTED BY IDOCK:   10.59 KCAL/MOL
REMARK 924 INTRA-LIGAND FREE ENERGY PREDICTED BY IDOCK:   12.82 KCAL/MOL
REMARK 927      BINDING AFFINITY PREDICTED BY RF-SCORE:    0.00 PKD
ROOT
HETATM    1  C   UNL     1     -10.229   8.593  71.114  1.00  0.00    -0.294 C  
HETATM    2  C   UNL     1     -11.417   9.235  71.546  1.00  0.00    -0.454 C  
HETATM    3  C   UNL     1     -11.289   8.975  70.089  1.00  0.00    -0.139 C  
HETATM    4  C   UNL     1      -9.713   7.754  69.568  1.00  0.00    -0.165 C  
HETATM    5  C   UNL     1      -7.854  12.439  69.799  1.00  0.00     1.513 C  
HETATM    6  C   UNL     1      -9.092  14.109  67.847  1.00  0.00    -0.189 C  
HETATM    7  C   UNL     1     -11.036   7.488  69.709  1.00  0.00    -0.143 C  
HETATM    8  C   UNL     1     -11.811   6.264  70.165  1.00  0.00    -0.118 C  
HETATM    9  O   UNL     1      -7.045  15.351  68.085  1.00  0.00    -0.109 OA 
HETATM   10  C   UNL     1      -7.530  11.685  71.067  1.00  0.00     4.902 C  
HETATM   11  C   UNL     1      -9.132  12.616  67.542  1.00  0.00    -0.192 C  
HETATM   12  C   UNL     1     -11.262   8.321  68.052  1.00  0.00     0.574 C  
HETATM   13  C   UNL     1     -10.124   9.616  67.822  1.00  0.00    -0.232 C  
HETATM   14  C   UNL     1      -7.792  14.471  68.492  1.00  0.00    -0.136 C  
HETATM   15  C   UNL     1      -7.498  13.735  69.729  1.00  0.00     0.586 C  
HETATM   16  C   UNL     1      -7.242  10.985  67.901  1.00  0.00    -0.086 C  
HETATM   17  C   UNL     1      -9.521  10.587  69.068  1.00  0.00    -0.211 C  
HETATM   18  C   UNL     1      -9.079   9.818  70.441  1.00  0.00    -0.154 C  
HETATM   19  C   UNL     1      -8.445  11.660  68.597  1.00  0.00    -0.094 C  
HETATM   20  C   UNL     1      -8.677  10.801  71.538  1.00  0.00     6.892 C  
ENDROOT
BRANCH   4  21
HETATM   21  C   UNL     1      -9.352   6.714  68.361  1.00  0.00    -0.123 C  
HETATM   22  O   UNL     1      -9.221   5.491  68.507  1.00  0.00    -0.115 OA 
HETATM   23  C   UNL     1      -9.077   7.237  66.979  1.00  0.00    -0.152 C  
ENDBRANCH   4  21
BRANCH   4  24
HETATM   24  O   UNL     1      -9.176   6.682  70.583  1.00  0.00    -0.158 OA 
BRANCH  24  25
HETATM   25  C   UNL     1      -9.721   5.442  70.696  1.00  0.00    -0.181 C  
HETATM   26  O   UNL     1     -10.901   5.171  70.553  1.00  0.00    -0.147 OA 
BRANCH  25  27
HETATM   27  C   UNL     1      -8.603   4.423  70.833  1.00  0.00    -0.117 C  
BRANCH  27  28
HETATM   28  C   UNL     1      -7.836   4.194  69.549  1.00  0.00    -0.053 C  
BRANCH  28  29
HETATM   29  C   UNL     1      -7.313   2.766  69.440  1.00  0.00    -0.044 C  
BRANCH  29  30
HETATM   30  C   UNL     1      -6.250   2.664  68.354  1.00  0.00    -0.028 C  
HETATM   31  C   UNL     1      -6.818   3.043  66.998  1.00  0.00    -0.045 C  
ENDBRANCH  29  30
ENDBRANCH  28  29
ENDBRANCH  27  28
ENDBRANCH  25  27
ENDBRANCH  24  25
ENDBRANCH   4  24
TORSDOF 7
ENDMDL
MODEL      161
REMARK 921   NORMALIZED FREE ENERGY PREDICTED BY IDOCK:   18.92 KCAL/MOL
REMARK 922        TOTAL FREE ENERGY PREDICTED BY IDOCK:   26.45 KCAL/MOL
REMARK 923 INTER-LIGAND FREE ENERGY PREDICTED BY IDOCK:   18.66 KCAL/MOL
REMARK 924 INTRA-LIGAND FREE ENERGY PREDICTED BY IDOCK:    7.79 KCAL/MOL
REMARK 927      BINDING AFFINITY PREDICTED BY RF-SCORE:    0.00 PKD
ROOT
HETATM    1  C   UNL     1      -8.637  10.783  66.133  1.00  0.00    -0.171 C  
HETATM    2  C   UNL     1      -9.422   9.823  66.821  1.00  0.00    -0.209 C  
HETATM    3  C   UNL     1      -9.893  11.231  66.871  1.00  0.00    -0.220 C  
HETATM    4  C   UNL     1      -8.911  12.512  65.590  1.00  0.00     0.621 C  
HETATM    5  C   UNL     1      -6.154  12.348  69.814  1.00  0.00    -0.137 C  
HETATM    6  C   UNL     1      -7.638  13.373  72.023  1.00  0.00     8.460 C  
HETATM    7  C   UNL     1     -10.115  11.897  65.483  1.00  0.00    -0.277 C  
HETATM    8  C   UNL     1     -10.909  11.357  64.306  1.00  0.00    -0.416 C  
HETATM    9  O   UNL     1      -5.434  13.789  72.892  1.00  0.00    -0.393 OA 
HETATM   10  C   UNL     1      -5.557  11.442  68.763  1.00  0.00    -0.042 C  
HETATM   11  C   UNL     1      -8.101  13.854  70.653  1.00  0.00     3.393 C  
HETATM   12  C   UNL     1     -10.750  13.182  66.681  1.00  0.00    -0.286 C  
HETATM   13  C   UNL     1      -9.529  13.652  67.827  1.00  0.00    -0.221 C  
HETATM   14  C   UNL     1      -6.148  13.254  72.055  1.00  0.00     1.329 C  
HETATM   15  C   UNL     1      -5.585  12.361  71.033  1.00  0.00    -0.061 C  
HETATM   16  C   UNL     1      -6.599  14.526  68.740  1.00  0.00    -0.088 C  
HETATM   17  C   UNL     1      -8.323  12.620  68.411  1.00  0.00    -0.125 C  
HETATM   18  C   UNL     1      -7.582  11.668  67.308  1.00  0.00    -0.147 C  
HETATM   19  C   UNL     1      -7.293  13.316  69.405  1.00  0.00     0.313 C  
HETATM   20  C   UNL     1      -6.610  10.690  67.963  1.00  0.00    -0.063 C  
ENDROOT
BRANCH   4  21
HETATM   21  C   UNL     1      -9.243  13.903  64.801  1.00  0.00     1.866 C  
HETATM   22  O   UNL     1      -8.488  14.884  64.763  1.00  0.00     4.027 OA 
HETATM   23  C   UNL     1     -10.573  14.081  64.124  1.00  0.00     0.261 C  
ENDBRANCH   4  21
BRANCH   4  24
HETATM   24  O   UNL     1      -8.279  11.968  64.259  1.00  0.00     1.706 OA 
BRANCH  24  25
HETATM   25  C   UNL     1      -8.898  11.047  63.477  1.00  0.00    -0.044 C  
HETATM   26  O   UNL     1      -9.687  11.293  62.580  1.00  0.00    -0.283 OA 
BRANCH  25  27
HETATM   27  C   UNL     1      -8.305   9.678  63.763  1.00  0.00    -0.173 C  
BRANCH  27  28
HETATM   28  C   UNL     1      -8.572   8.666  62.670  1.00  0.00    -0.117 C  
BRANCH  28  29
HETATM   29  C   UNL     1      -7.567   7.519  62.693  1.00  0.00    -0.112 C  
BRANCH  29  30
HETATM   30  C   UNL     1      -8.261   6.204  63.023  1.00  0.00    -0.032 C  
HETATM   31  C   UNL     1      -8.785   6.206  64.448  1.00  0.00     0.303 C  
ENDBRANCH  29  30
ENDBRANCH  28  29
ENDBRANCH  27  28
ENDBRANCH  25  27
ENDBRANCH  24  25
ENDBRANCH   4  24
TORSDOF 7
ENDMDL
MODEL      162
REMARK 921   NORMALIZED FREE ENERGY PREDICTED BY IDOCK:   20.41 KCAL/MOL
REMARK 922        TOTAL FREE ENERGY PREDICTED BY IDOCK:   28.55 KCAL/MOL
REMARK 923 INTER-LIGAND FREE ENERGY PREDICTED BY IDOCK:   26.07 KCAL/MOL
REMARK 924 INTRA-LIGAND FREE ENERGY PREDICTED BY IDOCK:    2.48 KCAL/MOL
REMARK 927      BINDING AFFINITY PREDICTED BY RF-SCORE:    0.00 PKD
ROOT
HETATM    1  C   UNL     1      -7.931  19.225  65.900  1.00  0.00    -0.159 C  
HETATM    2  C   UNL     1      -7.113  20.319  65.518  1.00  0.00    -0.281 C  
HETATM    3  C   UNL     1      -6.415  19.073  65.928  1.00  0.00    -0.256 C  
HETATM    4  C   UNL     1      -7.642  17.432  66.147  1.00  0.00    -0.286 C  
HETATM    5  C   UNL     1      -7.752  19.878  70.559  1.00  0.00     1.092 C  
HETATM    6  C   UNL     1      -5.163  19.914  71.753  1.00  0.00    -0.425 C  
HETATM    7  C   UNL     1      -6.823  17.801  65.130  1.00  0.00     0.993 C  
HETATM    8  C   UNL     1      -6.888  17.627  63.623  1.00  0.00     9.224 C  
HETATM    9  O   UNL     1      -6.452  20.181  73.767  1.00  0.00     5.944 OA 
HETATM   10  C   UNL     1      -8.978  20.216  69.743  1.00  0.00     0.898 C  
HETATM   11  C   UNL     1      -5.399  18.788  70.753  1.00  0.00    -0.251 C  
HETATM   12  C   UNL     1      -5.414  17.202  66.200  1.00  0.00     0.053 C  
HETATM   13  C   UNL     1      -5.733  17.463  67.890  1.00  0.00    -0.136 C  
HETATM   14  C   UNL     1      -6.404  20.174  72.544  1.00  0.00     1.194 C  
HETATM   15  C   UNL     1      -7.585  20.511  71.735  1.00  0.00     1.960 C  
HETATM   16  C   UNL     1      -7.509  17.422  70.541  1.00  0.00     3.097 C  
HETATM   17  C   UNL     1      -6.633  18.758  68.500  1.00  0.00    -0.260 C  
HETATM   18  C   UNL     1      -8.014  19.123  67.706  1.00  0.00    -0.305 C  
HETATM   19  C   UNL     1      -6.828  18.730  70.079  1.00  0.00     0.292 C  
HETATM   20  C   UNL     1      -8.673  20.383  68.261  1.00  0.00     0.116 C  
ENDROOT
BRANCH   4  21
HETATM   21  C   UNL     1      -7.501  15.809  66.035  1.00  0.00     1.725 C  
HETATM   22  O   UNL     1      -8.174  15.099  65.276  1.00  0.00     2.794 OA 
HETATM   23  C   UNL     1      -6.561  15.074  66.949  1.00  0.00     0.888 C  
ENDBRANCH   4  21
BRANCH   4  24
HETATM   24  O   UNL     1      -8.970  17.322  65.316  1.00  0.00     0.354 OA 
BRANCH  24  25
HETATM   25  C   UNL     1     -10.081  16.698  65.788  1.00  0.00    -0.277 C  
HETATM   26  O   UNL     1     -10.659  15.772  65.244  1.00  0.00    -0.383 OA 
BRANCH  25  27
HETATM   27  C   UNL     1     -10.370  17.201  67.191  1.00  0.00    -0.307 C  
BRANCH  27  28
HETATM   28  C   UNL     1     -10.376  16.105  68.234  1.00  0.00    -0.266 C  
BRANCH  28  29
HETATM   29  C   UNL     1     -11.068  16.542  69.521  1.00  0.00    -0.245 C  
BRANCH  29  30
HETATM   30  C   UNL     1     -10.845  15.517  70.626  1.00  0.00    -0.333 C  
HETATM   31  C   UNL     1     -12.164  15.090  71.247  1.00  0.00    -0.380 C  
ENDBRANCH  29  30
ENDBRANCH  28  29
ENDBRANCH  27  28
ENDBRANCH  25  27
ENDBRANCH  24  25
ENDBRANCH   4  24
TORSDOF 7
ENDMDL
MODEL      163
REMARK 921   NORMALIZED FREE ENERGY PREDICTED BY IDOCK:   20.62 KCAL/MOL
REMARK 922        TOTAL FREE ENERGY PREDICTED BY IDOCK:   28.86 KCAL/MOL
REMARK 923 INTER-LIGAND FREE ENERGY PREDICTED BY IDOCK:   11.69 KCAL/MOL
REMARK 924 INTRA-LIGAND FREE ENERGY PREDICTED BY IDOCK:   17.17 KCAL/MOL
REMARK 927      BINDING AFFINITY PREDICTED BY RF-SCORE:    0.00 PKD
ROOT
HETATM    1  C   UNL     1      -9.800  13.990  69.519  1.00  0.00     0.515 C  
HETATM    2  C   UNL     1      -9.791  14.513  70.837  1.00  0.00     2.223 C  
HETATM    3  C   UNL     1      -8.481  14.437  70.138  1.00  0.00     1.329 C  
HETATM    4  C   UNL     1      -8.603  13.988  68.131  1.00  0.00    -0.181 C  
HETATM    5  C   UNL     1      -8.565   9.570  70.568  1.00  0.00    -0.231 C  
HETATM    6  C   UNL     1      -6.111   9.221  71.978  1.00  0.00     0.039 C  
HETATM    7  C   UNL     1      -8.427  15.173  68.768  1.00  0.00    -0.180 C  
HETATM    8  C   UNL     1      -8.850  16.597  68.457  1.00  0.00    -0.235 C  
HETATM    9  O   UNL     1      -6.684   6.896  71.744  1.00  0.00    -0.053 OA 
HETATM   10  C   UNL     1      -9.978   9.945  70.185  1.00  0.00    -0.291 C  
HETATM   11  C   UNL     1      -6.051  10.189  70.803  1.00  0.00    -0.084 C  
HETATM   12  C   UNL     1      -6.658  14.634  69.036  1.00  0.00    -0.102 C  
HETATM   13  C   UNL     1      -6.535  12.912  69.248  1.00  0.00    -0.104 C  
HETATM   14  C   UNL     1      -7.012   8.072  71.658  1.00  0.00    -0.066 C  
HETATM   15  C   UNL     1      -8.385   8.454  71.297  1.00  0.00    -0.174 C  
HETATM   16  C   UNL     1      -7.158   9.859  68.560  1.00  0.00    -0.071 C  
HETATM   17  C   UNL     1      -7.724  11.954  69.976  1.00  0.00     1.788 C  
HETATM   18  C   UNL     1      -9.270  12.259  69.543  1.00  0.00     1.474 C  
HETATM   19  C   UNL     1      -7.390  10.398  69.989  1.00  0.00    -0.121 C  
HETATM   20  C   UNL     1     -10.261  11.430  70.355  1.00  0.00     2.073 C  
ENDROOT
BRANCH   4  21
HETATM   21  C   UNL     1      -7.720  14.268  66.786  1.00  0.00     0.576 C  
HETATM   22  O   UNL     1      -7.751  13.562  65.769  1.00  0.00     2.630 OA 
HETATM   23  C   UNL     1      -6.732  15.400  66.760  1.00  0.00     0.755 C  
ENDBRANCH   4  21
BRANCH   4  24
HETATM   24  O   UNL     1      -9.883  14.382  67.309  1.00  0.00    -0.240 OA 
BRANCH  24  25
HETATM   25  C   UNL     1     -10.414  15.632  67.333  1.00  0.00    -0.291 C  
HETATM   26  O   UNL     1      -9.779  16.673  67.285  1.00  0.00    -0.238 OA 
BRANCH  25  27
HETATM   27  C   UNL     1     -11.925  15.528  67.232  1.00  0.00     0.403 C  
BRANCH  27  28
HETATM   28  C   UNL     1     -12.601  15.266  68.560  1.00  0.00     0.634 C  
BRANCH  28  29
HETATM   29  C   UNL     1     -11.654  14.621  69.567  1.00  0.00    -0.350 C  
BRANCH  29  30
HETATM   30  C   UNL     1     -11.860  15.213  70.955  1.00  0.00    -0.382 C  
HETATM   31  C   UNL     1     -13.002  16.214  70.957  1.00  0.00     0.648 C  
ENDBRANCH  29  30
ENDBRANCH  28  29
ENDBRANCH  27  28
ENDBRANCH  25  27
ENDBRANCH  24  25
ENDBRANCH   4  24
TORSDOF 7
ENDMDL
MODEL      164
REMARK 921   NORMALIZED FREE ENERGY PREDICTED BY IDOCK:   21.69 KCAL/MOL
REMARK 922        TOTAL FREE ENERGY PREDICTED BY IDOCK:   30.35 KCAL/MOL
REMARK 923 INTER-LIGAND FREE ENERGY PREDICTED BY IDOCK:   20.67 KCAL/MOL
REMARK 924 INTRA-LIGAND FREE ENERGY PREDICTED BY IDOCK:    9.69 KCAL/MOL
REMARK 927      BINDING AFFINITY PREDICTED BY RF-SCORE:    0.00 PKD
ROOT
HETATM    1  C   UNL     1     -10.727   9.525  69.226  1.00  0.00    -0.240 C  
HETATM    2  C   UNL     1     -11.170   8.878  70.406  1.00  0.00    -0.259 C  
HETATM    3  C   UNL     1      -9.722   9.197  70.322  1.00  0.00    -0.248 C  
HETATM    4  C   UNL     1      -9.202  10.424  68.750  1.00  0.00    -0.172 C  
HETATM    5  C   UNL     1      -9.177   5.714  66.938  1.00  0.00    -0.120 C  
HETATM    6  C   UNL     1      -7.198   4.140  68.256  1.00  0.00    -0.059 C  
HETATM    7  C   UNL     1      -9.396  10.696  70.065  1.00  0.00     0.565 C  
HETATM    8  C   UNL     1      -9.927  11.908  70.810  1.00  0.00     5.652 C  
HETATM    9  O   UNL     1      -7.318   2.869  66.217  1.00  0.00    -0.065 OA 
HETATM   10  C   UNL     1     -10.465   6.412  66.565  1.00  0.00    -0.150 C  
HETATM   11  C   UNL     1      -6.957   5.645  68.289  1.00  0.00    -0.068 C  
HETATM   12  C   UNL     1      -7.714   9.936  70.353  1.00  0.00    -0.094 C  
HETATM   13  C   UNL     1      -7.394   8.641  69.237  1.00  0.00    -0.074 C  
HETATM   14  C   UNL     1      -7.785   3.738  66.941  1.00  0.00    -0.081 C  
HETATM   15  C   UNL     1      -9.042   4.419  66.599  1.00  0.00    -0.130 C  
HETATM   16  C   UNL     1      -7.323   7.241  66.370  1.00  0.00    -0.080 C  
HETATM   17  C   UNL     1      -8.579   7.612  68.606  1.00  0.00    -0.129 C  
HETATM   18  C   UNL     1      -9.967   8.318  68.112  1.00  0.00    -0.224 C  
HETATM   19  C   UNL     1      -8.028   6.549  67.558  1.00  0.00    -0.114 C  
HETATM   20  C   UNL     1     -11.008   7.286  67.686  1.00  0.00    -0.181 C  
ENDROOT
BRANCH   4  21
HETATM   21  C   UNL     1      -8.028  11.509  68.416  1.00  0.00    -0.143 C  
HETATM   22  O   UNL     1      -6.852  11.214  68.168  1.00  0.00    -0.065 OA 
HETATM   23  C   UNL     1      -8.330  12.981  68.475  1.00  0.00    -0.057 C  
ENDBRANCH   4  21
BRANCH   4  24
HETATM   24  O   UNL     1     -10.242  11.447  68.168  1.00  0.00    -0.176 OA 
BRANCH  24  25
HETATM   25  C   UNL     1     -10.892  11.243  66.993  1.00  0.00    -0.280 C  
HETATM   26  O   UNL     1     -12.102  11.203  66.850  1.00  0.00     0.071 OA 
BRANCH  25  27
HETATM   27  C   UNL     1      -9.881  11.270  65.859  1.00  0.00    -0.272 C  
BRANCH  27  28
HETATM   28  C   UNL     1      -8.496  11.691  66.299  1.00  0.00    -0.066 C  
BRANCH  28  29
HETATM   29  C   UNL     1      -8.273  13.191  66.134  1.00  0.00     1.179 C  
BRANCH  29  30
HETATM   30  C   UNL     1      -7.479  13.480  64.867  1.00  0.00    10.908 C  
HETATM   31  C   UNL     1      -7.866  12.526  63.751  1.00  0.00     5.837 C  
ENDBRANCH  29  30
ENDBRANCH  28  29
ENDBRANCH  27  28
ENDBRANCH  25  27
ENDBRANCH  24  25
ENDBRANCH   4  24
TORSDOF 7
ENDMDL
MODEL      165
REMARK 921   NORMALIZED FREE ENERGY PREDICTED BY IDOCK:   24.43 KCAL/MOL
REMARK 922        TOTAL FREE ENERGY PREDICTED BY IDOCK:   34.23 KCAL/MOL
REMARK 923 INTER-LIGAND FREE ENERGY PREDICTED BY IDOCK:   21.27 KCAL/MOL
REMARK 924 INTRA-LIGAND FREE ENERGY PREDICTED BY IDOCK:   12.96 KCAL/MOL
REMARK 927      BINDING AFFINITY PREDICTED BY RF-SCORE:    0.00 PKD
ROOT
HETATM    1  C   UNL     1      -9.389  17.661  67.234  1.00  0.00    -0.249 C  
HETATM    2  C   UNL     1      -9.597  17.170  68.548  1.00  0.00    -0.288 C  
HETATM    3  C   UNL     1      -8.598  16.451  67.715  1.00  0.00    -0.172 C  
HETATM    4  C   UNL     1      -8.101  17.402  65.956  1.00  0.00    -0.144 C  
HETATM    5  C   UNL     1     -12.220  14.661  64.966  1.00  0.00    -0.323 C  
HETATM    6  C   UNL     1     -11.683  11.881  65.305  1.00  0.00    -0.232 C  
HETATM    7  C   UNL     1      -7.456  17.342  67.148  1.00  0.00    -0.208 C  
HETATM    8  C   UNL     1      -6.570  18.316  67.904  1.00  0.00    -0.203 C  
HETATM    9  O   UNL     1     -13.523  11.670  63.770  1.00  0.00    -0.298 OA 
HETATM   10  C   UNL     1     -12.597  16.105  65.202  1.00  0.00     2.097 C  
HETATM   11  C   UNL     1     -10.460  12.748  65.029  1.00  0.00    -0.334 C  
HETATM   12  C   UNL     1      -6.940  15.616  66.651  1.00  0.00     0.556 C  
HETATM   13  C   UNL     1      -8.161  14.831  65.692  1.00  0.00     2.890 C  
HETATM   14  C   UNL     1     -12.855  12.372  64.518  1.00  0.00    -0.212 C  
HETATM   15  C   UNL     1     -13.214  13.775  64.767  1.00  0.00     0.436 C  
HETATM   16  C   UNL     1     -10.339  14.643  63.367  1.00  0.00     5.004 C  
HETATM   17  C   UNL     1      -9.823  15.091  65.868  1.00  0.00    -0.369 C  
HETATM   18  C   UNL     1     -10.302  16.643  66.048  1.00  0.00    -0.352 C  
HETATM   19  C   UNL     1     -10.721  14.294  64.824  1.00  0.00    -0.435 C  
HETATM   20  C   UNL     1     -11.799  16.747  66.327  1.00  0.00     2.006 C  
ENDROOT
BRANCH   4  21
HETATM   21  C   UNL     1      -6.815  17.466  64.952  1.00  0.00     2.967 C  
HETATM   22  O   UNL     1      -6.818  17.053  63.784  1.00  0.00     8.162 OA 
HETATM   23  C   UNL     1      -5.496  17.983  65.455  1.00  0.00    -0.151 C  
ENDBRANCH   4  21
BRANCH   4  24
HETATM   24  O   UNL     1      -8.197  18.967  65.849  1.00  0.00    -0.477 OA 
BRANCH  24  25
HETATM   25  C   UNL     1      -7.363  19.800  66.526  1.00  0.00    -0.259 C  
HETATM   26  O   UNL     1      -6.355  20.315  66.072  1.00  0.00    -0.192 OA 
BRANCH  25  27
HETATM   27  C   UNL     1      -7.989  20.142  67.866  1.00  0.00    -0.268 C  
BRANCH  27  28
HETATM   28  C   UNL     1      -9.397  20.683  67.752  1.00  0.00    -0.289 C  
BRANCH  28  29
HETATM   29  C   UNL     1      -9.885  21.291  69.063  1.00  0.00     1.582 C  
BRANCH  29  30
HETATM   30  C   UNL     1      -9.878  20.250  70.174  1.00  0.00     0.732 C  
HETATM   31  C   UNL     1      -9.955  18.844  69.605  1.00  0.00     0.288 C  
ENDBRANCH  29  30
ENDBRANCH  28  29
ENDBRANCH  27  28
ENDBRANCH  25  27
ENDBRANCH  24  25
ENDBRANCH   4  24
TORSDOF 7
ENDMDL
MODEL      166
REMARK 921   NORMALIZED FREE ENERGY PREDICTED BY IDOCK:   24.82 KCAL/MOL
REMARK 922        TOTAL FREE ENERGY PREDICTED BY IDOCK:   34.77 KCAL/MOL
REMARK 923 INTER-LIGAND FREE ENERGY PREDICTED BY IDOCK:   17.70 KCAL/MOL
REMARK 924 INTRA-LIGAND FREE ENERGY PREDICTED BY IDOCK:   17.08 KCAL/MOL
REMARK 927      BINDING AFFINITY PREDICTED BY RF-SCORE:    0.00 PKD
ROOT
HETATM    1  C   UNL     1      -7.976  14.366  68.534  1.00  0.00    -0.144 C  
HETATM    2  C   UNL     1      -7.408  14.198  69.822  1.00  0.00     0.252 C  
HETATM    3  C   UNL     1      -8.863  13.925  69.691  1.00  0.00     1.158 C  
HETATM    4  C   UNL     1      -9.554  13.860  67.750  1.00  0.00    -0.222 C  
HETATM    5  C   UNL     1      -9.685  18.710  69.138  1.00  0.00    -0.205 C  
HETATM    6  C   UNL     1     -11.501  19.087  71.304  1.00  0.00     6.769 C  
HETATM    7  C   UNL     1      -9.235  12.865  68.615  1.00  0.00     0.036 C  
HETATM    8  C   UNL     1      -8.651  11.475  68.434  1.00  0.00    -0.159 C  
HETATM    9  O   UNL     1     -11.563  21.330  70.435  1.00  0.00     3.112 OA 
HETATM   10  C   UNL     1      -8.451  18.436  68.310  1.00  0.00    -0.321 C  
HETATM   11  C   UNL     1     -11.760  17.852  70.449  1.00  0.00     4.901 C  
HETATM   12  C   UNL     1     -10.869  13.221  69.448  1.00  0.00     0.012 C  
HETATM   13  C   UNL     1     -11.278  14.910  69.366  1.00  0.00    -0.302 C  
HETATM   14  C   UNL     1     -11.040  20.223  70.448  1.00  0.00     3.147 C  
HETATM   15  C   UNL     1      -9.834  19.942  69.657  1.00  0.00     0.050 C  
HETATM   16  C   UNL     1     -11.610  17.742  67.933  1.00  0.00     1.102 C  
HETATM   17  C   UNL     1     -10.145  16.166  69.378  1.00  0.00    -0.256 C  
HETATM   18  C   UNL     1      -8.823  15.963  68.439  1.00  0.00    -0.184 C  
HETATM   19  C   UNL     1     -10.780  17.618  69.231  1.00  0.00     0.246 C  
HETATM   20  C   UNL     1      -7.813  17.092  68.628  1.00  0.00    -0.257 C  
ENDROOT
BRANCH   4  21
HETATM   21  C   UNL     1     -10.771  13.137  66.936  1.00  0.00    -0.263 C  
HETATM   22  O   UNL     1     -11.897  12.923  67.405  1.00  0.00    -0.367 OA 
HETATM   23  C   UNL     1     -10.534  12.610  65.548  1.00  0.00    -0.304 C  
ENDBRANCH   4  21
BRANCH   4  24
HETATM   24  O   UNL     1      -8.592  13.439  66.582  1.00  0.00    -0.092 OA 
BRANCH  24  25
HETATM   25  C   UNL     1      -7.974  12.230  66.542  1.00  0.00     0.211 C  
HETATM   26  O   UNL     1      -6.768  12.049  66.574  1.00  0.00     0.056 OA 
BRANCH  25  27
HETATM   27  C   UNL     1      -9.022  11.136  66.650  1.00  0.00    -0.175 C  
BRANCH  27  28
HETATM   28  C   UNL     1      -8.433   9.746  66.744  1.00  0.00    -0.125 C  
BRANCH  28  29
HETATM   29  C   UNL     1      -8.951   8.985  67.960  1.00  0.00    -0.133 C  
BRANCH  29  30
HETATM   30  C   UNL     1     -10.071   9.760  68.642  1.00  0.00    -0.186 C  
HETATM   31  C   UNL     1     -11.394   9.548  67.929  1.00  0.00     0.339 C  
ENDBRANCH  29  30
ENDBRANCH  28  29
ENDBRANCH  27  28
ENDBRANCH  25  27
ENDBRANCH  24  25
ENDBRANCH   4  24
TORSDOF 7
ENDMDL
MODEL      167
REMARK 921   NORMALIZED FREE ENERGY PREDICTED BY IDOCK:   25.72 KCAL/MOL
REMARK 922        TOTAL FREE ENERGY PREDICTED BY IDOCK:   36.04 KCAL/MOL
REMARK 923 INTER-LIGAND FREE ENERGY PREDICTED BY IDOCK:   29.74 KCAL/MOL
REMARK 924 INTRA-LIGAND FREE ENERGY PREDICTED BY IDOCK:    6.30 KCAL/MOL
REMARK 927      BINDING AFFINITY PREDICTED BY RF-SCORE:    0.00 PKD
ROOT
HETATM    1  C   UNL     1     -10.582  17.494  67.099  1.00  0.00    -0.264 C  
HETATM    2  C   UNL     1      -9.634  18.547  67.052  1.00  0.00    -0.305 C  
HETATM    3  C   UNL     1      -9.576  17.545  65.957  1.00  0.00    -0.123 C  
HETATM    4  C   UNL     1     -11.174  16.245  65.896  1.00  0.00     0.234 C  
HETATM    5  C   UNL     1      -7.839  14.238  69.107  1.00  0.00     0.018 C  
HETATM    6  C   UNL     1      -5.407  13.599  67.762  1.00  0.00    -0.045 C  
HETATM    7  C   UNL     1     -10.905  17.358  65.169  1.00  0.00     0.136 C  
HETATM    8  C   UNL     1     -11.779  18.433  64.548  1.00  0.00     5.122 C  
HETATM    9  O   UNL     1      -5.194  12.034  69.576  1.00  0.00    -0.064 OA 
HETATM   10  C   UNL     1      -8.932  14.952  69.867  1.00  0.00     0.346 C  
HETATM   11  C   UNL     1      -6.639  13.680  66.869  1.00  0.00     1.207 C  
HETATM   12  C   UNL     1      -9.692  16.305  64.216  1.00  0.00     4.138 C  
HETATM   13  C   UNL     1      -8.955  15.097  65.228  1.00  0.00     1.407 C  
HETATM   14  C   UNL     1      -5.763  12.999  69.084  1.00  0.00    -0.076 C  
HETATM   15  C   UNL     1      -6.821  13.713  69.814  1.00  0.00     0.138 C  
HETATM   16  C   UNL     1      -8.932  12.790  67.433  1.00  0.00    -0.195 C  
HETATM   17  C   UNL     1      -8.630  15.303  66.875  1.00  0.00    -0.289 C  
HETATM   18  C   UNL     1      -9.809  16.000  67.768  1.00  0.00    -0.231 C  
HETATM   19  C   UNL     1      -8.008  14.020  67.582  1.00  0.00    -0.186 C  
HETATM   20  C   UNL     1      -9.358  16.254  69.204  1.00  0.00    -0.236 C  
ENDROOT
BRANCH   4  21
HETATM   21  C   UNL     1     -11.959  15.364  64.766  1.00  0.00    -0.106 C  
HETATM   22  O   UNL     1     -11.744  14.165  64.539  1.00  0.00    -0.387 OA 
HETATM   23  C   UNL     1     -12.963  16.026  63.865  1.00  0.00     2.108 C  
ENDBRANCH   4  21
BRANCH   4  24
HETATM   24  O   UNL     1     -12.576  16.688  66.449  1.00  0.00     3.440 OA 
BRANCH  24  25
HETATM   25  C   UNL     1     -13.210  16.028  67.452  1.00  0.00     4.737 C  
HETATM   26  O   UNL     1     -13.826  14.982  67.334  1.00  0.00     5.211 OA 
BRANCH  25  27
HETATM   27  C   UNL     1     -12.866  16.691  68.774  1.00  0.00     3.150 C  
BRANCH  27  28
HETATM   28  C   UNL     1     -11.840  15.926  69.582  1.00  0.00    -0.298 C  
BRANCH  28  29
HETATM   29  C   UNL     1     -11.385  16.703  70.813  1.00  0.00     0.104 C  
BRANCH  29  30
HETATM   30  C   UNL     1     -11.031  15.751  71.948  1.00  0.00     0.192 C  
HETATM   31  C   UNL     1     -11.361  16.365  73.297  1.00  0.00     0.858 C  
ENDBRANCH  29  30
ENDBRANCH  28  29
ENDBRANCH  27  28
ENDBRANCH  25  27
ENDBRANCH  24  25
ENDBRANCH   4  24
TORSDOF 7
ENDMDL
MODEL      168
REMARK 921   NORMALIZED FREE ENERGY PREDICTED BY IDOCK:   29.99 KCAL/MOL
REMARK 922        TOTAL FREE ENERGY PREDICTED BY IDOCK:   42.06 KCAL/MOL
REMARK 923 INTER-LIGAND FREE ENERGY PREDICTED BY IDOCK:   29.59 KCAL/MOL
REMARK 924 INTRA-LIGAND FREE ENERGY PREDICTED BY IDOCK:   12.47 KCAL/MOL
REMARK 927      BINDING AFFINITY PREDICTED BY RF-SCORE:    0.00 PKD
ROOT
HETATM    1  C   UNL     1     -10.151  16.969  70.623  1.00  0.00     1.910 C  
HETATM    2  C   UNL     1     -10.765  18.231  70.421  1.00  0.00     2.038 C  
HETATM    3  C   UNL     1     -11.155  17.140  69.490  1.00  0.00     0.376 C  
HETATM    4  C   UNL     1     -10.491  15.267  70.036  1.00  0.00    -0.247 C  
HETATM    5  C   UNL     1      -6.743  17.381  67.402  1.00  0.00    -0.179 C  
HETATM    6  C   UNL     1      -7.565  17.896  64.720  1.00  0.00     3.796 C  
HETATM    7  C   UNL     1     -11.704  15.857  70.179  1.00  0.00    -0.342 C  
HETATM    8  C   UNL     1     -12.795  15.758  71.231  1.00  0.00    -0.486 C  
HETATM    9  O   UNL     1      -5.197  17.770  64.314  1.00  0.00     0.351 OA 
HETATM   10  C   UNL     1      -6.472  17.497  68.883  1.00  0.00    -0.213 C  
HETATM   11  C   UNL     1      -8.349  16.804  65.439  1.00  0.00     1.604 C  
HETATM   12  C   UNL     1     -11.959  15.510  68.361  1.00  0.00    -0.123 C  
HETATM   13  C   UNL     1     -10.466  15.602  67.473  1.00  0.00    -0.285 C  
HETATM   14  C   UNL     1      -6.123  17.843  65.111  1.00  0.00     0.189 C  
HETATM   15  C   UNL     1      -5.877  17.967  66.555  1.00  0.00    -0.199 C  
HETATM   16  C   UNL     1      -7.369  15.037  66.950  1.00  0.00     0.259 C  
HETATM   17  C   UNL     1      -9.189  16.641  67.861  1.00  0.00    -0.219 C  
HETATM   18  C   UNL     1      -8.795  16.750  69.444  1.00  0.00     0.168 C  
HETATM   19  C   UNL     1      -7.912  16.483  66.925  1.00  0.00    -0.260 C  
HETATM   20  C   UNL     1      -7.724  17.809  69.690  1.00  0.00     0.681 C  
ENDROOT
BRANCH   4  21
HETATM   21  C   UNL     1     -10.965  13.718  69.820  1.00  0.00     0.122 C  
HETATM   22  O   UNL     1     -11.967  13.213  70.343  1.00  0.00    -0.332 OA 
HETATM   23  C   UNL     1     -10.119  12.784  69.000  1.00  0.00     0.166 C  
ENDBRANCH   4  21
BRANCH   4  24
HETATM   24  O   UNL     1     -10.246  14.925  71.550  1.00  0.00     0.940 OA 
BRANCH  24  25
HETATM   25  C   UNL     1     -10.036  15.881  72.492  1.00  0.00     4.836 C  
HETATM   26  O   UNL     1      -8.967  16.130  73.024  1.00  0.00    11.601 OA 
BRANCH  25  27
HETATM   27  C   UNL     1     -11.295  16.718  72.634  1.00  0.00     0.665 C  
BRANCH  27  28
HETATM   28  C   UNL     1     -11.437  17.365  73.995  1.00  0.00     0.803 C  
BRANCH  28  29
HETATM   29  C   UNL     1     -12.886  17.384  74.472  1.00  0.00     1.354 C  
BRANCH  29  30
HETATM   30  C   UNL     1     -13.771  16.570  73.537  1.00  0.00     0.578 C  
HETATM   31  C   UNL     1     -13.401  15.098  73.580  1.00  0.00     0.042 C  
ENDBRANCH  29  30
ENDBRANCH  28  29
ENDBRANCH  27  28
ENDBRANCH  25  27
ENDBRANCH  24  25
ENDBRANCH   4  24
TORSDOF 7
ENDMDL
MODEL      169
REMARK 921   NORMALIZED FREE ENERGY PREDICTED BY IDOCK:   31.09 KCAL/MOL
REMARK 922        TOTAL FREE ENERGY PREDICTED BY IDOCK:   43.60 KCAL/MOL
REMARK 923 INTER-LIGAND FREE ENERGY PREDICTED BY IDOCK:   36.08 KCAL/MOL
REMARK 924 INTRA-LIGAND FREE ENERGY PREDICTED BY IDOCK:    7.52 KCAL/MOL
REMARK 927      BINDING AFFINITY PREDICTED BY RF-SCORE:    0.00 PKD
ROOT
HETATM    1  C   UNL     1      -8.479   9.822  67.508  1.00  0.00    -0.122 C  
HETATM    2  C   UNL     1      -9.283   8.865  68.176  1.00  0.00    -0.145 C  
HETATM    3  C   UNL     1      -9.749  10.275  68.217  1.00  0.00    -0.154 C  
HETATM    4  C   UNL     1      -8.733  11.553  66.959  1.00  0.00    -0.169 C  
HETATM    5  C   UNL     1      -6.075  11.375  71.245  1.00  0.00     0.809 C  
HETATM    6  C   UNL     1      -7.605  12.405  73.420  1.00  0.00    14.462 C  
HETATM    7  C   UNL     1      -9.937  10.943  66.824  1.00  0.00    -0.245 C  
HETATM    8  C   UNL     1     -10.705  10.407  65.629  1.00  0.00     0.005 C  
HETATM    9  O   UNL     1      -5.420  12.812  74.340  1.00  0.00    -0.396 OA 
HETATM   10  C   UNL     1      -5.457  10.467  70.208  1.00  0.00    -0.056 C  
HETATM   11  C   UNL     1      -8.034  12.889  72.040  1.00  0.00    13.541 C  
HETATM   12  C   UNL     1     -10.593  12.230  68.008  1.00  0.00    -0.235 C  
HETATM   13  C   UNL     1      -9.397  12.694  69.182  1.00  0.00     0.649 C  
HETATM   14  C   UNL     1      -6.117  12.280  73.487  1.00  0.00     3.128 C  
HETATM   15  C   UNL     1      -5.533  11.385  72.477  1.00  0.00     0.889 C  
HETATM   16  C   UNL     1      -6.485  13.555  70.163  1.00  0.00     0.072 C  
HETATM   17  C   UNL     1      -8.210  11.656  69.793  1.00  0.00     1.356 C  
HETATM   18  C   UNL     1      -7.448  10.702  68.707  1.00  0.00    -0.104 C  
HETATM   19  C   UNL     1      -7.200  12.348  70.810  1.00  0.00     3.604 C  
HETATM   20  C   UNL     1      -6.495   9.720  69.383  1.00  0.00    -0.048 C  
ENDROOT
BRANCH   4  21
HETATM   21  C   UNL     1      -9.040  12.945  66.163  1.00  0.00     0.077 C  
HETATM   22  O   UNL     1      -9.468  13.008  65.002  1.00  0.00     0.156 OA 
HETATM   23  C   UNL     1      -8.728  14.264  66.813  1.00  0.00    -0.161 C  
ENDBRANCH   4  21
BRANCH   4  24
HETATM   24  O   UNL     1      -8.072  11.007  65.643  1.00  0.00    -0.113 OA 
BRANCH  24  25
HETATM   25  C   UNL     1      -8.593   9.968  64.938  1.00  0.00    -0.173 C  
HETATM   26  O   UNL     1      -9.476  10.052  64.101  1.00  0.00    -0.277 OA 
BRANCH  25  27
HETATM   27  C   UNL     1      -7.768   8.723  65.212  1.00  0.00    -0.098 C  
BRANCH  27  28
HETATM   28  C   UNL     1      -6.299   8.892  64.891  1.00  0.00    -0.065 C  
BRANCH  28  29
HETATM   29  C   UNL     1      -5.514   7.602  65.103  1.00  0.00    -0.033 C  
BRANCH  29  30
HETATM   30  C   UNL     1      -5.558   6.733  63.852  1.00  0.00    -0.031 C  
HETATM   31  C   UNL     1      -5.371   7.572  62.600  1.00  0.00    -0.046 C  
ENDBRANCH  29  30
ENDBRANCH  28  29
ENDBRANCH  27  28
ENDBRANCH  25  27
ENDBRANCH  24  25
ENDBRANCH   4  24
TORSDOF 7
ENDMDL
MODEL      170
REMARK 921   NORMALIZED FREE ENERGY PREDICTED BY IDOCK:   40.99 KCAL/MOL
REMARK 922        TOTAL FREE ENERGY PREDICTED BY IDOCK:   57.56 KCAL/MOL
REMARK 923 INTER-LIGAND FREE ENERGY PREDICTED BY IDOCK:   47.60 KCAL/MOL
REMARK 924 INTRA-LIGAND FREE ENERGY PREDICTED BY IDOCK:    9.96 KCAL/MOL
REMARK 927      BINDING AFFINITY PREDICTED BY RF-SCORE:    0.00 PKD
ROOT
HETATM    1  C   UNL     1      -8.604  15.153  71.117  1.00  0.00     3.141 C  
HETATM    2  C   UNL     1      -8.614  14.116  72.083  1.00  0.00     8.732 C  
HETATM    3  C   UNL     1      -7.718  13.930  70.913  1.00  0.00     3.384 C  
HETATM    4  C   UNL     1      -7.496  15.601  69.727  1.00  0.00    -0.046 C  
HETATM    5  C   UNL     1     -11.626  13.226  68.065  1.00  0.00    -0.371 C  
HETATM    6  C   UNL     1     -10.963  10.643  67.056  1.00  0.00    -0.274 C  
HETATM    7  C   UNL     1      -6.692  15.078  70.686  1.00  0.00     0.283 C  
HETATM    8  C   UNL     1      -5.741  15.691  71.698  1.00  0.00     0.562 C  
HETATM    9  O   UNL     1     -12.989  10.970  65.801  1.00  0.00     4.239 OA 
HETATM   10  C   UNL     1     -12.011  14.378  68.964  1.00  0.00    -0.342 C  
HETATM   11  C   UNL     1      -9.817  11.647  67.069  1.00  0.00    -0.211 C  
HETATM   12  C   UNL     1      -6.197  13.803  69.413  1.00  0.00    -0.107 C  
HETATM   13  C   UNL     1      -7.513  13.418  68.343  1.00  0.00    -0.117 C  
HETATM   14  C   UNL     1     -12.247  11.325  66.707  1.00  0.00     1.781 C  
HETATM   15  C   UNL     1     -12.610  12.436  67.598  1.00  0.00     1.437 C  
HETATM   16  C   UNL     1      -9.983  14.084  66.435  1.00  0.00    -0.301 C  
HETATM   17  C   UNL     1      -9.142  13.425  68.796  1.00  0.00     0.115 C  
HETATM   18  C   UNL     1      -9.639  14.688  69.707  1.00  0.00     0.350 C  
HETATM   19  C   UNL     1     -10.151  13.095  67.610  1.00  0.00    -0.221 C  
HETATM   20  C   UNL     1     -11.086  14.524  70.164  1.00  0.00    -0.129 C  
ENDROOT
BRANCH   4  21
HETATM   21  C   UNL     1      -6.362  16.217  68.725  1.00  0.00    -0.119 C  
HETATM   22  O   UNL     1      -6.414  17.346  68.220  1.00  0.00    -0.164 OA 
HETATM   23  C   UNL     1      -5.199  15.366  68.298  1.00  0.00    -0.110 C  
ENDBRANCH   4  21
BRANCH   4  24
HETATM   24  O   UNL     1      -7.653  17.036  70.346  1.00  0.00     1.860 OA 
BRANCH  24  25
HETATM   25  C   UNL     1      -8.693  17.378  71.152  1.00  0.00     7.771 C  
HETATM   26  O   UNL     1      -8.675  17.375  72.371  1.00  0.00    13.313 OA 
BRANCH  25  27
HETATM   27  C   UNL     1      -9.811  17.950  70.298  1.00  0.00     1.765 C  
BRANCH  27  28
HETATM   28  C   UNL     1      -9.765  19.457  70.178  1.00  0.00     0.737 C  
BRANCH  28  29
HETATM   29  C   UNL     1      -8.335  19.989  70.178  1.00  0.00     1.180 C  
BRANCH  29  30
HETATM   30  C   UNL     1      -7.451  19.153  69.262  1.00  0.00    -0.219 C  
HETATM   31  C   UNL     1      -6.044  19.719  69.198  1.00  0.00    -0.317 C  
ENDBRANCH  29  30
ENDBRANCH  28  29
ENDBRANCH  27  28
ENDBRANCH  25  27
ENDBRANCH  24  25
ENDBRANCH   4  24
TORSDOF 7
ENDMDL
MODEL      171
REMARK 921   NORMALIZED FREE ENERGY PREDICTED BY IDOCK:   49.52 KCAL/MOL
REMARK 922        TOTAL FREE ENERGY PREDICTED BY IDOCK:   69.57 KCAL/MOL
REMARK 923 INTER-LIGAND FREE ENERGY PREDICTED BY IDOCK:   49.00 KCAL/MOL
REMARK 924 INTRA-LIGAND FREE ENERGY PREDICTED BY IDOCK:   20.58 KCAL/MOL
REMARK 927      BINDING AFFINITY PREDICTED BY RF-SCORE:    0.00 PKD
ROOT
HETATM    1  C   UNL     1      -8.479   9.822  67.508  1.00  0.00    -0.122 C  
HETATM    2  C   UNL     1      -9.273   8.873  68.199  1.00  0.00    -0.145 C  
HETATM    3  C   UNL     1      -9.733  10.285  68.239  1.00  0.00    -0.154 C  
HETATM    4  C   UNL     1      -8.738  11.549  66.952  1.00  0.00    -0.181 C  
HETATM    5  C   UNL     1      -5.995  11.393  71.185  1.00  0.00     0.400 C  
HETATM    6  C   UNL     1      -7.477  12.445  73.382  1.00  0.00    13.229 C  
HETATM    7  C   UNL     1      -9.946  10.943  66.845  1.00  0.00    -0.232 C  
HETATM    8  C   UNL     1     -10.741  10.401  65.670  1.00  0.00     0.005 C  
HETATM    9  O   UNL     1      -5.272  12.850  74.255  1.00  0.00    -0.411 OA 
HETATM   10  C   UNL     1      -5.401  10.475  70.142  1.00  0.00    -0.046 C  
HETATM   11  C   UNL     1      -7.932  12.920  72.008  1.00  0.00    13.541 C  
HETATM   12  C   UNL     1     -10.575  12.241  68.032  1.00  0.00    -0.235 C  
HETATM   13  C   UNL     1      -9.353  12.709  69.179  1.00  0.00     0.649 C  
HETATM   14  C   UNL     1      -5.988  12.314  73.420  1.00  0.00     2.683 C  
HETATM   15  C   UNL     1      -5.428  11.410  72.405  1.00  0.00     0.816 C  
HETATM   16  C   UNL     1      -6.419  13.567  70.095  1.00  0.00     0.072 C  
HETATM   17  C   UNL     1      -8.157  11.672  69.774  1.00  0.00     1.246 C  
HETATM   18  C   UNL     1      -7.421  10.707  68.679  1.00  0.00    -0.098 C  
HETATM   19  C   UNL     1      -7.125  12.367  70.765  1.00  0.00     3.139 C  
HETATM   20  C   UNL     1      -6.458   9.726  69.344  1.00  0.00    -0.048 C  
ENDROOT
BRANCH   4  21
HETATM   21  C   UNL     1      -9.057  12.937  66.152  1.00  0.00     0.077 C  
HETATM   22  O   UNL     1      -9.306  13.005  64.941  1.00  0.00     0.349 OA 
HETATM   23  C   UNL     1      -8.980  14.253  66.874  1.00  0.00    -0.255 C  
ENDBRANCH   4  21
BRANCH   4  24
HETATM   24  O   UNL     1      -8.106  10.992  65.627  1.00  0.00    -0.113 OA 
BRANCH  24  25
HETATM   25  C   UNL     1      -8.644   9.950  64.940  1.00  0.00    -0.169 C  
HETATM   26  O   UNL     1      -8.450   8.770  65.176  1.00  0.00    -0.157 OA 
BRANCH  25  27
HETATM   27  C   UNL     1      -9.676  10.485  63.962  1.00  0.00    -0.383 C  
BRANCH  27  28
HETATM   28  C   UNL     1     -10.768  11.297  64.624  1.00  0.00    -0.371 C  
BRANCH  28  29
HETATM   29  C   UNL     1     -11.828  11.753  63.627  1.00  0.00    -0.498 C  
BRANCH  29  30
HETATM   30  C   UNL     1     -12.985  10.763  63.583  1.00  0.00     3.741 C  
HETATM   31  C   UNL     1     -12.623   9.536  62.766  1.00  0.00    12.665 C  
ENDBRANCH  29  30
ENDBRANCH  28  29
ENDBRANCH  27  28
ENDBRANCH  25  27
ENDBRANCH  24  25
ENDBRANCH   4  24
TORSDOF 7
ENDMDL
MODEL      172
REMARK 921   NORMALIZED FREE ENERGY PREDICTED BY IDOCK:   51.64 KCAL/MOL
REMARK 922        TOTAL FREE ENERGY PREDICTED BY IDOCK:   72.57 KCAL/MOL
REMARK 923 INTER-LIGAND FREE ENERGY PREDICTED BY IDOCK:   64.16 KCAL/MOL
REMARK 924 INTRA-LIGAND FREE ENERGY PREDICTED BY IDOCK:    8.41 KCAL/MOL
REMARK 927      BINDING AFFINITY PREDICTED BY RF-SCORE:    0.00 PKD
ROOT
HETATM    1  C   UNL     1      -7.986  20.329  67.416  1.00  0.00    -0.366 C  
HETATM    2  C   UNL     1      -7.570  21.307  68.355  1.00  0.00     1.267 C  
HETATM    3  C   UNL     1      -6.869  19.997  68.397  1.00  0.00    -0.337 C  
HETATM    4  C   UNL     1      -7.280  18.751  66.809  1.00  0.00    -0.213 C  
HETATM    5  C   UNL     1     -10.900  17.928  70.227  1.00  0.00     1.685 C  
HETATM    6  C   UNL     1      -9.789  16.878  72.634  1.00  0.00     9.247 C  
HETATM    7  C   UNL     1      -6.219  19.559  67.053  1.00  0.00    -0.194 C  
HETATM    8  C   UNL     1      -5.294  20.366  66.158  1.00  0.00    -0.199 C  
HETATM    9  O   UNL     1     -12.016  16.007  72.898  1.00  0.00    -0.458 OA 
HETATM   10  C   UNL     1     -11.403  18.854  69.144  1.00  0.00     2.832 C  
HETATM   11  C   UNL     1      -8.948  16.657  71.383  1.00  0.00     7.254 C  
HETATM   12  C   UNL     1      -5.643  18.249  68.254  1.00  0.00    -0.170 C  
HETATM   13  C   UNL     1      -6.982  17.447  69.021  1.00  0.00    -0.238 C  
HETATM   14  C   UNL     1     -11.244  16.752  72.311  1.00  0.00     0.905 C  
HETATM   15  C   UNL     1     -11.718  17.668  71.263  1.00  0.00     3.612 C  
HETATM   16  C   UNL     1      -9.828  16.005  69.110  1.00  0.00    -0.247 C  
HETATM   17  C   UNL     1      -8.459  18.189  69.380  1.00  0.00     0.449 C  
HETATM   18  C   UNL     1      -9.095  19.144  68.215  1.00  0.00    -0.385 C  
HETATM   19  C   UNL     1      -9.539  17.215  70.026  1.00  0.00     1.225 C  
HETATM   20  C   UNL     1     -10.355  19.861  68.695  1.00  0.00    -0.414 C  
ENDROOT
BRANCH   4  21
HETATM   21  C   UNL     1      -6.526  17.544  66.007  1.00  0.00    -0.192 C  
HETATM   22  O   UNL     1      -6.993  16.408  65.851  1.00  0.00     0.398 OA 
HETATM   23  C   UNL     1      -5.138  17.755  65.469  1.00  0.00    -0.127 C  
ENDBRANCH   4  21
BRANCH   4  24
HETATM   24  O   UNL     1      -7.685  19.353  65.416  1.00  0.00    -0.370 OA 
BRANCH  24  25
HETATM   25  C   UNL     1      -7.032  19.042  64.265  1.00  0.00     2.036 C  
HETATM   26  O   UNL     1      -6.463  17.989  64.036  1.00  0.00     1.688 OA 
BRANCH  25  27
HETATM   27  C   UNL     1      -7.292  20.134  63.241  1.00  0.00     2.960 C  
BRANCH  27  28
HETATM   28  C   UNL     1      -8.471  19.842  62.338  1.00  0.00    13.141 C  
BRANCH  28  29
HETATM   29  C   UNL     1      -9.743  20.537  62.813  1.00  0.00    12.976 C  
BRANCH  29  30
HETATM   30  C   UNL     1      -9.991  20.253  64.289  1.00  0.00     4.220 C  
HETATM   31  C   UNL     1     -11.455  20.447  64.642  1.00  0.00     2.174 C  
ENDBRANCH  29  30
ENDBRANCH  28  29
ENDBRANCH  27  28
ENDBRANCH  25  27
ENDBRANCH  24  25
ENDBRANCH   4  24
TORSDOF 7
ENDMDL
MODEL      173
REMARK 921   NORMALIZED FREE ENERGY PREDICTED BY IDOCK:   55.12 KCAL/MOL
REMARK 922        TOTAL FREE ENERGY PREDICTED BY IDOCK:   77.47 KCAL/MOL
REMARK 923 INTER-LIGAND FREE ENERGY PREDICTED BY IDOCK:   11.42 KCAL/MOL
REMARK 924 INTRA-LIGAND FREE ENERGY PREDICTED BY IDOCK:   66.05 KCAL/MOL
REMARK 927      BINDING AFFINITY PREDICTED BY RF-SCORE:    0.00 PKD
ROOT
HETATM    1  C   UNL     1     -11.610  13.832  69.183  1.00  0.00    -0.363 C  
HETATM    2  C   UNL     1     -12.294  12.779  69.843  1.00  0.00    -0.138 C  
HETATM    3  C   UNL     1     -11.041  13.265  70.478  1.00  0.00     1.134 C  
HETATM    4  C   UNL     1     -10.281  14.998  69.665  1.00  0.00    -0.157 C  
HETATM    5  C   UNL     1      -8.451  11.208  66.880  1.00  0.00    -0.147 C  
HETATM    6  C   UNL     1      -6.795   9.508  68.462  1.00  0.00    -0.061 C  
HETATM    7  C   UNL     1     -11.012  14.789  70.788  1.00  0.00     0.008 C  
HETATM    8  C   UNL     1     -12.058  15.612  71.519  1.00  0.00    -0.488 C  
HETATM    9  O   UNL     1      -5.833   8.994  66.317  1.00  0.00    -0.055 OA 
HETATM   10  C   UNL     1      -9.632  11.845  66.186  1.00  0.00    -0.250 C  
HETATM   11  C   UNL     1      -6.952  10.930  68.987  1.00  0.00    -0.089 C  
HETATM   12  C   UNL     1      -9.432  14.165  71.563  1.00  0.00     6.407 C  
HETATM   13  C   UNL     1      -8.416  13.365  70.399  1.00  0.00     4.343 C  
HETATM   14  C   UNL     1      -6.731   9.512  66.968  1.00  0.00    -0.072 C  
HETATM   15  C   UNL     1      -7.893  10.126  66.308  1.00  0.00    -0.113 C  
HETATM   16  C   UNL     1      -6.943  13.030  67.588  1.00  0.00    -0.154 C  
HETATM   17  C   UNL     1      -8.995  12.486  69.075  1.00  0.00     0.485 C  
HETATM   18  C   UNL     1     -10.222  13.161  68.234  1.00  0.00    -0.250 C  
HETATM   19  C   UNL     1      -7.854  11.905  68.129  1.00  0.00    -0.134 C  
HETATM   20  C   UNL     1     -10.748  12.226  67.148  1.00  0.00    -0.265 C  
ENDROOT
BRANCH   4  21
HETATM   21  C   UNL     1      -9.364  16.255  70.165  1.00  0.00     1.013 C  
HETATM   22  O   UNL     1      -9.808  17.377  70.443  1.00  0.00     1.379 OA 
HETATM   23  C   UNL     1      -7.870  16.110  70.237  1.00  0.00     1.498 C  
ENDBRANCH   4  21
BRANCH   4  24
HETATM   24  O   UNL     1     -11.240  16.038  68.981  1.00  0.00    -0.303 OA 
BRANCH  24  25
HETATM   25  C   UNL     1     -10.801  17.224  68.485  1.00  0.00    -0.240 C  
HETATM   26  O   UNL     1     -10.516  18.208  69.148  1.00  0.00    -0.205 OA 
BRANCH  25  27
HETATM   27  C   UNL     1     -10.533  17.069  66.998  1.00  0.00    -0.279 C  
BRANCH  27  28
HETATM   28  C   UNL     1     -10.020  15.697  66.620  1.00  0.00    -0.269 C  
BRANCH  28  29
HETATM   29  C   UNL     1      -9.921  14.769  67.826  1.00  0.00    -0.223 C  
BRANCH  29  30
HETATM   30  C   UNL     1     -11.274  14.141  68.134  1.00  0.00    -0.299 C  
HETATM   31  C   UNL     1     -11.138  12.650  68.386  1.00  0.00    -0.297 C  
ENDBRANCH  29  30
ENDBRANCH  28  29
ENDBRANCH  27  28
ENDBRANCH  25  27
ENDBRANCH  24  25
ENDBRANCH   4  24
TORSDOF 7
ENDMDL
