MODEL        1
REMARK 921   NORMALIZED FREE ENERGY PREDICTED BY IDOCK:   -4.28 KCAL/MOL
REMARK 922        TOTAL FREE ENERGY PREDICTED BY IDOCK:   -4.53 KCAL/MOL
REMARK 923 INTER-LIGAND FREE ENERGY PREDICTED BY IDOCK:   -4.53 KCAL/MOL
REMARK 924 INTRA-LIGAND FREE ENERGY PREDICTED BY IDOCK:    0.00 KCAL/MOL
REMARK 927      BINDING AFFINITY PREDICTED BY RF-SCORE:    0.00 PKD
ROOT
HETATM    1  N   UNL     1     -12.458  13.744  63.134  1.00  0.00    -1.074 N  
HETATM    2  H1  UNL     1     -11.850  13.911  62.332  1.00  0.00     0.000 HD 
HETATM    3  H2  UNL     1     -13.225  13.079  63.042  1.00  0.00     0.000 HD 
HETATM    4  C   UNL     1     -12.279  14.379  64.315  1.00  0.00    -0.423 C  
HETATM    5  O   UNL     1     -13.012  14.179  65.280  1.00  0.00    -0.725 OA 
ENDROOT
BRANCH   4   6
HETATM    6  N   UNL     1     -11.227  15.237  64.343  1.00  0.00    -0.690 N  
HETATM    7  H   UNL     1     -10.322  14.957  64.719  1.00  0.00     0.000 HD 
HETATM    8  O   UNL     1     -11.442  16.533  63.829  1.00  0.00    -1.615 OA 
HETATM    9  H   UNL     1     -10.706  17.133  63.849  1.00  0.00     0.000 HD 
ENDBRANCH   4   6
TORSDOF 1
ENDMDL
MODEL        2
REMARK 921   NORMALIZED FREE ENERGY PREDICTED BY IDOCK:   -4.04 KCAL/MOL
REMARK 922        TOTAL FREE ENERGY PREDICTED BY IDOCK:   -4.27 KCAL/MOL
REMARK 923 INTER-LIGAND FREE ENERGY PREDICTED BY IDOCK:   -4.27 KCAL/MOL
REMARK 924 INTRA-LIGAND FREE ENERGY PREDICTED BY IDOCK:    0.00 KCAL/MOL
REMARK 927      BINDING AFFINITY PREDICTED BY RF-SCORE:    0.00 PKD
ROOT
HETATM    1  N   UNL     1     -12.064  11.457  63.008  1.00  0.00    -0.873 N  
HETATM    2  H1  UNL     1     -11.583  11.509  62.110  1.00  0.00     0.000 HD 
HETATM    3  H2  UNL     1     -12.200  10.545  63.443  1.00  0.00     0.000 HD 
HETATM    4  C   UNL     1     -12.526  12.561  63.640  1.00  0.00    -0.470 C  
HETATM    5  O   UNL     1     -13.105  12.498  64.722  1.00  0.00    -0.853 OA 
ENDROOT
BRANCH   4   6
HETATM    6  N   UNL     1     -12.288  13.728  62.989  1.00  0.00    -1.030 N  
HETATM    7  H   UNL     1     -11.956  13.742  62.025  1.00  0.00     0.000 HD 
HETATM    8  O   UNL     1     -12.519  14.921  63.706  1.00  0.00    -1.048 OA 
HETATM    9  H   UNL     1     -12.352  15.738  63.249  1.00  0.00     0.000 HD 
ENDBRANCH   4   6
TORSDOF 1
ENDMDL
MODEL        3
REMARK 921   NORMALIZED FREE ENERGY PREDICTED BY IDOCK:   -3.87 KCAL/MOL
REMARK 922        TOTAL FREE ENERGY PREDICTED BY IDOCK:   -4.10 KCAL/MOL
REMARK 923 INTER-LIGAND FREE ENERGY PREDICTED BY IDOCK:   -4.10 KCAL/MOL
REMARK 924 INTRA-LIGAND FREE ENERGY PREDICTED BY IDOCK:    0.00 KCAL/MOL
REMARK 927      BINDING AFFINITY PREDICTED BY RF-SCORE:    0.00 PKD
ROOT
HETATM    1  N   UNL     1     -12.351  13.760  63.110  1.00  0.00    -1.106 N  
HETATM    2  H1  UNL     1     -11.882  13.821  62.206  1.00  0.00     0.000 HD 
HETATM    3  H2  UNL     1     -12.604  14.622  63.593  1.00  0.00     0.000 HD 
HETATM    4  C   UNL     1     -12.647  12.573  63.687  1.00  0.00    -0.392 C  
HETATM    5  O   UNL     1     -13.212  12.501  64.775  1.00  0.00    -0.839 OA 
ENDROOT
BRANCH   4   6
HETATM    6  N   UNL     1     -12.280  11.485  62.963  1.00  0.00    -0.941 N  
HETATM    7  H   UNL     1     -12.957  10.960  62.410  1.00  0.00     0.000 HD 
HETATM    8  O   UNL     1     -10.921  11.111  63.011  1.00  0.00    -0.820 OA 
HETATM    9  H   UNL     1     -10.664  10.349  62.504  1.00  0.00     0.000 HD 
ENDBRANCH   4   6
TORSDOF 1
ENDMDL
MODEL        4
REMARK 921   NORMALIZED FREE ENERGY PREDICTED BY IDOCK:   -3.74 KCAL/MOL
REMARK 922        TOTAL FREE ENERGY PREDICTED BY IDOCK:   -3.96 KCAL/MOL
REMARK 923 INTER-LIGAND FREE ENERGY PREDICTED BY IDOCK:   -3.96 KCAL/MOL
REMARK 924 INTRA-LIGAND FREE ENERGY PREDICTED BY IDOCK:    0.00 KCAL/MOL
REMARK 927      BINDING AFFINITY PREDICTED BY RF-SCORE:    0.00 PKD
ROOT
HETATM    1  N   UNL     1     -13.040  14.049  65.191  1.00  0.00    -0.759 N  
HETATM    2  H1  UNL     1     -13.141  14.792  65.883  1.00  0.00     0.000 HD 
HETATM    3  H2  UNL     1     -13.699  13.271  65.203  1.00  0.00     0.000 HD 
HETATM    4  C   UNL     1     -12.060  14.064  64.259  1.00  0.00    -0.445 C  
HETATM    5  O   UNL     1     -11.939  13.170  63.426  1.00  0.00    -0.538 OA 
ENDROOT
BRANCH   4   6
HETATM    6  N   UNL     1     -11.240  15.145  64.316  1.00  0.00    -0.664 N  
HETATM    7  H   UNL     1     -10.314  15.089  64.740  1.00  0.00     0.000 HD 
HETATM    8  O   UNL     1     -11.726  16.349  63.764  1.00  0.00    -1.553 OA 
HETATM    9  H   UNL     1     -11.152  17.105  63.804  1.00  0.00     0.000 HD 
ENDBRANCH   4   6
TORSDOF 1
ENDMDL
MODEL        5
REMARK 921   NORMALIZED FREE ENERGY PREDICTED BY IDOCK:   -3.47 KCAL/MOL
REMARK 922        TOTAL FREE ENERGY PREDICTED BY IDOCK:   -3.67 KCAL/MOL
REMARK 923 INTER-LIGAND FREE ENERGY PREDICTED BY IDOCK:   -3.67 KCAL/MOL
REMARK 924 INTRA-LIGAND FREE ENERGY PREDICTED BY IDOCK:    0.00 KCAL/MOL
REMARK 927      BINDING AFFINITY PREDICTED BY RF-SCORE:    0.00 PKD
ROOT
HETATM    1  N   UNL     1     -11.206  15.082  64.380  1.00  0.00    -0.660 N  
HETATM    2  H1  UNL     1     -10.560  15.213  63.602  1.00  0.00     0.000 HD 
HETATM    3  H2  UNL     1     -11.047  15.598  65.245  1.00  0.00     0.000 HD 
HETATM    4  C   UNL     1     -12.267  14.247  64.300  1.00  0.00    -0.423 C  
HETATM    5  O   UNL     1     -13.045  14.091  65.237  1.00  0.00    -0.782 OA 
ENDROOT
BRANCH   4   6
HETATM    6  N   UNL     1     -12.402  13.615  63.106  1.00  0.00    -1.076 N  
HETATM    7  H   UNL     1     -12.496  14.136  62.235  1.00  0.00     0.000 HD 
HETATM    8  O   UNL     1     -12.406  12.204  63.125  1.00  0.00    -0.732 OA 
HETATM    9  H   UNL     1     -12.500  11.762  62.289  1.00  0.00     0.000 HD 
ENDBRANCH   4   6
TORSDOF 1
ENDMDL
MODEL        6
REMARK 921   NORMALIZED FREE ENERGY PREDICTED BY IDOCK:   -3.37 KCAL/MOL
REMARK 922        TOTAL FREE ENERGY PREDICTED BY IDOCK:   -3.57 KCAL/MOL
REMARK 923 INTER-LIGAND FREE ENERGY PREDICTED BY IDOCK:   -3.57 KCAL/MOL
REMARK 924 INTRA-LIGAND FREE ENERGY PREDICTED BY IDOCK:    0.00 KCAL/MOL
REMARK 927      BINDING AFFINITY PREDICTED BY RF-SCORE:    0.00 PKD
ROOT
HETATM    1  N   UNL     1     -10.599  16.131  66.028  1.00  0.00    -0.315 N  
HETATM    2  H1  UNL     1     -10.353  15.342  66.626  1.00  0.00     0.000 HD 
HETATM    3  H2  UNL     1     -10.429  17.078  66.366  1.00  0.00     0.000 HD 
HETATM    4  C   UNL     1     -11.144  15.961  64.802  1.00  0.00    -0.384 C  
HETATM    5  O   UNL     1     -11.440  16.911  64.083  1.00  0.00    -1.174 OA 
ENDROOT
BRANCH   4   6
HETATM    6  N   UNL     1     -11.322  14.666  64.436  1.00  0.00    -0.629 N  
HETATM    7  H   UNL     1     -10.674  13.935  64.731  1.00  0.00     0.000 HD 
HETATM    8  O   UNL     1     -12.441  14.375  63.629  1.00  0.00    -1.066 OA 
HETATM    9  H   UNL     1     -12.566  13.469  63.373  1.00  0.00     0.000 HD 
ENDBRANCH   4   6
TORSDOF 1
ENDMDL
MODEL        7
REMARK 921   NORMALIZED FREE ENERGY PREDICTED BY IDOCK:   -3.33 KCAL/MOL
REMARK 922        TOTAL FREE ENERGY PREDICTED BY IDOCK:   -3.53 KCAL/MOL
REMARK 923 INTER-LIGAND FREE ENERGY PREDICTED BY IDOCK:   -3.53 KCAL/MOL
REMARK 924 INTRA-LIGAND FREE ENERGY PREDICTED BY IDOCK:    0.00 KCAL/MOL
REMARK 927      BINDING AFFINITY PREDICTED BY RF-SCORE:    0.00 PKD
ROOT
HETATM    1  N   UNL     1     -12.986  11.731  63.319  1.00  0.00    -0.770 N  
HETATM    2  H1  UNL     1     -12.629  10.787  63.171  1.00  0.00     0.000 HD 
HETATM    3  H2  UNL     1     -13.989  11.864  63.453  1.00  0.00     0.000 HD 
HETATM    4  C   UNL     1     -12.173  12.811  63.344  1.00  0.00    -0.504 C  
HETATM    5  O   UNL     1     -12.603  13.947  63.523  1.00  0.00    -0.842 OA 
ENDROOT
BRANCH   4   6
HETATM    6  N   UNL     1     -10.856  12.532  63.168  1.00  0.00    -0.650 N  
HETATM    7  H   UNL     1     -10.545  11.833  62.494  1.00  0.00     0.000 HD 
HETATM    8  O   UNL     1      -9.936  13.252  63.959  1.00  0.00    -0.762 OA 
HETATM    9  H   UNL     1      -9.015  13.057  63.836  1.00  0.00     0.000 HD 
ENDBRANCH   4   6
TORSDOF 1
ENDMDL
MODEL        8
REMARK 921   NORMALIZED FREE ENERGY PREDICTED BY IDOCK:   -3.31 KCAL/MOL
REMARK 922        TOTAL FREE ENERGY PREDICTED BY IDOCK:   -3.50 KCAL/MOL
REMARK 923 INTER-LIGAND FREE ENERGY PREDICTED BY IDOCK:   -3.50 KCAL/MOL
REMARK 924 INTRA-LIGAND FREE ENERGY PREDICTED BY IDOCK:    0.00 KCAL/MOL
REMARK 927      BINDING AFFINITY PREDICTED BY RF-SCORE:    0.00 PKD
ROOT
HETATM    1  N   UNL     1     -13.672  16.073  73.421  1.00  0.00    -0.807 N  
HETATM    2  H1  UNL     1     -13.778  17.062  73.192  1.00  0.00     0.000 HD 
HETATM    3  H2  UNL     1     -13.371  15.814  74.360  1.00  0.00     0.000 HD 
HETATM    4  C   UNL     1     -13.920  15.097  72.519  1.00  0.00    -0.486 C  
HETATM    5  O   UNL     1     -13.794  13.907  72.795  1.00  0.00    -0.701 OA 
ENDROOT
BRANCH   4   6
HETATM    6  N   UNL     1     -14.327  15.540  71.302  1.00  0.00    -0.750 N  
HETATM    7  H   UNL     1     -15.295  15.807  71.128  1.00  0.00     0.000 HD 
HETATM    8  O   UNL     1     -13.349  15.614  70.287  1.00  0.00    -0.761 OA 
HETATM    9  H   UNL     1     -13.634  15.925  69.436  1.00  0.00     0.000 HD 
ENDBRANCH   4   6
TORSDOF 1
ENDMDL
MODEL        9
REMARK 921   NORMALIZED FREE ENERGY PREDICTED BY IDOCK:   -3.24 KCAL/MOL
REMARK 922        TOTAL FREE ENERGY PREDICTED BY IDOCK:   -3.43 KCAL/MOL
REMARK 923 INTER-LIGAND FREE ENERGY PREDICTED BY IDOCK:   -3.43 KCAL/MOL
REMARK 924 INTRA-LIGAND FREE ENERGY PREDICTED BY IDOCK:    0.00 KCAL/MOL
REMARK 927      BINDING AFFINITY PREDICTED BY RF-SCORE:    0.00 PKD
ROOT
HETATM    1  N   UNL     1     -12.151  12.896  65.348  1.00  0.00    -0.429 N  
HETATM    2  H1  UNL     1     -11.828  11.936  65.465  1.00  0.00     0.000 HD 
HETATM    3  H2  UNL     1     -12.465  13.415  66.168  1.00  0.00     0.000 HD 
HETATM    4  C   UNL     1     -12.177  13.502  64.139  1.00  0.00    -0.394 C  
HETATM    5  O   UNL     1     -12.566  14.658  63.998  1.00  0.00    -0.819 OA 
ENDROOT
BRANCH   4   6
HETATM    6  N   UNL     1     -11.731  12.735  63.111  1.00  0.00    -0.825 N  
HETATM    7  H   UNL     1     -10.922  13.009  62.554  1.00  0.00     0.000 HD 
HETATM    8  O   UNL     1     -12.436  11.542  62.848  1.00  0.00    -0.964 OA 
HETATM    9  H   UNL     1     -12.124  11.006  62.129  1.00  0.00     0.000 HD 
ENDBRANCH   4   6
TORSDOF 1
ENDMDL
MODEL       10
REMARK 921   NORMALIZED FREE ENERGY PREDICTED BY IDOCK:   -3.16 KCAL/MOL
REMARK 922        TOTAL FREE ENERGY PREDICTED BY IDOCK:   -3.35 KCAL/MOL
REMARK 923 INTER-LIGAND FREE ENERGY PREDICTED BY IDOCK:   -3.35 KCAL/MOL
REMARK 924 INTRA-LIGAND FREE ENERGY PREDICTED BY IDOCK:    0.00 KCAL/MOL
REMARK 927      BINDING AFFINITY PREDICTED BY RF-SCORE:    0.00 PKD
ROOT
HETATM    1  N   UNL     1     -12.437  13.862  62.984  1.00  0.00    -1.009 N  
HETATM    2  H1  UNL     1     -12.954  14.686  63.289  1.00  0.00     0.000 HD 
HETATM    3  H2  UNL     1     -12.025  13.855  62.051  1.00  0.00     0.000 HD 
HETATM    4  C   UNL     1     -12.279  12.778  63.778  1.00  0.00    -0.489 C  
HETATM    5  O   UNL     1     -11.656  11.786  63.410  1.00  0.00    -0.410 OA 
ENDROOT
BRANCH   4   6
HETATM    6  N   UNL     1     -12.854  12.885  65.003  1.00  0.00    -0.697 N  
HETATM    7  H   UNL     1     -12.978  12.072  65.606  1.00  0.00     0.000 HD 
HETATM    8  O   UNL     1     -13.271  14.172  65.406  1.00  0.00    -0.741 OA 
HETATM    9  H   UNL     1     -13.672  14.247  66.264  1.00  0.00     0.000 HD 
ENDBRANCH   4   6
TORSDOF 1
ENDMDL
MODEL       11
REMARK 921   NORMALIZED FREE ENERGY PREDICTED BY IDOCK:   -3.13 KCAL/MOL
REMARK 922        TOTAL FREE ENERGY PREDICTED BY IDOCK:   -3.32 KCAL/MOL
REMARK 923 INTER-LIGAND FREE ENERGY PREDICTED BY IDOCK:   -3.32 KCAL/MOL
REMARK 924 INTRA-LIGAND FREE ENERGY PREDICTED BY IDOCK:    0.00 KCAL/MOL
REMARK 927      BINDING AFFINITY PREDICTED BY RF-SCORE:    0.00 PKD
ROOT
HETATM    1  N   UNL     1     -13.846  15.424  70.740  1.00  0.00    -0.860 N  
HETATM    2  H1  UNL     1     -14.827  15.149  70.781  1.00  0.00     0.000 HD 
HETATM    3  H2  UNL     1     -13.370  15.423  69.839  1.00  0.00     0.000 HD 
HETATM    4  C   UNL     1     -13.158  15.792  71.845  1.00  0.00    -0.417 C  
HETATM    5  O   UNL     1     -11.976  16.124  71.797  1.00  0.00    -0.474 OA 
ENDROOT
BRANCH   4   6
HETATM    6  N   UNL     1     -13.880  15.773  72.995  1.00  0.00    -0.650 N  
HETATM    7  H   UNL     1     -14.780  15.297  73.051  1.00  0.00     0.000 HD 
HETATM    8  O   UNL     1     -13.329  16.442  74.109  1.00  0.00    -0.914 OA 
HETATM    9  H   UNL     1     -13.835  16.428  74.913  1.00  0.00     0.000 HD 
ENDBRANCH   4   6
TORSDOF 1
ENDMDL
MODEL       12
REMARK 921   NORMALIZED FREE ENERGY PREDICTED BY IDOCK:   -3.10 KCAL/MOL
REMARK 922        TOTAL FREE ENERGY PREDICTED BY IDOCK:   -3.29 KCAL/MOL
REMARK 923 INTER-LIGAND FREE ENERGY PREDICTED BY IDOCK:   -3.29 KCAL/MOL
REMARK 924 INTRA-LIGAND FREE ENERGY PREDICTED BY IDOCK:    0.00 KCAL/MOL
REMARK 927      BINDING AFFINITY PREDICTED BY RF-SCORE:    0.00 PKD
ROOT
HETATM    1  N   UNL     1     -12.420  14.457  63.617  1.00  0.00    -1.086 N  
HETATM    2  H1  UNL     1     -11.714  15.127  63.312  1.00  0.00     0.000 HD 
HETATM    3  H2  UNL     1     -13.380  14.568  63.291  1.00  0.00     0.000 HD 
HETATM    4  C   UNL     1     -12.122  13.426  64.440  1.00  0.00    -0.416 C  
HETATM    5  O   UNL     1     -12.972  12.619  64.807  1.00  0.00    -0.816 OA 
ENDROOT
BRANCH   4   6
HETATM    6  N   UNL     1     -10.818  13.355  64.811  1.00  0.00    -0.352 N  
HETATM    7  H   UNL     1     -10.444  12.537  65.291  1.00  0.00     0.000 HD 
HETATM    8  O   UNL     1     -10.003  14.464  64.503  1.00  0.00    -0.614 OA 
HETATM    9  H   UNL     1      -9.090  14.415  64.762  1.00  0.00     0.000 HD 
ENDBRANCH   4   6
TORSDOF 1
ENDMDL
MODEL       13
REMARK 921   NORMALIZED FREE ENERGY PREDICTED BY IDOCK:   -3.08 KCAL/MOL
REMARK 922        TOTAL FREE ENERGY PREDICTED BY IDOCK:   -3.26 KCAL/MOL
REMARK 923 INTER-LIGAND FREE ENERGY PREDICTED BY IDOCK:   -3.26 KCAL/MOL
REMARK 924 INTRA-LIGAND FREE ENERGY PREDICTED BY IDOCK:    0.00 KCAL/MOL
REMARK 927      BINDING AFFINITY PREDICTED BY RF-SCORE:    0.00 PKD
ROOT
HETATM    1  N   UNL     1     -12.318  14.139  63.389  1.00  0.00    -1.144 N  
HETATM    2  H1  UNL     1     -11.791  14.995  63.218  1.00  0.00     0.000 HD 
HETATM    3  H2  UNL     1     -12.714  13.636  62.595  1.00  0.00     0.000 HD 
HETATM    4  C   UNL     1     -12.508  13.650  64.636  1.00  0.00    -0.314 C  
HETATM    5  O   UNL     1     -13.143  12.619  64.842  1.00  0.00    -0.850 OA 
ENDROOT
BRANCH   4   6
HETATM    6  N   UNL     1     -11.935  14.383  65.625  1.00  0.00    -0.367 N  
HETATM    7  H   UNL     1     -11.153  15.010  65.438  1.00  0.00     0.000 HD 
HETATM    8  O   UNL     1     -12.469  14.238  66.923  1.00  0.00    -0.581 OA 
HETATM    9  H   UNL     1     -12.068  14.751  67.614  1.00  0.00     0.000 HD 
ENDBRANCH   4   6
TORSDOF 1
ENDMDL
MODEL       14
REMARK 921   NORMALIZED FREE ENERGY PREDICTED BY IDOCK:   -3.03 KCAL/MOL
REMARK 922        TOTAL FREE ENERGY PREDICTED BY IDOCK:   -3.21 KCAL/MOL
REMARK 923 INTER-LIGAND FREE ENERGY PREDICTED BY IDOCK:   -3.21 KCAL/MOL
REMARK 924 INTRA-LIGAND FREE ENERGY PREDICTED BY IDOCK:    0.00 KCAL/MOL
REMARK 927      BINDING AFFINITY PREDICTED BY RF-SCORE:    0.00 PKD
ROOT
HETATM    1  N   UNL     1     -13.428   9.585  70.753  1.00  0.00    -0.588 N  
HETATM    2  H1  UNL     1     -14.397   9.271  70.801  1.00  0.00     0.000 HD 
HETATM    3  H2  UNL     1     -13.138  10.175  69.973  1.00  0.00     0.000 HD 
HETATM    4  C   UNL     1     -12.515   9.244  71.691  1.00  0.00    -0.368 C  
HETATM    5  O   UNL     1     -11.348   9.623  71.633  1.00  0.00    -0.374 OA 
ENDROOT
BRANCH   4   6
HETATM    6  N   UNL     1     -12.997   8.467  72.694  1.00  0.00    -0.625 N  
HETATM    7  H   UNL     1     -12.544   7.592  72.955  1.00  0.00     0.000 HD 
HETATM    8  O   UNL     1     -14.154   8.924  73.360  1.00  0.00    -1.256 OA 
HETATM    9  H   UNL     1     -14.491   8.380  74.062  1.00  0.00     0.000 HD 
ENDBRANCH   4   6
TORSDOF 1
ENDMDL
MODEL       15
REMARK 921   NORMALIZED FREE ENERGY PREDICTED BY IDOCK:   -2.98 KCAL/MOL
REMARK 922        TOTAL FREE ENERGY PREDICTED BY IDOCK:   -3.15 KCAL/MOL
REMARK 923 INTER-LIGAND FREE ENERGY PREDICTED BY IDOCK:   -3.15 KCAL/MOL
REMARK 924 INTRA-LIGAND FREE ENERGY PREDICTED BY IDOCK:    0.00 KCAL/MOL
REMARK 927      BINDING AFFINITY PREDICTED BY RF-SCORE:    0.00 PKD
ROOT
HETATM    1  N   UNL     1     -12.356   7.408  70.678  1.00  0.00    -0.559 N  
HETATM    2  H1  UNL     1     -11.463   7.897  70.730  1.00  0.00     0.000 HD 
HETATM    3  H2  UNL     1     -12.531   6.784  69.890  1.00  0.00     0.000 HD 
HETATM    4  C   UNL     1     -13.314   7.559  71.620  1.00  0.00    -0.358 C  
HETATM    5  O   UNL     1     -14.389   6.969  71.558  1.00  0.00    -0.362 OA 
ENDROOT
BRANCH   4   6
HETATM    6  N   UNL     1     -12.983   8.399  72.634  1.00  0.00    -0.621 N  
HETATM    7  H   UNL     1     -12.010   8.616  72.851  1.00  0.00     0.000 HD 
HETATM    8  O   UNL     1     -14.045   8.960  73.375  1.00  0.00    -1.256 OA 
HETATM    9  H   UNL     1     -13.813   9.548  74.084  1.00  0.00     0.000 HD 
ENDBRANCH   4   6
TORSDOF 1
ENDMDL
MODEL       16
REMARK 921   NORMALIZED FREE ENERGY PREDICTED BY IDOCK:   -2.96 KCAL/MOL
REMARK 922        TOTAL FREE ENERGY PREDICTED BY IDOCK:   -3.13 KCAL/MOL
REMARK 923 INTER-LIGAND FREE ENERGY PREDICTED BY IDOCK:   -3.13 KCAL/MOL
REMARK 924 INTRA-LIGAND FREE ENERGY PREDICTED BY IDOCK:    0.00 KCAL/MOL
REMARK 927      BINDING AFFINITY PREDICTED BY RF-SCORE:    0.00 PKD
ROOT
HETATM    1  N   UNL     1     -12.204  14.829  72.101  1.00  0.00    -0.336 N  
HETATM    2  H1  UNL     1     -11.646  15.678  72.192  1.00  0.00     0.000 HD 
HETATM    3  H2  UNL     1     -11.806  14.027  71.612  1.00  0.00     0.000 HD 
HETATM    4  C   UNL     1     -13.455  14.735  72.607  1.00  0.00    -0.471 C  
HETATM    5  O   UNL     1     -14.127  13.713  72.496  1.00  0.00    -0.712 OA 
ENDROOT
BRANCH   4   6
HETATM    6  N   UNL     1     -13.892  15.848  73.248  1.00  0.00    -0.671 N  
HETATM    7  H   UNL     1     -14.761  16.311  72.979  1.00  0.00     0.000 HD 
HETATM    8  O   UNL     1     -13.093  16.338  74.302  1.00  0.00    -0.944 OA 
HETATM    9  H   UNL     1     -13.399  17.117  74.751  1.00  0.00     0.000 HD 
ENDBRANCH   4   6
TORSDOF 1
ENDMDL
MODEL       17
REMARK 921   NORMALIZED FREE ENERGY PREDICTED BY IDOCK:   -2.96 KCAL/MOL
REMARK 922        TOTAL FREE ENERGY PREDICTED BY IDOCK:   -3.13 KCAL/MOL
REMARK 923 INTER-LIGAND FREE ENERGY PREDICTED BY IDOCK:   -3.13 KCAL/MOL
REMARK 924 INTRA-LIGAND FREE ENERGY PREDICTED BY IDOCK:    0.00 KCAL/MOL
REMARK 927      BINDING AFFINITY PREDICTED BY RF-SCORE:    0.00 PKD
ROOT
HETATM    1  N   UNL     1     -13.884  13.734  72.418  1.00  0.00    -0.566 N  
HETATM    2  H1  UNL     1     -14.135  13.070  71.686  1.00  0.00     0.000 HD 
HETATM    3  H2  UNL     1     -13.637  13.380  73.342  1.00  0.00     0.000 HD 
HETATM    4  C   UNL     1     -13.866  15.070  72.202  1.00  0.00    -0.479 C  
HETATM    5  O   UNL     1     -13.563  15.869  73.083  1.00  0.00    -0.580 OA 
ENDROOT
BRANCH   4   6
HETATM    6  N   UNL     1     -14.197  15.443  70.939  1.00  0.00    -0.857 N  
HETATM    7  H   UNL     1     -15.169  15.481  70.633  1.00  0.00     0.000 HD 
HETATM    8  O   UNL     1     -13.138  15.777  70.070  1.00  0.00    -0.648 OA 
HETATM    9  H   UNL     1     -13.370  16.039  69.186  1.00  0.00     0.000 HD 
ENDBRANCH   4   6
TORSDOF 1
ENDMDL
MODEL       18
REMARK 921   NORMALIZED FREE ENERGY PREDICTED BY IDOCK:   -2.95 KCAL/MOL
REMARK 922        TOTAL FREE ENERGY PREDICTED BY IDOCK:   -3.12 KCAL/MOL
REMARK 923 INTER-LIGAND FREE ENERGY PREDICTED BY IDOCK:   -3.12 KCAL/MOL
REMARK 924 INTRA-LIGAND FREE ENERGY PREDICTED BY IDOCK:    0.00 KCAL/MOL
REMARK 927      BINDING AFFINITY PREDICTED BY RF-SCORE:    0.00 PKD
ROOT
HETATM    1  N   UNL     1      -8.978  11.570  63.138  1.00  0.00    -0.524 N  
HETATM    2  H1  UNL     1      -8.804  10.681  62.670  1.00  0.00     0.000 HD 
HETATM    3  H2  UNL     1      -8.183  12.150  63.408  1.00  0.00     0.000 HD 
HETATM    4  C   UNL     1     -10.229  12.005  63.412  1.00  0.00    -0.426 C  
HETATM    5  O   UNL     1     -10.438  13.076  63.975  1.00  0.00    -0.418 OA 
ENDROOT
BRANCH   4   6
HETATM    6  N   UNL     1     -11.220  11.171  63.005  1.00  0.00    -0.778 N  
HETATM    7  H   UNL     1     -11.026  10.209  62.728  1.00  0.00     0.000 HD 
HETATM    8  O   UNL     1     -12.530  11.694  62.984  1.00  0.00    -0.972 OA 
HETATM    9  H   UNL     1     -13.223  11.110  62.699  1.00  0.00     0.000 HD 
ENDBRANCH   4   6
TORSDOF 1
ENDMDL
MODEL       19
REMARK 921   NORMALIZED FREE ENERGY PREDICTED BY IDOCK:   -2.92 KCAL/MOL
REMARK 922        TOTAL FREE ENERGY PREDICTED BY IDOCK:   -3.09 KCAL/MOL
REMARK 923 INTER-LIGAND FREE ENERGY PREDICTED BY IDOCK:   -3.09 KCAL/MOL
REMARK 924 INTRA-LIGAND FREE ENERGY PREDICTED BY IDOCK:    0.00 KCAL/MOL
REMARK 927      BINDING AFFINITY PREDICTED BY RF-SCORE:    0.00 PKD
ROOT
HETATM    1  N   UNL     1     -10.722  13.135  65.078  1.00  0.00    -0.309 N  
HETATM    2  H1  UNL     1     -11.286  13.761  65.653  1.00  0.00     0.000 HD 
HETATM    3  H2  UNL     1      -9.871  12.735  65.473  1.00  0.00     0.000 HD 
HETATM    4  C   UNL     1     -11.068  12.819  63.810  1.00  0.00    -0.427 C  
HETATM    5  O   UNL     1     -10.389  12.065  63.118  1.00  0.00    -0.404 OA 
ENDROOT
BRANCH   4   6
HETATM    6  N   UNL     1     -12.221  13.390  63.378  1.00  0.00    -0.910 N  
HETATM    7  H   UNL     1     -12.882  12.880  62.792  1.00  0.00     0.000 HD 
HETATM    8  O   UNL     1     -12.465  14.722  63.775  1.00  0.00    -1.045 OA 
HETATM    9  H   UNL     1     -13.272  15.122  63.473  1.00  0.00     0.000 HD 
ENDBRANCH   4   6
TORSDOF 1
ENDMDL
MODEL       20
REMARK 921   NORMALIZED FREE ENERGY PREDICTED BY IDOCK:   -2.92 KCAL/MOL
REMARK 922        TOTAL FREE ENERGY PREDICTED BY IDOCK:   -3.09 KCAL/MOL
REMARK 923 INTER-LIGAND FREE ENERGY PREDICTED BY IDOCK:   -3.09 KCAL/MOL
REMARK 924 INTRA-LIGAND FREE ENERGY PREDICTED BY IDOCK:    0.00 KCAL/MOL
REMARK 927      BINDING AFFINITY PREDICTED BY RF-SCORE:    0.00 PKD
ROOT
HETATM    1  N   UNL     1     -12.070  14.097  66.880  1.00  0.00    -0.468 N  
HETATM    2  H1  UNL     1     -11.777  15.051  67.090  1.00  0.00     0.000 HD 
HETATM    3  H2  UNL     1     -12.375  13.495  67.645  1.00  0.00     0.000 HD 
HETATM    4  C   UNL     1     -12.068  13.607  65.620  1.00  0.00    -0.425 C  
HETATM    5  O   UNL     1     -12.421  12.458  65.367  1.00  0.00    -0.637 OA 
ENDROOT
BRANCH   4   6
HETATM    6  N   UNL     1     -11.658  14.486  64.670  1.00  0.00    -0.469 N  
HETATM    7  H   UNL     1     -10.829  15.065  64.803  1.00  0.00     0.000 HD 
HETATM    8  O   UNL     1     -12.429  14.563  63.492  1.00  0.00    -1.089 OA 
HETATM    9  H   UNL     1     -12.141  15.179  62.827  1.00  0.00     0.000 HD 
ENDBRANCH   4   6
TORSDOF 1
ENDMDL
MODEL       21
REMARK 921   NORMALIZED FREE ENERGY PREDICTED BY IDOCK:   -2.90 KCAL/MOL
REMARK 922        TOTAL FREE ENERGY PREDICTED BY IDOCK:   -3.07 KCAL/MOL
REMARK 923 INTER-LIGAND FREE ENERGY PREDICTED BY IDOCK:   -3.07 KCAL/MOL
REMARK 924 INTRA-LIGAND FREE ENERGY PREDICTED BY IDOCK:    0.00 KCAL/MOL
REMARK 927      BINDING AFFINITY PREDICTED BY RF-SCORE:    0.00 PKD
ROOT
HETATM    1  N   UNL     1     -12.621   7.133  70.709  1.00  0.00    -0.600 N  
HETATM    2  H1  UNL     1     -13.428   7.042  70.091  1.00  0.00     0.000 HD 
HETATM    3  H2  UNL     1     -11.753   6.661  70.458  1.00  0.00     0.000 HD 
HETATM    4  C   UNL     1     -12.667   7.860  71.848  1.00  0.00    -0.316 C  
HETATM    5  O   UNL     1     -11.695   7.970  72.591  1.00  0.00    -0.388 OA 
ENDROOT
BRANCH   4   6
HETATM    6  N   UNL     1     -13.861   8.459  72.090  1.00  0.00    -0.511 N  
HETATM    7  H   UNL     1     -14.555   8.582  71.352  1.00  0.00     0.000 HD 
HETATM    8  O   UNL     1     -14.101   8.903  73.408  1.00  0.00    -1.256 OA 
HETATM    9  H   UNL     1     -14.937   9.321  73.577  1.00  0.00     0.000 HD 
ENDBRANCH   4   6
TORSDOF 1
ENDMDL
MODEL       22
REMARK 921   NORMALIZED FREE ENERGY PREDICTED BY IDOCK:   -2.77 KCAL/MOL
REMARK 922        TOTAL FREE ENERGY PREDICTED BY IDOCK:   -2.94 KCAL/MOL
REMARK 923 INTER-LIGAND FREE ENERGY PREDICTED BY IDOCK:   -2.94 KCAL/MOL
REMARK 924 INTRA-LIGAND FREE ENERGY PREDICTED BY IDOCK:    0.00 KCAL/MOL
REMARK 927      BINDING AFFINITY PREDICTED BY RF-SCORE:    0.00 PKD
ROOT
HETATM    1  N   UNL     1     -13.876   8.892  72.964  1.00  0.00    -0.907 N  
HETATM    2  H1  UNL     1     -13.957   7.876  72.948  1.00  0.00     0.000 HD 
HETATM    3  H2  UNL     1     -14.257   9.405  73.760  1.00  0.00     0.000 HD 
HETATM    4  C   UNL     1     -13.281   9.582  71.964  1.00  0.00    -0.452 C  
HETATM    5  O   UNL     1     -13.184  10.806  71.984  1.00  0.00    -0.484 OA 
ENDROOT
BRANCH   4   6
HETATM    6  N   UNL     1     -12.797   8.812  70.955  1.00  0.00    -0.499 N  
HETATM    7  H   UNL     1     -12.100   9.167  70.302  1.00  0.00     0.000 HD 
HETATM    8  O   UNL     1     -13.303   7.499  70.852  1.00  0.00    -0.594 OA 
HETATM    9  H   UNL     1     -12.963   6.960  70.146  1.00  0.00     0.000 HD 
ENDBRANCH   4   6
TORSDOF 1
ENDMDL
MODEL       23
REMARK 921   NORMALIZED FREE ENERGY PREDICTED BY IDOCK:   -2.71 KCAL/MOL
REMARK 922        TOTAL FREE ENERGY PREDICTED BY IDOCK:   -2.87 KCAL/MOL
REMARK 923 INTER-LIGAND FREE ENERGY PREDICTED BY IDOCK:   -2.87 KCAL/MOL
REMARK 924 INTRA-LIGAND FREE ENERGY PREDICTED BY IDOCK:    0.00 KCAL/MOL
REMARK 927      BINDING AFFINITY PREDICTED BY RF-SCORE:    0.00 PKD
ROOT
HETATM    1  N   UNL     1     -13.716   8.948  72.726  1.00  0.00    -0.862 N  
HETATM    2  H1  UNL     1     -13.831   7.971  72.455  1.00  0.00     0.000 HD 
HETATM    3  H2  UNL     1     -13.936   9.223  73.683  1.00  0.00     0.000 HD 
HETATM    4  C   UNL     1     -13.279   9.888  71.857  1.00  0.00    -0.458 C  
HETATM    5  O   UNL     1     -13.140  11.063  72.184  1.00  0.00    -0.460 OA 
ENDROOT
BRANCH   4   6
HETATM    6  N   UNL     1     -13.002   9.423  70.612  1.00  0.00    -0.518 N  
HETATM    7  H   UNL     1     -13.101   8.435  70.378  1.00  0.00     0.000 HD 
HETATM    8  O   UNL     1     -12.569  10.366  69.657  1.00  0.00    -0.576 OA 
HETATM    9  H   UNL     1     -12.375  10.041  68.786  1.00  0.00     0.000 HD 
ENDBRANCH   4   6
TORSDOF 1
ENDMDL
MODEL       24
REMARK 921   NORMALIZED FREE ENERGY PREDICTED BY IDOCK:   -2.70 KCAL/MOL
REMARK 922        TOTAL FREE ENERGY PREDICTED BY IDOCK:   -2.86 KCAL/MOL
REMARK 923 INTER-LIGAND FREE ENERGY PREDICTED BY IDOCK:   -2.86 KCAL/MOL
REMARK 924 INTRA-LIGAND FREE ENERGY PREDICTED BY IDOCK:    0.00 KCAL/MOL
REMARK 927      BINDING AFFINITY PREDICTED BY RF-SCORE:    0.00 PKD
ROOT
HETATM    1  N   UNL     1     -11.428   9.488  71.543  1.00  0.00    -0.391 N  
HETATM    2  H1  UNL     1     -11.958  10.043  70.871  1.00  0.00     0.000 HD 
HETATM    3  H2  UNL     1     -10.417   9.607  71.592  1.00  0.00     0.000 HD 
HETATM    4  C   UNL     1     -12.025   8.601  72.372  1.00  0.00    -0.340 C  
HETATM    5  O   UNL     1     -11.386   7.934  73.181  1.00  0.00    -0.361 OA 
ENDROOT
BRANCH   4   6
HETATM    6  N   UNL     1     -13.374   8.522  72.240  1.00  0.00    -0.512 N  
HETATM    7  H   UNL     1     -13.806   8.159  71.390  1.00  0.00     0.000 HD 
HETATM    8  O   UNL     1     -14.152   8.965  73.330  1.00  0.00    -1.256 OA 
HETATM    9  H   UNL     1     -15.096   8.909  73.238  1.00  0.00     0.000 HD 
ENDBRANCH   4   6
TORSDOF 1
ENDMDL
MODEL       25
REMARK 921   NORMALIZED FREE ENERGY PREDICTED BY IDOCK:   -2.70 KCAL/MOL
REMARK 922        TOTAL FREE ENERGY PREDICTED BY IDOCK:   -2.86 KCAL/MOL
REMARK 923 INTER-LIGAND FREE ENERGY PREDICTED BY IDOCK:   -2.86 KCAL/MOL
REMARK 924 INTRA-LIGAND FREE ENERGY PREDICTED BY IDOCK:    0.00 KCAL/MOL
REMARK 927      BINDING AFFINITY PREDICTED BY RF-SCORE:    0.00 PKD
ROOT
HETATM    1  N   UNL     1     -11.935  10.506  71.131  1.00  0.00    -0.353 N  
HETATM    2  H1  UNL     1     -11.623   9.589  70.812  1.00  0.00     0.000 HD 
HETATM    3  H2  UNL     1     -11.375  11.327  70.899  1.00  0.00     0.000 HD 
HETATM    4  C   UNL     1     -13.069  10.668  71.850  1.00  0.00    -0.458 C  
HETATM    5  O   UNL     1     -13.445  11.773  72.233  1.00  0.00    -0.423 OA 
ENDROOT
BRANCH   4   6
HETATM    6  N   UNL     1     -13.751   9.521  72.099  1.00  0.00    -0.451 N  
HETATM    7  H   UNL     1     -14.213   9.003  71.352  1.00  0.00     0.000 HD 
HETATM    8  O   UNL     1     -13.792   9.077  73.437  1.00  0.00    -1.173 OA 
HETATM    9  H   UNL     1     -14.269   8.274  73.611  1.00  0.00     0.000 HD 
ENDBRANCH   4   6
TORSDOF 1
ENDMDL
MODEL       26
REMARK 921   NORMALIZED FREE ENERGY PREDICTED BY IDOCK:   -2.69 KCAL/MOL
REMARK 922        TOTAL FREE ENERGY PREDICTED BY IDOCK:   -2.85 KCAL/MOL
REMARK 923 INTER-LIGAND FREE ENERGY PREDICTED BY IDOCK:   -2.85 KCAL/MOL
REMARK 924 INTRA-LIGAND FREE ENERGY PREDICTED BY IDOCK:    0.00 KCAL/MOL
REMARK 927      BINDING AFFINITY PREDICTED BY RF-SCORE:    0.00 PKD
ROOT
HETATM    1  N   UNL     1     -10.189  13.598  64.988  1.00  0.00    -0.507 N  
HETATM    2  H1  UNL     1      -9.798  13.541  64.047  1.00  0.00     0.000 HD 
HETATM    3  H2  UNL     1      -9.746  13.071  65.740  1.00  0.00     0.000 HD 
HETATM    4  C   UNL     1     -11.277  14.352  65.268  1.00  0.00    -0.345 C  
HETATM    5  O   UNL     1     -11.748  14.420  66.400  1.00  0.00    -0.368 OA 
ENDROOT
BRANCH   4   6
HETATM    6  N   UNL     1     -11.789  15.025  64.206  1.00  0.00    -0.695 N  
HETATM    7  H   UNL     1     -11.503  15.980  63.993  1.00  0.00     0.000 HD 
HETATM    8  O   UNL     1     -12.734  14.344  63.410  1.00  0.00    -0.938 OA 
HETATM    9  H   UNL     1     -13.092  14.815  62.667  1.00  0.00     0.000 HD 
ENDBRANCH   4   6
TORSDOF 1
ENDMDL
MODEL       27
REMARK 921   NORMALIZED FREE ENERGY PREDICTED BY IDOCK:   -2.64 KCAL/MOL
REMARK 922        TOTAL FREE ENERGY PREDICTED BY IDOCK:   -2.80 KCAL/MOL
REMARK 923 INTER-LIGAND FREE ENERGY PREDICTED BY IDOCK:   -2.80 KCAL/MOL
REMARK 924 INTRA-LIGAND FREE ENERGY PREDICTED BY IDOCK:    0.00 KCAL/MOL
REMARK 927      BINDING AFFINITY PREDICTED BY RF-SCORE:    0.00 PKD
ROOT
HETATM    1  N   UNL     1     -13.881   9.054  72.953  1.00  0.00    -0.923 N  
HETATM    2  H1  UNL     1     -13.414   9.950  73.093  1.00  0.00     0.000 HD 
HETATM    3  H2  UNL     1     -14.471   8.684  73.698  1.00  0.00     0.000 HD 
HETATM    4  C   UNL     1     -13.742   8.343  71.811  1.00  0.00    -0.393 C  
HETATM    5  O   UNL     1     -14.305   7.264  71.643  1.00  0.00    -0.437 OA 
ENDROOT
BRANCH   4   6
HETATM    6  N   UNL     1     -12.947   8.922  70.876  1.00  0.00    -0.501 N  
HETATM    7  H   UNL     1     -12.034   8.534  70.639  1.00  0.00     0.000 HD 
HETATM    8  O   UNL     1     -13.439  10.085  70.247  1.00  0.00    -0.546 OA 
HETATM    9  H   UNL     1     -12.882  10.490  69.592  1.00  0.00     0.000 HD 
ENDBRANCH   4   6
TORSDOF 1
ENDMDL
MODEL       28
REMARK 921   NORMALIZED FREE ENERGY PREDICTED BY IDOCK:   -2.64 KCAL/MOL
REMARK 922        TOTAL FREE ENERGY PREDICTED BY IDOCK:   -2.80 KCAL/MOL
REMARK 923 INTER-LIGAND FREE ENERGY PREDICTED BY IDOCK:   -2.80 KCAL/MOL
REMARK 924 INTRA-LIGAND FREE ENERGY PREDICTED BY IDOCK:    0.00 KCAL/MOL
REMARK 927      BINDING AFFINITY PREDICTED BY RF-SCORE:    0.00 PKD
ROOT
HETATM    1  N   UNL     1     -13.814  15.588  70.742  1.00  0.00    -0.865 N  
HETATM    2  H1  UNL     1     -14.353  15.024  70.084  1.00  0.00     0.000 HD 
HETATM    3  H2  UNL     1     -13.341  16.425  70.403  1.00  0.00     0.000 HD 
HETATM    4  C   UNL     1     -13.709  15.260  72.050  1.00  0.00    -0.492 C  
HETATM    5  O   UNL     1     -13.060  15.939  72.842  1.00  0.00    -0.456 OA 
ENDROOT
BRANCH   4   6
HETATM    6  N   UNL     1     -14.381  14.136  72.409  1.00  0.00    -0.428 N  
HETATM    7  H   UNL     1     -15.381  14.156  72.611  1.00  0.00     0.000 HD 
HETATM    8  O   UNL     1     -13.636  12.941  72.490  1.00  0.00    -0.558 OA 
HETATM    9  H   UNL     1     -14.108  12.155  72.740  1.00  0.00     0.000 HD 
ENDBRANCH   4   6
TORSDOF 1
ENDMDL
MODEL       29
REMARK 921   NORMALIZED FREE ENERGY PREDICTED BY IDOCK:   -2.60 KCAL/MOL
REMARK 922        TOTAL FREE ENERGY PREDICTED BY IDOCK:   -2.75 KCAL/MOL
REMARK 923 INTER-LIGAND FREE ENERGY PREDICTED BY IDOCK:   -2.75 KCAL/MOL
REMARK 924 INTRA-LIGAND FREE ENERGY PREDICTED BY IDOCK:    0.00 KCAL/MOL
REMARK 927      BINDING AFFINITY PREDICTED BY RF-SCORE:    0.00 PKD
ROOT
HETATM    1  N   UNL     1     -10.869  18.761  67.258  1.00  0.00    -0.419 N  
HETATM    2  H1  UNL     1     -10.603  19.386  68.019  1.00  0.00     0.000 HD 
HETATM    3  H2  UNL     1     -11.306  17.867  67.483  1.00  0.00     0.000 HD 
HETATM    4  C   UNL     1     -10.660  19.079  65.960  1.00  0.00    -0.423 C  
HETATM    5  O   UNL     1     -10.980  18.326  65.045  1.00  0.00    -0.684 OA 
ENDROOT
BRANCH   4   6
HETATM    6  N   UNL     1     -10.083  20.292  65.761  1.00  0.00    -0.555 N  
HETATM    7  H   UNL     1     -10.128  20.761  64.856  1.00  0.00     0.000 HD 
HETATM    8  O   UNL     1      -9.418  20.875  66.860  1.00  0.00    -0.670 OA 
HETATM    9  H   UNL     1      -9.015  21.724  66.720  1.00  0.00     0.000 HD 
ENDBRANCH   4   6
TORSDOF 1
ENDMDL
MODEL       30
REMARK 921   NORMALIZED FREE ENERGY PREDICTED BY IDOCK:   -2.54 KCAL/MOL
REMARK 922        TOTAL FREE ENERGY PREDICTED BY IDOCK:   -2.69 KCAL/MOL
REMARK 923 INTER-LIGAND FREE ENERGY PREDICTED BY IDOCK:   -2.69 KCAL/MOL
REMARK 924 INTRA-LIGAND FREE ENERGY PREDICTED BY IDOCK:    0.00 KCAL/MOL
REMARK 927      BINDING AFFINITY PREDICTED BY RF-SCORE:    0.00 PKD
ROOT
HETATM    1  N   UNL     1     -11.651  12.918  70.405  1.00  0.00    -0.506 N  
HETATM    2  H1  UNL     1     -11.133  13.313  69.620  1.00  0.00     0.000 HD 
HETATM    3  H2  UNL     1     -11.379  12.004  70.765  1.00  0.00     0.000 HD 
HETATM    4  C   UNL     1     -12.686  13.569  70.982  1.00  0.00    -0.322 C  
HETATM    5  O   UNL     1     -13.309  13.093  71.928  1.00  0.00    -0.435 OA 
ENDROOT
BRANCH   4   6
HETATM    6  N   UNL     1     -12.966  14.782  70.441  1.00  0.00    -0.580 N  
HETATM    7  H   UNL     1     -12.295  15.266  69.844  1.00  0.00     0.000 HD 
HETATM    8  O   UNL     1     -14.225  15.343  70.739  1.00  0.00    -0.844 OA 
HETATM    9  H   UNL     1     -14.421  16.192  70.359  1.00  0.00     0.000 HD 
ENDBRANCH   4   6
TORSDOF 1
ENDMDL
MODEL       31
REMARK 921   NORMALIZED FREE ENERGY PREDICTED BY IDOCK:   -2.52 KCAL/MOL
REMARK 922        TOTAL FREE ENERGY PREDICTED BY IDOCK:   -2.66 KCAL/MOL
REMARK 923 INTER-LIGAND FREE ENERGY PREDICTED BY IDOCK:   -2.66 KCAL/MOL
REMARK 924 INTRA-LIGAND FREE ENERGY PREDICTED BY IDOCK:    0.00 KCAL/MOL
REMARK 927      BINDING AFFINITY PREDICTED BY RF-SCORE:    0.00 PKD
ROOT
HETATM    1  N   UNL     1     -10.402  19.950  68.990  1.00  0.00    -0.599 N  
HETATM    2  H1  UNL     1     -10.038  20.831  69.352  1.00  0.00     0.000 HD 
HETATM    3  H2  UNL     1     -10.776  19.264  69.645  1.00  0.00     0.000 HD 
HETATM    4  C   UNL     1     -10.405  19.663  67.668  1.00  0.00    -0.451 C  
HETATM    5  O   UNL     1     -10.844  18.602  67.232  1.00  0.00    -0.426 OA 
ENDROOT
BRANCH   4   6
HETATM    6  N   UNL     1      -9.898  20.642  66.875  1.00  0.00    -0.609 N  
HETATM    7  H   UNL     1     -10.202  21.611  66.965  1.00  0.00     0.000 HD 
HETATM    8  O   UNL     1      -8.932  20.258  65.921  1.00  0.00    -0.580 OA 
HETATM    9  H   UNL     1      -8.577  20.943  65.367  1.00  0.00     0.000 HD 
ENDBRANCH   4   6
TORSDOF 1
ENDMDL
MODEL       32
REMARK 921   NORMALIZED FREE ENERGY PREDICTED BY IDOCK:   -2.52 KCAL/MOL
REMARK 922        TOTAL FREE ENERGY PREDICTED BY IDOCK:   -2.66 KCAL/MOL
REMARK 923 INTER-LIGAND FREE ENERGY PREDICTED BY IDOCK:   -2.66 KCAL/MOL
REMARK 924 INTRA-LIGAND FREE ENERGY PREDICTED BY IDOCK:    0.00 KCAL/MOL
REMARK 927      BINDING AFFINITY PREDICTED BY RF-SCORE:    0.00 PKD
ROOT
HETATM    1  N   UNL     1     -13.356  11.582  72.198  1.00  0.00    -0.562 N  
HETATM    2  H1  UNL     1     -12.677  11.056  71.648  1.00  0.00     0.000 HD 
HETATM    3  H2  UNL     1     -13.990  11.075  72.816  1.00  0.00     0.000 HD 
HETATM    4  C   UNL     1     -13.443  12.930  72.133  1.00  0.00    -0.522 C  
HETATM    5  O   UNL     1     -14.261  13.563  72.795  1.00  0.00    -0.692 OA 
ENDROOT
BRANCH   4   6
HETATM    6  N   UNL     1     -12.552  13.515  71.292  1.00  0.00    -0.358 N  
HETATM    7  H   UNL     1     -12.503  14.529  71.189  1.00  0.00     0.000 HD 
HETATM    8  O   UNL     1     -11.697  12.659  70.567  1.00  0.00    -0.529 OA 
HETATM    9  H   UNL     1     -11.073  13.069  69.979  1.00  0.00     0.000 HD 
ENDBRANCH   4   6
TORSDOF 1
ENDMDL
MODEL       33
REMARK 921   NORMALIZED FREE ENERGY PREDICTED BY IDOCK:   -2.46 KCAL/MOL
REMARK 922        TOTAL FREE ENERGY PREDICTED BY IDOCK:   -2.61 KCAL/MOL
REMARK 923 INTER-LIGAND FREE ENERGY PREDICTED BY IDOCK:   -2.61 KCAL/MOL
REMARK 924 INTRA-LIGAND FREE ENERGY PREDICTED BY IDOCK:    0.00 KCAL/MOL
REMARK 927      BINDING AFFINITY PREDICTED BY RF-SCORE:    0.00 PKD
ROOT
HETATM    1  N   UNL     1     -13.684  15.260  70.591  1.00  0.00    -0.772 N  
HETATM    2  H1  UNL     1     -14.403  15.601  69.954  1.00  0.00     0.000 HD 
HETATM    3  H2  UNL     1     -13.955  14.963  71.528  1.00  0.00     0.000 HD 
HETATM    4  C   UNL     1     -12.381  15.190  70.233  1.00  0.00    -0.352 C  
HETATM    5  O   UNL     1     -11.515  14.779  71.000  1.00  0.00    -0.286 OA 
ENDROOT
BRANCH   4   6
HETATM    6  N   UNL     1     -12.120  15.597  68.964  1.00  0.00    -0.583 N  
HETATM    7  H   UNL     1     -11.760  16.531  68.768  1.00  0.00     0.000 HD 
HETATM    8  O   UNL     1     -12.370  14.671  67.929  1.00  0.00    -0.614 OA 
HETATM    9  H   UNL     1     -12.187  14.956  67.041  1.00  0.00     0.000 HD 
ENDBRANCH   4   6
TORSDOF 1
ENDMDL
MODEL       34
REMARK 921   NORMALIZED FREE ENERGY PREDICTED BY IDOCK:   -2.45 KCAL/MOL
REMARK 922        TOTAL FREE ENERGY PREDICTED BY IDOCK:   -2.60 KCAL/MOL
REMARK 923 INTER-LIGAND FREE ENERGY PREDICTED BY IDOCK:   -2.60 KCAL/MOL
REMARK 924 INTRA-LIGAND FREE ENERGY PREDICTED BY IDOCK:    0.00 KCAL/MOL
REMARK 927      BINDING AFFINITY PREDICTED BY RF-SCORE:    0.00 PKD
ROOT
HETATM    1  N   UNL     1     -11.184   4.347  64.998  1.00  0.00    -0.928 N  
HETATM    2  H1  UNL     1     -11.865   4.894  64.472  1.00  0.00     0.000 HD 
HETATM    3  H2  UNL     1     -10.897   3.437  64.637  1.00  0.00     0.000 HD 
HETATM    4  C   UNL     1     -10.650   4.790  66.159  1.00  0.00    -0.234 C  
HETATM    5  O   UNL     1      -9.830   4.130  66.793  1.00  0.00    -0.216 OA 
ENDROOT
BRANCH   4   6
HETATM    6  N   UNL     1     -11.085   6.014  66.552  1.00  0.00    -0.761 N  
HETATM    7  H   UNL     1     -12.018   6.148  66.941  1.00  0.00     0.000 HD 
HETATM    8  O   UNL     1     -10.188   7.093  66.400  1.00  0.00    -0.457 OA 
HETATM    9  H   UNL     1     -10.493   7.950  66.675  1.00  0.00     0.000 HD 
ENDBRANCH   4   6
TORSDOF 1
ENDMDL
MODEL       35
REMARK 921   NORMALIZED FREE ENERGY PREDICTED BY IDOCK:   -2.43 KCAL/MOL
REMARK 922        TOTAL FREE ENERGY PREDICTED BY IDOCK:   -2.58 KCAL/MOL
REMARK 923 INTER-LIGAND FREE ENERGY PREDICTED BY IDOCK:   -2.58 KCAL/MOL
REMARK 924 INTRA-LIGAND FREE ENERGY PREDICTED BY IDOCK:    0.00 KCAL/MOL
REMARK 927      BINDING AFFINITY PREDICTED BY RF-SCORE:    0.00 PKD
ROOT
HETATM    1  N   UNL     1     -11.905  14.319  71.243  1.00  0.00    -0.473 N  
HETATM    2  H1  UNL     1     -12.421  13.700  71.868  1.00  0.00     0.000 HD 
HETATM    3  H2  UNL     1     -10.898  14.191  71.142  1.00  0.00     0.000 HD 
HETATM    4  C   UNL     1     -12.514  15.305  70.545  1.00  0.00    -0.405 C  
HETATM    5  O   UNL     1     -11.893  16.051  69.793  1.00  0.00    -0.312 OA 
ENDROOT
BRANCH   4   6
HETATM    6  N   UNL     1     -13.855  15.389  70.738  1.00  0.00    -0.860 N  
HETATM    7  H   UNL     1     -14.500  15.498  69.955  1.00  0.00     0.000 HD 
HETATM    8  O   UNL     1     -14.318  15.320  72.069  1.00  0.00    -0.526 OA 
HETATM    9  H   UNL     1     -15.257  15.379  72.203  1.00  0.00     0.000 HD 
ENDBRANCH   4   6
TORSDOF 1
ENDMDL
MODEL       36
REMARK 921   NORMALIZED FREE ENERGY PREDICTED BY IDOCK:   -2.41 KCAL/MOL
REMARK 922        TOTAL FREE ENERGY PREDICTED BY IDOCK:   -2.55 KCAL/MOL
REMARK 923 INTER-LIGAND FREE ENERGY PREDICTED BY IDOCK:   -2.55 KCAL/MOL
REMARK 924 INTRA-LIGAND FREE ENERGY PREDICTED BY IDOCK:    0.00 KCAL/MOL
REMARK 927      BINDING AFFINITY PREDICTED BY RF-SCORE:    0.00 PKD
ROOT
HETATM    1  N   UNL     1     -11.896  11.737  63.291  1.00  0.00    -0.849 N  
HETATM    2  H1  UNL     1     -12.702  12.227  63.678  1.00  0.00     0.000 HD 
HETATM    3  H2  UNL     1     -12.049  10.886  62.750  1.00  0.00     0.000 HD 
HETATM    4  C   UNL     1     -10.631  12.180  63.473  1.00  0.00    -0.458 C  
HETATM    5  O   UNL     1      -9.660  11.589  63.007  1.00  0.00    -0.374 OA 
ENDROOT
BRANCH   4   6
HETATM    6  N   UNL     1     -10.530  13.324  64.196  1.00  0.00    -0.558 N  
HETATM    7  H   UNL     1      -9.686  13.896  64.173  1.00  0.00     0.000 HD 
HETATM    8  O   UNL     1     -11.644  13.686  64.982  1.00  0.00    -0.315 OA 
HETATM    9  H   UNL     1     -11.573  14.488  65.488  1.00  0.00     0.000 HD 
ENDBRANCH   4   6
TORSDOF 1
ENDMDL
MODEL       37
REMARK 921   NORMALIZED FREE ENERGY PREDICTED BY IDOCK:   -2.39 KCAL/MOL
REMARK 922        TOTAL FREE ENERGY PREDICTED BY IDOCK:   -2.53 KCAL/MOL
REMARK 923 INTER-LIGAND FREE ENERGY PREDICTED BY IDOCK:   -2.53 KCAL/MOL
REMARK 924 INTRA-LIGAND FREE ENERGY PREDICTED BY IDOCK:    0.00 KCAL/MOL
REMARK 927      BINDING AFFINITY PREDICTED BY RF-SCORE:    0.00 PKD
ROOT
HETATM    1  N   UNL     1      -9.365  20.690  66.517  1.00  0.00    -0.630 N  
HETATM    2  H1  UNL     1     -10.275  21.064  66.786  1.00  0.00     0.000 HD 
HETATM    3  H2  UNL     1      -8.564  21.320  66.482  1.00  0.00     0.000 HD 
HETATM    4  C   UNL     1      -9.188  19.385  66.207  1.00  0.00    -0.348 C  
HETATM    5  O   UNL     1      -8.092  18.935  65.884  1.00  0.00    -0.468 OA 
ENDROOT
BRANCH   4   6
HETATM    6  N   UNL     1     -10.310  18.625  66.294  1.00  0.00    -0.428 N  
HETATM    7  H   UNL     1     -10.751  18.426  67.192  1.00  0.00     0.000 HD 
HETATM    8  O   UNL     1     -10.838  18.122  65.086  1.00  0.00    -0.658 OA 
HETATM    9  H   UNL     1     -11.623  17.590  65.147  1.00  0.00     0.000 HD 
ENDBRANCH   4   6
TORSDOF 1
ENDMDL
MODEL       38
REMARK 921   NORMALIZED FREE ENERGY PREDICTED BY IDOCK:   -2.39 KCAL/MOL
REMARK 922        TOTAL FREE ENERGY PREDICTED BY IDOCK:   -2.53 KCAL/MOL
REMARK 923 INTER-LIGAND FREE ENERGY PREDICTED BY IDOCK:   -2.53 KCAL/MOL
REMARK 924 INTRA-LIGAND FREE ENERGY PREDICTED BY IDOCK:    0.00 KCAL/MOL
REMARK 927      BINDING AFFINITY PREDICTED BY RF-SCORE:    0.00 PKD
ROOT
HETATM    1  N   UNL     1     -12.861  14.833  69.668  1.00  0.00    -0.525 N  
HETATM    2  H1  UNL     1     -12.025  15.161  69.185  1.00  0.00     0.000 HD 
HETATM    3  H2  UNL     1     -13.466  14.155  69.203  1.00  0.00     0.000 HD 
HETATM    4  C   UNL     1     -13.194  15.268  70.905  1.00  0.00    -0.450 C  
HETATM    5  O   UNL     1     -14.201  14.872  71.486  1.00  0.00    -0.450 OA 
ENDROOT
BRANCH   4   6
HETATM    6  N   UNL     1     -12.323  16.159  71.444  1.00  0.00    -0.583 N  
HETATM    7  H   UNL     1     -12.371  16.420  72.429  1.00  0.00     0.000 HD 
HETATM    8  O   UNL     1     -11.351  16.708  70.583  1.00  0.00    -0.518 OA 
HETATM    9  H   UNL     1     -10.741  17.331  70.961  1.00  0.00     0.000 HD 
ENDBRANCH   4   6
TORSDOF 1
ENDMDL
MODEL       39
REMARK 921   NORMALIZED FREE ENERGY PREDICTED BY IDOCK:   -2.38 KCAL/MOL
REMARK 922        TOTAL FREE ENERGY PREDICTED BY IDOCK:   -2.52 KCAL/MOL
REMARK 923 INTER-LIGAND FREE ENERGY PREDICTED BY IDOCK:   -2.52 KCAL/MOL
REMARK 924 INTRA-LIGAND FREE ENERGY PREDICTED BY IDOCK:    0.00 KCAL/MOL
REMARK 927      BINDING AFFINITY PREDICTED BY RF-SCORE:    0.00 PKD
ROOT
HETATM    1  N   UNL     1     -10.400  10.229  70.222  1.00  0.00    -0.437 N  
HETATM    2  H1  UNL     1     -10.306  10.673  69.309  1.00  0.00     0.000 HD 
HETATM    3  H2  UNL     1      -9.558  10.023  70.759  1.00  0.00     0.000 HD 
HETATM    4  C   UNL     1     -11.605   9.906  70.743  1.00  0.00    -0.349 C  
HETATM    5  O   UNL     1     -11.718   9.371  71.843  1.00  0.00    -0.374 OA 
ENDROOT
BRANCH   4   6
HETATM    6  N   UNL     1     -12.666  10.229  69.959  1.00  0.00    -0.549 N  
HETATM    7  H   UNL     1     -13.624  10.057  70.263  1.00  0.00     0.000 HD 
HETATM    8  O   UNL     1     -12.383  10.813  68.707  1.00  0.00    -0.812 OA 
HETATM    9  H   UNL     1     -13.126  11.039  68.159  1.00  0.00     0.000 HD 
ENDBRANCH   4   6
TORSDOF 1
ENDMDL
MODEL       40
REMARK 921   NORMALIZED FREE ENERGY PREDICTED BY IDOCK:   -2.36 KCAL/MOL
REMARK 922        TOTAL FREE ENERGY PREDICTED BY IDOCK:   -2.49 KCAL/MOL
REMARK 923 INTER-LIGAND FREE ENERGY PREDICTED BY IDOCK:   -2.49 KCAL/MOL
REMARK 924 INTRA-LIGAND FREE ENERGY PREDICTED BY IDOCK:    0.00 KCAL/MOL
REMARK 927      BINDING AFFINITY PREDICTED BY RF-SCORE:    0.00 PKD
ROOT
HETATM    1  N   UNL     1     -13.313  15.514  70.602  1.00  0.00    -0.794 N  
HETATM    2  H1  UNL     1     -13.411  15.388  69.594  1.00  0.00     0.000 HD 
HETATM    3  H2  UNL     1     -13.978  16.113  71.091  1.00  0.00     0.000 HD 
HETATM    4  C   UNL     1     -12.330  14.912  71.309  1.00  0.00    -0.322 C  
HETATM    5  O   UNL     1     -12.213  15.064  72.522  1.00  0.00    -0.342 OA 
ENDROOT
BRANCH   4   6
HETATM    6  N   UNL     1     -11.502  14.128  70.573  1.00  0.00    -0.506 N  
HETATM    7  H   UNL     1     -10.721  14.522  70.048  1.00  0.00     0.000 HD 
HETATM    8  O   UNL     1     -11.768  12.743  70.567  1.00  0.00    -0.531 OA 
HETATM    9  H   UNL     1     -11.188  12.194  70.052  1.00  0.00     0.000 HD 
ENDBRANCH   4   6
TORSDOF 1
ENDMDL
MODEL       41
REMARK 921   NORMALIZED FREE ENERGY PREDICTED BY IDOCK:   -2.34 KCAL/MOL
REMARK 922        TOTAL FREE ENERGY PREDICTED BY IDOCK:   -2.47 KCAL/MOL
REMARK 923 INTER-LIGAND FREE ENERGY PREDICTED BY IDOCK:   -2.47 KCAL/MOL
REMARK 924 INTRA-LIGAND FREE ENERGY PREDICTED BY IDOCK:    0.00 KCAL/MOL
REMARK 927      BINDING AFFINITY PREDICTED BY RF-SCORE:    0.00 PKD
ROOT
HETATM    1  N   UNL     1     -12.192   9.262  70.802  1.00  0.00    -0.470 N  
HETATM    2  H1  UNL     1     -11.665   8.824  70.046  1.00  0.00     0.000 HD 
HETATM    3  H2  UNL     1     -12.532   8.680  71.568  1.00  0.00     0.000 HD 
HETATM    4  C   UNL     1     -12.454  10.589  70.821  1.00  0.00    -0.378 C  
HETATM    5  O   UNL     1     -13.088  11.115  71.732  1.00  0.00    -0.467 OA 
ENDROOT
BRANCH   4   6
HETATM    6  N   UNL     1     -11.951  11.280  69.767  1.00  0.00    -0.336 N  
HETATM    7  H   UNL     1     -11.355  12.097  69.900  1.00  0.00     0.000 HD 
HETATM    8  O   UNL     1     -12.290  10.819  68.477  1.00  0.00    -0.825 OA 
HETATM    9  H   UNL     1     -11.938  11.303  67.739  1.00  0.00     0.000 HD 
ENDBRANCH   4   6
TORSDOF 1
ENDMDL
MODEL       42
REMARK 921   NORMALIZED FREE ENERGY PREDICTED BY IDOCK:   -2.34 KCAL/MOL
REMARK 922        TOTAL FREE ENERGY PREDICTED BY IDOCK:   -2.47 KCAL/MOL
REMARK 923 INTER-LIGAND FREE ENERGY PREDICTED BY IDOCK:   -2.47 KCAL/MOL
REMARK 924 INTRA-LIGAND FREE ENERGY PREDICTED BY IDOCK:    0.00 KCAL/MOL
REMARK 927      BINDING AFFINITY PREDICTED BY RF-SCORE:    0.00 PKD
ROOT
HETATM    1  N   UNL     1     -11.019  12.545  69.293  1.00  0.00    -0.441 N  
HETATM    2  H1  UNL     1     -10.786  13.311  69.926  1.00  0.00     0.000 HD 
HETATM    3  H2  UNL     1     -10.731  11.598  69.537  1.00  0.00     0.000 HD 
HETATM    4  C   UNL     1     -11.699  12.747  68.141  1.00  0.00    -0.345 C  
HETATM    5  O   UNL     1     -11.979  11.826  67.379  1.00  0.00    -0.617 OA 
ENDROOT
BRANCH   4   6
HETATM    6  N   UNL     1     -12.049  14.039  67.909  1.00  0.00    -0.510 N  
HETATM    7  H   UNL     1     -12.100  14.415  66.962  1.00  0.00     0.000 HD 
HETATM    8  O   UNL     1     -12.339  14.837  69.035  1.00  0.00    -0.561 OA 
HETATM    9  H   UNL     1     -12.584  15.741  68.872  1.00  0.00     0.000 HD 
ENDBRANCH   4   6
TORSDOF 1
ENDMDL
MODEL       43
REMARK 921   NORMALIZED FREE ENERGY PREDICTED BY IDOCK:   -2.33 KCAL/MOL
REMARK 922        TOTAL FREE ENERGY PREDICTED BY IDOCK:   -2.47 KCAL/MOL
REMARK 923 INTER-LIGAND FREE ENERGY PREDICTED BY IDOCK:   -2.47 KCAL/MOL
REMARK 924 INTRA-LIGAND FREE ENERGY PREDICTED BY IDOCK:    0.00 KCAL/MOL
REMARK 927      BINDING AFFINITY PREDICTED BY RF-SCORE:    0.00 PKD
ROOT
HETATM    1  N   UNL     1     -11.080  11.285  62.964  1.00  0.00    -0.841 N  
HETATM    2  H1  UNL     1     -10.604  10.395  62.815  1.00  0.00     0.000 HD 
HETATM    3  H2  UNL     1     -11.967  11.455  62.491  1.00  0.00     0.000 HD 
HETATM    4  C   UNL     1     -10.571  12.245  63.769  1.00  0.00    -0.451 C  
HETATM    5  O   UNL     1     -11.144  13.316  63.948  1.00  0.00    -0.365 OA 
ENDROOT
BRANCH   4   6
HETATM    6  N   UNL     1      -9.393  11.922  64.362  1.00  0.00    -0.429 N  
HETATM    7  H   UNL     1      -9.200  12.167  65.333  1.00  0.00     0.000 HD 
HETATM    8  O   UNL     1      -8.446  11.233  63.575  1.00  0.00    -0.380 OA 
HETATM    9  H   UNL     1      -7.622  11.006  63.990  1.00  0.00     0.000 HD 
ENDBRANCH   4   6
TORSDOF 1
ENDMDL
MODEL       44
REMARK 921   NORMALIZED FREE ENERGY PREDICTED BY IDOCK:   -2.28 KCAL/MOL
REMARK 922        TOTAL FREE ENERGY PREDICTED BY IDOCK:   -2.42 KCAL/MOL
REMARK 923 INTER-LIGAND FREE ENERGY PREDICTED BY IDOCK:   -2.42 KCAL/MOL
REMARK 924 INTRA-LIGAND FREE ENERGY PREDICTED BY IDOCK:    0.00 KCAL/MOL
REMARK 927      BINDING AFFINITY PREDICTED BY RF-SCORE:    0.00 PKD
ROOT
HETATM    1  N   UNL     1     -11.955   6.889  70.052  1.00  0.00    -0.644 N  
HETATM    2  H1  UNL     1     -12.677   7.549  69.761  1.00  0.00     0.000 HD 
HETATM    3  H2  UNL     1     -11.305   6.529  69.354  1.00  0.00     0.000 HD 
HETATM    4  C   UNL     1     -11.834   6.478  71.335  1.00  0.00    -0.329 C  
HETATM    5  O   UNL     1     -10.965   5.684  71.686  1.00  0.00    -0.253 OA 
ENDROOT
BRANCH   4   6
HETATM    6  N   UNL     1     -12.737   7.020  72.192  1.00  0.00    -0.532 N  
HETATM    7  H   UNL     1     -13.711   6.718  72.201  1.00  0.00     0.000 HD 
HETATM    8  O   UNL     1     -12.269   8.022  73.068  1.00  0.00    -0.659 OA 
HETATM    9  H   UNL     1     -12.901   8.401  73.668  1.00  0.00     0.000 HD 
ENDBRANCH   4   6
TORSDOF 1
ENDMDL
MODEL       45
REMARK 921   NORMALIZED FREE ENERGY PREDICTED BY IDOCK:   -2.28 KCAL/MOL
REMARK 922        TOTAL FREE ENERGY PREDICTED BY IDOCK:   -2.41 KCAL/MOL
REMARK 923 INTER-LIGAND FREE ENERGY PREDICTED BY IDOCK:   -2.41 KCAL/MOL
REMARK 924 INTRA-LIGAND FREE ENERGY PREDICTED BY IDOCK:    0.00 KCAL/MOL
REMARK 927      BINDING AFFINITY PREDICTED BY RF-SCORE:    0.00 PKD
ROOT
HETATM    1  N   UNL     1     -13.465  15.500  70.569  1.00  0.00    -0.820 N  
HETATM    2  H1  UNL     1     -13.841  15.228  69.661  1.00  0.00     0.000 HD 
HETATM    3  H2  UNL     1     -14.111  15.664  71.341  1.00  0.00     0.000 HD 
HETATM    4  C   UNL     1     -12.138  15.649  70.782  1.00  0.00    -0.412 C  
HETATM    5  O   UNL     1     -11.685  15.975  71.875  1.00  0.00    -0.452 OA 
ENDROOT
BRANCH   4   6
HETATM    6  N   UNL     1     -11.359  15.398  69.698  1.00  0.00    -0.282 N  
HETATM    7  H   UNL     1     -11.313  16.048  68.913  1.00  0.00     0.000 HD 
HETATM    8  O   UNL     1     -10.618  14.198  69.705  1.00  0.00    -0.444 OA 
HETATM    9  H   UNL     1     -10.073  14.022  68.946  1.00  0.00     0.000 HD 
ENDBRANCH   4   6
TORSDOF 1
ENDMDL
MODEL       46
REMARK 921   NORMALIZED FREE ENERGY PREDICTED BY IDOCK:   -2.25 KCAL/MOL
REMARK 922        TOTAL FREE ENERGY PREDICTED BY IDOCK:   -2.39 KCAL/MOL
REMARK 923 INTER-LIGAND FREE ENERGY PREDICTED BY IDOCK:   -2.39 KCAL/MOL
REMARK 924 INTRA-LIGAND FREE ENERGY PREDICTED BY IDOCK:    0.00 KCAL/MOL
REMARK 927      BINDING AFFINITY PREDICTED BY RF-SCORE:    0.00 PKD
ROOT
HETATM    1  N   UNL     1     -12.070   7.153  72.478  1.00  0.00    -0.503 N  
HETATM    2  H1  UNL     1     -11.061   7.033  72.393  1.00  0.00     0.000 HD 
HETATM    3  H2  UNL     1     -12.474   7.302  73.403  1.00  0.00     0.000 HD 
HETATM    4  C   UNL     1     -12.890   7.121  71.403  1.00  0.00    -0.384 C  
HETATM    5  O   UNL     1     -14.105   7.265  71.505  1.00  0.00    -0.419 OA 
ENDROOT
BRANCH   4   6
HETATM    6  N   UNL     1     -12.260   6.928  70.216  1.00  0.00    -0.624 N  
HETATM    7  H   UNL     1     -12.451   6.110  69.638  1.00  0.00     0.000 HD 
HETATM    8  O   UNL     1     -11.328   7.910  69.817  1.00  0.00    -0.455 OA 
HETATM    9  H   UNL     1     -10.888   7.775  68.986  1.00  0.00     0.000 HD 
ENDBRANCH   4   6
TORSDOF 1
ENDMDL
MODEL       47
REMARK 921   NORMALIZED FREE ENERGY PREDICTED BY IDOCK:   -2.23 KCAL/MOL
REMARK 922        TOTAL FREE ENERGY PREDICTED BY IDOCK:   -2.36 KCAL/MOL
REMARK 923 INTER-LIGAND FREE ENERGY PREDICTED BY IDOCK:   -2.36 KCAL/MOL
REMARK 924 INTRA-LIGAND FREE ENERGY PREDICTED BY IDOCK:    0.00 KCAL/MOL
REMARK 927      BINDING AFFINITY PREDICTED BY RF-SCORE:    0.00 PKD
ROOT
HETATM    1  N   UNL     1      -8.702  18.526  67.373  1.00  0.00    -0.260 N  
HETATM    2  H1  UNL     1      -9.473  18.821  67.972  1.00  0.00     0.000 HD 
HETATM    3  H2  UNL     1      -8.191  17.676  67.609  1.00  0.00     0.000 HD 
HETATM    4  C   UNL     1      -8.338  19.226  66.274  1.00  0.00    -0.319 C  
HETATM    5  O   UNL     1      -7.410  18.870  65.552  1.00  0.00    -0.494 OA 
ENDROOT
BRANCH   4   6
HETATM    6  N   UNL     1      -9.084  20.335  66.036  1.00  0.00    -0.601 N  
HETATM    7  H   UNL     1      -9.223  20.691  65.090  1.00  0.00     0.000 HD 
HETATM    8  O   UNL     1      -9.658  20.974  67.155  1.00  0.00    -0.686 OA 
HETATM    9  H   UNL     1     -10.181  21.750  66.988  1.00  0.00     0.000 HD 
ENDBRANCH   4   6
TORSDOF 1
ENDMDL
MODEL       48
REMARK 921   NORMALIZED FREE ENERGY PREDICTED BY IDOCK:   -2.22 KCAL/MOL
REMARK 922        TOTAL FREE ENERGY PREDICTED BY IDOCK:   -2.35 KCAL/MOL
REMARK 923 INTER-LIGAND FREE ENERGY PREDICTED BY IDOCK:   -2.35 KCAL/MOL
REMARK 924 INTRA-LIGAND FREE ENERGY PREDICTED BY IDOCK:    0.00 KCAL/MOL
REMARK 927      BINDING AFFINITY PREDICTED BY RF-SCORE:    0.00 PKD
ROOT
HETATM    1  N   UNL     1     -10.712   3.062  63.782  1.00  0.00    -0.391 N  
HETATM    2  H1  UNL     1     -11.657   3.017  63.400  1.00  0.00     0.000 HD 
HETATM    3  H2  UNL     1      -9.985   2.476  63.371  1.00  0.00     0.000 HD 
HETATM    4  C   UNL     1     -10.392   3.873  64.816  1.00  0.00    -0.173 C  
HETATM    5  O   UNL     1      -9.255   3.926  65.275  1.00  0.00    -0.134 OA 
ENDROOT
BRANCH   4   6
HETATM    6  N   UNL     1     -11.422   4.621  65.288  1.00  0.00    -0.908 N  
HETATM    7  H   UNL     1     -12.389   4.414  65.039  1.00  0.00     0.000 HD 
HETATM    8  O   UNL     1     -11.096   5.698  66.139  1.00  0.00    -0.743 OA 
HETATM    9  H   UNL     1     -11.817   6.221  66.470  1.00  0.00     0.000 HD 
ENDBRANCH   4   6
TORSDOF 1
ENDMDL
MODEL       49
REMARK 921   NORMALIZED FREE ENERGY PREDICTED BY IDOCK:   -2.21 KCAL/MOL
REMARK 922        TOTAL FREE ENERGY PREDICTED BY IDOCK:   -2.34 KCAL/MOL
REMARK 923 INTER-LIGAND FREE ENERGY PREDICTED BY IDOCK:   -2.34 KCAL/MOL
REMARK 924 INTRA-LIGAND FREE ENERGY PREDICTED BY IDOCK:    0.00 KCAL/MOL
REMARK 927      BINDING AFFINITY PREDICTED BY RF-SCORE:    0.00 PKD
ROOT
HETATM    1  N   UNL     1     -11.911  11.710  70.489  1.00  0.00    -0.448 N  
HETATM    2  H1  UNL     1     -12.217  12.674  70.621  1.00  0.00     0.000 HD 
HETATM    3  H2  UNL     1     -11.200  11.510  69.785  1.00  0.00     0.000 HD 
HETATM    4  C   UNL     1     -12.420  10.689  71.216  1.00  0.00    -0.410 C  
HETATM    5  O   UNL     1     -12.052   9.529  71.056  1.00  0.00    -0.298 OA 
ENDROOT
BRANCH   4   6
HETATM    6  N   UNL     1     -13.351  11.056  72.133  1.00  0.00    -0.585 N  
HETATM    7  H   UNL     1     -13.924  10.364  72.616  1.00  0.00     0.000 HD 
HETATM    8  O   UNL     1     -13.492  12.436  72.387  1.00  0.00    -0.603 OA 
HETATM    9  H   UNL     1     -14.144  12.693  73.029  1.00  0.00     0.000 HD 
ENDBRANCH   4   6
TORSDOF 1
ENDMDL
MODEL       50
REMARK 921   NORMALIZED FREE ENERGY PREDICTED BY IDOCK:   -2.20 KCAL/MOL
REMARK 922        TOTAL FREE ENERGY PREDICTED BY IDOCK:   -2.33 KCAL/MOL
REMARK 923 INTER-LIGAND FREE ENERGY PREDICTED BY IDOCK:   -2.33 KCAL/MOL
REMARK 924 INTRA-LIGAND FREE ENERGY PREDICTED BY IDOCK:    0.00 KCAL/MOL
REMARK 927      BINDING AFFINITY PREDICTED BY RF-SCORE:    0.00 PKD
ROOT
HETATM    1  N   UNL     1     -10.874  12.315  63.020  1.00  0.00    -0.608 N  
HETATM    2  H1  UNL     1     -11.364  13.156  62.714  1.00  0.00     0.000 HD 
HETATM    3  H2  UNL     1     -10.229  11.858  62.376  1.00  0.00     0.000 HD 
HETATM    4  C   UNL     1     -11.053  11.788  64.253  1.00  0.00    -0.355 C  
HETATM    5  O   UNL     1     -10.463  10.776  64.622  1.00  0.00    -0.344 OA 
ENDROOT
BRANCH   4   6
HETATM    6  N   UNL     1     -11.921  12.473  65.041  1.00  0.00    -0.408 N  
HETATM    7  H   UNL     1     -12.439  13.278  64.689  1.00  0.00     0.000 HD 
HETATM    8  O   UNL     1     -12.075  12.022  66.369  1.00  0.00    -0.610 OA 
HETATM    9  H   UNL     1     -12.683  12.501  66.920  1.00  0.00     0.000 HD 
ENDBRANCH   4   6
TORSDOF 1
ENDMDL
MODEL       51
REMARK 921   NORMALIZED FREE ENERGY PREDICTED BY IDOCK:   -2.14 KCAL/MOL
REMARK 922        TOTAL FREE ENERGY PREDICTED BY IDOCK:   -2.27 KCAL/MOL
REMARK 923 INTER-LIGAND FREE ENERGY PREDICTED BY IDOCK:   -2.27 KCAL/MOL
REMARK 924 INTRA-LIGAND FREE ENERGY PREDICTED BY IDOCK:    0.00 KCAL/MOL
REMARK 927      BINDING AFFINITY PREDICTED BY RF-SCORE:    0.00 PKD
ROOT
HETATM    1  N   UNL     1     -12.607   7.098  70.428  1.00  0.00    -0.534 N  
HETATM    2  H1  UNL     1     -13.202   7.060  69.600  1.00  0.00     0.000 HD 
HETATM    3  H2  UNL     1     -11.898   6.377  70.560  1.00  0.00     0.000 HD 
HETATM    4  C   UNL     1     -12.730   8.074  71.356  1.00  0.00    -0.280 C  
HETATM    5  O   UNL     1     -12.013   8.120  72.352  1.00  0.00    -0.352 OA 
ENDROOT
BRANCH   4   6
HETATM    6  N   UNL     1     -13.693   8.993  71.088  1.00  0.00    -0.582 N  
HETATM    7  H   UNL     1     -14.683   8.775  71.200  1.00  0.00     0.000 HD 
HETATM    8  O   UNL     1     -13.263  10.262  70.646  1.00  0.00    -0.519 OA 
HETATM    9  H   UNL     1     -13.938  10.905  70.459  1.00  0.00     0.000 HD 
ENDBRANCH   4   6
TORSDOF 1
ENDMDL
MODEL       52
REMARK 921   NORMALIZED FREE ENERGY PREDICTED BY IDOCK:   -2.11 KCAL/MOL
REMARK 922        TOTAL FREE ENERGY PREDICTED BY IDOCK:   -2.23 KCAL/MOL
REMARK 923 INTER-LIGAND FREE ENERGY PREDICTED BY IDOCK:   -2.23 KCAL/MOL
REMARK 924 INTRA-LIGAND FREE ENERGY PREDICTED BY IDOCK:    0.00 KCAL/MOL
REMARK 927      BINDING AFFINITY PREDICTED BY RF-SCORE:    0.00 PKD
ROOT
HETATM    1  N   UNL     1     -11.424   9.930  68.566  1.00  0.00    -0.513 N  
HETATM    2  H1  UNL     1     -11.217   9.307  69.347  1.00  0.00     0.000 HD 
HETATM    3  H2  UNL     1     -11.307   9.584  67.614  1.00  0.00     0.000 HD 
HETATM    4  C   UNL     1     -11.849  11.200  68.754  1.00  0.00    -0.320 C  
HETATM    5  O   UNL     1     -12.098  11.950  67.814  1.00  0.00    -0.564 OA 
ENDROOT
BRANCH   4   6
HETATM    6  N   UNL     1     -11.986  11.565  70.055  1.00  0.00    -0.339 N  
HETATM    7  H   UNL     1     -12.430  10.951  70.737  1.00  0.00     0.000 HD 
HETATM    8  O   UNL     1     -11.485  12.832  70.421  1.00  0.00    -0.499 OA 
HETATM    9  H   UNL     1     -11.580  13.087  71.332  1.00  0.00     0.000 HD 
ENDBRANCH   4   6
TORSDOF 1
ENDMDL
MODEL       53
REMARK 921   NORMALIZED FREE ENERGY PREDICTED BY IDOCK:   -2.10 KCAL/MOL
REMARK 922        TOTAL FREE ENERGY PREDICTED BY IDOCK:   -2.22 KCAL/MOL
REMARK 923 INTER-LIGAND FREE ENERGY PREDICTED BY IDOCK:   -2.22 KCAL/MOL
REMARK 924 INTRA-LIGAND FREE ENERGY PREDICTED BY IDOCK:    0.00 KCAL/MOL
REMARK 927      BINDING AFFINITY PREDICTED BY RF-SCORE:    0.00 PKD
ROOT
HETATM    1  N   UNL     1     -10.277  12.047  68.884  1.00  0.00    -0.407 N  
HETATM    2  H1  UNL     1      -9.507  12.676  68.656  1.00  0.00     0.000 HD 
HETATM    3  H2  UNL     1     -10.250  11.532  69.764  1.00  0.00     0.000 HD 
HETATM    4  C   UNL     1     -11.332  11.874  68.055  1.00  0.00    -0.288 C  
HETATM    5  O   UNL     1     -12.259  11.117  68.330  1.00  0.00    -0.613 OA 
ENDROOT
BRANCH   4   6
HETATM    6  N   UNL     1     -11.283  12.609  66.915  1.00  0.00    -0.285 N  
HETATM    7  H   UNL     1     -10.514  13.253  66.729  1.00  0.00     0.000 HD 
HETATM    8  O   UNL     1     -12.342  12.443  65.999  1.00  0.00    -0.627 OA 
HETATM    9  H   UNL     1     -12.307  12.957  65.200  1.00  0.00     0.000 HD 
ENDBRANCH   4   6
TORSDOF 1
ENDMDL
MODEL       54
REMARK 921   NORMALIZED FREE ENERGY PREDICTED BY IDOCK:   -2.09 KCAL/MOL
REMARK 922        TOTAL FREE ENERGY PREDICTED BY IDOCK:   -2.21 KCAL/MOL
REMARK 923 INTER-LIGAND FREE ENERGY PREDICTED BY IDOCK:   -2.21 KCAL/MOL
REMARK 924 INTRA-LIGAND FREE ENERGY PREDICTED BY IDOCK:    0.00 KCAL/MOL
REMARK 927      BINDING AFFINITY PREDICTED BY RF-SCORE:    0.00 PKD
ROOT
HETATM    1  N   UNL     1      -9.219  20.668  66.799  1.00  0.00    -0.621 N  
HETATM    2  H1  UNL     1      -8.289  20.920  67.135  1.00  0.00     0.000 HD 
HETATM    3  H2  UNL     1      -9.902  21.408  66.637  1.00  0.00     0.000 HD 
HETATM    4  C   UNL     1      -9.574  19.385  66.563  1.00  0.00    -0.370 C  
HETATM    5  O   UNL     1     -10.694  19.082  66.158  1.00  0.00    -0.414 OA 
ENDROOT
BRANCH   4   6
HETATM    6  N   UNL     1      -8.595  18.474  66.797  1.00  0.00    -0.275 N  
HETATM    7  H   UNL     1      -8.406  18.125  67.737  1.00  0.00     0.000 HD 
HETATM    8  O   UNL     1      -7.852  18.030  65.683  1.00  0.00    -0.531 OA 
HETATM    9  H   UNL     1      -7.167  17.392  65.848  1.00  0.00     0.000 HD 
ENDBRANCH   4   6
TORSDOF 1
ENDMDL
MODEL       55
REMARK 921   NORMALIZED FREE ENERGY PREDICTED BY IDOCK:   -2.09 KCAL/MOL
REMARK 922        TOTAL FREE ENERGY PREDICTED BY IDOCK:   -2.21 KCAL/MOL
REMARK 923 INTER-LIGAND FREE ENERGY PREDICTED BY IDOCK:   -2.21 KCAL/MOL
REMARK 924 INTRA-LIGAND FREE ENERGY PREDICTED BY IDOCK:    0.00 KCAL/MOL
REMARK 927      BINDING AFFINITY PREDICTED BY RF-SCORE:    0.00 PKD
ROOT
HETATM    1  N   UNL     1     -13.150  13.854  65.255  1.00  0.00    -0.770 N  
HETATM    2  H1  UNL     1     -13.385  13.092  64.619  1.00  0.00     0.000 HD 
HETATM    3  H2  UNL     1     -13.593  14.763  65.121  1.00  0.00     0.000 HD 
HETATM    4  C   UNL     1     -12.270  13.697  66.270  1.00  0.00    -0.436 C  
HETATM    5  O   UNL     1     -11.988  14.615  67.036  1.00  0.00    -0.382 OA 
ENDROOT
BRANCH   4   6
HETATM    6  N   UNL     1     -11.742  12.450  66.375  1.00  0.00    -0.400 N  
HETATM    7  H   UNL     1     -12.298  11.618  66.178  1.00  0.00     0.000 HD 
HETATM    8  O   UNL     1     -10.390  12.357  66.767  1.00  0.00    -0.220 OA 
HETATM    9  H   UNL     1     -10.021  11.485  66.840  1.00  0.00     0.000 HD 
ENDBRANCH   4   6
TORSDOF 1
ENDMDL
MODEL       56
REMARK 921   NORMALIZED FREE ENERGY PREDICTED BY IDOCK:   -2.07 KCAL/MOL
REMARK 922        TOTAL FREE ENERGY PREDICTED BY IDOCK:   -2.19 KCAL/MOL
REMARK 923 INTER-LIGAND FREE ENERGY PREDICTED BY IDOCK:   -2.19 KCAL/MOL
REMARK 924 INTRA-LIGAND FREE ENERGY PREDICTED BY IDOCK:    0.00 KCAL/MOL
REMARK 927      BINDING AFFINITY PREDICTED BY RF-SCORE:    0.00 PKD
ROOT
HETATM    1  N   UNL     1      -9.730  20.321  65.836  1.00  0.00    -0.632 N  
HETATM    2  H1  UNL     1     -10.678  20.109  65.527  1.00  0.00     0.000 HD 
HETATM    3  H2  UNL     1      -9.045  20.634  65.148  1.00  0.00     0.000 HD 
HETATM    4  C   UNL     1      -9.352  20.200  67.129  1.00  0.00    -0.393 C  
HETATM    5  O   UNL     1      -8.210  20.456  67.501  1.00  0.00    -0.321 OA 
ENDROOT
BRANCH   4   6
HETATM    6  N   UNL     1     -10.335  19.788  67.970  1.00  0.00    -0.441 N  
HETATM    7  H   UNL     1     -11.284  20.155  67.901  1.00  0.00     0.000 HD 
HETATM    8  O   UNL     1      -9.985  18.830  68.944  1.00  0.00    -0.400 OA 
HETATM    9  H   UNL     1     -10.673  18.541  69.533  1.00  0.00     0.000 HD 
ENDBRANCH   4   6
TORSDOF 1
ENDMDL
MODEL       57
REMARK 921   NORMALIZED FREE ENERGY PREDICTED BY IDOCK:   -2.06 KCAL/MOL
REMARK 922        TOTAL FREE ENERGY PREDICTED BY IDOCK:   -2.19 KCAL/MOL
REMARK 923 INTER-LIGAND FREE ENERGY PREDICTED BY IDOCK:   -2.19 KCAL/MOL
REMARK 924 INTRA-LIGAND FREE ENERGY PREDICTED BY IDOCK:    0.00 KCAL/MOL
REMARK 927      BINDING AFFINITY PREDICTED BY RF-SCORE:    0.00 PKD
ROOT
HETATM    1  N   UNL     1      -9.450  14.335  66.296  1.00  0.00    -0.409 N  
HETATM    2  H1  UNL     1      -9.582  13.512  66.884  1.00  0.00     0.000 HD 
HETATM    3  H2  UNL     1      -8.508  14.703  66.167  1.00  0.00     0.000 HD 
HETATM    4  C   UNL     1     -10.485  14.951  65.681  1.00  0.00    -0.349 C  
HETATM    5  O   UNL     1     -10.326  15.942  64.972  1.00  0.00    -0.508 OA 
ENDROOT
BRANCH   4   6
HETATM    6  N   UNL     1     -11.697  14.382  65.904  1.00  0.00    -0.367 N  
HETATM    7  H   UNL     1     -12.176  13.846  65.180  1.00  0.00     0.000 HD 
HETATM    8  O   UNL     1     -12.266  14.563  67.182  1.00  0.00    -0.552 OA 
HETATM    9  H   UNL     1     -13.114  14.164  67.338  1.00  0.00     0.000 HD 
ENDBRANCH   4   6
TORSDOF 1
ENDMDL
MODEL       58
REMARK 921   NORMALIZED FREE ENERGY PREDICTED BY IDOCK:   -2.05 KCAL/MOL
REMARK 922        TOTAL FREE ENERGY PREDICTED BY IDOCK:   -2.17 KCAL/MOL
REMARK 923 INTER-LIGAND FREE ENERGY PREDICTED BY IDOCK:   -2.17 KCAL/MOL
REMARK 924 INTRA-LIGAND FREE ENERGY PREDICTED BY IDOCK:    0.00 KCAL/MOL
REMARK 927      BINDING AFFINITY PREDICTED BY RF-SCORE:    0.00 PKD
ROOT
HETATM    1  N   UNL     1     -10.727  15.356  66.707  1.00  0.00    -0.308 N  
HETATM    2  H1  UNL     1     -10.323  14.963  67.557  1.00  0.00     0.000 HD 
HETATM    3  H2  UNL     1     -11.645  15.033  66.402  1.00  0.00     0.000 HD 
HETATM    4  C   UNL     1     -10.084  16.292  65.972  1.00  0.00    -0.356 C  
HETATM    5  O   UNL     1     -10.571  16.765  64.949  1.00  0.00    -0.702 OA 
ENDROOT
BRANCH   4   6
HETATM    6  N   UNL     1      -8.875  16.666  66.464  1.00  0.00    -0.255 N  
HETATM    7  H   UNL     1      -8.519  16.291  67.343  1.00  0.00     0.000 HD 
HETATM    8  O   UNL     1      -8.134  17.597  65.706  1.00  0.00    -0.550 OA 
HETATM    9  H   UNL     1      -7.288  17.859  66.051  1.00  0.00     0.000 HD 
ENDBRANCH   4   6
TORSDOF 1
ENDMDL
MODEL       59
REMARK 921   NORMALIZED FREE ENERGY PREDICTED BY IDOCK:   -2.05 KCAL/MOL
REMARK 922        TOTAL FREE ENERGY PREDICTED BY IDOCK:   -2.17 KCAL/MOL
REMARK 923 INTER-LIGAND FREE ENERGY PREDICTED BY IDOCK:   -2.17 KCAL/MOL
REMARK 924 INTRA-LIGAND FREE ENERGY PREDICTED BY IDOCK:    0.00 KCAL/MOL
REMARK 927      BINDING AFFINITY PREDICTED BY RF-SCORE:    0.00 PKD
ROOT
HETATM    1  N   UNL     1     -11.096  12.858  67.117  1.00  0.00    -0.266 N  
HETATM    2  H1  UNL     1     -10.484  13.673  67.166  1.00  0.00     0.000 HD 
HETATM    3  H2  UNL     1     -11.397  12.521  66.203  1.00  0.00     0.000 HD 
HETATM    4  C   UNL     1     -11.521  12.212  68.227  1.00  0.00    -0.305 C  
HETATM    5  O   UNL     1     -12.258  11.231  68.168  1.00  0.00    -0.622 OA 
ENDROOT
BRANCH   4   6
HETATM    6  N   UNL     1     -11.059  12.727  69.394  1.00  0.00    -0.450 N  
HETATM    7  H   UNL     1     -10.252  13.351  69.419  1.00  0.00     0.000 HD 
HETATM    8  O   UNL     1     -11.744  12.362  70.572  1.00  0.00    -0.525 OA 
HETATM    9  H   UNL     1     -11.420  12.723  71.390  1.00  0.00     0.000 HD 
ENDBRANCH   4   6
TORSDOF 1
ENDMDL
MODEL       60
REMARK 921   NORMALIZED FREE ENERGY PREDICTED BY IDOCK:   -2.04 KCAL/MOL
REMARK 922        TOTAL FREE ENERGY PREDICTED BY IDOCK:   -2.16 KCAL/MOL
REMARK 923 INTER-LIGAND FREE ENERGY PREDICTED BY IDOCK:   -2.16 KCAL/MOL
REMARK 924 INTRA-LIGAND FREE ENERGY PREDICTED BY IDOCK:    0.00 KCAL/MOL
REMARK 927      BINDING AFFINITY PREDICTED BY RF-SCORE:    0.00 PKD
ROOT
HETATM    1  N   UNL     1      -9.932  13.692  64.716  1.00  0.00    -0.632 N  
HETATM    2  H1  UNL     1     -10.490  13.529  63.878  1.00  0.00     0.000 HD 
HETATM    3  H2  UNL     1      -8.986  14.059  64.616  1.00  0.00     0.000 HD 
HETATM    4  C   UNL     1     -10.410  13.439  65.956  1.00  0.00    -0.297 C  
HETATM    5  O   UNL     1      -9.739  13.636  66.966  1.00  0.00    -0.237 OA 
ENDROOT
BRANCH   4   6
HETATM    6  N   UNL     1     -11.682  12.965  65.987  1.00  0.00    -0.382 N  
HETATM    7  H   UNL     1     -12.414  13.366  65.402  1.00  0.00     0.000 HD 
HETATM    8  O   UNL     1     -11.945  11.893  66.866  1.00  0.00    -0.614 OA 
HETATM    9  H   UNL     1     -12.835  11.561  66.887  1.00  0.00     0.000 HD 
ENDBRANCH   4   6
TORSDOF 1
ENDMDL
MODEL       61
REMARK 921   NORMALIZED FREE ENERGY PREDICTED BY IDOCK:   -2.03 KCAL/MOL
REMARK 922        TOTAL FREE ENERGY PREDICTED BY IDOCK:   -2.15 KCAL/MOL
REMARK 923 INTER-LIGAND FREE ENERGY PREDICTED BY IDOCK:   -2.15 KCAL/MOL
REMARK 924 INTRA-LIGAND FREE ENERGY PREDICTED BY IDOCK:    0.00 KCAL/MOL
REMARK 927      BINDING AFFINITY PREDICTED BY RF-SCORE:    0.00 PKD
ROOT
HETATM    1  N   UNL     1     -11.234   4.573  65.080  1.00  0.00    -0.978 N  
HETATM    2  H1  UNL     1     -11.954   3.854  65.138  1.00  0.00     0.000 HD 
HETATM    3  H2  UNL     1     -11.497   5.513  64.784  1.00  0.00     0.000 HD 
HETATM    4  C   UNL     1      -9.940   4.320  65.385  1.00  0.00    -0.223 C  
HETATM    5  O   UNL     1      -9.073   5.187  65.316  1.00  0.00    -0.160 OA 
ENDROOT
BRANCH   4   6
HETATM    6  N   UNL     1      -9.690   3.045  65.779  1.00  0.00    -0.387 N  
HETATM    7  H   UNL     1      -9.509   2.304  65.101  1.00  0.00     0.000 HD 
HETATM    8  O   UNL     1      -9.693   2.790  67.166  1.00  0.00    -0.402 OA 
HETATM    9  H   UNL     1      -9.517   1.898  67.441  1.00  0.00     0.000 HD 
ENDBRANCH   4   6
TORSDOF 1
ENDMDL
MODEL       62
REMARK 921   NORMALIZED FREE ENERGY PREDICTED BY IDOCK:   -2.02 KCAL/MOL
REMARK 922        TOTAL FREE ENERGY PREDICTED BY IDOCK:   -2.14 KCAL/MOL
REMARK 923 INTER-LIGAND FREE ENERGY PREDICTED BY IDOCK:   -2.14 KCAL/MOL
REMARK 924 INTRA-LIGAND FREE ENERGY PREDICTED BY IDOCK:    0.00 KCAL/MOL
REMARK 927      BINDING AFFINITY PREDICTED BY RF-SCORE:    0.00 PKD
ROOT
HETATM    1  N   UNL     1     -12.796   7.289  70.587  1.00  0.00    -0.587 N  
HETATM    2  H1  UNL     1     -13.170   7.585  69.686  1.00  0.00     0.000 HD 
HETATM    3  H2  UNL     1     -13.247   7.617  71.441  1.00  0.00     0.000 HD 
HETATM    4  C   UNL     1     -11.720   6.475  70.685  1.00  0.00    -0.374 C  
HETATM    5  O   UNL     1     -11.269   6.119  71.771  1.00  0.00    -0.262 OA 
ENDROOT
BRANCH   4   6
HETATM    6  N   UNL     1     -11.196   6.083  69.496  1.00  0.00    -0.403 N  
HETATM    7  H   UNL     1     -10.537   5.306  69.434  1.00  0.00     0.000 HD 
HETATM    8  O   UNL     1     -11.603   6.796  68.349  1.00  0.00    -0.514 OA 
HETATM    9  H   UNL     1     -11.236   6.521  67.517  1.00  0.00     0.000 HD 
ENDBRANCH   4   6
TORSDOF 1
ENDMDL
MODEL       63
REMARK 921   NORMALIZED FREE ENERGY PREDICTED BY IDOCK:   -2.01 KCAL/MOL
REMARK 922        TOTAL FREE ENERGY PREDICTED BY IDOCK:   -2.13 KCAL/MOL
REMARK 923 INTER-LIGAND FREE ENERGY PREDICTED BY IDOCK:   -2.13 KCAL/MOL
REMARK 924 INTRA-LIGAND FREE ENERGY PREDICTED BY IDOCK:    0.00 KCAL/MOL
REMARK 927      BINDING AFFINITY PREDICTED BY RF-SCORE:    0.00 PKD
ROOT
HETATM    1  N   UNL     1     -12.724  15.165  69.743  1.00  0.00    -0.613 N  
HETATM    2  H1  UNL     1     -13.702  15.249  69.468  1.00  0.00     0.000 HD 
HETATM    3  H2  UNL     1     -12.457  15.401  70.698  1.00  0.00     0.000 HD 
HETATM    4  C   UNL     1     -11.769  14.750  68.879  1.00  0.00    -0.309 C  
HETATM    5  O   UNL     1     -10.591  14.649  69.209  1.00  0.00    -0.242 OA 
ENDROOT
BRANCH   4   6
HETATM    6  N   UNL     1     -12.223  14.449  67.635  1.00  0.00    -0.623 N  
HETATM    7  H   UNL     1     -13.167  14.096  67.484  1.00  0.00     0.000 HD 
HETATM    8  O   UNL     1     -11.329  14.647  66.561  1.00  0.00    -0.341 OA 
HETATM    9  H   UNL     1     -11.647  14.436  65.691  1.00  0.00     0.000 HD 
ENDBRANCH   4   6
TORSDOF 1
ENDMDL
MODEL       64
REMARK 921   NORMALIZED FREE ENERGY PREDICTED BY IDOCK:   -2.01 KCAL/MOL
REMARK 922        TOTAL FREE ENERGY PREDICTED BY IDOCK:   -2.12 KCAL/MOL
REMARK 923 INTER-LIGAND FREE ENERGY PREDICTED BY IDOCK:   -2.12 KCAL/MOL
REMARK 924 INTRA-LIGAND FREE ENERGY PREDICTED BY IDOCK:    0.00 KCAL/MOL
REMARK 927      BINDING AFFINITY PREDICTED BY RF-SCORE:    0.00 PKD
ROOT
HETATM    1  N   UNL     1     -11.532   6.542  67.432  1.00  0.00    -0.731 N  
HETATM    2  H1  UNL     1     -12.470   6.140  67.449  1.00  0.00     0.000 HD 
HETATM    3  H2  UNL     1     -11.162   6.892  66.549  1.00  0.00     0.000 HD 
HETATM    4  C   UNL     1     -10.765   6.625  68.543  1.00  0.00    -0.256 C  
HETATM    5  O   UNL     1      -9.637   7.109  68.521  1.00  0.00    -0.139 OA 
ENDROOT
BRANCH   4   6
HETATM    6  N   UNL     1     -11.348   6.142  69.670  1.00  0.00    -0.426 N  
HETATM    7  H   UNL     1     -10.956   5.347  70.174  1.00  0.00     0.000 HD 
HETATM    8  O   UNL     1     -12.520   6.790  70.114  1.00  0.00    -0.572 OA 
HETATM    9  H   UNL     1     -12.927   6.453  70.904  1.00  0.00     0.000 HD 
ENDBRANCH   4   6
TORSDOF 1
ENDMDL
MODEL       65
REMARK 921   NORMALIZED FREE ENERGY PREDICTED BY IDOCK:   -2.00 KCAL/MOL
REMARK 922        TOTAL FREE ENERGY PREDICTED BY IDOCK:   -2.12 KCAL/MOL
REMARK 923 INTER-LIGAND FREE ENERGY PREDICTED BY IDOCK:   -2.12 KCAL/MOL
REMARK 924 INTRA-LIGAND FREE ENERGY PREDICTED BY IDOCK:    0.00 KCAL/MOL
REMARK 927      BINDING AFFINITY PREDICTED BY RF-SCORE:    0.00 PKD
ROOT
HETATM    1  N   UNL     1     -12.119  14.690  68.005  1.00  0.00    -0.582 N  
HETATM    2  H1  UNL     1     -12.000  15.680  67.791  1.00  0.00     0.000 HD 
HETATM    3  H2  UNL     1     -12.293  14.412  68.971  1.00  0.00     0.000 HD 
HETATM    4  C   UNL     1     -12.054  13.735  67.050  1.00  0.00    -0.397 C  
HETATM    5  O   UNL     1     -12.198  12.543  67.309  1.00  0.00    -0.454 OA 
ENDROOT
BRANCH   4   6
HETATM    6  N   UNL     1     -11.830  14.203  65.795  1.00  0.00    -0.367 N  
HETATM    7  H   UNL     1     -12.194  13.721  64.974  1.00  0.00     0.000 HD 
HETATM    8  O   UNL     1     -11.071  15.386  65.678  1.00  0.00    -0.322 OA 
HETATM    9  H   UNL     1     -10.915  15.714  64.800  1.00  0.00     0.000 HD 
ENDBRANCH   4   6
TORSDOF 1
ENDMDL
MODEL       66
REMARK 921   NORMALIZED FREE ENERGY PREDICTED BY IDOCK:   -1.99 KCAL/MOL
REMARK 922        TOTAL FREE ENERGY PREDICTED BY IDOCK:   -2.11 KCAL/MOL
REMARK 923 INTER-LIGAND FREE ENERGY PREDICTED BY IDOCK:   -2.11 KCAL/MOL
REMARK 924 INTRA-LIGAND FREE ENERGY PREDICTED BY IDOCK:    0.00 KCAL/MOL
REMARK 927      BINDING AFFINITY PREDICTED BY RF-SCORE:    0.00 PKD
ROOT
HETATM    1  N   UNL     1     -12.829  10.748  71.580  1.00  0.00    -0.449 N  
HETATM    2  H1  UNL     1     -13.115  11.346  70.805  1.00  0.00     0.000 HD 
HETATM    3  H2  UNL     1     -13.103  11.004  72.529  1.00  0.00     0.000 HD 
HETATM    4  C   UNL     1     -12.099   9.625  71.390  1.00  0.00    -0.388 C  
HETATM    5  O   UNL     1     -11.754   8.905  72.323  1.00  0.00    -0.354 OA 
ENDROOT
BRANCH   4   6
HETATM    6  N   UNL     1     -11.793   9.362  70.093  1.00  0.00    -0.466 N  
HETATM    7  H   UNL     1     -11.833  10.088  69.379  1.00  0.00     0.000 HD 
HETATM    8  O   UNL     1     -11.418   8.039  69.779  1.00  0.00    -0.454 OA 
HETATM    9  H   UNL     1     -11.204   7.855  68.871  1.00  0.00     0.000 HD 
ENDBRANCH   4   6
TORSDOF 1
ENDMDL
MODEL       67
REMARK 921   NORMALIZED FREE ENERGY PREDICTED BY IDOCK:   -1.99 KCAL/MOL
REMARK 922        TOTAL FREE ENERGY PREDICTED BY IDOCK:   -2.10 KCAL/MOL
REMARK 923 INTER-LIGAND FREE ENERGY PREDICTED BY IDOCK:   -2.10 KCAL/MOL
REMARK 924 INTRA-LIGAND FREE ENERGY PREDICTED BY IDOCK:    0.00 KCAL/MOL
REMARK 927      BINDING AFFINITY PREDICTED BY RF-SCORE:    0.00 PKD
ROOT
HETATM    1  N   UNL     1     -11.183   7.010  67.322  1.00  0.00    -0.613 N  
HETATM    2  H1  UNL     1     -10.995   6.108  66.886  1.00  0.00     0.000 HD 
HETATM    3  H2  UNL     1     -11.894   7.068  68.051  1.00  0.00     0.000 HD 
HETATM    4  C   UNL     1     -10.519   8.133  66.964  1.00  0.00    -0.326 C  
HETATM    5  O   UNL     1     -10.745   9.220  67.489  1.00  0.00    -0.277 OA 
ENDROOT
BRANCH   4   6
HETATM    6  N   UNL     1      -9.586   7.954  65.995  1.00  0.00    -0.436 N  
HETATM    7  H   UNL     1      -9.006   7.115  65.962  1.00  0.00     0.000 HD 
HETATM    8  O   UNL     1      -9.453   8.979  65.035  1.00  0.00    -0.451 OA 
HETATM    9  H   UNL     1      -8.800   8.853  64.356  1.00  0.00     0.000 HD 
ENDBRANCH   4   6
TORSDOF 1
ENDMDL
MODEL       68
REMARK 921   NORMALIZED FREE ENERGY PREDICTED BY IDOCK:   -1.97 KCAL/MOL
REMARK 922        TOTAL FREE ENERGY PREDICTED BY IDOCK:   -2.09 KCAL/MOL
REMARK 923 INTER-LIGAND FREE ENERGY PREDICTED BY IDOCK:   -2.09 KCAL/MOL
REMARK 924 INTRA-LIGAND FREE ENERGY PREDICTED BY IDOCK:    0.00 KCAL/MOL
REMARK 927      BINDING AFFINITY PREDICTED BY RF-SCORE:    0.00 PKD
ROOT
HETATM    1  N   UNL     1     -11.127   4.429  65.169  1.00  0.00    -0.915 N  
HETATM    2  H1  UNL     1     -10.716   5.288  65.536  1.00  0.00     0.000 HD 
HETATM    3  H2  UNL     1     -11.895   3.993  65.679  1.00  0.00     0.000 HD 
HETATM    4  C   UNL     1     -10.686   3.852  64.028  1.00  0.00    -0.208 C  
HETATM    5  O   UNL     1     -11.181   2.819  63.587  1.00  0.00    -0.270 OA 
ENDROOT
BRANCH   4   6
HETATM    6  N   UNL     1      -9.668   4.511  63.417  1.00  0.00    -0.353 N  
HETATM    7  H   UNL     1      -9.368   4.268  62.473  1.00  0.00     0.000 HD 
HETATM    8  O   UNL     1      -9.045   5.546  64.145  1.00  0.00    -0.343 OA 
HETATM    9  H   UNL     1      -8.334   6.008  63.716  1.00  0.00     0.000 HD 
ENDBRANCH   4   6
TORSDOF 1
ENDMDL
MODEL       69
REMARK 921   NORMALIZED FREE ENERGY PREDICTED BY IDOCK:   -1.94 KCAL/MOL
REMARK 922        TOTAL FREE ENERGY PREDICTED BY IDOCK:   -2.05 KCAL/MOL
REMARK 923 INTER-LIGAND FREE ENERGY PREDICTED BY IDOCK:   -2.05 KCAL/MOL
REMARK 924 INTRA-LIGAND FREE ENERGY PREDICTED BY IDOCK:    0.00 KCAL/MOL
REMARK 927      BINDING AFFINITY PREDICTED BY RF-SCORE:    0.00 PKD
ROOT
HETATM    1  N   UNL     1      -9.410   4.353  67.347  1.00  0.00    -0.144 N  
HETATM    2  H1  UNL     1      -8.835   3.587  66.997  1.00  0.00     0.000 HD 
HETATM    3  H2  UNL     1      -9.230   4.719  68.281  1.00  0.00     0.000 HD 
HETATM    4  C   UNL     1     -10.405   4.899  66.610  1.00  0.00    -0.242 C  
HETATM    5  O   UNL     1     -11.097   5.822  67.031  1.00  0.00    -0.210 OA 
ENDROOT
BRANCH   4   6
HETATM    6  N   UNL     1     -10.561   4.353  65.377  1.00  0.00    -0.577 N  
HETATM    7  H   UNL     1      -9.830   3.784  64.950  1.00  0.00     0.000 HD 
HETATM    8  O   UNL     1     -11.779   4.609  64.712  1.00  0.00    -0.881 OA 
HETATM    9  H   UNL     1     -11.888   4.226  63.849  1.00  0.00     0.000 HD 
ENDBRANCH   4   6
TORSDOF 1
ENDMDL
MODEL       70
REMARK 921   NORMALIZED FREE ENERGY PREDICTED BY IDOCK:   -1.94 KCAL/MOL
REMARK 922        TOTAL FREE ENERGY PREDICTED BY IDOCK:   -2.05 KCAL/MOL
REMARK 923 INTER-LIGAND FREE ENERGY PREDICTED BY IDOCK:   -2.05 KCAL/MOL
REMARK 924 INTRA-LIGAND FREE ENERGY PREDICTED BY IDOCK:    0.00 KCAL/MOL
REMARK 927      BINDING AFFINITY PREDICTED BY RF-SCORE:    0.00 PKD
ROOT
HETATM    1  N   UNL     1      -7.482  19.289  68.871  1.00  0.00    -0.359 N  
HETATM    2  H1  UNL     1      -6.652  19.721  68.466  1.00  0.00     0.000 HD 
HETATM    3  H2  UNL     1      -7.405  18.821  69.773  1.00  0.00     0.000 HD 
HETATM    4  C   UNL     1      -8.683  19.318  68.248  1.00  0.00    -0.338 C  
HETATM    5  O   UNL     1      -9.683  18.799  68.737  1.00  0.00    -0.369 OA 
ENDROOT
BRANCH   4   6
HETATM    6  N   UNL     1      -8.689  19.973  67.059  1.00  0.00    -0.323 N  
HETATM    7  H   UNL     1      -8.006  19.761  66.331  1.00  0.00     0.000 HD 
HETATM    8  O   UNL     1      -9.680  20.959  66.874  1.00  0.00    -0.664 OA 
HETATM    9  H   UNL     1      -9.684  21.416  66.041  1.00  0.00     0.000 HD 
ENDBRANCH   4   6
TORSDOF 1
ENDMDL
MODEL       71
REMARK 921   NORMALIZED FREE ENERGY PREDICTED BY IDOCK:   -1.93 KCAL/MOL
REMARK 922        TOTAL FREE ENERGY PREDICTED BY IDOCK:   -2.04 KCAL/MOL
REMARK 923 INTER-LIGAND FREE ENERGY PREDICTED BY IDOCK:   -2.04 KCAL/MOL
REMARK 924 INTRA-LIGAND FREE ENERGY PREDICTED BY IDOCK:    0.00 KCAL/MOL
REMARK 927      BINDING AFFINITY PREDICTED BY RF-SCORE:    0.00 PKD
ROOT
HETATM    1  N   UNL     1     -11.367   4.567  65.257  1.00  0.00    -0.942 N  
HETATM    2  H1  UNL     1     -11.521   4.731  64.262  1.00  0.00     0.000 HD 
HETATM    3  H2  UNL     1     -12.154   4.274  65.836  1.00  0.00     0.000 HD 
HETATM    4  C   UNL     1     -10.153   4.724  65.832  1.00  0.00    -0.242 C  
HETATM    5  O   UNL     1      -9.968   4.525  67.029  1.00  0.00    -0.204 OA 
ENDROOT
BRANCH   4   6
HETATM    6  N   UNL     1      -9.168   5.104  64.979  1.00  0.00    -0.328 N  
HETATM    7  H   UNL     1      -8.231   5.330  65.314  1.00  0.00     0.000 HD 
HETATM    8  O   UNL     1      -9.496   5.172  63.609  1.00  0.00    -0.328 OA 
HETATM    9  H   UNL     1      -8.806   5.438  63.012  1.00  0.00     0.000 HD 
ENDBRANCH   4   6
TORSDOF 1
ENDMDL
MODEL       72
REMARK 921   NORMALIZED FREE ENERGY PREDICTED BY IDOCK:   -1.93 KCAL/MOL
REMARK 922        TOTAL FREE ENERGY PREDICTED BY IDOCK:   -2.04 KCAL/MOL
REMARK 923 INTER-LIGAND FREE ENERGY PREDICTED BY IDOCK:   -2.04 KCAL/MOL
REMARK 924 INTRA-LIGAND FREE ENERGY PREDICTED BY IDOCK:    0.00 KCAL/MOL
REMARK 927      BINDING AFFINITY PREDICTED BY RF-SCORE:    0.00 PKD
ROOT
HETATM    1  N   UNL     1     -10.431  15.767  65.176  1.00  0.00    -0.401 N  
HETATM    2  H1  UNL     1     -10.331  16.134  64.229  1.00  0.00     0.000 HD 
HETATM    3  H2  UNL     1     -10.564  16.420  65.947  1.00  0.00     0.000 HD 
HETATM    4  C   UNL     1     -10.392  14.440  65.438  1.00  0.00    -0.378 C  
HETATM    5  O   UNL     1     -10.512  13.998  66.577  1.00  0.00    -0.276 OA 
ENDROOT
BRANCH   4   6
HETATM    6  N   UNL     1     -10.222  13.652  64.346  1.00  0.00    -0.682 N  
HETATM    7  H   UNL     1     -10.688  13.857  63.463  1.00  0.00     0.000 HD 
HETATM    8  O   UNL     1      -9.371  12.535  64.488  1.00  0.00    -0.308 OA 
HETATM    9  H   UNL     1      -9.251  11.984  63.723  1.00  0.00     0.000 HD 
ENDBRANCH   4   6
TORSDOF 1
ENDMDL
MODEL       73
REMARK 921   NORMALIZED FREE ENERGY PREDICTED BY IDOCK:   -1.92 KCAL/MOL
REMARK 922        TOTAL FREE ENERGY PREDICTED BY IDOCK:   -2.04 KCAL/MOL
REMARK 923 INTER-LIGAND FREE ENERGY PREDICTED BY IDOCK:   -2.04 KCAL/MOL
REMARK 924 INTRA-LIGAND FREE ENERGY PREDICTED BY IDOCK:    0.00 KCAL/MOL
REMARK 927      BINDING AFFINITY PREDICTED BY RF-SCORE:    0.00 PKD
ROOT
HETATM    1  N   UNL     1     -11.839  12.515  65.939  1.00  0.00    -0.430 N  
HETATM    2  H1  UNL     1     -11.450  12.081  65.103  1.00  0.00     0.000 HD 
HETATM    3  H2  UNL     1     -12.702  12.142  66.334  1.00  0.00     0.000 HD 
HETATM    4  C   UNL     1     -11.247  13.572  66.542  1.00  0.00    -0.306 C  
HETATM    5  O   UNL     1     -11.716  14.095  67.549  1.00  0.00    -0.344 OA 
ENDROOT
BRANCH   4   6
HETATM    6  N   UNL     1     -10.098  13.990  65.951  1.00  0.00    -0.311 N  
HETATM    7  H   UNL     1      -9.256  14.174  66.495  1.00  0.00     0.000 HD 
HETATM    8  O   UNL     1     -10.123  14.159  64.551  1.00  0.00    -0.645 OA 
HETATM    9  H   UNL     1      -9.319  14.452  64.137  1.00  0.00     0.000 HD 
ENDBRANCH   4   6
TORSDOF 1
ENDMDL
MODEL       74
REMARK 921   NORMALIZED FREE ENERGY PREDICTED BY IDOCK:   -1.92 KCAL/MOL
REMARK 922        TOTAL FREE ENERGY PREDICTED BY IDOCK:   -2.03 KCAL/MOL
REMARK 923 INTER-LIGAND FREE ENERGY PREDICTED BY IDOCK:   -2.03 KCAL/MOL
REMARK 924 INTRA-LIGAND FREE ENERGY PREDICTED BY IDOCK:    0.00 KCAL/MOL
REMARK 927      BINDING AFFINITY PREDICTED BY RF-SCORE:    0.00 PKD
ROOT
HETATM    1  N   UNL     1     -10.557  18.474  66.613  1.00  0.00    -0.380 N  
HETATM    2  H1  UNL     1     -11.185  18.033  67.285  1.00  0.00     0.000 HD 
HETATM    3  H2  UNL     1     -10.772  18.407  65.619  1.00  0.00     0.000 HD 
HETATM    4  C   UNL     1      -9.448  19.146  67.000  1.00  0.00    -0.316 C  
HETATM    5  O   UNL     1      -8.693  19.677  66.191  1.00  0.00    -0.361 OA 
ENDROOT
BRANCH   4   6
HETATM    6  N   UNL     1      -9.253  19.190  68.343  1.00  0.00    -0.341 N  
HETATM    7  H   UNL     1      -8.397  18.835  68.768  1.00  0.00     0.000 HD 
HETATM    8  O   UNL     1     -10.286  19.750  69.123  1.00  0.00    -0.628 OA 
HETATM    9  H   UNL     1     -10.149  19.781  70.063  1.00  0.00     0.000 HD 
ENDBRANCH   4   6
TORSDOF 1
ENDMDL
MODEL       75
REMARK 921   NORMALIZED FREE ENERGY PREDICTED BY IDOCK:   -1.91 KCAL/MOL
REMARK 922        TOTAL FREE ENERGY PREDICTED BY IDOCK:   -2.03 KCAL/MOL
REMARK 923 INTER-LIGAND FREE ENERGY PREDICTED BY IDOCK:   -2.03 KCAL/MOL
REMARK 924 INTRA-LIGAND FREE ENERGY PREDICTED BY IDOCK:    0.00 KCAL/MOL
REMARK 927      BINDING AFFINITY PREDICTED BY RF-SCORE:    0.00 PKD
ROOT
HETATM    1  N   UNL     1     -11.718  12.988  70.071  1.00  0.00    -0.509 N  
HETATM    2  H1  UNL     1     -12.454  12.663  70.698  1.00  0.00     0.000 HD 
HETATM    3  H2  UNL     1     -11.335  13.924  70.202  1.00  0.00     0.000 HD 
HETATM    4  C   UNL     1     -11.235  12.217  69.070  1.00  0.00    -0.260 C  
HETATM    5  O   UNL     1     -10.349  12.608  68.315  1.00  0.00    -0.229 OA 
ENDROOT
BRANCH   4   6
HETATM    6  N   UNL     1     -11.800  10.985  68.981  1.00  0.00    -0.352 N  
HETATM    7  H   UNL     1     -12.221  10.532  69.792  1.00  0.00     0.000 HD 
HETATM    8  O   UNL     1     -11.778  10.359  67.717  1.00  0.00    -0.677 OA 
HETATM    9  H   UNL     1     -12.174   9.497  67.655  1.00  0.00     0.000 HD 
ENDBRANCH   4   6
TORSDOF 1
ENDMDL
MODEL       76
REMARK 921   NORMALIZED FREE ENERGY PREDICTED BY IDOCK:   -1.91 KCAL/MOL
REMARK 922        TOTAL FREE ENERGY PREDICTED BY IDOCK:   -2.02 KCAL/MOL
REMARK 923 INTER-LIGAND FREE ENERGY PREDICTED BY IDOCK:   -2.02 KCAL/MOL
REMARK 924 INTRA-LIGAND FREE ENERGY PREDICTED BY IDOCK:    0.00 KCAL/MOL
REMARK 927      BINDING AFFINITY PREDICTED BY RF-SCORE:    0.00 PKD
ROOT
HETATM    1  N   UNL     1      -9.303   7.520  67.453  1.00  0.00    -0.137 N  
HETATM    2  H1  UNL     1      -9.302   7.665  66.444  1.00  0.00     0.000 HD 
HETATM    3  H2  UNL     1      -8.501   7.836  67.998  1.00  0.00     0.000 HD 
HETATM    4  C   UNL     1     -10.334   6.921  68.091  1.00  0.00    -0.190 C  
HETATM    5  O   UNL     1     -10.335   6.746  69.307  1.00  0.00    -0.183 OA 
ENDROOT
BRANCH   4   6
HETATM    6  N   UNL     1     -11.359   6.544  67.284  1.00  0.00    -0.769 N  
HETATM    7  H   UNL     1     -12.315   6.852  67.459  1.00  0.00     0.000 HD 
HETATM    8  O   UNL     1     -11.041   5.709  66.192  1.00  0.00    -0.743 OA 
HETATM    9  H   UNL     1     -11.759   5.447  65.627  1.00  0.00     0.000 HD 
ENDBRANCH   4   6
TORSDOF 1
ENDMDL
MODEL       77
REMARK 921   NORMALIZED FREE ENERGY PREDICTED BY IDOCK:   -1.89 KCAL/MOL
REMARK 922        TOTAL FREE ENERGY PREDICTED BY IDOCK:   -2.00 KCAL/MOL
REMARK 923 INTER-LIGAND FREE ENERGY PREDICTED BY IDOCK:   -2.00 KCAL/MOL
REMARK 924 INTRA-LIGAND FREE ENERGY PREDICTED BY IDOCK:    0.00 KCAL/MOL
REMARK 927      BINDING AFFINITY PREDICTED BY RF-SCORE:    0.00 PKD
ROOT
HETATM    1  N   UNL     1     -10.835  11.176  66.518  1.00  0.00    -0.269 N  
HETATM    2  H1  UNL     1     -10.320  10.382  66.137  1.00  0.00     0.000 HD 
HETATM    3  H2  UNL     1     -10.842  12.054  66.000  1.00  0.00     0.000 HD 
HETATM    4  C   UNL     1     -11.509  11.100  67.688  1.00  0.00    -0.250 C  
HETATM    5  O   UNL     1     -12.129  12.055  68.147  1.00  0.00    -0.480 OA 
ENDROOT
BRANCH   4   6
HETATM    6  N   UNL     1     -11.449   9.888  68.298  1.00  0.00    -0.520 N  
HETATM    7  H   UNL     1     -11.701   9.773  69.280  1.00  0.00     0.000 HD 
HETATM    8  O   UNL     1     -11.023   8.795  67.514  1.00  0.00    -0.482 OA 
HETATM    9  H   UNL     1     -10.982   7.947  67.941  1.00  0.00     0.000 HD 
ENDBRANCH   4   6
TORSDOF 1
ENDMDL
MODEL       78
REMARK 921   NORMALIZED FREE ENERGY PREDICTED BY IDOCK:   -1.89 KCAL/MOL
REMARK 922        TOTAL FREE ENERGY PREDICTED BY IDOCK:   -2.00 KCAL/MOL
REMARK 923 INTER-LIGAND FREE ENERGY PREDICTED BY IDOCK:   -2.00 KCAL/MOL
REMARK 924 INTRA-LIGAND FREE ENERGY PREDICTED BY IDOCK:    0.00 KCAL/MOL
REMARK 927      BINDING AFFINITY PREDICTED BY RF-SCORE:    0.00 PKD
ROOT
HETATM    1  N   UNL     1      -9.607  11.236  68.995  1.00  0.00    -0.394 N  
HETATM    2  H1  UNL     1     -10.281  11.701  69.602  1.00  0.00     0.000 HD 
HETATM    3  H2  UNL     1      -8.652  11.593  68.952  1.00  0.00     0.000 HD 
HETATM    4  C   UNL     1      -9.938  10.160  68.245  1.00  0.00    -0.148 C  
HETATM    5  O   UNL     1      -9.126   9.600  67.514  1.00  0.00    -0.130 OA 
ENDROOT
BRANCH   4   6
HETATM    6  N   UNL     1     -11.227   9.753  68.377  1.00  0.00    -0.512 N  
HETATM    7  H   UNL     1     -11.460   8.780  68.577  1.00  0.00     0.000 HD 
HETATM    8  O   UNL     1     -12.228  10.734  68.227  1.00  0.00    -0.815 OA 
HETATM    9  H   UNL     1     -13.130  10.449  68.320  1.00  0.00     0.000 HD 
ENDBRANCH   4   6
TORSDOF 1
ENDMDL
MODEL       79
REMARK 921   NORMALIZED FREE ENERGY PREDICTED BY IDOCK:   -1.85 KCAL/MOL
REMARK 922        TOTAL FREE ENERGY PREDICTED BY IDOCK:   -1.96 KCAL/MOL
REMARK 923 INTER-LIGAND FREE ENERGY PREDICTED BY IDOCK:   -1.96 KCAL/MOL
REMARK 924 INTRA-LIGAND FREE ENERGY PREDICTED BY IDOCK:    0.00 KCAL/MOL
REMARK 927      BINDING AFFINITY PREDICTED BY RF-SCORE:    0.00 PKD
ROOT
HETATM    1  N   UNL     1     -10.039  15.342  69.996  1.00  0.00    -0.482 N  
HETATM    2  H1  UNL     1      -9.409  15.351  70.798  1.00  0.00     0.000 HD 
HETATM    3  H2  UNL     1      -9.700  15.689  69.099  1.00  0.00     0.000 HD 
HETATM    4  C   UNL     1     -11.308  14.884  70.084  1.00  0.00    -0.260 C  
HETATM    5  O   UNL     1     -12.066  14.873  69.118  1.00  0.00    -0.291 OA 
ENDROOT
BRANCH   4   6
HETATM    6  N   UNL     1     -11.663  14.433  71.315  1.00  0.00    -0.491 N  
HETATM    7  H   UNL     1     -11.942  13.463  71.467  1.00  0.00     0.000 HD 
HETATM    8  O   UNL     1     -11.631  15.364  72.374  1.00  0.00    -0.439 OA 
HETATM    9  H   UNL     1     -11.879  15.048  73.235  1.00  0.00     0.000 HD 
ENDBRANCH   4   6
TORSDOF 1
ENDMDL
MODEL       80
REMARK 921   NORMALIZED FREE ENERGY PREDICTED BY IDOCK:   -1.83 KCAL/MOL
REMARK 922        TOTAL FREE ENERGY PREDICTED BY IDOCK:   -1.94 KCAL/MOL
REMARK 923 INTER-LIGAND FREE ENERGY PREDICTED BY IDOCK:   -1.94 KCAL/MOL
REMARK 924 INTRA-LIGAND FREE ENERGY PREDICTED BY IDOCK:    0.00 KCAL/MOL
REMARK 927      BINDING AFFINITY PREDICTED BY RF-SCORE:    0.00 PKD
ROOT
HETATM    1  N   UNL     1     -10.685  19.186  65.813  1.00  0.00    -0.421 N  
HETATM    2  H1  UNL     1     -11.431  19.701  66.281  1.00  0.00     0.000 HD 
HETATM    3  H2  UNL     1     -10.465  19.410  64.842  1.00  0.00     0.000 HD 
HETATM    4  C   UNL     1      -9.979  18.217  66.439  1.00  0.00    -0.376 C  
HETATM    5  O   UNL     1      -9.082  17.597  65.875  1.00  0.00    -0.515 OA 
ENDROOT
BRANCH   4   6
HETATM    6  N   UNL     1     -10.338  17.999  67.730  1.00  0.00    -0.376 N  
HETATM    7  H   UNL     1     -10.741  18.740  68.303  1.00  0.00     0.000 HD 
HETATM    8  O   UNL     1     -10.127  16.703  68.244  1.00  0.00    -0.248 OA 
HETATM    9  H   UNL     1     -10.378  16.551  69.148  1.00  0.00     0.000 HD 
ENDBRANCH   4   6
TORSDOF 1
ENDMDL
MODEL       81
REMARK 921   NORMALIZED FREE ENERGY PREDICTED BY IDOCK:   -1.82 KCAL/MOL
REMARK 922        TOTAL FREE ENERGY PREDICTED BY IDOCK:   -1.93 KCAL/MOL
REMARK 923 INTER-LIGAND FREE ENERGY PREDICTED BY IDOCK:   -1.93 KCAL/MOL
REMARK 924 INTRA-LIGAND FREE ENERGY PREDICTED BY IDOCK:    0.00 KCAL/MOL
REMARK 927      BINDING AFFINITY PREDICTED BY RF-SCORE:    0.00 PKD
ROOT
HETATM    1  N   UNL     1     -10.906  13.269  66.462  1.00  0.00    -0.280 N  
HETATM    2  H1  UNL     1     -10.277  13.598  67.195  1.00  0.00     0.000 HD 
HETATM    3  H2  UNL     1     -11.641  12.605  66.704  1.00  0.00     0.000 HD 
HETATM    4  C   UNL     1     -10.795  13.686  65.180  1.00  0.00    -0.334 C  
HETATM    5  O   UNL     1     -11.552  13.291  64.298  1.00  0.00    -0.365 OA 
ENDROOT
BRANCH   4   6
HETATM    6  N   UNL     1      -9.794  14.577  64.959  1.00  0.00    -0.487 N  
HETATM    7  H   UNL     1      -9.724  15.092  64.082  1.00  0.00     0.000 HD 
HETATM    8  O   UNL     1      -8.855  14.757  65.996  1.00  0.00    -0.465 OA 
HETATM    9  H   UNL     1      -8.155  15.381  65.841  1.00  0.00     0.000 HD 
ENDBRANCH   4   6
TORSDOF 1
ENDMDL
MODEL       82
REMARK 921   NORMALIZED FREE ENERGY PREDICTED BY IDOCK:   -1.82 KCAL/MOL
REMARK 922        TOTAL FREE ENERGY PREDICTED BY IDOCK:   -1.93 KCAL/MOL
REMARK 923 INTER-LIGAND FREE ENERGY PREDICTED BY IDOCK:   -1.93 KCAL/MOL
REMARK 924 INTRA-LIGAND FREE ENERGY PREDICTED BY IDOCK:    0.00 KCAL/MOL
REMARK 927      BINDING AFFINITY PREDICTED BY RF-SCORE:    0.00 PKD
ROOT
HETATM    1  N   UNL     1     -10.168   7.560  72.872  1.00  0.00    -0.248 N  
HETATM    2  H1  UNL     1     -10.078   8.340  73.523  1.00  0.00     0.000 HD 
HETATM    3  H2  UNL     1      -9.335   7.026  72.624  1.00  0.00     0.000 HD 
HETATM    4  C   UNL     1     -11.356   7.212  72.328  1.00  0.00    -0.265 C  
HETATM    5  O   UNL     1     -11.464   6.273  71.545  1.00  0.00    -0.287 OA 
ENDROOT
BRANCH   4   6
HETATM    6  N   UNL     1     -12.406   7.974  72.727  1.00  0.00    -0.610 N  
HETATM    7  H   UNL     1     -12.284   8.754  73.374  1.00  0.00     0.000 HD 
HETATM    8  O   UNL     1     -13.675   7.640  72.209  1.00  0.00    -0.518 OA 
HETATM    9  H   UNL     1     -14.410   8.174  72.488  1.00  0.00     0.000 HD 
ENDBRANCH   4   6
TORSDOF 1
ENDMDL
MODEL       83
REMARK 921   NORMALIZED FREE ENERGY PREDICTED BY IDOCK:   -1.82 KCAL/MOL
REMARK 922        TOTAL FREE ENERGY PREDICTED BY IDOCK:   -1.92 KCAL/MOL
REMARK 923 INTER-LIGAND FREE ENERGY PREDICTED BY IDOCK:   -1.92 KCAL/MOL
REMARK 924 INTRA-LIGAND FREE ENERGY PREDICTED BY IDOCK:    0.00 KCAL/MOL
REMARK 927      BINDING AFFINITY PREDICTED BY RF-SCORE:    0.00 PKD
ROOT
HETATM    1  N   UNL     1      -7.852  17.540  68.083  1.00  0.00    -0.235 N  
HETATM    2  H1  UNL     1      -8.421  16.740  67.806  1.00  0.00     0.000 HD 
HETATM    3  H2  UNL     1      -6.839  17.482  67.983  1.00  0.00     0.000 HD 
HETATM    4  C   UNL     1      -8.399  18.673  68.579  1.00  0.00    -0.340 C  
HETATM    5  O   UNL     1      -7.713  19.636  68.912  1.00  0.00    -0.350 OA 
ENDROOT
BRANCH   4   6
HETATM    6  N   UNL     1      -9.753  18.658  68.664  1.00  0.00    -0.364 N  
HETATM    7  H   UNL     1     -10.304  17.897  68.268  1.00  0.00     0.000 HD 
HETATM    8  O   UNL     1     -10.366  19.743  69.326  1.00  0.00    -0.636 OA 
HETATM    9  H   UNL     1     -11.315  19.732  69.386  1.00  0.00     0.000 HD 
ENDBRANCH   4   6
TORSDOF 1
ENDMDL
MODEL       84
REMARK 921   NORMALIZED FREE ENERGY PREDICTED BY IDOCK:   -1.80 KCAL/MOL
REMARK 922        TOTAL FREE ENERGY PREDICTED BY IDOCK:   -1.90 KCAL/MOL
REMARK 923 INTER-LIGAND FREE ENERGY PREDICTED BY IDOCK:   -1.90 KCAL/MOL
REMARK 924 INTRA-LIGAND FREE ENERGY PREDICTED BY IDOCK:    0.00 KCAL/MOL
REMARK 927      BINDING AFFINITY PREDICTED BY RF-SCORE:    0.00 PKD
ROOT
HETATM    1  N   UNL     1     -12.383  14.132  67.056  1.00  0.00    -0.571 N  
HETATM    2  H1  UNL     1     -12.832  14.111  67.971  1.00  0.00     0.000 HD 
HETATM    3  H2  UNL     1     -12.756  13.547  66.308  1.00  0.00     0.000 HD 
HETATM    4  C   UNL     1     -11.307  14.912  66.802  1.00  0.00    -0.328 C  
HETATM    5  O   UNL     1     -10.766  14.938  65.700  1.00  0.00    -0.305 OA 
ENDROOT
BRANCH   4   6
HETATM    6  N   UNL     1     -10.890  15.662  67.855  1.00  0.00    -0.298 N  
HETATM    7  H   UNL     1      -9.954  16.065  67.884  1.00  0.00     0.000 HD 
HETATM    8  O   UNL     1     -11.810  15.857  68.907  1.00  0.00    -0.402 OA 
HETATM    9  H   UNL     1     -11.518  16.382  69.643  1.00  0.00     0.000 HD 
ENDBRANCH   4   6
TORSDOF 1
ENDMDL
MODEL       85
REMARK 921   NORMALIZED FREE ENERGY PREDICTED BY IDOCK:   -1.80 KCAL/MOL
REMARK 922        TOTAL FREE ENERGY PREDICTED BY IDOCK:   -1.90 KCAL/MOL
REMARK 923 INTER-LIGAND FREE ENERGY PREDICTED BY IDOCK:   -1.90 KCAL/MOL
REMARK 924 INTRA-LIGAND FREE ENERGY PREDICTED BY IDOCK:    0.00 KCAL/MOL
REMARK 927      BINDING AFFINITY PREDICTED BY RF-SCORE:    0.00 PKD
ROOT
HETATM    1  N   UNL     1     -11.359   9.788  68.178  1.00  0.00    -0.520 N  
HETATM    2  H1  UNL     1     -11.830  10.297  68.926  1.00  0.00     0.000 HD 
HETATM    3  H2  UNL     1     -11.285   8.773  68.242  1.00  0.00     0.000 HD 
HETATM    4  C   UNL     1     -10.831  10.417  67.103  1.00  0.00    -0.238 C  
HETATM    5  O   UNL     1     -10.265   9.804  66.202  1.00  0.00    -0.259 OA 
ENDROOT
BRANCH   4   6
HETATM    6  N   UNL     1     -10.990  11.765  67.101  1.00  0.00    -0.260 N  
HETATM    7  H   UNL     1     -10.343  12.378  67.597  1.00  0.00     0.000 HD 
HETATM    8  O   UNL     1     -12.090  12.281  66.384  1.00  0.00    -0.623 OA 
HETATM    9  H   UNL     1     -12.200  13.225  66.382  1.00  0.00     0.000 HD 
ENDBRANCH   4   6
TORSDOF 1
ENDMDL
MODEL       86
REMARK 921   NORMALIZED FREE ENERGY PREDICTED BY IDOCK:   -1.78 KCAL/MOL
REMARK 922        TOTAL FREE ENERGY PREDICTED BY IDOCK:   -1.88 KCAL/MOL
REMARK 923 INTER-LIGAND FREE ENERGY PREDICTED BY IDOCK:   -1.88 KCAL/MOL
REMARK 924 INTRA-LIGAND FREE ENERGY PREDICTED BY IDOCK:    0.00 KCAL/MOL
REMARK 927      BINDING AFFINITY PREDICTED BY RF-SCORE:    0.00 PKD
ROOT
HETATM    1  N   UNL     1      -6.095  19.285  67.221  1.00  0.00    -0.186 N  
HETATM    2  H1  UNL     1      -6.235  18.279  67.133  1.00  0.00     0.000 HD 
HETATM    3  H2  UNL     1      -5.155  19.639  67.398  1.00  0.00     0.000 HD 
HETATM    4  C   UNL     1      -7.116  20.165  67.112  1.00  0.00    -0.254 C  
HETATM    5  O   UNL     1      -6.947  21.376  67.218  1.00  0.00    -0.573 OA 
ENDROOT
BRANCH   4   6
HETATM    6  N   UNL     1      -8.326  19.599  66.867  1.00  0.00    -0.287 N  
HETATM    7  H   UNL     1      -8.497  18.609  67.042  1.00  0.00     0.000 HD 
HETATM    8  O   UNL     1      -9.337  20.442  66.358  1.00  0.00    -0.585 OA 
HETATM    9  H   UNL     1     -10.184  20.047  66.187  1.00  0.00     0.000 HD 
ENDBRANCH   4   6
TORSDOF 1
ENDMDL
MODEL       87
REMARK 921   NORMALIZED FREE ENERGY PREDICTED BY IDOCK:   -1.76 KCAL/MOL
REMARK 922        TOTAL FREE ENERGY PREDICTED BY IDOCK:   -1.86 KCAL/MOL
REMARK 923 INTER-LIGAND FREE ENERGY PREDICTED BY IDOCK:   -1.86 KCAL/MOL
REMARK 924 INTRA-LIGAND FREE ENERGY PREDICTED BY IDOCK:    0.00 KCAL/MOL
REMARK 927      BINDING AFFINITY PREDICTED BY RF-SCORE:    0.00 PKD
ROOT
HETATM    1  N   UNL     1     -10.169  13.838  68.921  1.00  0.00    -0.399 N  
HETATM    2  H1  UNL     1      -9.633  13.044  68.572  1.00  0.00     0.000 HD 
HETATM    3  H2  UNL     1      -9.845  14.323  69.757  1.00  0.00     0.000 HD 
HETATM    4  C   UNL     1     -11.294  14.270  68.308  1.00  0.00    -0.289 C  
HETATM    5  O   UNL     1     -11.939  15.228  68.728  1.00  0.00    -0.321 OA 
ENDROOT
BRANCH   4   6
HETATM    6  N   UNL     1     -11.639  13.570  67.197  1.00  0.00    -0.337 N  
HETATM    7  H   UNL     1     -11.758  14.029  66.294  1.00  0.00     0.000 HD 
HETATM    8  O   UNL     1     -11.826  12.180  67.347  1.00  0.00    -0.515 OA 
HETATM    9  H   UNL     1     -12.067  11.690  66.569  1.00  0.00     0.000 HD 
ENDBRANCH   4   6
TORSDOF 1
ENDMDL
MODEL       88
REMARK 921   NORMALIZED FREE ENERGY PREDICTED BY IDOCK:   -1.75 KCAL/MOL
REMARK 922        TOTAL FREE ENERGY PREDICTED BY IDOCK:   -1.85 KCAL/MOL
REMARK 923 INTER-LIGAND FREE ENERGY PREDICTED BY IDOCK:   -1.85 KCAL/MOL
REMARK 924 INTRA-LIGAND FREE ENERGY PREDICTED BY IDOCK:    0.00 KCAL/MOL
REMARK 927      BINDING AFFINITY PREDICTED BY RF-SCORE:    0.00 PKD
ROOT
HETATM    1  N   UNL     1     -10.912   9.182  69.292  1.00  0.00    -0.415 N  
HETATM    2  H1  UNL     1     -11.266   9.946  69.868  1.00  0.00     0.000 HD 
HETATM    3  H2  UNL     1     -10.665   8.299  69.739  1.00  0.00     0.000 HD 
HETATM    4  C   UNL     1     -10.761   9.302  67.953  1.00  0.00    -0.188 C  
HETATM    5  O   UNL     1     -10.335   8.382  67.260  1.00  0.00    -0.248 OA 
ENDROOT
BRANCH   4   6
HETATM    6  N   UNL     1     -11.126  10.509  67.448  1.00  0.00    -0.293 N  
HETATM    7  H   UNL     1     -10.666  10.904  66.628  1.00  0.00     0.000 HD 
HETATM    8  O   UNL     1     -12.169  11.191  68.108  1.00  0.00    -0.708 OA 
HETATM    9  H   UNL     1     -12.425  12.035  67.754  1.00  0.00     0.000 HD 
ENDBRANCH   4   6
TORSDOF 1
ENDMDL
MODEL       89
REMARK 921   NORMALIZED FREE ENERGY PREDICTED BY IDOCK:   -1.75 KCAL/MOL
REMARK 922        TOTAL FREE ENERGY PREDICTED BY IDOCK:   -1.85 KCAL/MOL
REMARK 923 INTER-LIGAND FREE ENERGY PREDICTED BY IDOCK:   -1.85 KCAL/MOL
REMARK 924 INTRA-LIGAND FREE ENERGY PREDICTED BY IDOCK:    0.00 KCAL/MOL
REMARK 927      BINDING AFFINITY PREDICTED BY RF-SCORE:    0.00 PKD
ROOT
HETATM    1  N   UNL     1     -10.305  19.937  68.668  1.00  0.00    -0.538 N  
HETATM    2  H1  UNL     1      -9.794  20.729  68.277  1.00  0.00     0.000 HD 
HETATM    3  H2  UNL     1     -11.232  20.094  69.061  1.00  0.00     0.000 HD 
HETATM    4  C   UNL     1      -9.791  18.686  68.680  1.00  0.00    -0.385 C  
HETATM    5  O   UNL     1     -10.406  17.733  69.150  1.00  0.00    -0.350 OA 
ENDROOT
BRANCH   4   6
HETATM    6  N   UNL     1      -8.557  18.575  68.125  1.00  0.00    -0.294 N  
HETATM    7  H   UNL     1      -8.426  18.563  67.114  1.00  0.00     0.000 HD 
HETATM    8  O   UNL     1      -7.462  18.478  69.010  1.00  0.00    -0.281 OA 
HETATM    9  H   UNL     1      -6.598  18.401  68.621  1.00  0.00     0.000 HD 
ENDBRANCH   4   6
TORSDOF 1
ENDMDL
MODEL       90
REMARK 921   NORMALIZED FREE ENERGY PREDICTED BY IDOCK:   -1.74 KCAL/MOL
REMARK 922        TOTAL FREE ENERGY PREDICTED BY IDOCK:   -1.85 KCAL/MOL
REMARK 923 INTER-LIGAND FREE ENERGY PREDICTED BY IDOCK:   -1.85 KCAL/MOL
REMARK 924 INTRA-LIGAND FREE ENERGY PREDICTED BY IDOCK:    0.00 KCAL/MOL
REMARK 927      BINDING AFFINITY PREDICTED BY RF-SCORE:    0.00 PKD
ROOT
HETATM    1  N   UNL     1     -11.380   4.545  65.081  1.00  0.00    -0.949 N  
HETATM    2  H1  UNL     1     -11.328   4.474  66.097  1.00  0.00     0.000 HD 
HETATM    3  H2  UNL     1     -11.975   5.262  64.666  1.00  0.00     0.000 HD 
HETATM    4  C   UNL     1     -10.685   3.718  64.267  1.00  0.00    -0.201 C  
HETATM    5  O   UNL     1     -10.748   3.804  63.043  1.00  0.00    -0.214 OA 
ENDROOT
BRANCH   4   6
HETATM    6  N   UNL     1      -9.914   2.805  64.911  1.00  0.00    -0.362 N  
HETATM    7  H   UNL     1      -9.689   2.902  65.901  1.00  0.00     0.000 HD 
HETATM    8  O   UNL     1      -9.438   1.717  64.151  1.00  0.00    -0.121 OA 
HETATM    9  H   UNL     1      -8.898   1.078  64.602  1.00  0.00     0.000 HD 
ENDBRANCH   4   6
TORSDOF 1
ENDMDL
MODEL       91
REMARK 921   NORMALIZED FREE ENERGY PREDICTED BY IDOCK:   -1.71 KCAL/MOL
REMARK 922        TOTAL FREE ENERGY PREDICTED BY IDOCK:   -1.81 KCAL/MOL
REMARK 923 INTER-LIGAND FREE ENERGY PREDICTED BY IDOCK:   -1.81 KCAL/MOL
REMARK 924 INTRA-LIGAND FREE ENERGY PREDICTED BY IDOCK:    0.00 KCAL/MOL
REMARK 927      BINDING AFFINITY PREDICTED BY RF-SCORE:    0.00 PKD
ROOT
HETATM    1  N   UNL     1     -10.053  11.953  68.621  1.00  0.00    -0.312 N  
HETATM    2  H1  UNL     1      -9.083  12.267  68.614  1.00  0.00     0.000 HD 
HETATM    3  H2  UNL     1     -10.430  11.536  69.472  1.00  0.00     0.000 HD 
HETATM    4  C   UNL     1     -10.855  12.074  67.539  1.00  0.00    -0.241 C  
HETATM    5  O   UNL     1     -12.023  11.696  67.548  1.00  0.00    -0.622 OA 
ENDROOT
BRANCH   4   6
HETATM    6  N   UNL     1     -10.267  12.651  66.460  1.00  0.00    -0.239 N  
HETATM    7  H   UNL     1     -10.806  12.909  65.633  1.00  0.00     0.000 HD 
HETATM    8  O   UNL     1      -8.877  12.879  66.532  1.00  0.00    -0.397 OA 
HETATM    9  H   UNL     1      -8.466  13.284  65.777  1.00  0.00     0.000 HD 
ENDBRANCH   4   6
TORSDOF 1
ENDMDL
MODEL       92
REMARK 921   NORMALIZED FREE ENERGY PREDICTED BY IDOCK:   -1.71 KCAL/MOL
REMARK 922        TOTAL FREE ENERGY PREDICTED BY IDOCK:   -1.81 KCAL/MOL
REMARK 923 INTER-LIGAND FREE ENERGY PREDICTED BY IDOCK:   -1.81 KCAL/MOL
REMARK 924 INTRA-LIGAND FREE ENERGY PREDICTED BY IDOCK:    0.00 KCAL/MOL
REMARK 927      BINDING AFFINITY PREDICTED BY RF-SCORE:    0.00 PKD
ROOT
HETATM    1  N   UNL     1      -9.386  12.252  65.524  1.00  0.00    -0.438 N  
HETATM    2  H1  UNL     1      -8.588  12.132  64.900  1.00  0.00     0.000 HD 
HETATM    3  H2  UNL     1      -9.319  12.926  66.286  1.00  0.00     0.000 HD 
HETATM    4  C   UNL     1     -10.530  11.546  65.372  1.00  0.00    -0.281 C  
HETATM    5  O   UNL     1     -11.490  11.691  66.123  1.00  0.00    -0.330 OA 
ENDROOT
BRANCH   4   6
HETATM    6  N   UNL     1     -10.527  10.683  64.324  1.00  0.00    -0.397 N  
HETATM    7  H   UNL     1     -11.020  10.896  63.457  1.00  0.00     0.000 HD 
HETATM    8  O   UNL     1      -9.813   9.477  64.487  1.00  0.00    -0.361 OA 
HETATM    9  H   UNL     1      -9.811   8.874  63.753  1.00  0.00     0.000 HD 
ENDBRANCH   4   6
TORSDOF 1
ENDMDL
MODEL       93
REMARK 921   NORMALIZED FREE ENERGY PREDICTED BY IDOCK:   -1.70 KCAL/MOL
REMARK 922        TOTAL FREE ENERGY PREDICTED BY IDOCK:   -1.79 KCAL/MOL
REMARK 923 INTER-LIGAND FREE ENERGY PREDICTED BY IDOCK:   -1.79 KCAL/MOL
REMARK 924 INTRA-LIGAND FREE ENERGY PREDICTED BY IDOCK:    0.00 KCAL/MOL
REMARK 927      BINDING AFFINITY PREDICTED BY RF-SCORE:    0.00 PKD
ROOT
HETATM    1  N   UNL     1      -9.023  11.382  63.629  1.00  0.00    -0.435 N  
HETATM    2  H1  UNL     1      -8.908  10.833  62.777  1.00  0.00     0.000 HD 
HETATM    3  H2  UNL     1      -8.904  12.394  63.583  1.00  0.00     0.000 HD 
HETATM    4  C   UNL     1      -9.329  10.811  64.816  1.00  0.00    -0.226 C  
HETATM    5  O   UNL     1      -9.468  11.472  65.841  1.00  0.00    -0.221 OA 
ENDROOT
BRANCH   4   6
HETATM    6  N   UNL     1      -9.478   9.462  64.774  1.00  0.00    -0.446 N  
HETATM    7  H   UNL     1      -9.231   8.924  63.943  1.00  0.00     0.000 HD 
HETATM    8  O   UNL     1      -9.992   8.837  65.930  1.00  0.00    -0.466 OA 
HETATM    9  H   UNL     1     -10.096   7.893  65.900  1.00  0.00     0.000 HD 
ENDBRANCH   4   6
TORSDOF 1
ENDMDL
MODEL       94
REMARK 921   NORMALIZED FREE ENERGY PREDICTED BY IDOCK:   -1.69 KCAL/MOL
REMARK 922        TOTAL FREE ENERGY PREDICTED BY IDOCK:   -1.79 KCAL/MOL
REMARK 923 INTER-LIGAND FREE ENERGY PREDICTED BY IDOCK:   -1.79 KCAL/MOL
REMARK 924 INTRA-LIGAND FREE ENERGY PREDICTED BY IDOCK:    0.00 KCAL/MOL
REMARK 927      BINDING AFFINITY PREDICTED BY RF-SCORE:    0.00 PKD
ROOT
HETATM    1  N   UNL     1     -11.006   5.693  70.627  1.00  0.00    -0.235 N  
HETATM    2  H1  UNL     1     -11.059   4.822  71.156  1.00  0.00     0.000 HD 
HETATM    3  H2  UNL     1     -10.580   5.683  69.701  1.00  0.00     0.000 HD 
HETATM    4  C   UNL     1     -11.483   6.860  71.117  1.00  0.00    -0.304 C  
HETATM    5  O   UNL     1     -11.418   7.908  70.480  1.00  0.00    -0.267 OA 
ENDROOT
BRANCH   4   6
HETATM    6  N   UNL     1     -12.041   6.771  72.351  1.00  0.00    -0.502 N  
HETATM    7  H   UNL     1     -11.528   7.047  73.189  1.00  0.00     0.000 HD 
HETATM    8  O   UNL     1     -13.361   6.279  72.424  1.00  0.00    -0.477 OA 
HETATM    9  H   UNL     1     -13.751   6.217  73.289  1.00  0.00     0.000 HD 
ENDBRANCH   4   6
TORSDOF 1
ENDMDL
MODEL       95
REMARK 921   NORMALIZED FREE ENERGY PREDICTED BY IDOCK:   -1.68 KCAL/MOL
REMARK 922        TOTAL FREE ENERGY PREDICTED BY IDOCK:   -1.78 KCAL/MOL
REMARK 923 INTER-LIGAND FREE ENERGY PREDICTED BY IDOCK:   -1.78 KCAL/MOL
REMARK 924 INTRA-LIGAND FREE ENERGY PREDICTED BY IDOCK:    0.00 KCAL/MOL
REMARK 927      BINDING AFFINITY PREDICTED BY RF-SCORE:    0.00 PKD
ROOT
HETATM    1  N   UNL     1     -10.437  18.047  68.847  1.00  0.00    -0.404 N  
HETATM    2  H1  UNL     1      -9.659  18.675  68.645  1.00  0.00     0.000 HD 
HETATM    3  H2  UNL     1     -11.045  18.253  69.640  1.00  0.00     0.000 HD 
HETATM    4  C   UNL     1     -10.688  16.950  68.097  1.00  0.00    -0.375 C  
HETATM    5  O   UNL     1     -11.625  16.194  68.341  1.00  0.00    -0.355 OA 
ENDROOT
BRANCH   4   6
HETATM    6  N   UNL     1      -9.832  16.766  67.059  1.00  0.00    -0.254 N  
HETATM    7  H   UNL     1      -8.822  16.748  67.198  1.00  0.00     0.000 HD 
HETATM    8  O   UNL     1     -10.403  16.600  65.779  1.00  0.00    -0.389 OA 
HETATM    9  H   UNL     1      -9.804  16.471  65.053  1.00  0.00     0.000 HD 
ENDBRANCH   4   6
TORSDOF 1
ENDMDL
MODEL       96
REMARK 921   NORMALIZED FREE ENERGY PREDICTED BY IDOCK:   -1.68 KCAL/MOL
REMARK 922        TOTAL FREE ENERGY PREDICTED BY IDOCK:   -1.77 KCAL/MOL
REMARK 923 INTER-LIGAND FREE ENERGY PREDICTED BY IDOCK:   -1.77 KCAL/MOL
REMARK 924 INTRA-LIGAND FREE ENERGY PREDICTED BY IDOCK:    0.00 KCAL/MOL
REMARK 927      BINDING AFFINITY PREDICTED BY RF-SCORE:    0.00 PKD
ROOT
HETATM    1  N   UNL     1     -10.084   6.078  66.023  1.00  0.00    -0.398 N  
HETATM    2  H1  UNL     1     -10.781   5.335  65.981  1.00  0.00     0.000 HD 
HETATM    3  H2  UNL     1      -9.286   6.042  65.389  1.00  0.00     0.000 HD 
HETATM    4  C   UNL     1     -10.185   7.109  66.892  1.00  0.00    -0.260 C  
HETATM    5  O   UNL     1      -9.345   8.004  66.942  1.00  0.00    -0.145 OA 
ENDROOT
BRANCH   4   6
HETATM    6  N   UNL     1     -11.285   7.075  67.686  1.00  0.00    -0.567 N  
HETATM    7  H   UNL     1     -12.094   6.500  67.451  1.00  0.00     0.000 HD 
HETATM    8  O   UNL     1     -11.261   7.871  68.851  1.00  0.00    -0.404 OA 
HETATM    9  H   UNL     1     -12.032   7.847  69.406  1.00  0.00     0.000 HD 
ENDBRANCH   4   6
TORSDOF 1
ENDMDL
MODEL       97
REMARK 921   NORMALIZED FREE ENERGY PREDICTED BY IDOCK:   -1.68 KCAL/MOL
REMARK 922        TOTAL FREE ENERGY PREDICTED BY IDOCK:   -1.77 KCAL/MOL
REMARK 923 INTER-LIGAND FREE ENERGY PREDICTED BY IDOCK:   -1.77 KCAL/MOL
REMARK 924 INTRA-LIGAND FREE ENERGY PREDICTED BY IDOCK:    0.00 KCAL/MOL
REMARK 927      BINDING AFFINITY PREDICTED BY RF-SCORE:    0.00 PKD
ROOT
HETATM    1  N   UNL     1     -10.959  14.454  66.898  1.00  0.00    -0.302 N  
HETATM    2  H1  UNL     1     -10.494  13.571  66.689  1.00  0.00     0.000 HD 
HETATM    3  H2  UNL     1     -11.411  14.966  66.140  1.00  0.00     0.000 HD 
HETATM    4  C   UNL     1     -10.996  14.967  68.149  1.00  0.00    -0.279 C  
HETATM    5  O   UNL     1     -11.557  16.031  68.401  1.00  0.00    -0.364 OA 
ENDROOT
BRANCH   4   6
HETATM    6  N   UNL     1     -10.378  14.210  69.091  1.00  0.00    -0.409 N  
HETATM    7  H   UNL     1      -9.579  14.562  69.618  1.00  0.00     0.000 HD 
HETATM    8  O   UNL     1     -10.889  12.913  69.308  1.00  0.00    -0.420 OA 
HETATM    9  H   UNL     1     -10.457  12.383  69.967  1.00  0.00     0.000 HD 
ENDBRANCH   4   6
TORSDOF 1
ENDMDL
MODEL       98
REMARK 921   NORMALIZED FREE ENERGY PREDICTED BY IDOCK:   -1.65 KCAL/MOL
REMARK 922        TOTAL FREE ENERGY PREDICTED BY IDOCK:   -1.74 KCAL/MOL
REMARK 923 INTER-LIGAND FREE ENERGY PREDICTED BY IDOCK:   -1.74 KCAL/MOL
REMARK 924 INTRA-LIGAND FREE ENERGY PREDICTED BY IDOCK:    0.00 KCAL/MOL
REMARK 927      BINDING AFFINITY PREDICTED BY RF-SCORE:    0.00 PKD
ROOT
HETATM    1  N   UNL     1     -11.576  10.993  70.637  1.00  0.00    -0.421 N  
HETATM    2  H1  UNL     1     -11.124  11.906  70.587  1.00  0.00     0.000 HD 
HETATM    3  H2  UNL     1     -12.568  10.945  70.866  1.00  0.00     0.000 HD 
HETATM    4  C   UNL     1     -10.899   9.844  70.408  1.00  0.00    -0.319 C  
HETATM    5  O   UNL     1     -11.443   8.745  70.468  1.00  0.00    -0.262 OA 
ENDROOT
BRANCH   4   6
HETATM    6  N   UNL     1      -9.587  10.011  70.100  1.00  0.00    -0.398 N  
HETATM    7  H   UNL     1      -9.296  10.401  69.204  1.00  0.00     0.000 HD 
HETATM    8  O   UNL     1      -8.645   9.620  71.074  1.00  0.00    -0.344 OA 
HETATM    9  H   UNL     1      -7.727   9.738  70.858  1.00  0.00     0.000 HD 
ENDBRANCH   4   6
TORSDOF 1
ENDMDL
MODEL       99
REMARK 921   NORMALIZED FREE ENERGY PREDICTED BY IDOCK:   -1.64 KCAL/MOL
REMARK 922        TOTAL FREE ENERGY PREDICTED BY IDOCK:   -1.73 KCAL/MOL
REMARK 923 INTER-LIGAND FREE ENERGY PREDICTED BY IDOCK:   -1.73 KCAL/MOL
REMARK 924 INTRA-LIGAND FREE ENERGY PREDICTED BY IDOCK:    0.00 KCAL/MOL
REMARK 927      BINDING AFFINITY PREDICTED BY RF-SCORE:    0.00 PKD
ROOT
HETATM    1  N   UNL     1     -12.268  15.440  68.745  1.00  0.00    -0.593 N  
HETATM    2  H1  UNL     1     -12.885  15.629  67.955  1.00  0.00     0.000 HD 
HETATM    3  H2  UNL     1     -12.674  15.119  69.624  1.00  0.00     0.000 HD 
HETATM    4  C   UNL     1     -10.927  15.602  68.663  1.00  0.00    -0.294 C  
HETATM    5  O   UNL     1     -10.184  15.375  69.614  1.00  0.00    -0.250 OA 
ENDROOT
BRANCH   4   6
HETATM    6  N   UNL     1     -10.480  16.021  67.451  1.00  0.00    -0.303 N  
HETATM    7  H   UNL     1     -10.001  15.387  66.812  1.00  0.00     0.000 HD 
HETATM    8  O   UNL     1     -10.707  17.373  67.116  1.00  0.00    -0.295 OA 
HETATM    9  H   UNL     1     -10.395  17.666  66.268  1.00  0.00     0.000 HD 
ENDBRANCH   4   6
TORSDOF 1
ENDMDL
MODEL      100
REMARK 921   NORMALIZED FREE ENERGY PREDICTED BY IDOCK:   -1.62 KCAL/MOL
REMARK 922        TOTAL FREE ENERGY PREDICTED BY IDOCK:   -1.71 KCAL/MOL
REMARK 923 INTER-LIGAND FREE ENERGY PREDICTED BY IDOCK:   -1.71 KCAL/MOL
REMARK 924 INTRA-LIGAND FREE ENERGY PREDICTED BY IDOCK:    0.00 KCAL/MOL
REMARK 927      BINDING AFFINITY PREDICTED BY RF-SCORE:    0.00 PKD
ROOT
HETATM    1  N   UNL     1      -9.428  18.778  67.166  1.00  0.00    -0.299 N  
HETATM    2  H1  UNL     1      -9.908  18.937  66.281  1.00  0.00     0.000 HD 
HETATM    3  H2  UNL     1      -9.750  18.025  67.774  1.00  0.00     0.000 HD 
HETATM    4  C   UNL     1      -8.379  19.536  67.560  1.00  0.00    -0.297 C  
HETATM    5  O   UNL     1      -7.801  19.345  68.627  1.00  0.00    -0.344 OA 
ENDROOT
BRANCH   4   6
HETATM    6  N   UNL     1      -8.019  20.506  66.681  1.00  0.00    -0.523 N  
HETATM    7  H   UNL     1      -8.711  20.994  66.114  1.00  0.00     0.000 HD 
HETATM    8  O   UNL     1      -6.644  20.807  66.586  1.00  0.00    -0.248 OA 
HETATM    9  H   UNL     1      -6.392  21.486  65.971  1.00  0.00     0.000 HD 
ENDBRANCH   4   6
TORSDOF 1
ENDMDL
MODEL      101
REMARK 921   NORMALIZED FREE ENERGY PREDICTED BY IDOCK:   -1.62 KCAL/MOL
REMARK 922        TOTAL FREE ENERGY PREDICTED BY IDOCK:   -1.71 KCAL/MOL
REMARK 923 INTER-LIGAND FREE ENERGY PREDICTED BY IDOCK:   -1.71 KCAL/MOL
REMARK 924 INTRA-LIGAND FREE ENERGY PREDICTED BY IDOCK:    0.00 KCAL/MOL
REMARK 927      BINDING AFFINITY PREDICTED BY RF-SCORE:    0.00 PKD
ROOT
HETATM    1  N   UNL     1      -8.181  13.952  68.889  1.00  0.00    -0.339 N  
HETATM    2  H1  UNL     1      -7.486  13.210  68.815  1.00  0.00     0.000 HD 
HETATM    3  H2  UNL     1      -8.325  14.406  69.791  1.00  0.00     0.000 HD 
HETATM    4  C   UNL     1      -8.917  14.355  67.828  1.00  0.00    -0.192 C  
HETATM    5  O   UNL     1      -9.754  15.249  67.917  1.00  0.00    -0.210 OA 
ENDROOT
BRANCH   4   6
HETATM    6  N   UNL     1      -8.646  13.701  66.669  1.00  0.00    -0.444 N  
HETATM    7  H   UNL     1      -7.887  13.023  66.606  1.00  0.00     0.000 HD 
HETATM    8  O   UNL     1      -9.462  14.000  65.558  1.00  0.00    -0.525 OA 
HETATM    9  H   UNL     1      -9.272  13.542  64.747  1.00  0.00     0.000 HD 
ENDBRANCH   4   6
TORSDOF 1
ENDMDL
MODEL      102
REMARK 921   NORMALIZED FREE ENERGY PREDICTED BY IDOCK:   -1.61 KCAL/MOL
REMARK 922        TOTAL FREE ENERGY PREDICTED BY IDOCK:   -1.70 KCAL/MOL
REMARK 923 INTER-LIGAND FREE ENERGY PREDICTED BY IDOCK:   -1.70 KCAL/MOL
REMARK 924 INTRA-LIGAND FREE ENERGY PREDICTED BY IDOCK:    0.00 KCAL/MOL
REMARK 927      BINDING AFFINITY PREDICTED BY RF-SCORE:    0.00 PKD
ROOT
HETATM    1  N   UNL     1     -11.206  10.398  67.819  1.00  0.00    -0.400 N  
HETATM    2  H1  UNL     1     -11.494   9.977  66.936  1.00  0.00     0.000 HD 
HETATM    3  H2  UNL     1     -11.161  11.414  67.891  1.00  0.00     0.000 HD 
HETATM    4  C   UNL     1     -10.881   9.649  68.899  1.00  0.00    -0.174 C  
HETATM    5  O   UNL     1     -10.535  10.156  69.962  1.00  0.00    -0.264 OA 
ENDROOT
BRANCH   4   6
HETATM    6  N   UNL     1     -10.982   8.309  68.709  1.00  0.00    -0.423 N  
HETATM    7  H   UNL     1     -10.824   7.887  67.794  1.00  0.00     0.000 HD 
HETATM    8  O   UNL     1     -11.315   7.525  69.834  1.00  0.00    -0.438 OA 
HETATM    9  H   UNL     1     -11.385   6.587  69.701  1.00  0.00     0.000 HD 
ENDBRANCH   4   6
TORSDOF 1
ENDMDL
MODEL      103
REMARK 921   NORMALIZED FREE ENERGY PREDICTED BY IDOCK:   -1.60 KCAL/MOL
REMARK 922        TOTAL FREE ENERGY PREDICTED BY IDOCK:   -1.69 KCAL/MOL
REMARK 923 INTER-LIGAND FREE ENERGY PREDICTED BY IDOCK:   -1.69 KCAL/MOL
REMARK 924 INTRA-LIGAND FREE ENERGY PREDICTED BY IDOCK:    0.00 KCAL/MOL
REMARK 927      BINDING AFFINITY PREDICTED BY RF-SCORE:    0.00 PKD
ROOT
HETATM    1  N   UNL     1     -11.454   9.913  68.419  1.00  0.00    -0.519 N  
HETATM    2  H1  UNL     1     -11.163   8.956  68.217  1.00  0.00     0.000 HD 
HETATM    3  H2  UNL     1     -11.891  10.462  67.680  1.00  0.00     0.000 HD 
HETATM    4  C   UNL     1     -11.279  10.475  69.637  1.00  0.00    -0.282 C  
HETATM    5  O   UNL     1     -11.630  11.626  69.880  1.00  0.00    -0.296 OA 
ENDROOT
BRANCH   4   6
HETATM    6  N   UNL     1     -10.700   9.662  70.557  1.00  0.00    -0.287 N  
HETATM    7  H   UNL     1     -11.217   8.901  70.997  1.00  0.00     0.000 HD 
HETATM    8  O   UNL     1      -9.350   9.917  70.879  1.00  0.00    -0.309 OA 
HETATM    9  H   UNL     1      -8.944   9.348  71.523  1.00  0.00     0.000 HD 
ENDBRANCH   4   6
TORSDOF 1
ENDMDL
MODEL      104
REMARK 921   NORMALIZED FREE ENERGY PREDICTED BY IDOCK:   -1.60 KCAL/MOL
REMARK 922        TOTAL FREE ENERGY PREDICTED BY IDOCK:   -1.69 KCAL/MOL
REMARK 923 INTER-LIGAND FREE ENERGY PREDICTED BY IDOCK:   -1.69 KCAL/MOL
REMARK 924 INTRA-LIGAND FREE ENERGY PREDICTED BY IDOCK:    0.00 KCAL/MOL
REMARK 927      BINDING AFFINITY PREDICTED BY RF-SCORE:    0.00 PKD
ROOT
HETATM    1  N   UNL     1      -9.748   9.020  70.876  1.00  0.00    -0.240 N  
HETATM    2  H1  UNL     1     -10.336   9.624  71.450  1.00  0.00     0.000 HD 
HETATM    3  H2  UNL     1      -8.734   9.109  70.944  1.00  0.00     0.000 HD 
HETATM    4  C   UNL     1     -10.270   8.104  70.028  1.00  0.00    -0.202 C  
HETATM    5  O   UNL     1      -9.561   7.377  69.337  1.00  0.00    -0.155 OA 
ENDROOT
BRANCH   4   6
HETATM    6  N   UNL     1     -11.626   8.052  70.015  1.00  0.00    -0.462 N  
HETATM    7  H   UNL     1     -12.191   8.897  69.921  1.00  0.00     0.000 HD 
HETATM    8  O   UNL     1     -12.221   6.779  70.137  1.00  0.00    -0.634 OA 
HETATM    9  H   UNL     1     -13.170   6.743  70.128  1.00  0.00     0.000 HD 
ENDBRANCH   4   6
TORSDOF 1
ENDMDL
MODEL      105
REMARK 921   NORMALIZED FREE ENERGY PREDICTED BY IDOCK:   -1.60 KCAL/MOL
REMARK 922        TOTAL FREE ENERGY PREDICTED BY IDOCK:   -1.69 KCAL/MOL
REMARK 923 INTER-LIGAND FREE ENERGY PREDICTED BY IDOCK:   -1.69 KCAL/MOL
REMARK 924 INTRA-LIGAND FREE ENERGY PREDICTED BY IDOCK:    0.00 KCAL/MOL
REMARK 927      BINDING AFFINITY PREDICTED BY RF-SCORE:    0.00 PKD
ROOT
HETATM    1  N   UNL     1      -6.213  20.380  70.694  1.00  0.00    -0.529 N  
HETATM    2  H1  UNL     1      -6.893  21.140  70.730  1.00  0.00     0.000 HD 
HETATM    3  H2  UNL     1      -5.570  20.256  71.476  1.00  0.00     0.000 HD 
HETATM    4  C   UNL     1      -6.138  19.533  69.643  1.00  0.00    -0.282 C  
HETATM    5  O   UNL     1      -5.319  18.618  69.600  1.00  0.00    -0.192 OA 
ENDROOT
BRANCH   4   6
HETATM    6  N   UNL     1      -7.041  19.771  68.657  1.00  0.00    -0.329 N  
HETATM    7  H   UNL     1      -6.775  20.246  67.795  1.00  0.00     0.000 HD 
HETATM    8  O   UNL     1      -8.364  19.333  68.880  1.00  0.00    -0.360 OA 
HETATM    9  H   UNL     1      -8.995  19.500  68.190  1.00  0.00     0.000 HD 
ENDBRANCH   4   6
TORSDOF 1
ENDMDL
MODEL      106
REMARK 921   NORMALIZED FREE ENERGY PREDICTED BY IDOCK:   -1.57 KCAL/MOL
REMARK 922        TOTAL FREE ENERGY PREDICTED BY IDOCK:   -1.66 KCAL/MOL
REMARK 923 INTER-LIGAND FREE ENERGY PREDICTED BY IDOCK:   -1.66 KCAL/MOL
REMARK 924 INTRA-LIGAND FREE ENERGY PREDICTED BY IDOCK:    0.00 KCAL/MOL
REMARK 927      BINDING AFFINITY PREDICTED BY RF-SCORE:    0.00 PKD
ROOT
HETATM    1  N   UNL     1      -7.636  18.920  68.751  1.00  0.00    -0.333 N  
HETATM    2  H1  UNL     1      -7.376  19.798  68.303  1.00  0.00     0.000 HD 
HETATM    3  H2  UNL     1      -7.306  18.731  69.697  1.00  0.00     0.000 HD 
HETATM    4  C   UNL     1      -8.406  17.997  68.130  1.00  0.00    -0.268 C  
HETATM    5  O   UNL     1      -8.720  16.940  68.670  1.00  0.00    -0.251 OA 
ENDROOT
BRANCH   4   6
HETATM    6  N   UNL     1      -8.806  18.343  66.879  1.00  0.00    -0.271 N  
HETATM    7  H   UNL     1      -9.578  18.991  66.727  1.00  0.00     0.000 HD 
HETATM    8  O   UNL     1      -8.106  17.765  65.800  1.00  0.00    -0.541 OA 
HETATM    9  H   UNL     1      -8.386  18.007  64.924  1.00  0.00     0.000 HD 
ENDBRANCH   4   6
TORSDOF 1
ENDMDL
MODEL      107
REMARK 921   NORMALIZED FREE ENERGY PREDICTED BY IDOCK:   -1.56 KCAL/MOL
REMARK 922        TOTAL FREE ENERGY PREDICTED BY IDOCK:   -1.65 KCAL/MOL
REMARK 923 INTER-LIGAND FREE ENERGY PREDICTED BY IDOCK:   -1.65 KCAL/MOL
REMARK 924 INTRA-LIGAND FREE ENERGY PREDICTED BY IDOCK:    0.00 KCAL/MOL
REMARK 927      BINDING AFFINITY PREDICTED BY RF-SCORE:    0.00 PKD
ROOT
HETATM    1  N   UNL     1     -10.564  11.063  63.032  1.00  0.00    -0.805 N  
HETATM    2  H1  UNL     1     -10.468  11.444  62.090  1.00  0.00     0.000 HD 
HETATM    3  H2  UNL     1     -11.413  11.263  63.560  1.00  0.00     0.000 HD 
HETATM    4  C   UNL     1      -9.601  10.303  63.601  1.00  0.00    -0.277 C  
HETATM    5  O   UNL     1      -9.717   9.846  64.735  1.00  0.00    -0.309 OA 
ENDROOT
BRANCH   4   6
HETATM    6  N   UNL     1      -8.514  10.085  62.817  1.00  0.00    -0.156 N  
HETATM    7  H   UNL     1      -8.242  10.744  62.088  1.00  0.00     0.000 HD 
HETATM    8  O   UNL     1      -7.779   8.905  63.056  1.00  0.00    -0.106 OA 
HETATM    9  H   UNL     1      -7.018   8.752  62.507  1.00  0.00     0.000 HD 
ENDBRANCH   4   6
TORSDOF 1
ENDMDL
MODEL      108
REMARK 921   NORMALIZED FREE ENERGY PREDICTED BY IDOCK:   -1.56 KCAL/MOL
REMARK 922        TOTAL FREE ENERGY PREDICTED BY IDOCK:   -1.65 KCAL/MOL
REMARK 923 INTER-LIGAND FREE ENERGY PREDICTED BY IDOCK:   -1.65 KCAL/MOL
REMARK 924 INTRA-LIGAND FREE ENERGY PREDICTED BY IDOCK:    0.00 KCAL/MOL
REMARK 927      BINDING AFFINITY PREDICTED BY RF-SCORE:    0.00 PKD
ROOT
HETATM    1  N   UNL     1     -11.166   8.309  69.866  1.00  0.00    -0.448 N  
HETATM    2  H1  UNL     1     -11.787   8.091  70.646  1.00  0.00     0.000 HD 
HETATM    3  H2  UNL     1     -10.801   7.546  69.297  1.00  0.00     0.000 HD 
HETATM    4  C   UNL     1     -10.814   9.580  69.563  1.00  0.00    -0.222 C  
HETATM    5  O   UNL     1     -10.068   9.843  68.624  1.00  0.00    -0.163 OA 
ENDROOT
BRANCH   4   6
HETATM    6  N   UNL     1     -11.360  10.526  70.370  1.00  0.00    -0.321 N  
HETATM    7  H   UNL     1     -11.868  10.275  71.218  1.00  0.00     0.000 HD 
HETATM    8  O   UNL     1     -11.193  11.872  69.982  1.00  0.00    -0.495 OA 
HETATM    9  H   UNL     1     -11.574  12.535  70.547  1.00  0.00     0.000 HD 
ENDBRANCH   4   6
TORSDOF 1
ENDMDL
MODEL      109
REMARK 921   NORMALIZED FREE ENERGY PREDICTED BY IDOCK:   -1.55 KCAL/MOL
REMARK 922        TOTAL FREE ENERGY PREDICTED BY IDOCK:   -1.64 KCAL/MOL
REMARK 923 INTER-LIGAND FREE ENERGY PREDICTED BY IDOCK:   -1.64 KCAL/MOL
REMARK 924 INTRA-LIGAND FREE ENERGY PREDICTED BY IDOCK:    0.00 KCAL/MOL
REMARK 927      BINDING AFFINITY PREDICTED BY RF-SCORE:    0.00 PKD
ROOT
HETATM    1  N   UNL     1      -8.007  15.064  66.745  1.00  0.00    -0.329 N  
HETATM    2  H1  UNL     1      -7.636  14.722  67.631  1.00  0.00     0.000 HD 
HETATM    3  H2  UNL     1      -7.705  14.619  65.879  1.00  0.00     0.000 HD 
HETATM    4  C   UNL     1      -8.887  16.089  66.683  1.00  0.00    -0.272 C  
HETATM    5  O   UNL     1      -9.334  16.500  65.615  1.00  0.00    -0.490 OA 
ENDROOT
BRANCH   4   6
HETATM    6  N   UNL     1      -9.238  16.609  67.887  1.00  0.00    -0.217 N  
HETATM    7  H   UNL     1      -8.749  16.347  68.743  1.00  0.00     0.000 HD 
HETATM    8  O   UNL     1     -10.308  17.528  67.902  1.00  0.00    -0.336 OA 
HETATM    9  H   UNL     1     -10.553  17.892  68.745  1.00  0.00     0.000 HD 
ENDBRANCH   4   6
TORSDOF 1
ENDMDL
MODEL      110
REMARK 921   NORMALIZED FREE ENERGY PREDICTED BY IDOCK:   -1.54 KCAL/MOL
REMARK 922        TOTAL FREE ENERGY PREDICTED BY IDOCK:   -1.63 KCAL/MOL
REMARK 923 INTER-LIGAND FREE ENERGY PREDICTED BY IDOCK:   -1.63 KCAL/MOL
REMARK 924 INTRA-LIGAND FREE ENERGY PREDICTED BY IDOCK:    0.00 KCAL/MOL
REMARK 927      BINDING AFFINITY PREDICTED BY RF-SCORE:    0.00 PKD
ROOT
HETATM    1  N   UNL     1      -7.966  17.729  68.527  1.00  0.00    -0.288 N  
HETATM    2  H1  UNL     1      -7.093  17.270  68.785  1.00  0.00     0.000 HD 
HETATM    3  H2  UNL     1      -8.712  17.171  68.110  1.00  0.00     0.000 HD 
HETATM    4  C   UNL     1      -8.167  19.052  68.719  1.00  0.00    -0.334 C  
HETATM    5  O   UNL     1      -9.219  19.604  68.408  1.00  0.00    -0.347 OA 
ENDROOT
BRANCH   4   6
HETATM    6  N   UNL     1      -7.123  19.707  69.288  1.00  0.00    -0.360 N  
HETATM    7  H   UNL     1      -6.903  19.600  70.278  1.00  0.00     0.000 HD 
HETATM    8  O   UNL     1      -6.355  20.542  68.449  1.00  0.00    -0.299 OA 
HETATM    9  H   UNL     1      -5.624  21.000  68.848  1.00  0.00     0.000 HD 
ENDBRANCH   4   6
TORSDOF 1
ENDMDL
MODEL      111
REMARK 921   NORMALIZED FREE ENERGY PREDICTED BY IDOCK:   -1.53 KCAL/MOL
REMARK 922        TOTAL FREE ENERGY PREDICTED BY IDOCK:   -1.62 KCAL/MOL
REMARK 923 INTER-LIGAND FREE ENERGY PREDICTED BY IDOCK:   -1.62 KCAL/MOL
REMARK 924 INTRA-LIGAND FREE ENERGY PREDICTED BY IDOCK:    0.00 KCAL/MOL
REMARK 927      BINDING AFFINITY PREDICTED BY RF-SCORE:    0.00 PKD
ROOT
HETATM    1  N   UNL     1      -9.940   4.433  70.541  1.00  0.00    -0.213 N  
HETATM    2  H1  UNL     1     -10.172   4.116  71.482  1.00  0.00     0.000 HD 
HETATM    3  H2  UNL     1      -9.300   3.874  69.976  1.00  0.00     0.000 HD 
HETATM    4  C   UNL     1     -10.453   5.570  70.018  1.00  0.00    -0.303 C  
HETATM    5  O   UNL     1     -10.173   5.951  68.885  1.00  0.00    -0.164 OA 
ENDROOT
BRANCH   4   6
HETATM    6  N   UNL     1     -11.302   6.239  70.841  1.00  0.00    -0.326 N  
HETATM    7  H   UNL     1     -11.136   6.295  71.845  1.00  0.00     0.000 HD 
HETATM    8  O   UNL     1     -12.424   6.851  70.244  1.00  0.00    -0.613 OA 
HETATM    9  H   UNL     1     -13.017   7.320  70.820  1.00  0.00     0.000 HD 
ENDBRANCH   4   6
TORSDOF 1
ENDMDL
MODEL      112
REMARK 921   NORMALIZED FREE ENERGY PREDICTED BY IDOCK:   -1.53 KCAL/MOL
REMARK 922        TOTAL FREE ENERGY PREDICTED BY IDOCK:   -1.62 KCAL/MOL
REMARK 923 INTER-LIGAND FREE ENERGY PREDICTED BY IDOCK:   -1.62 KCAL/MOL
REMARK 924 INTRA-LIGAND FREE ENERGY PREDICTED BY IDOCK:    0.00 KCAL/MOL
REMARK 927      BINDING AFFINITY PREDICTED BY RF-SCORE:    0.00 PKD
ROOT
HETATM    1  N   UNL     1      -9.103  13.410  68.553  1.00  0.00    -0.344 N  
HETATM    2  H1  UNL     1      -8.173  13.670  68.882  1.00  0.00     0.000 HD 
HETATM    3  H2  UNL     1      -9.745  12.952  69.201  1.00  0.00     0.000 HD 
HETATM    4  C   UNL     1      -9.511  13.652  67.287  1.00  0.00    -0.230 C  
HETATM    5  O   UNL     1     -10.631  13.338  66.892  1.00  0.00    -0.262 OA 
ENDROOT
BRANCH   4   6
HETATM    6  N   UNL     1      -8.592  14.273  66.504  1.00  0.00    -0.433 N  
HETATM    7  H   UNL     1      -8.841  14.662  65.595  1.00  0.00     0.000 HD 
HETATM    8  O   UNL     1      -7.276  14.357  67.005  1.00  0.00    -0.348 OA 
HETATM    9  H   UNL     1      -6.632  14.793  66.457  1.00  0.00     0.000 HD 
ENDBRANCH   4   6
TORSDOF 1
ENDMDL
MODEL      113
REMARK 921   NORMALIZED FREE ENERGY PREDICTED BY IDOCK:   -1.51 KCAL/MOL
REMARK 922        TOTAL FREE ENERGY PREDICTED BY IDOCK:   -1.59 KCAL/MOL
REMARK 923 INTER-LIGAND FREE ENERGY PREDICTED BY IDOCK:   -1.59 KCAL/MOL
REMARK 924 INTRA-LIGAND FREE ENERGY PREDICTED BY IDOCK:    0.00 KCAL/MOL
REMARK 927      BINDING AFFINITY PREDICTED BY RF-SCORE:    0.00 PKD
ROOT
HETATM    1  N   UNL     1     -10.776  17.747  66.293  1.00  0.00    -0.190 N  
HETATM    2  H1  UNL     1     -10.526  18.125  65.380  1.00  0.00     0.000 HD 
HETATM    3  H2  UNL     1     -11.631  17.198  66.383  1.00  0.00     0.000 HD 
HETATM    4  C   UNL     1     -10.010  17.951  67.389  1.00  0.00    -0.325 C  
HETATM    5  O   UNL     1     -10.312  17.495  68.489  1.00  0.00    -0.348 OA 
ENDROOT
BRANCH   4   6
HETATM    6  N   UNL     1      -8.889  18.683  67.168  1.00  0.00    -0.270 N  
HETATM    7  H   UNL     1      -8.265  18.946  67.931  1.00  0.00     0.000 HD 
HETATM    8  O   UNL     1      -8.625  19.066  65.836  1.00  0.00    -0.461 OA 
HETATM    9  H   UNL     1      -7.840  19.579  65.681  1.00  0.00     0.000 HD 
ENDBRANCH   4   6
TORSDOF 1
ENDMDL
MODEL      114
REMARK 921   NORMALIZED FREE ENERGY PREDICTED BY IDOCK:   -1.48 KCAL/MOL
REMARK 922        TOTAL FREE ENERGY PREDICTED BY IDOCK:   -1.57 KCAL/MOL
REMARK 923 INTER-LIGAND FREE ENERGY PREDICTED BY IDOCK:   -1.57 KCAL/MOL
REMARK 924 INTRA-LIGAND FREE ENERGY PREDICTED BY IDOCK:    0.00 KCAL/MOL
REMARK 927      BINDING AFFINITY PREDICTED BY RF-SCORE:    0.00 PKD
ROOT
HETATM    1  N   UNL     1     -11.605   6.908  69.225  1.00  0.00    -0.581 N  
HETATM    2  H1  UNL     1     -12.013   6.157  69.782  1.00  0.00     0.000 HD 
HETATM    3  H2  UNL     1     -11.746   6.905  68.215  1.00  0.00     0.000 HD 
HETATM    4  C   UNL     1     -10.882   7.905  69.783  1.00  0.00    -0.202 C  
HETATM    5  O   UNL     1     -10.390   8.808  69.112  1.00  0.00    -0.210 OA 
ENDROOT
BRANCH   4   6
HETATM    6  N   UNL     1     -10.758   7.828  71.133  1.00  0.00    -0.225 N  
HETATM    7  H   UNL     1     -10.601   6.937  71.603  1.00  0.00     0.000 HD 
HETATM    8  O   UNL     1     -10.858   9.035  71.856  1.00  0.00    -0.350 OA 
HETATM    9  H   UNL     1     -10.771   8.981  72.801  1.00  0.00     0.000 HD 
ENDBRANCH   4   6
TORSDOF 1
ENDMDL
MODEL      115
REMARK 921   NORMALIZED FREE ENERGY PREDICTED BY IDOCK:   -1.48 KCAL/MOL
REMARK 922        TOTAL FREE ENERGY PREDICTED BY IDOCK:   -1.57 KCAL/MOL
REMARK 923 INTER-LIGAND FREE ENERGY PREDICTED BY IDOCK:   -1.57 KCAL/MOL
REMARK 924 INTRA-LIGAND FREE ENERGY PREDICTED BY IDOCK:    0.00 KCAL/MOL
REMARK 927      BINDING AFFINITY PREDICTED BY RF-SCORE:    0.00 PKD
ROOT
HETATM    1  N   UNL     1      -7.993  10.733  69.515  1.00  0.00    -0.363 N  
HETATM    2  H1  UNL     1      -7.687  11.693  69.358  1.00  0.00     0.000 HD 
HETATM    3  H2  UNL     1      -7.290  10.009  69.666  1.00  0.00     0.000 HD 
HETATM    4  C   UNL     1      -9.301  10.389  69.531  1.00  0.00    -0.127 C  
HETATM    5  O   UNL     1      -9.668   9.233  69.721  1.00  0.00    -0.171 OA 
ENDROOT
BRANCH   4   6
HETATM    6  N   UNL     1     -10.160  11.421  69.333  1.00  0.00    -0.424 N  
HETATM    7  H   UNL     1     -10.006  12.108  68.595  1.00  0.00     0.000 HD 
HETATM    8  O   UNL     1     -11.275  11.501  70.193  1.00  0.00    -0.484 OA 
HETATM    9  H   UNL     1     -11.877  12.224  70.054  1.00  0.00     0.000 HD 
ENDBRANCH   4   6
TORSDOF 1
ENDMDL
MODEL      116
REMARK 921   NORMALIZED FREE ENERGY PREDICTED BY IDOCK:   -1.48 KCAL/MOL
REMARK 922        TOTAL FREE ENERGY PREDICTED BY IDOCK:   -1.57 KCAL/MOL
REMARK 923 INTER-LIGAND FREE ENERGY PREDICTED BY IDOCK:   -1.57 KCAL/MOL
REMARK 924 INTRA-LIGAND FREE ENERGY PREDICTED BY IDOCK:    0.00 KCAL/MOL
REMARK 927      BINDING AFFINITY PREDICTED BY RF-SCORE:    0.00 PKD
ROOT
HETATM    1  N   UNL     1      -6.650  18.556  65.517  1.00  0.00    -0.278 N  
HETATM    2  H1  UNL     1      -5.790  18.139  65.871  1.00  0.00     0.000 HD 
HETATM    3  H2  UNL     1      -6.715  18.786  64.525  1.00  0.00     0.000 HD 
HETATM    4  C   UNL     1      -7.708  18.812  66.320  1.00  0.00    -0.272 C  
HETATM    5  O   UNL     1      -8.744  19.313  65.893  1.00  0.00    -0.443 OA 
ENDROOT
BRANCH   4   6
HETATM    6  N   UNL     1      -7.531  18.461  67.619  1.00  0.00    -0.222 N  
HETATM    7  H   UNL     1      -7.128  17.560  67.878  1.00  0.00     0.000 HD 
HETATM    8  O   UNL     1      -7.928  19.398  68.597  1.00  0.00    -0.351 OA 
HETATM    9  H   UNL     1      -7.803  19.152  69.506  1.00  0.00     0.000 HD 
ENDBRANCH   4   6
TORSDOF 1
ENDMDL
MODEL      117
REMARK 921   NORMALIZED FREE ENERGY PREDICTED BY IDOCK:   -1.48 KCAL/MOL
REMARK 922        TOTAL FREE ENERGY PREDICTED BY IDOCK:   -1.56 KCAL/MOL
REMARK 923 INTER-LIGAND FREE ENERGY PREDICTED BY IDOCK:   -1.56 KCAL/MOL
REMARK 924 INTRA-LIGAND FREE ENERGY PREDICTED BY IDOCK:    0.00 KCAL/MOL
REMARK 927      BINDING AFFINITY PREDICTED BY RF-SCORE:    0.00 PKD
ROOT
HETATM    1  N   UNL     1     -11.746   7.653  73.043  1.00  0.00    -0.616 N  
HETATM    2  H1  UNL     1     -11.665   8.619  73.360  1.00  0.00     0.000 HD 
HETATM    3  H2  UNL     1     -12.672   7.274  72.848  1.00  0.00     0.000 HD 
HETATM    4  C   UNL     1     -10.664   6.859  72.873  1.00  0.00    -0.277 C  
HETATM    5  O   UNL     1     -10.762   5.696  72.492  1.00  0.00    -0.214 OA 
ENDROOT
BRANCH   4   6
HETATM    6  N   UNL     1      -9.475   7.456  73.147  1.00  0.00    -0.180 N  
HETATM    7  H   UNL     1      -8.732   6.961  73.640  1.00  0.00     0.000 HD 
HETATM    8  O   UNL     1      -9.315   8.791  72.721  1.00  0.00    -0.275 OA 
HETATM    9  H   UNL     1      -8.483   9.209  72.913  1.00  0.00     0.000 HD 
ENDBRANCH   4   6
TORSDOF 1
ENDMDL
MODEL      118
REMARK 921   NORMALIZED FREE ENERGY PREDICTED BY IDOCK:   -1.45 KCAL/MOL
REMARK 922        TOTAL FREE ENERGY PREDICTED BY IDOCK:   -1.54 KCAL/MOL
REMARK 923 INTER-LIGAND FREE ENERGY PREDICTED BY IDOCK:   -1.54 KCAL/MOL
REMARK 924 INTRA-LIGAND FREE ENERGY PREDICTED BY IDOCK:    0.00 KCAL/MOL
REMARK 927      BINDING AFFINITY PREDICTED BY RF-SCORE:    0.00 PKD
ROOT
HETATM    1  N   UNL     1     -11.158   5.561  66.134  1.00  0.00    -0.778 N  
HETATM    2  H1  UNL     1     -11.178   6.120  66.987  1.00  0.00     0.000 HD 
HETATM    3  H2  UNL     1     -11.910   5.671  65.455  1.00  0.00     0.000 HD 
HETATM    4  C   UNL     1     -10.165   4.680  65.875  1.00  0.00    -0.276 C  
HETATM    5  O   UNL     1     -10.141   4.008  64.848  1.00  0.00    -0.200 OA 
ENDROOT
BRANCH   4   6
HETATM    6  N   UNL     1      -9.204   4.613  66.833  1.00  0.00    -0.120 N  
HETATM    7  H   UNL     1      -8.235   4.862  66.633  1.00  0.00     0.000 HD 
HETATM    8  O   UNL     1      -9.605   4.183  68.115  1.00  0.00    -0.162 OA 
HETATM    9  H   UNL     1      -8.932   4.137  68.785  1.00  0.00     0.000 HD 
ENDBRANCH   4   6
TORSDOF 1
ENDMDL
MODEL      119
REMARK 921   NORMALIZED FREE ENERGY PREDICTED BY IDOCK:   -1.45 KCAL/MOL
REMARK 922        TOTAL FREE ENERGY PREDICTED BY IDOCK:   -1.54 KCAL/MOL
REMARK 923 INTER-LIGAND FREE ENERGY PREDICTED BY IDOCK:   -1.54 KCAL/MOL
REMARK 924 INTRA-LIGAND FREE ENERGY PREDICTED BY IDOCK:    0.00 KCAL/MOL
REMARK 927      BINDING AFFINITY PREDICTED BY RF-SCORE:    0.00 PKD
ROOT
HETATM    1  N   UNL     1     -11.082   1.861  63.585  1.00  0.00    -0.465 N  
HETATM    2  H1  UNL     1     -12.084   2.038  63.515  1.00  0.00     0.000 HD 
HETATM    3  H2  UNL     1     -10.757   0.901  63.705  1.00  0.00     0.000 HD 
HETATM    4  C   UNL     1     -10.170   2.858  63.525  1.00  0.00    -0.177 C  
HETATM    5  O   UNL     1      -8.964   2.644  63.609  1.00  0.00    -0.092 OA 
ENDROOT
BRANCH   4   6
HETATM    6  N   UNL     1     -10.697   4.097  63.354  1.00  0.00    -0.431 N  
HETATM    7  H   UNL     1     -11.484   4.423  63.914  1.00  0.00     0.000 HD 
HETATM    8  O   UNL     1     -10.108   4.914  62.366  1.00  0.00    -0.371 OA 
HETATM    9  H   UNL     1     -10.477   5.782  62.247  1.00  0.00     0.000 HD 
ENDBRANCH   4   6
TORSDOF 1
ENDMDL
MODEL      120
REMARK 921   NORMALIZED FREE ENERGY PREDICTED BY IDOCK:   -1.45 KCAL/MOL
REMARK 922        TOTAL FREE ENERGY PREDICTED BY IDOCK:   -1.54 KCAL/MOL
REMARK 923 INTER-LIGAND FREE ENERGY PREDICTED BY IDOCK:   -1.54 KCAL/MOL
REMARK 924 INTRA-LIGAND FREE ENERGY PREDICTED BY IDOCK:    0.00 KCAL/MOL
REMARK 927      BINDING AFFINITY PREDICTED BY RF-SCORE:    0.00 PKD
ROOT
HETATM    1  N   UNL     1      -8.154  10.722  63.404  1.00  0.00    -0.359 N  
HETATM    2  H1  UNL     1      -7.625  11.577  63.231  1.00  0.00     0.000 HD 
HETATM    3  H2  UNL     1      -8.085   9.955  62.735  1.00  0.00     0.000 HD 
HETATM    4  C   UNL     1      -8.945  10.574  64.491  1.00  0.00    -0.209 C  
HETATM    5  O   UNL     1      -9.582   9.545  64.699  1.00  0.00    -0.182 OA 
ENDROOT
BRANCH   4   6
HETATM    6  N   UNL     1      -8.963  11.644  65.327  1.00  0.00    -0.410 N  
HETATM    7  H   UNL     1      -9.688  12.359  65.261  1.00  0.00     0.000 HD 
HETATM    8  O   UNL     1      -7.936  11.724  66.291  1.00  0.00    -0.376 OA 
HETATM    9  H   UNL     1      -7.950  12.472  66.876  1.00  0.00     0.000 HD 
ENDBRANCH   4   6
TORSDOF 1
ENDMDL
MODEL      121
REMARK 921   NORMALIZED FREE ENERGY PREDICTED BY IDOCK:   -1.44 KCAL/MOL
REMARK 922        TOTAL FREE ENERGY PREDICTED BY IDOCK:   -1.53 KCAL/MOL
REMARK 923 INTER-LIGAND FREE ENERGY PREDICTED BY IDOCK:   -1.53 KCAL/MOL
REMARK 924 INTRA-LIGAND FREE ENERGY PREDICTED BY IDOCK:    0.00 KCAL/MOL
REMARK 927      BINDING AFFINITY PREDICTED BY RF-SCORE:    0.00 PKD
ROOT
HETATM    1  N   UNL     1      -8.841  13.443  68.737  1.00  0.00    -0.382 N  
HETATM    2  H1  UNL     1      -8.533  14.362  68.421  1.00  0.00     0.000 HD 
HETATM    3  H2  UNL     1      -9.261  13.355  69.662  1.00  0.00     0.000 HD 
HETATM    4  C   UNL     1      -8.711  12.338  67.968  1.00  0.00    -0.181 C  
HETATM    5  O   UNL     1      -9.083  11.231  68.349  1.00  0.00    -0.159 OA 
ENDROOT
BRANCH   4   6
HETATM    6  N   UNL     1      -8.152  12.558  66.750  1.00  0.00    -0.395 N  
HETATM    7  H   UNL     1      -8.724  12.769  65.932  1.00  0.00     0.000 HD 
HETATM    8  O   UNL     1      -6.746  12.481  66.667  1.00  0.00    -0.408 OA 
HETATM    9  H   UNL     1      -6.355  12.635  65.814  1.00  0.00     0.000 HD 
ENDBRANCH   4   6
TORSDOF 1
ENDMDL
MODEL      122
REMARK 921   NORMALIZED FREE ENERGY PREDICTED BY IDOCK:   -1.43 KCAL/MOL
REMARK 922        TOTAL FREE ENERGY PREDICTED BY IDOCK:   -1.52 KCAL/MOL
REMARK 923 INTER-LIGAND FREE ENERGY PREDICTED BY IDOCK:   -1.52 KCAL/MOL
REMARK 924 INTRA-LIGAND FREE ENERGY PREDICTED BY IDOCK:    0.00 KCAL/MOL
REMARK 927      BINDING AFFINITY PREDICTED BY RF-SCORE:    0.00 PKD
ROOT
HETATM    1  N   UNL     1      -8.662   8.755  67.642  1.00  0.00    -0.135 N  
HETATM    2  H1  UNL     1      -8.163   8.710  66.754  1.00  0.00     0.000 HD 
HETATM    3  H2  UNL     1      -8.169   9.093  68.468  1.00  0.00     0.000 HD 
HETATM    4  C   UNL     1      -9.956   8.379  67.758  1.00  0.00    -0.186 C  
HETATM    5  O   UNL     1     -10.557   8.433  68.828  1.00  0.00    -0.203 OA 
ENDROOT
BRANCH   4   6
HETATM    6  N   UNL     1     -10.529   7.955  66.603  1.00  0.00    -0.469 N  
HETATM    7  H   UNL     1     -10.745   8.603  65.846  1.00  0.00     0.000 HD 
HETATM    8  O   UNL     1     -10.811   6.577  66.495  1.00  0.00    -0.526 OA 
HETATM    9  H   UNL     1     -11.211   6.280  65.686  1.00  0.00     0.000 HD 
ENDBRANCH   4   6
TORSDOF 1
ENDMDL
MODEL      123
REMARK 921   NORMALIZED FREE ENERGY PREDICTED BY IDOCK:   -1.39 KCAL/MOL
REMARK 922        TOTAL FREE ENERGY PREDICTED BY IDOCK:   -1.47 KCAL/MOL
REMARK 923 INTER-LIGAND FREE ENERGY PREDICTED BY IDOCK:   -1.47 KCAL/MOL
REMARK 924 INTRA-LIGAND FREE ENERGY PREDICTED BY IDOCK:    0.00 KCAL/MOL
REMARK 927      BINDING AFFINITY PREDICTED BY RF-SCORE:    0.00 PKD
ROOT
HETATM    1  N   UNL     1      -9.588  19.229  67.316  1.00  0.00    -0.312 N  
HETATM    2  H1  UNL     1      -9.893  18.266  67.455  1.00  0.00     0.000 HD 
HETATM    3  H2  UNL     1     -10.278  19.932  67.051  1.00  0.00     0.000 HD 
HETATM    4  C   UNL     1      -8.297  19.603  67.472  1.00  0.00    -0.302 C  
HETATM    5  O   UNL     1      -7.930  20.763  67.304  1.00  0.00    -0.329 OA 
ENDROOT
BRANCH   4   6
HETATM    6  N   UNL     1      -7.457  18.601  67.836  1.00  0.00    -0.235 N  
HETATM    7  H   UNL     1      -7.198  17.860  67.185  1.00  0.00     0.000 HD 
HETATM    8  O   UNL     1      -6.958  18.629  69.155  1.00  0.00    -0.290 OA 
HETATM    9  H   UNL     1      -6.370  17.928  69.410  1.00  0.00     0.000 HD 
ENDBRANCH   4   6
TORSDOF 1
ENDMDL
MODEL      124
REMARK 921   NORMALIZED FREE ENERGY PREDICTED BY IDOCK:   -1.37 KCAL/MOL
REMARK 922        TOTAL FREE ENERGY PREDICTED BY IDOCK:   -1.45 KCAL/MOL
REMARK 923 INTER-LIGAND FREE ENERGY PREDICTED BY IDOCK:   -1.45 KCAL/MOL
REMARK 924 INTRA-LIGAND FREE ENERGY PREDICTED BY IDOCK:    0.00 KCAL/MOL
REMARK 927      BINDING AFFINITY PREDICTED BY RF-SCORE:    0.00 PKD
ROOT
HETATM    1  N   UNL     1      -6.607  11.393  65.969  1.00  0.00    -0.365 N  
HETATM    2  H1  UNL     1      -6.429  12.340  65.636  1.00  0.00     0.000 HD 
HETATM    3  H2  UNL     1      -5.814  10.789  66.187  1.00  0.00     0.000 HD 
HETATM    4  C   UNL     1      -7.861  10.912  66.131  1.00  0.00    -0.144 C  
HETATM    5  O   UNL     1      -8.075   9.771  66.532  1.00  0.00    -0.115 OA 
ENDROOT
BRANCH   4   6
HETATM    6  N   UNL     1      -8.848  11.792  65.825  1.00  0.00    -0.404 N  
HETATM    7  H   UNL     1      -9.629  11.529  65.224  1.00  0.00     0.000 HD 
HETATM    8  O   UNL     1      -8.746  13.087  66.376  1.00  0.00    -0.426 OA 
HETATM    9  H   UNL     1      -9.438  13.703  66.162  1.00  0.00     0.000 HD 
ENDBRANCH   4   6
TORSDOF 1
ENDMDL
MODEL      125
REMARK 921   NORMALIZED FREE ENERGY PREDICTED BY IDOCK:   -1.37 KCAL/MOL
REMARK 922        TOTAL FREE ENERGY PREDICTED BY IDOCK:   -1.45 KCAL/MOL
REMARK 923 INTER-LIGAND FREE ENERGY PREDICTED BY IDOCK:   -1.45 KCAL/MOL
REMARK 924 INTRA-LIGAND FREE ENERGY PREDICTED BY IDOCK:    0.00 KCAL/MOL
REMARK 927      BINDING AFFINITY PREDICTED BY RF-SCORE:    0.00 PKD
ROOT
HETATM    1  N   UNL     1      -8.628  14.943  67.301  1.00  0.00    -0.199 N  
HETATM    2  H1  UNL     1      -8.826  14.134  66.712  1.00  0.00     0.000 HD 
HETATM    3  H2  UNL     1      -8.081  15.712  66.915  1.00  0.00     0.000 HD 
HETATM    4  C   UNL     1      -9.068  15.027  68.577  1.00  0.00    -0.188 C  
HETATM    5  O   UNL     1      -8.829  16.001  69.286  1.00  0.00    -0.248 OA 
ENDROOT
BRANCH   4   6
HETATM    6  N   UNL     1      -9.796  13.961  68.997  1.00  0.00    -0.428 N  
HETATM    7  H   UNL     1     -10.739  14.072  69.368  1.00  0.00     0.000 HD 
HETATM    8  O   UNL     1      -9.190  12.691  68.897  1.00  0.00    -0.391 OA 
HETATM    9  H   UNL     1      -9.699  11.945  69.190  1.00  0.00     0.000 HD 
ENDBRANCH   4   6
TORSDOF 1
ENDMDL
MODEL      126
REMARK 921   NORMALIZED FREE ENERGY PREDICTED BY IDOCK:   -1.37 KCAL/MOL
REMARK 922        TOTAL FREE ENERGY PREDICTED BY IDOCK:   -1.45 KCAL/MOL
REMARK 923 INTER-LIGAND FREE ENERGY PREDICTED BY IDOCK:   -1.45 KCAL/MOL
REMARK 924 INTRA-LIGAND FREE ENERGY PREDICTED BY IDOCK:    0.00 KCAL/MOL
REMARK 927      BINDING AFFINITY PREDICTED BY RF-SCORE:    0.00 PKD
ROOT
HETATM    1  N   UNL     1      -9.695   3.515  66.356  1.00  0.00    -0.402 N  
HETATM    2  H1  UNL     1      -9.432   4.227  67.037  1.00  0.00     0.000 HD 
HETATM    3  H2  UNL     1      -9.962   2.589  66.688  1.00  0.00     0.000 HD 
HETATM    4  C   UNL     1      -9.702   3.761  65.026  1.00  0.00    -0.183 C  
HETATM    5  O   UNL     1     -10.019   2.904  64.206  1.00  0.00    -0.154 OA 
ENDROOT
BRANCH   4   6
HETATM    6  N   UNL     1      -9.342   5.025  64.682  1.00  0.00    -0.357 N  
HETATM    7  H   UNL     1      -8.799   5.213  63.840  1.00  0.00     0.000 HD 
HETATM    8  O   UNL     1      -9.753   6.065  65.542  1.00  0.00    -0.353 OA 
HETATM    9  H   UNL     1      -9.502   6.949  65.301  1.00  0.00     0.000 HD 
ENDBRANCH   4   6
TORSDOF 1
ENDMDL
MODEL      127
REMARK 921   NORMALIZED FREE ENERGY PREDICTED BY IDOCK:   -1.35 KCAL/MOL
REMARK 922        TOTAL FREE ENERGY PREDICTED BY IDOCK:   -1.43 KCAL/MOL
REMARK 923 INTER-LIGAND FREE ENERGY PREDICTED BY IDOCK:   -1.43 KCAL/MOL
REMARK 924 INTRA-LIGAND FREE ENERGY PREDICTED BY IDOCK:    0.00 KCAL/MOL
REMARK 927      BINDING AFFINITY PREDICTED BY RF-SCORE:    0.00 PKD
ROOT
HETATM    1  N   UNL     1      -9.236  15.039  66.034  1.00  0.00    -0.472 N  
HETATM    2  H1  UNL     1      -8.400  15.611  66.157  1.00  0.00     0.000 HD 
HETATM    3  H2  UNL     1      -9.380  14.560  65.146  1.00  0.00     0.000 HD 
HETATM    4  C   UNL     1     -10.159  14.898  67.013  1.00  0.00    -0.244 C  
HETATM    5  O   UNL     1     -11.165  14.209  66.865  1.00  0.00    -0.300 OA 
ENDROOT
BRANCH   4   6
HETATM    6  N   UNL     1      -9.874  15.565  68.161  1.00  0.00    -0.215 N  
HETATM    7  H   UNL     1     -10.351  16.432  68.405  1.00  0.00     0.000 HD 
HETATM    8  O   UNL     1      -8.888  15.005  69.000  1.00  0.00    -0.197 OA 
HETATM    9  H   UNL     1      -8.690  15.472  69.804  1.00  0.00     0.000 HD 
ENDBRANCH   4   6
TORSDOF 1
ENDMDL
MODEL      128
REMARK 921   NORMALIZED FREE ENERGY PREDICTED BY IDOCK:   -1.33 KCAL/MOL
REMARK 922        TOTAL FREE ENERGY PREDICTED BY IDOCK:   -1.41 KCAL/MOL
REMARK 923 INTER-LIGAND FREE ENERGY PREDICTED BY IDOCK:   -1.41 KCAL/MOL
REMARK 924 INTRA-LIGAND FREE ENERGY PREDICTED BY IDOCK:    0.00 KCAL/MOL
REMARK 927      BINDING AFFINITY PREDICTED BY RF-SCORE:    0.00 PKD
ROOT
HETATM    1  N   UNL     1     -10.336  12.368  67.755  1.00  0.00    -0.212 N  
HETATM    2  H1  UNL     1      -9.735  11.587  68.021  1.00  0.00     0.000 HD 
HETATM    3  H2  UNL     1     -11.191  12.177  67.233  1.00  0.00     0.000 HD 
HETATM    4  C   UNL     1     -10.034  13.647  68.075  1.00  0.00    -0.247 C  
HETATM    5  O   UNL     1     -10.757  14.587  67.755  1.00  0.00    -0.251 OA 
ENDROOT
BRANCH   4   6
HETATM    6  N   UNL     1      -8.883  13.799  68.779  1.00  0.00    -0.368 N  
HETATM    7  H   UNL     1      -8.597  14.707  69.143  1.00  0.00     0.000 HD 
HETATM    8  O   UNL     1      -8.101  12.643  68.985  1.00  0.00    -0.333 OA 
HETATM    9  H   UNL     1      -7.296  12.749  69.479  1.00  0.00     0.000 HD 
ENDBRANCH   4   6
TORSDOF 1
ENDMDL
MODEL      129
REMARK 921   NORMALIZED FREE ENERGY PREDICTED BY IDOCK:   -1.32 KCAL/MOL
REMARK 922        TOTAL FREE ENERGY PREDICTED BY IDOCK:   -1.40 KCAL/MOL
REMARK 923 INTER-LIGAND FREE ENERGY PREDICTED BY IDOCK:   -1.40 KCAL/MOL
REMARK 924 INTRA-LIGAND FREE ENERGY PREDICTED BY IDOCK:    0.00 KCAL/MOL
REMARK 927      BINDING AFFINITY PREDICTED BY RF-SCORE:    0.00 PKD
ROOT
HETATM    1  N   UNL     1      -6.771  18.882  65.117  1.00  0.00    -0.176 N  
HETATM    2  H1  UNL     1      -7.367  18.893  64.289  1.00  0.00     0.000 HD 
HETATM    3  H2  UNL     1      -5.783  19.112  65.017  1.00  0.00     0.000 HD 
HETATM    4  C   UNL     1      -7.252  18.573  66.343  1.00  0.00    -0.240 C  
HETATM    5  O   UNL     1      -6.535  18.561  67.340  1.00  0.00    -0.191 OA 
ENDROOT
BRANCH   4   6
HETATM    6  N   UNL     1      -8.580  18.293  66.377  1.00  0.00    -0.267 N  
HETATM    7  H   UNL     1      -9.248  18.933  66.806  1.00  0.00     0.000 HD 
HETATM    8  O   UNL     1      -8.994  17.078  65.792  1.00  0.00    -0.526 OA 
HETATM    9  H   UNL     1      -9.924  16.882  65.815  1.00  0.00     0.000 HD 
ENDBRANCH   4   6
TORSDOF 1
ENDMDL
MODEL      130
REMARK 921   NORMALIZED FREE ENERGY PREDICTED BY IDOCK:   -1.31 KCAL/MOL
REMARK 922        TOTAL FREE ENERGY PREDICTED BY IDOCK:   -1.39 KCAL/MOL
REMARK 923 INTER-LIGAND FREE ENERGY PREDICTED BY IDOCK:   -1.39 KCAL/MOL
REMARK 924 INTRA-LIGAND FREE ENERGY PREDICTED BY IDOCK:    0.00 KCAL/MOL
REMARK 927      BINDING AFFINITY PREDICTED BY RF-SCORE:    0.00 PKD
ROOT
HETATM    1  N   UNL     1     -10.597   5.171  74.242  1.00  0.00    -0.281 N  
HETATM    2  H1  UNL     1     -11.537   4.972  73.899  1.00  0.00     0.000 HD 
HETATM    3  H2  UNL     1     -10.085   4.438  74.732  1.00  0.00     0.000 HD 
HETATM    4  C   UNL     1     -10.009   6.376  74.066  1.00  0.00    -0.283 C  
HETATM    5  O   UNL     1      -8.877   6.615  74.478  1.00  0.00    -0.157 OA 
ENDROOT
BRANCH   4   6
HETATM    6  N   UNL     1     -10.764   7.282  73.394  1.00  0.00    -0.438 N  
HETATM    7  H   UNL     1     -11.112   8.127  73.847  1.00  0.00     0.000 HD 
HETATM    8  O   UNL     1     -11.045   7.004  72.040  1.00  0.00    -0.232 OA 
HETATM    9  H   UNL     1     -11.574   7.639  71.569  1.00  0.00     0.000 HD 
ENDBRANCH   4   6
TORSDOF 1
ENDMDL
MODEL      131
REMARK 921   NORMALIZED FREE ENERGY PREDICTED BY IDOCK:   -1.31 KCAL/MOL
REMARK 922        TOTAL FREE ENERGY PREDICTED BY IDOCK:   -1.39 KCAL/MOL
REMARK 923 INTER-LIGAND FREE ENERGY PREDICTED BY IDOCK:   -1.39 KCAL/MOL
REMARK 924 INTRA-LIGAND FREE ENERGY PREDICTED BY IDOCK:    0.00 KCAL/MOL
REMARK 927      BINDING AFFINITY PREDICTED BY RF-SCORE:    0.00 PKD
ROOT
HETATM    1  N   UNL     1      -9.231   5.359  62.566  1.00  0.00    -0.353 N  
HETATM    2  H1  UNL     1      -9.835   5.613  61.785  1.00  0.00     0.000 HD 
HETATM    3  H2  UNL     1      -8.322   5.813  62.655  1.00  0.00     0.000 HD 
HETATM    4  C   UNL     1      -9.597   4.439  63.487  1.00  0.00    -0.023 C  
HETATM    5  O   UNL     1      -8.869   4.133  64.428  1.00  0.00    -0.126 OA 
ENDROOT
BRANCH   4   6
HETATM    6  N   UNL     1     -10.826   3.898  63.291  1.00  0.00    -0.328 N  
HETATM    7  H   UNL     1     -11.547   4.392  62.764  1.00  0.00     0.000 HD 
HETATM    8  O   UNL     1     -11.063   2.624  63.847  1.00  0.00    -0.559 OA 
HETATM    9  H   UNL     1     -11.924   2.246  63.708  1.00  0.00     0.000 HD 
ENDBRANCH   4   6
TORSDOF 1
ENDMDL
MODEL      132
REMARK 921   NORMALIZED FREE ENERGY PREDICTED BY IDOCK:   -1.31 KCAL/MOL
REMARK 922        TOTAL FREE ENERGY PREDICTED BY IDOCK:   -1.38 KCAL/MOL
REMARK 923 INTER-LIGAND FREE ENERGY PREDICTED BY IDOCK:   -1.38 KCAL/MOL
REMARK 924 INTRA-LIGAND FREE ENERGY PREDICTED BY IDOCK:    0.00 KCAL/MOL
REMARK 927      BINDING AFFINITY PREDICTED BY RF-SCORE:    0.00 PKD
ROOT
HETATM    1  N   UNL     1     -10.854   7.755  73.079  1.00  0.00    -0.398 N  
HETATM    2  H1  UNL     1      -9.990   7.781  73.619  1.00  0.00     0.000 HD 
HETATM    3  H2  UNL     1     -11.435   8.593  73.036  1.00  0.00     0.000 HD 
HETATM    4  C   UNL     1     -11.255   6.645  72.417  1.00  0.00    -0.267 C  
HETATM    5  O   UNL     1     -12.296   6.615  71.767  1.00  0.00    -0.345 OA 
ENDROOT
BRANCH   4   6
HETATM    6  N   UNL     1     -10.412   5.587  72.525  1.00  0.00    -0.206 N  
HETATM    7  H   UNL     1      -9.996   5.151  71.702  1.00  0.00     0.000 HD 
HETATM    8  O   UNL     1     -10.137   5.115  73.826  1.00  0.00    -0.169 OA 
HETATM    9  H   UNL     1      -9.547   4.374  73.901  1.00  0.00     0.000 HD 
ENDBRANCH   4   6
TORSDOF 1
ENDMDL
MODEL      133
REMARK 921   NORMALIZED FREE ENERGY PREDICTED BY IDOCK:   -1.31 KCAL/MOL
REMARK 922        TOTAL FREE ENERGY PREDICTED BY IDOCK:   -1.38 KCAL/MOL
REMARK 923 INTER-LIGAND FREE ENERGY PREDICTED BY IDOCK:   -1.38 KCAL/MOL
REMARK 924 INTRA-LIGAND FREE ENERGY PREDICTED BY IDOCK:    0.00 KCAL/MOL
REMARK 927      BINDING AFFINITY PREDICTED BY RF-SCORE:    0.00 PKD
ROOT
HETATM    1  N   UNL     1      -7.116  11.798  66.501  1.00  0.00    -0.376 N  
HETATM    2  H1  UNL     1      -6.486  12.299  65.874  1.00  0.00     0.000 HD 
HETATM    3  H2  UNL     1      -7.004  10.791  66.612  1.00  0.00     0.000 HD 
HETATM    4  C   UNL     1      -8.094  12.429  67.190  1.00  0.00    -0.167 C  
HETATM    5  O   UNL     1      -8.852  11.826  67.945  1.00  0.00    -0.152 OA 
ENDROOT
BRANCH   4   6
HETATM    6  N   UNL     1      -8.157  13.770  66.986  1.00  0.00    -0.381 N  
HETATM    7  H   UNL     1      -9.051  14.258  66.928  1.00  0.00     0.000 HD 
HETATM    8  O   UNL     1      -6.932  14.457  66.856  1.00  0.00    -0.306 OA 
HETATM    9  H   UNL     1      -6.977  15.396  66.713  1.00  0.00     0.000 HD 
ENDBRANCH   4   6
TORSDOF 1
ENDMDL
MODEL      134
REMARK 921   NORMALIZED FREE ENERGY PREDICTED BY IDOCK:   -1.30 KCAL/MOL
REMARK 922        TOTAL FREE ENERGY PREDICTED BY IDOCK:   -1.37 KCAL/MOL
REMARK 923 INTER-LIGAND FREE ENERGY PREDICTED BY IDOCK:   -1.37 KCAL/MOL
REMARK 924 INTRA-LIGAND FREE ENERGY PREDICTED BY IDOCK:    0.00 KCAL/MOL
REMARK 927      BINDING AFFINITY PREDICTED BY RF-SCORE:    0.00 PKD
ROOT
HETATM    1  N   UNL     1      -8.286  12.497  66.671  1.00  0.00    -0.408 N  
HETATM    2  H1  UNL     1      -7.416  11.995  66.849  1.00  0.00     0.000 HD 
HETATM    3  H2  UNL     1      -8.267  13.318  66.065  1.00  0.00     0.000 HD 
HETATM    4  C   UNL     1      -9.463  12.109  67.212  1.00  0.00    -0.184 C  
HETATM    5  O   UNL     1     -10.510  12.714  66.997  1.00  0.00    -0.231 OA 
ENDROOT
BRANCH   4   6
HETATM    6  N   UNL     1      -9.389  11.002  67.994  1.00  0.00    -0.158 N  
HETATM    7  H   UNL     1      -9.532  10.068  67.610  1.00  0.00     0.000 HD 
HETATM    8  O   UNL     1      -9.106  11.201  69.362  1.00  0.00    -0.391 OA 
HETATM    9  H   UNL     1      -9.054  10.425  69.909  1.00  0.00     0.000 HD 
ENDBRANCH   4   6
TORSDOF 1
ENDMDL
MODEL      135
REMARK 921   NORMALIZED FREE ENERGY PREDICTED BY IDOCK:   -1.29 KCAL/MOL
REMARK 922        TOTAL FREE ENERGY PREDICTED BY IDOCK:   -1.37 KCAL/MOL
REMARK 923 INTER-LIGAND FREE ENERGY PREDICTED BY IDOCK:   -1.37 KCAL/MOL
REMARK 924 INTRA-LIGAND FREE ENERGY PREDICTED BY IDOCK:    0.00 KCAL/MOL
REMARK 927      BINDING AFFINITY PREDICTED BY RF-SCORE:    0.00 PKD
ROOT
HETATM    1  N   UNL     1      -8.023   2.228  64.828  1.00  0.00    -0.077 N  
HETATM    2  H1  UNL     1      -8.237   1.344  64.365  1.00  0.00     0.000 HD 
HETATM    3  H2  UNL     1      -7.061   2.418  65.109  1.00  0.00     0.000 HD 
HETATM    4  C   UNL     1      -8.975   3.155  65.081  1.00  0.00    -0.142 C  
HETATM    5  O   UNL     1      -8.718   4.218  65.638  1.00  0.00    -0.116 OA 
ENDROOT
BRANCH   4   6
HETATM    6  N   UNL     1     -10.221   2.816  64.660  1.00  0.00    -0.365 N  
HETATM    7  H   UNL     1     -10.439   1.870  64.349  1.00  0.00     0.000 HD 
HETATM    8  O   UNL     1     -11.200   3.831  64.673  1.00  0.00    -0.670 OA 
HETATM    9  H   UNL     1     -12.072   3.594  64.379  1.00  0.00     0.000 HD 
ENDBRANCH   4   6
TORSDOF 1
ENDMDL
MODEL      136
REMARK 921   NORMALIZED FREE ENERGY PREDICTED BY IDOCK:   -1.29 KCAL/MOL
REMARK 922        TOTAL FREE ENERGY PREDICTED BY IDOCK:   -1.36 KCAL/MOL
REMARK 923 INTER-LIGAND FREE ENERGY PREDICTED BY IDOCK:   -1.36 KCAL/MOL
REMARK 924 INTRA-LIGAND FREE ENERGY PREDICTED BY IDOCK:    0.00 KCAL/MOL
REMARK 927      BINDING AFFINITY PREDICTED BY RF-SCORE:    0.00 PKD
ROOT
HETATM    1  N   UNL     1      -8.308   6.721  68.074  1.00  0.00    -0.120 N  
HETATM    2  H1  UNL     1      -8.502   7.326  68.872  1.00  0.00     0.000 HD 
HETATM    3  H2  UNL     1      -7.485   6.119  68.099  1.00  0.00     0.000 HD 
HETATM    4  C   UNL     1      -9.108   6.692  66.984  1.00  0.00    -0.130 C  
HETATM    5  O   UNL     1      -8.874   5.963  66.023  1.00  0.00    -0.143 OA 
ENDROOT
BRANCH   4   6
HETATM    6  N   UNL     1     -10.183   7.518  67.048  1.00  0.00    -0.269 N  
HETATM    7  H   UNL     1     -10.076   8.533  67.048  1.00  0.00     0.000 HD 
HETATM    8  O   UNL     1     -11.455   6.912  67.114  1.00  0.00    -0.703 OA 
HETATM    9  H   UNL     1     -12.208   7.491  67.159  1.00  0.00     0.000 HD 
ENDBRANCH   4   6
TORSDOF 1
ENDMDL
MODEL      137
REMARK 921   NORMALIZED FREE ENERGY PREDICTED BY IDOCK:   -1.29 KCAL/MOL
REMARK 922        TOTAL FREE ENERGY PREDICTED BY IDOCK:   -1.36 KCAL/MOL
REMARK 923 INTER-LIGAND FREE ENERGY PREDICTED BY IDOCK:   -1.36 KCAL/MOL
REMARK 924 INTRA-LIGAND FREE ENERGY PREDICTED BY IDOCK:    0.00 KCAL/MOL
REMARK 927      BINDING AFFINITY PREDICTED BY RF-SCORE:    0.00 PKD
ROOT
HETATM    1  N   UNL     1      -7.443  13.793  69.350  1.00  0.00    -0.327 N  
HETATM    2  H1  UNL     1      -7.497  12.775  69.397  1.00  0.00     0.000 HD 
HETATM    3  H2  UNL     1      -8.103  14.295  68.757  1.00  0.00     0.000 HD 
HETATM    4  C   UNL     1      -6.524  14.497  70.050  1.00  0.00    -0.160 C  
HETATM    5  O   UNL     1      -6.460  15.722  69.993  1.00  0.00    -0.157 OA 
ENDROOT
BRANCH   4   6
HETATM    6  N   UNL     1      -5.697  13.742  70.818  1.00  0.00    -0.184 N  
HETATM    7  H   UNL     1      -4.847  14.130  71.226  1.00  0.00     0.000 HD 
HETATM    8  O   UNL     1      -6.067  12.397  71.028  1.00  0.00    -0.536 OA 
HETATM    9  H   UNL     1      -5.488  11.869  71.566  1.00  0.00     0.000 HD 
ENDBRANCH   4   6
TORSDOF 1
ENDMDL
MODEL      138
REMARK 921   NORMALIZED FREE ENERGY PREDICTED BY IDOCK:   -1.25 KCAL/MOL
REMARK 922        TOTAL FREE ENERGY PREDICTED BY IDOCK:   -1.33 KCAL/MOL
REMARK 923 INTER-LIGAND FREE ENERGY PREDICTED BY IDOCK:   -1.33 KCAL/MOL
REMARK 924 INTRA-LIGAND FREE ENERGY PREDICTED BY IDOCK:    0.00 KCAL/MOL
REMARK 927      BINDING AFFINITY PREDICTED BY RF-SCORE:    0.00 PKD
ROOT
HETATM    1  N   UNL     1      -8.210   9.734  66.895  1.00  0.00    -0.117 N  
HETATM    2  H1  UNL     1      -7.769   9.764  65.976  1.00  0.00     0.000 HD 
HETATM    3  H2  UNL     1      -7.722  10.146  67.690  1.00  0.00     0.000 HD 
HETATM    4  C   UNL     1      -9.421   9.164  67.092  1.00  0.00    -0.154 C  
HETATM    5  O   UNL     1      -9.951   9.128  68.199  1.00  0.00    -0.163 OA 
ENDROOT
BRANCH   4   6
HETATM    6  N   UNL     1      -9.995   8.652  65.974  1.00  0.00    -0.460 N  
HETATM    7  H   UNL     1     -10.733   7.950  66.027  1.00  0.00     0.000 HD 
HETATM    8  O   UNL     1      -9.525   9.134  64.734  1.00  0.00    -0.436 OA 
HETATM    9  H   UNL     1      -9.928   8.776  63.951  1.00  0.00     0.000 HD 
ENDBRANCH   4   6
TORSDOF 1
ENDMDL
MODEL      139
REMARK 921   NORMALIZED FREE ENERGY PREDICTED BY IDOCK:   -1.24 KCAL/MOL
REMARK 922        TOTAL FREE ENERGY PREDICTED BY IDOCK:   -1.31 KCAL/MOL
REMARK 923 INTER-LIGAND FREE ENERGY PREDICTED BY IDOCK:   -1.31 KCAL/MOL
REMARK 924 INTRA-LIGAND FREE ENERGY PREDICTED BY IDOCK:    0.00 KCAL/MOL
REMARK 927      BINDING AFFINITY PREDICTED BY RF-SCORE:    0.00 PKD
ROOT
HETATM    1  N   UNL     1      -8.708   9.053  68.188  1.00  0.00    -0.130 N  
HETATM    2  H1  UNL     1      -7.954   9.734  68.097  1.00  0.00     0.000 HD 
HETATM    3  H2  UNL     1      -8.828   8.349  67.460  1.00  0.00     0.000 HD 
HETATM    4  C   UNL     1      -9.552   9.054  69.245  1.00  0.00    -0.162 C  
HETATM    5  O   UNL     1     -10.459   8.234  69.355  1.00  0.00    -0.220 OA 
ENDROOT
BRANCH   4   6
HETATM    6  N   UNL     1      -9.306  10.021  70.166  1.00  0.00    -0.385 N  
HETATM    7  H   UNL     1     -10.054  10.420  70.733  1.00  0.00     0.000 HD 
HETATM    8  O   UNL     1      -7.969  10.449  70.304  1.00  0.00    -0.413 OA 
HETATM    9  H   UNL     1      -7.796  11.126  70.949  1.00  0.00     0.000 HD 
ENDBRANCH   4   6
TORSDOF 1
ENDMDL
MODEL      140
REMARK 921   NORMALIZED FREE ENERGY PREDICTED BY IDOCK:   -1.23 KCAL/MOL
REMARK 922        TOTAL FREE ENERGY PREDICTED BY IDOCK:   -1.30 KCAL/MOL
REMARK 923 INTER-LIGAND FREE ENERGY PREDICTED BY IDOCK:   -1.30 KCAL/MOL
REMARK 924 INTRA-LIGAND FREE ENERGY PREDICTED BY IDOCK:    0.00 KCAL/MOL
REMARK 927      BINDING AFFINITY PREDICTED BY RF-SCORE:    0.00 PKD
ROOT
HETATM    1  N   UNL     1      -9.857   8.852  65.608  1.00  0.00    -0.453 N  
HETATM    2  H1  UNL     1     -10.345   9.632  66.047  1.00  0.00     0.000 HD 
HETATM    3  H2  UNL     1     -10.283   7.926  65.633  1.00  0.00     0.000 HD 
HETATM    4  C   UNL     1      -8.662   9.007  64.993  1.00  0.00    -0.183 C  
HETATM    5  O   UNL     1      -8.074   8.067  64.465  1.00  0.00    -0.147 OA 
ENDROOT
BRANCH   4   6
HETATM    6  N   UNL     1      -8.181  10.276  65.002  1.00  0.00    -0.152 N  
HETATM    7  H   UNL     1      -7.819  10.703  65.855  1.00  0.00     0.000 HD 
HETATM    8  O   UNL     1      -8.205  10.979  63.779  1.00  0.00    -0.366 OA 
HETATM    9  H   UNL     1      -7.868  11.868  63.786  1.00  0.00     0.000 HD 
ENDBRANCH   4   6
TORSDOF 1
ENDMDL
MODEL      141
REMARK 921   NORMALIZED FREE ENERGY PREDICTED BY IDOCK:   -1.23 KCAL/MOL
REMARK 922        TOTAL FREE ENERGY PREDICTED BY IDOCK:   -1.30 KCAL/MOL
REMARK 923 INTER-LIGAND FREE ENERGY PREDICTED BY IDOCK:   -1.30 KCAL/MOL
REMARK 924 INTRA-LIGAND FREE ENERGY PREDICTED BY IDOCK:    0.00 KCAL/MOL
REMARK 927      BINDING AFFINITY PREDICTED BY RF-SCORE:    0.00 PKD
ROOT
HETATM    1  N   UNL     1      -9.080   5.041  63.303  1.00  0.00    -0.341 N  
HETATM    2  H1  UNL     1      -9.372   5.905  62.846  1.00  0.00     0.000 HD 
HETATM    3  H2  UNL     1      -9.009   4.188  62.748  1.00  0.00     0.000 HD 
HETATM    4  C   UNL     1      -8.783   4.992  64.622  1.00  0.00    -0.141 C  
HETATM    5  O   UNL     1      -8.431   3.952  65.172  1.00  0.00    -0.110 OA 
ENDROOT
BRANCH   4   6
HETATM    6  N   UNL     1      -8.897   6.178  65.273  1.00  0.00    -0.354 N  
HETATM    7  H   UNL     1      -9.262   6.231  66.224  1.00  0.00     0.000 HD 
HETATM    8  O   UNL     1      -8.488   7.334  64.575  1.00  0.00    -0.353 OA 
HETATM    9  H   UNL     1      -8.567   8.164  65.031  1.00  0.00     0.000 HD 
ENDBRANCH   4   6
TORSDOF 1
ENDMDL
MODEL      142
REMARK 921   NORMALIZED FREE ENERGY PREDICTED BY IDOCK:   -1.22 KCAL/MOL
REMARK 922        TOTAL FREE ENERGY PREDICTED BY IDOCK:   -1.29 KCAL/MOL
REMARK 923 INTER-LIGAND FREE ENERGY PREDICTED BY IDOCK:   -1.29 KCAL/MOL
REMARK 924 INTRA-LIGAND FREE ENERGY PREDICTED BY IDOCK:    0.00 KCAL/MOL
REMARK 927      BINDING AFFINITY PREDICTED BY RF-SCORE:    0.00 PKD
ROOT
HETATM    1  N   UNL     1     -10.193   7.486  71.191  1.00  0.00    -0.193 N  
HETATM    2  H1  UNL     1     -10.978   8.128  71.089  1.00  0.00     0.000 HD 
HETATM    3  H2  UNL     1      -9.753   7.387  72.106  1.00  0.00     0.000 HD 
HETATM    4  C   UNL     1      -9.716   6.763  70.153  1.00  0.00    -0.167 C  
HETATM    5  O   UNL     1      -8.770   5.989  70.277  1.00  0.00    -0.139 OA 
ENDROOT
BRANCH   4   6
HETATM    6  N   UNL     1     -10.373   6.955  68.980  1.00  0.00    -0.184 N  
HETATM    7  H   UNL     1      -9.887   7.280  68.144  1.00  0.00     0.000 HD 
HETATM    8  O   UNL     1     -11.757   6.685  68.969  1.00  0.00    -0.608 OA 
HETATM    9  H   UNL     1     -12.217   6.819  68.148  1.00  0.00     0.000 HD 
ENDBRANCH   4   6
TORSDOF 1
ENDMDL
MODEL      143
REMARK 921   NORMALIZED FREE ENERGY PREDICTED BY IDOCK:   -1.22 KCAL/MOL
REMARK 922        TOTAL FREE ENERGY PREDICTED BY IDOCK:   -1.29 KCAL/MOL
REMARK 923 INTER-LIGAND FREE ENERGY PREDICTED BY IDOCK:   -1.29 KCAL/MOL
REMARK 924 INTRA-LIGAND FREE ENERGY PREDICTED BY IDOCK:    0.00 KCAL/MOL
REMARK 927      BINDING AFFINITY PREDICTED BY RF-SCORE:    0.00 PKD
ROOT
HETATM    1  N   UNL     1     -10.023  11.154  69.379  1.00  0.00    -0.428 N  
HETATM    2  H1  UNL     1     -10.274  12.029  69.840  1.00  0.00     0.000 HD 
HETATM    3  H2  UNL     1     -10.439  10.284  69.711  1.00  0.00     0.000 HD 
HETATM    4  C   UNL     1      -9.157  11.112  68.340  1.00  0.00    -0.168 C  
HETATM    5  O   UNL     1      -8.856  10.059  67.786  1.00  0.00    -0.125 OA 
ENDROOT
BRANCH   4   6
HETATM    6  N   UNL     1      -8.666  12.320  67.963  1.00  0.00    -0.174 N  
HETATM    7  H   UNL     1      -8.350  13.005  68.650  1.00  0.00     0.000 HD 
HETATM    8  O   UNL     1      -8.612  12.587  66.579  1.00  0.00    -0.391 OA 
HETATM    9  H   UNL     1      -8.267  13.433  66.316  1.00  0.00     0.000 HD 
ENDBRANCH   4   6
TORSDOF 1
ENDMDL
MODEL      144
REMARK 921   NORMALIZED FREE ENERGY PREDICTED BY IDOCK:   -1.21 KCAL/MOL
REMARK 922        TOTAL FREE ENERGY PREDICTED BY IDOCK:   -1.28 KCAL/MOL
REMARK 923 INTER-LIGAND FREE ENERGY PREDICTED BY IDOCK:   -1.28 KCAL/MOL
REMARK 924 INTRA-LIGAND FREE ENERGY PREDICTED BY IDOCK:    0.00 KCAL/MOL
REMARK 927      BINDING AFFINITY PREDICTED BY RF-SCORE:    0.00 PKD
ROOT
HETATM    1  N   UNL     1      -7.550  15.582  67.688  1.00  0.00    -0.145 N  
HETATM    2  H1  UNL     1      -8.065  14.794  67.297  1.00  0.00     0.000 HD 
HETATM    3  H2  UNL     1      -7.218  16.314  67.061  1.00  0.00     0.000 HD 
HETATM    4  C   UNL     1      -7.294  15.688  69.012  1.00  0.00    -0.169 C  
HETATM    5  O   UNL     1      -6.674  16.638  69.482  1.00  0.00    -0.227 OA 
ENDROOT
BRANCH   4   6
HETATM    6  N   UNL     1      -7.785  14.672  69.767  1.00  0.00    -0.403 N  
HETATM    7  H   UNL     1      -8.730  14.702  70.150  1.00  0.00     0.000 HD 
HETATM    8  O   UNL     1      -6.931  13.573  69.997  1.00  0.00    -0.339 OA 
HETATM    9  H   UNL     1      -7.276  12.862  70.525  1.00  0.00     0.000 HD 
ENDBRANCH   4   6
TORSDOF 1
ENDMDL
MODEL      145
REMARK 921   NORMALIZED FREE ENERGY PREDICTED BY IDOCK:   -1.21 KCAL/MOL
REMARK 922        TOTAL FREE ENERGY PREDICTED BY IDOCK:   -1.28 KCAL/MOL
REMARK 923 INTER-LIGAND FREE ENERGY PREDICTED BY IDOCK:   -1.28 KCAL/MOL
REMARK 924 INTRA-LIGAND FREE ENERGY PREDICTED BY IDOCK:    0.00 KCAL/MOL
REMARK 927      BINDING AFFINITY PREDICTED BY RF-SCORE:    0.00 PKD
ROOT
HETATM    1  N   UNL     1      -8.906   9.373  65.865  1.00  0.00    -0.152 N  
HETATM    2  H1  UNL     1      -9.074   8.650  65.165  1.00  0.00     0.000 HD 
HETATM    3  H2  UNL     1      -8.798   9.099  66.841  1.00  0.00     0.000 HD 
HETATM    4  C   UNL     1      -8.821  10.683  65.538  1.00  0.00    -0.188 C  
HETATM    5  O   UNL     1      -8.618  11.552  66.381  1.00  0.00    -0.178 OA 
ENDROOT
BRANCH   4   6
HETATM    6  N   UNL     1      -8.966  10.947  64.215  1.00  0.00    -0.317 N  
HETATM    7  H   UNL     1      -8.477  11.724  63.770  1.00  0.00     0.000 HD 
HETATM    8  O   UNL     1      -9.824  10.101  63.482  1.00  0.00    -0.446 OA 
HETATM    9  H   UNL     1      -9.925  10.286  62.555  1.00  0.00     0.000 HD 
ENDBRANCH   4   6
TORSDOF 1
ENDMDL
MODEL      146
REMARK 921   NORMALIZED FREE ENERGY PREDICTED BY IDOCK:   -1.21 KCAL/MOL
REMARK 922        TOTAL FREE ENERGY PREDICTED BY IDOCK:   -1.28 KCAL/MOL
REMARK 923 INTER-LIGAND FREE ENERGY PREDICTED BY IDOCK:   -1.28 KCAL/MOL
REMARK 924 INTRA-LIGAND FREE ENERGY PREDICTED BY IDOCK:    0.00 KCAL/MOL
REMARK 927      BINDING AFFINITY PREDICTED BY RF-SCORE:    0.00 PKD
ROOT
HETATM    1  N   UNL     1      -8.677  18.146  66.338  1.00  0.00    -0.259 N  
HETATM    2  H1  UNL     1      -8.912  17.239  65.935  1.00  0.00     0.000 HD 
HETATM    3  H2  UNL     1      -8.586  18.952  65.719  1.00  0.00     0.000 HD 
HETATM    4  C   UNL     1      -8.484  18.314  67.666  1.00  0.00    -0.255 C  
HETATM    5  O   UNL     1      -8.202  19.406  68.151  1.00  0.00    -0.303 OA 
ENDROOT
BRANCH   4   6
HETATM    6  N   UNL     1      -8.637  17.187  68.407  1.00  0.00    -0.238 N  
HETATM    7  H   UNL     1      -7.870  16.804  68.959  1.00  0.00     0.000 HD 
HETATM    8  O   UNL     1      -9.905  16.569  68.380  1.00  0.00    -0.223 OA 
HETATM    9  H   UNL     1     -10.012  15.780  68.899  1.00  0.00     0.000 HD 
ENDBRANCH   4   6
TORSDOF 1
ENDMDL
MODEL      147
REMARK 921   NORMALIZED FREE ENERGY PREDICTED BY IDOCK:   -1.19 KCAL/MOL
REMARK 922        TOTAL FREE ENERGY PREDICTED BY IDOCK:   -1.26 KCAL/MOL
REMARK 923 INTER-LIGAND FREE ENERGY PREDICTED BY IDOCK:   -1.26 KCAL/MOL
REMARK 924 INTRA-LIGAND FREE ENERGY PREDICTED BY IDOCK:    0.00 KCAL/MOL
REMARK 927      BINDING AFFINITY PREDICTED BY RF-SCORE:    0.00 PKD
ROOT
HETATM    1  N   UNL     1      -7.630  18.821  66.048  1.00  0.00    -0.253 N  
HETATM    2  H1  UNL     1      -6.791  18.456  65.598  1.00  0.00     0.000 HD 
HETATM    3  H2  UNL     1      -8.532  18.399  65.827  1.00  0.00     0.000 HD 
HETATM    4  C   UNL     1      -7.584  19.847  66.929  1.00  0.00    -0.269 C  
HETATM    5  O   UNL     1      -8.595  20.285  67.471  1.00  0.00    -0.334 OA 
ENDROOT
BRANCH   4   6
HETATM    6  N   UNL     1      -6.340  20.335  67.166  1.00  0.00    -0.193 N  
HETATM    7  H   UNL     1      -5.897  20.997  66.530  1.00  0.00     0.000 HD 
HETATM    8  O   UNL     1      -5.686  19.884  68.332  1.00  0.00    -0.214 OA 
HETATM    9  H   UNL     1      -4.815  20.226  68.498  1.00  0.00     0.000 HD 
ENDBRANCH   4   6
TORSDOF 1
ENDMDL
MODEL      148
REMARK 921   NORMALIZED FREE ENERGY PREDICTED BY IDOCK:   -1.19 KCAL/MOL
REMARK 922        TOTAL FREE ENERGY PREDICTED BY IDOCK:   -1.26 KCAL/MOL
REMARK 923 INTER-LIGAND FREE ENERGY PREDICTED BY IDOCK:   -1.26 KCAL/MOL
REMARK 924 INTRA-LIGAND FREE ENERGY PREDICTED BY IDOCK:    0.00 KCAL/MOL
REMARK 927      BINDING AFFINITY PREDICTED BY RF-SCORE:    0.00 PKD
ROOT
HETATM    1  N   UNL     1     -11.046   5.726  66.532  1.00  0.00    -0.744 N  
HETATM    2  H1  UNL     1     -11.849   5.212  66.893  1.00  0.00     0.000 HD 
HETATM    3  H2  UNL     1     -11.086   6.105  65.587  1.00  0.00     0.000 HD 
HETATM    4  C   UNL     1      -9.928   5.920  67.270  1.00  0.00    -0.153 C  
HETATM    5  O   UNL     1      -8.961   6.540  66.836  1.00  0.00    -0.119 OA 
ENDROOT
BRANCH   4   6
HETATM    6  N   UNL     1      -9.974   5.388  68.518  1.00  0.00    -0.153 N  
HETATM    7  H   UNL     1     -10.861   5.162  68.969  1.00  0.00     0.000 HD 
HETATM    8  O   UNL     1      -8.741   5.161  69.164  1.00  0.00    -0.092 OA 
HETATM    9  H   UNL     1      -8.773   4.788  70.038  1.00  0.00     0.000 HD 
ENDBRANCH   4   6
TORSDOF 1
ENDMDL
MODEL      149
REMARK 921   NORMALIZED FREE ENERGY PREDICTED BY IDOCK:   -1.15 KCAL/MOL
REMARK 922        TOTAL FREE ENERGY PREDICTED BY IDOCK:   -1.22 KCAL/MOL
REMARK 923 INTER-LIGAND FREE ENERGY PREDICTED BY IDOCK:   -1.22 KCAL/MOL
REMARK 924 INTRA-LIGAND FREE ENERGY PREDICTED BY IDOCK:    0.00 KCAL/MOL
REMARK 927      BINDING AFFINITY PREDICTED BY RF-SCORE:    0.00 PKD
ROOT
HETATM    1  N   UNL     1      -8.892   5.934  64.821  1.00  0.00    -0.366 N  
HETATM    2  H1  UNL     1      -9.719   5.372  65.025  1.00  0.00     0.000 HD 
HETATM    3  H2  UNL     1      -8.348   5.726  63.984  1.00  0.00     0.000 HD 
HETATM    4  C   UNL     1      -8.495   6.946  65.626  1.00  0.00    -0.136 C  
HETATM    5  O   UNL     1      -7.500   7.622  65.381  1.00  0.00    -0.071 OA 
ENDROOT
BRANCH   4   6
HETATM    6  N   UNL     1      -9.289   7.153  66.709  1.00  0.00    -0.155 N  
HETATM    7  H   UNL     1      -8.901   7.209  67.650  1.00  0.00     0.000 HD 
HETATM    8  O   UNL     1     -10.673   7.287  66.473  1.00  0.00    -0.493 OA 
HETATM    9  H   UNL     1     -11.228   7.432  67.230  1.00  0.00     0.000 HD 
ENDBRANCH   4   6
TORSDOF 1
ENDMDL
MODEL      150
REMARK 921   NORMALIZED FREE ENERGY PREDICTED BY IDOCK:   -1.15 KCAL/MOL
REMARK 922        TOTAL FREE ENERGY PREDICTED BY IDOCK:   -1.22 KCAL/MOL
REMARK 923 INTER-LIGAND FREE ENERGY PREDICTED BY IDOCK:   -1.22 KCAL/MOL
REMARK 924 INTRA-LIGAND FREE ENERGY PREDICTED BY IDOCK:    0.00 KCAL/MOL
REMARK 927      BINDING AFFINITY PREDICTED BY RF-SCORE:    0.00 PKD
ROOT
HETATM    1  N   UNL     1      -9.860   4.217  71.546  1.00  0.00    -0.183 N  
HETATM    2  H1  UNL     1      -9.745   3.351  72.072  1.00  0.00     0.000 HD 
HETATM    3  H2  UNL     1      -9.413   4.302  70.633  1.00  0.00     0.000 HD 
HETATM    4  C   UNL     1     -10.586   5.254  72.021  1.00  0.00    -0.216 C  
HETATM    5  O   UNL     1     -10.724   6.297  71.387  1.00  0.00    -0.231 OA 
ENDROOT
BRANCH   4   6
HETATM    6  N   UNL     1     -11.150   5.042  73.237  1.00  0.00    -0.316 N  
HETATM    7  H   UNL     1     -12.018   4.517  73.337  1.00  0.00     0.000 HD 
HETATM    8  O   UNL     1     -10.481   5.579  74.357  1.00  0.00    -0.272 OA 
HETATM    9  H   UNL     1     -10.876   5.429  75.208  1.00  0.00     0.000 HD 
ENDBRANCH   4   6
TORSDOF 1
ENDMDL
MODEL      151
REMARK 921   NORMALIZED FREE ENERGY PREDICTED BY IDOCK:   -1.15 KCAL/MOL
REMARK 922        TOTAL FREE ENERGY PREDICTED BY IDOCK:   -1.21 KCAL/MOL
REMARK 923 INTER-LIGAND FREE ENERGY PREDICTED BY IDOCK:   -1.21 KCAL/MOL
REMARK 924 INTRA-LIGAND FREE ENERGY PREDICTED BY IDOCK:    0.00 KCAL/MOL
REMARK 927      BINDING AFFINITY PREDICTED BY RF-SCORE:    0.00 PKD
ROOT
HETATM    1  N   UNL     1     -11.288   9.587  70.871  1.00  0.00    -0.312 N  
HETATM    2  H1  UNL     1     -12.021   9.464  70.173  1.00  0.00     0.000 HD 
HETATM    3  H2  UNL     1     -11.512  10.064  71.744  1.00  0.00     0.000 HD 
HETATM    4  C   UNL     1     -10.027   9.137  70.676  1.00  0.00    -0.248 C  
HETATM    5  O   UNL     1      -9.145   9.285  71.517  1.00  0.00    -0.315 OA 
ENDROOT
BRANCH   4   6
HETATM    6  N   UNL     1      -9.828   8.506  69.490  1.00  0.00    -0.184 N  
HETATM    7  H   UNL     1      -9.841   9.016  68.607  1.00  0.00     0.000 HD 
HETATM    8  O   UNL     1      -9.603   7.114  69.534  1.00  0.00    -0.155 OA 
HETATM    9  H   UNL     1      -9.464   6.673  68.704  1.00  0.00     0.000 HD 
ENDBRANCH   4   6
TORSDOF 1
ENDMDL
MODEL      152
REMARK 921   NORMALIZED FREE ENERGY PREDICTED BY IDOCK:   -1.11 KCAL/MOL
REMARK 922        TOTAL FREE ENERGY PREDICTED BY IDOCK:   -1.18 KCAL/MOL
REMARK 923 INTER-LIGAND FREE ENERGY PREDICTED BY IDOCK:   -1.18 KCAL/MOL
REMARK 924 INTRA-LIGAND FREE ENERGY PREDICTED BY IDOCK:    0.00 KCAL/MOL
REMARK 927      BINDING AFFINITY PREDICTED BY RF-SCORE:    0.00 PKD
ROOT
HETATM    1  N   UNL     1      -8.261   9.146  68.489  1.00  0.00    -0.114 N  
HETATM    2  H1  UNL     1      -8.521   9.343  67.522  1.00  0.00     0.000 HD 
HETATM    3  H2  UNL     1      -8.251   8.178  68.809  1.00  0.00     0.000 HD 
HETATM    4  C   UNL     1      -7.929  10.128  69.358  1.00  0.00    -0.154 C  
HETATM    5  O   UNL     1      -7.616   9.890  70.521  1.00  0.00    -0.251 OA 
ENDROOT
BRANCH   4   6
HETATM    6  N   UNL     1      -7.961  11.381  68.836  1.00  0.00    -0.283 N  
HETATM    7  H   UNL     1      -7.159  11.773  68.343  1.00  0.00     0.000 HD 
HETATM    8  O   UNL     1      -9.152  12.117  69.007  1.00  0.00    -0.375 OA 
HETATM    9  H   UNL     1      -9.174  12.994  68.641  1.00  0.00     0.000 HD 
ENDBRANCH   4   6
TORSDOF 1
ENDMDL
MODEL      153
REMARK 921   NORMALIZED FREE ENERGY PREDICTED BY IDOCK:   -1.10 KCAL/MOL
REMARK 922        TOTAL FREE ENERGY PREDICTED BY IDOCK:   -1.16 KCAL/MOL
REMARK 923 INTER-LIGAND FREE ENERGY PREDICTED BY IDOCK:   -1.16 KCAL/MOL
REMARK 924 INTRA-LIGAND FREE ENERGY PREDICTED BY IDOCK:    0.00 KCAL/MOL
REMARK 927      BINDING AFFINITY PREDICTED BY RF-SCORE:    0.00 PKD
ROOT
HETATM    1  N   UNL     1      -9.806   7.631  71.587  1.00  0.00    -0.161 N  
HETATM    2  H1  UNL     1     -10.661   7.399  71.083  1.00  0.00     0.000 HD 
HETATM    3  H2  UNL     1      -9.481   7.002  72.322  1.00  0.00     0.000 HD 
HETATM    4  C   UNL     1      -9.089   8.744  71.313  1.00  0.00    -0.234 C  
HETATM    5  O   UNL     1      -8.059   9.023  71.921  1.00  0.00    -0.359 OA 
ENDROOT
BRANCH   4   6
HETATM    6  N   UNL     1      -9.595   9.511  70.313  1.00  0.00    -0.250 N  
HETATM    7  H   UNL     1     -10.600   9.636  70.194  1.00  0.00     0.000 HD 
HETATM    8  O   UNL     1      -8.668  10.126  69.445  1.00  0.00    -0.159 OA 
HETATM    9  H   UNL     1      -9.022  10.663  68.746  1.00  0.00     0.000 HD 
ENDBRANCH   4   6
TORSDOF 1
ENDMDL
MODEL      154
REMARK 921   NORMALIZED FREE ENERGY PREDICTED BY IDOCK:   -1.07 KCAL/MOL
REMARK 922        TOTAL FREE ENERGY PREDICTED BY IDOCK:   -1.13 KCAL/MOL
REMARK 923 INTER-LIGAND FREE ENERGY PREDICTED BY IDOCK:   -1.13 KCAL/MOL
REMARK 924 INTRA-LIGAND FREE ENERGY PREDICTED BY IDOCK:    0.00 KCAL/MOL
REMARK 927      BINDING AFFINITY PREDICTED BY RF-SCORE:    0.00 PKD
ROOT
HETATM    1  N   UNL     1     -10.425   6.952  73.726  1.00  0.00    -0.393 N  
HETATM    2  H1  UNL     1      -9.661   7.605  73.546  1.00  0.00     0.000 HD 
HETATM    3  H2  UNL     1     -11.386   7.285  73.651  1.00  0.00     0.000 HD 
HETATM    4  C   UNL     1     -10.202   5.661  74.059  1.00  0.00    -0.259 C  
HETATM    5  O   UNL     1     -11.122   4.876  74.275  1.00  0.00    -0.272 OA 
ENDROOT
BRANCH   4   6
HETATM    6  N   UNL     1      -8.892   5.310  74.123  1.00  0.00    -0.119 N  
HETATM    7  H   UNL     1      -8.183   5.958  74.465  1.00  0.00     0.000 HD 
HETATM    8  O   UNL     1      -8.555   4.009  73.694  1.00  0.00    -0.091 OA 
HETATM    9  H   UNL     1      -7.638   3.763  73.739  1.00  0.00     0.000 HD 
ENDBRANCH   4   6
TORSDOF 1
ENDMDL
MODEL      155
REMARK 921   NORMALIZED FREE ENERGY PREDICTED BY IDOCK:   -1.06 KCAL/MOL
REMARK 922        TOTAL FREE ENERGY PREDICTED BY IDOCK:   -1.12 KCAL/MOL
REMARK 923 INTER-LIGAND FREE ENERGY PREDICTED BY IDOCK:   -1.12 KCAL/MOL
REMARK 924 INTRA-LIGAND FREE ENERGY PREDICTED BY IDOCK:    0.00 KCAL/MOL
REMARK 927      BINDING AFFINITY PREDICTED BY RF-SCORE:    0.00 PKD
ROOT
HETATM    1  N   UNL     1     -11.373   6.340  72.481  1.00  0.00    -0.298 N  
HETATM    2  H1  UNL     1     -10.942   5.889  73.288  1.00  0.00     0.000 HD 
HETATM    3  H2  UNL     1     -12.281   6.791  72.594  1.00  0.00     0.000 HD 
HETATM    4  C   UNL     1     -10.780   6.357  71.266  1.00  0.00    -0.241 C  
HETATM    5  O   UNL     1     -11.299   6.899  70.294  1.00  0.00    -0.293 OA 
ENDROOT
BRANCH   4   6
HETATM    6  N   UNL     1      -9.571   5.741  71.217  1.00  0.00    -0.164 N  
HETATM    7  H   UNL     1      -9.120   5.386  72.060  1.00  0.00     0.000 HD 
HETATM    8  O   UNL     1      -8.966   5.613  69.949  1.00  0.00    -0.126 OA 
HETATM    9  H   UNL     1      -8.120   5.181  69.915  1.00  0.00     0.000 HD 
ENDBRANCH   4   6
TORSDOF 1
ENDMDL
MODEL      156
REMARK 921   NORMALIZED FREE ENERGY PREDICTED BY IDOCK:   -1.06 KCAL/MOL
REMARK 922        TOTAL FREE ENERGY PREDICTED BY IDOCK:   -1.12 KCAL/MOL
REMARK 923 INTER-LIGAND FREE ENERGY PREDICTED BY IDOCK:   -1.12 KCAL/MOL
REMARK 924 INTRA-LIGAND FREE ENERGY PREDICTED BY IDOCK:    0.00 KCAL/MOL
REMARK 927      BINDING AFFINITY PREDICTED BY RF-SCORE:    0.00 PKD
ROOT
HETATM    1  N   UNL     1      -8.358   7.033  65.068  1.00  0.00    -0.292 N  
HETATM    2  H1  UNL     1      -8.163   6.094  64.721  1.00  0.00     0.000 HD 
HETATM    3  H2  UNL     1      -8.565   7.160  66.058  1.00  0.00     0.000 HD 
HETATM    4  C   UNL     1      -8.353   8.115  64.255  1.00  0.00    -0.030 C  
HETATM    5  O   UNL     1      -8.588   9.245  64.674  1.00  0.00    -0.168 OA 
ENDROOT
BRANCH   4   6
HETATM    6  N   UNL     1      -8.057   7.847  62.958  1.00  0.00    -0.278 N  
HETATM    7  H   UNL     1      -7.354   8.383  62.450  1.00  0.00     0.000 HD 
HETATM    8  O   UNL     1      -8.766   6.794  62.343  1.00  0.00    -0.353 OA 
HETATM    9  H   UNL     1      -8.558   6.606  61.434  1.00  0.00     0.000 HD 
ENDBRANCH   4   6
TORSDOF 1
ENDMDL
MODEL      157
REMARK 921   NORMALIZED FREE ENERGY PREDICTED BY IDOCK:   -1.05 KCAL/MOL
REMARK 922        TOTAL FREE ENERGY PREDICTED BY IDOCK:   -1.12 KCAL/MOL
REMARK 923 INTER-LIGAND FREE ENERGY PREDICTED BY IDOCK:   -1.12 KCAL/MOL
REMARK 924 INTRA-LIGAND FREE ENERGY PREDICTED BY IDOCK:    0.00 KCAL/MOL
REMARK 927      BINDING AFFINITY PREDICTED BY RF-SCORE:    0.00 PKD
ROOT
HETATM    1  N   UNL     1     -10.716   9.749  68.655  1.00  0.00    -0.252 N  
HETATM    2  H1  UNL     1     -10.784  10.705  69.003  1.00  0.00     0.000 HD 
HETATM    3  H2  UNL     1     -11.093   8.989  69.222  1.00  0.00     0.000 HD 
HETATM    4  C   UNL     1     -10.142   9.456  67.466  1.00  0.00    -0.215 C  
HETATM    5  O   UNL     1     -10.061   8.304  67.048  1.00  0.00    -0.226 OA 
ENDROOT
BRANCH   4   6
HETATM    6  N   UNL     1      -9.681  10.533  66.780  1.00  0.00    -0.174 N  
HETATM    7  H   UNL     1      -8.768  10.942  66.981  1.00  0.00     0.000 HD 
HETATM    8  O   UNL     1     -10.519  11.061  65.776  1.00  0.00    -0.249 OA 
HETATM    9  H   UNL     1     -10.195  11.815  65.295  1.00  0.00     0.000 HD 
ENDBRANCH   4   6
TORSDOF 1
ENDMDL
MODEL      158
REMARK 921   NORMALIZED FREE ENERGY PREDICTED BY IDOCK:   -1.05 KCAL/MOL
REMARK 922        TOTAL FREE ENERGY PREDICTED BY IDOCK:   -1.11 KCAL/MOL
REMARK 923 INTER-LIGAND FREE ENERGY PREDICTED BY IDOCK:   -1.11 KCAL/MOL
REMARK 924 INTRA-LIGAND FREE ENERGY PREDICTED BY IDOCK:    0.00 KCAL/MOL
REMARK 927      BINDING AFFINITY PREDICTED BY RF-SCORE:    0.00 PKD
ROOT
HETATM    1  N   UNL     1     -10.985   7.824  66.860  1.00  0.00    -0.445 N  
HETATM    2  H1  UNL     1     -11.348   7.274  67.639  1.00  0.00     0.000 HD 
HETATM    3  H2  UNL     1     -11.622   8.106  66.116  1.00  0.00     0.000 HD 
HETATM    4  C   UNL     1      -9.685   8.190  66.784  1.00  0.00    -0.235 C  
HETATM    5  O   UNL     1      -9.248   8.851  65.847  1.00  0.00    -0.202 OA 
ENDROOT
BRANCH   4   6
HETATM    6  N   UNL     1      -8.918   7.776  67.826  1.00  0.00    -0.128 N  
HETATM    7  H   UNL     1      -9.272   7.118  68.520  1.00  0.00     0.000 HD 
HETATM    8  O   UNL     1      -7.611   8.299  67.907  1.00  0.00    -0.098 OA 
HETATM    9  H   UNL     1      -7.074   8.009  68.636  1.00  0.00     0.000 HD 
ENDBRANCH   4   6
TORSDOF 1
ENDMDL
MODEL      159
REMARK 921   NORMALIZED FREE ENERGY PREDICTED BY IDOCK:   -0.99 KCAL/MOL
REMARK 922        TOTAL FREE ENERGY PREDICTED BY IDOCK:   -1.05 KCAL/MOL
REMARK 923 INTER-LIGAND FREE ENERGY PREDICTED BY IDOCK:   -1.05 KCAL/MOL
REMARK 924 INTRA-LIGAND FREE ENERGY PREDICTED BY IDOCK:    0.00 KCAL/MOL
REMARK 927      BINDING AFFINITY PREDICTED BY RF-SCORE:    0.00 PKD
ROOT
HETATM    1  N   UNL     1      -7.753   6.110  65.599  1.00  0.00    -0.088 N  
HETATM    2  H1  UNL     1      -7.764   6.330  64.603  1.00  0.00     0.000 HD 
HETATM    3  H2  UNL     1      -6.887   6.234  66.122  1.00  0.00     0.000 HD 
HETATM    4  C   UNL     1      -8.852   5.659  66.246  1.00  0.00    -0.137 C  
HETATM    5  O   UNL     1      -8.838   5.394  67.445  1.00  0.00    -0.108 OA 
ENDROOT
BRANCH   4   6
HETATM    6  N   UNL     1      -9.958   5.536  65.469  1.00  0.00    -0.360 N  
HETATM    7  H   UNL     1     -10.816   6.046  65.679  1.00  0.00     0.000 HD 
HETATM    8  O   UNL     1      -9.868   4.672  64.357  1.00  0.00    -0.354 OA 
HETATM    9  H   UNL     1     -10.642   4.587  63.813  1.00  0.00     0.000 HD 
ENDBRANCH   4   6
TORSDOF 1
ENDMDL
MODEL      160
REMARK 921   NORMALIZED FREE ENERGY PREDICTED BY IDOCK:   -0.99 KCAL/MOL
REMARK 922        TOTAL FREE ENERGY PREDICTED BY IDOCK:   -1.04 KCAL/MOL
REMARK 923 INTER-LIGAND FREE ENERGY PREDICTED BY IDOCK:   -1.04 KCAL/MOL
REMARK 924 INTRA-LIGAND FREE ENERGY PREDICTED BY IDOCK:    0.00 KCAL/MOL
REMARK 927      BINDING AFFINITY PREDICTED BY RF-SCORE:    0.00 PKD
ROOT
HETATM    1  N   UNL     1      -7.132  10.506  64.090  1.00  0.00    -0.344 N  
HETATM    2  H1  UNL     1      -7.779  10.676  63.320  1.00  0.00     0.000 HD 
HETATM    3  H2  UNL     1      -6.543  11.271  64.418  1.00  0.00     0.000 HD 
HETATM    4  C   UNL     1      -7.031   9.298  64.689  1.00  0.00    -0.092 C  
HETATM    5  O   UNL     1      -6.252   9.093  65.616  1.00  0.00    -0.055 OA 
ENDROOT
BRANCH   4   6
HETATM    6  N   UNL     1      -7.862   8.347  64.191  1.00  0.00    -0.138 N  
HETATM    7  H   UNL     1      -7.660   7.353  64.299  1.00  0.00     0.000 HD 
HETATM    8  O   UNL     1      -9.018   8.795  63.517  1.00  0.00    -0.415 OA 
HETATM    9  H   UNL     1      -9.600   8.129  63.169  1.00  0.00     0.000 HD 
ENDBRANCH   4   6
TORSDOF 1
ENDMDL
MODEL      161
REMARK 921   NORMALIZED FREE ENERGY PREDICTED BY IDOCK:   -0.97 KCAL/MOL
REMARK 922        TOTAL FREE ENERGY PREDICTED BY IDOCK:   -1.03 KCAL/MOL
REMARK 923 INTER-LIGAND FREE ENERGY PREDICTED BY IDOCK:   -1.03 KCAL/MOL
REMARK 924 INTRA-LIGAND FREE ENERGY PREDICTED BY IDOCK:    0.00 KCAL/MOL
REMARK 927      BINDING AFFINITY PREDICTED BY RF-SCORE:    0.00 PKD
ROOT
HETATM    1  N   UNL     1      -9.229   8.760  69.761  1.00  0.00    -0.152 N  
HETATM    2  H1  UNL     1      -8.267   8.426  69.806  1.00  0.00     0.000 HD 
HETATM    3  H2  UNL     1      -9.435   9.600  69.219  1.00  0.00     0.000 HD 
HETATM    4  C   UNL     1     -10.241   8.126  70.397  1.00  0.00    -0.201 C  
HETATM    5  O   UNL     1     -11.400   8.530  70.342  1.00  0.00    -0.256 OA 
ENDROOT
BRANCH   4   6
HETATM    6  N   UNL     1      -9.871   7.014  71.082  1.00  0.00    -0.177 N  
HETATM    7  H   UNL     1      -8.894   6.831  71.311  1.00  0.00     0.000 HD 
HETATM    8  O   UNL     1     -10.897   6.124  71.463  1.00  0.00    -0.242 OA 
HETATM    9  H   UNL     1     -10.637   5.346  71.943  1.00  0.00     0.000 HD 
ENDBRANCH   4   6
TORSDOF 1
ENDMDL
MODEL      162
REMARK 921   NORMALIZED FREE ENERGY PREDICTED BY IDOCK:   -0.97 KCAL/MOL
REMARK 922        TOTAL FREE ENERGY PREDICTED BY IDOCK:   -1.02 KCAL/MOL
REMARK 923 INTER-LIGAND FREE ENERGY PREDICTED BY IDOCK:   -1.02 KCAL/MOL
REMARK 924 INTRA-LIGAND FREE ENERGY PREDICTED BY IDOCK:    0.00 KCAL/MOL
REMARK 927      BINDING AFFINITY PREDICTED BY RF-SCORE:    0.00 PKD
ROOT
HETATM    1  N   UNL     1     -10.694   7.734  67.846  1.00  0.00    -0.442 N  
HETATM    2  H1  UNL     1     -11.128   8.484  68.384  1.00  0.00     0.000 HD 
HETATM    3  H2  UNL     1     -11.129   7.438  66.973  1.00  0.00     0.000 HD 
HETATM    4  C   UNL     1      -9.560   7.121  68.255  1.00  0.00    -0.136 C  
HETATM    5  O   UNL     1      -9.037   6.218  67.606  1.00  0.00    -0.119 OA 
ENDROOT
BRANCH   4   6
HETATM    6  N   UNL     1      -9.050   7.592  69.422  1.00  0.00    -0.143 N  
HETATM    7  H   UNL     1      -8.095   7.943  69.483  1.00  0.00     0.000 HD 
HETATM    8  O   UNL     1      -9.901   7.573  70.547  1.00  0.00    -0.183 OA 
HETATM    9  H   UNL     1      -9.544   7.902  71.364  1.00  0.00     0.000 HD 
ENDBRANCH   4   6
TORSDOF 1
ENDMDL
MODEL      163
REMARK 921   NORMALIZED FREE ENERGY PREDICTED BY IDOCK:   -0.95 KCAL/MOL
REMARK 922        TOTAL FREE ENERGY PREDICTED BY IDOCK:   -1.00 KCAL/MOL
REMARK 923 INTER-LIGAND FREE ENERGY PREDICTED BY IDOCK:   -1.00 KCAL/MOL
REMARK 924 INTRA-LIGAND FREE ENERGY PREDICTED BY IDOCK:    0.00 KCAL/MOL
REMARK 927      BINDING AFFINITY PREDICTED BY RF-SCORE:    0.00 PKD
ROOT
HETATM    1  N   UNL     1      -8.113  10.966  64.165  1.00  0.00    -0.351 N  
HETATM    2  H1  UNL     1      -7.447  11.030  63.395  1.00  0.00     0.000 HD 
HETATM    3  H2  UNL     1      -9.066  11.301  64.022  1.00  0.00     0.000 HD 
HETATM    4  C   UNL     1      -7.772  10.452  65.369  1.00  0.00    -0.136 C  
HETATM    5  O   UNL     1      -8.574  10.376  66.295  1.00  0.00    -0.135 OA 
ENDROOT
BRANCH   4   6
HETATM    6  N   UNL     1      -6.487  10.024  65.458  1.00  0.00    -0.088 N  
HETATM    7  H   UNL     1      -6.251   9.135  65.900  1.00  0.00     0.000 HD 
HETATM    8  O   UNL     1      -5.492  10.863  64.914  1.00  0.00    -0.294 OA 
HETATM    9  H   UNL     1      -4.592  10.562  64.976  1.00  0.00     0.000 HD 
ENDBRANCH   4   6
TORSDOF 1
ENDMDL
MODEL      164
REMARK 921   NORMALIZED FREE ENERGY PREDICTED BY IDOCK:   -0.94 KCAL/MOL
REMARK 922        TOTAL FREE ENERGY PREDICTED BY IDOCK:   -1.00 KCAL/MOL
REMARK 923 INTER-LIGAND FREE ENERGY PREDICTED BY IDOCK:   -1.00 KCAL/MOL
REMARK 924 INTRA-LIGAND FREE ENERGY PREDICTED BY IDOCK:    0.00 KCAL/MOL
REMARK 927      BINDING AFFINITY PREDICTED BY RF-SCORE:    0.00 PKD
ROOT
HETATM    1  N   UNL     1      -6.852  11.459  65.848  1.00  0.00    -0.351 N  
HETATM    2  H1  UNL     1      -6.612  11.125  64.915  1.00  0.00     0.000 HD 
HETATM    3  H2  UNL     1      -6.207  12.084  66.331  1.00  0.00     0.000 HD 
HETATM    4  C   UNL     1      -8.002  11.101  66.465  1.00  0.00    -0.158 C  
HETATM    5  O   UNL     1      -8.292  11.503  67.588  1.00  0.00    -0.127 OA 
ENDROOT
BRANCH   4   6
HETATM    6  N   UNL     1      -8.801  10.277  65.739  1.00  0.00    -0.155 N  
HETATM    7  H   UNL     1      -8.618  10.090  64.753  1.00  0.00     0.000 HD 
HETATM    8  O   UNL     1      -9.895   9.691  66.409  1.00  0.00    -0.208 OA 
HETATM    9  H   UNL     1     -10.454   9.115  65.901  1.00  0.00     0.000 HD 
ENDBRANCH   4   6
TORSDOF 1
ENDMDL
MODEL      165
REMARK 921   NORMALIZED FREE ENERGY PREDICTED BY IDOCK:   -0.92 KCAL/MOL
REMARK 922        TOTAL FREE ENERGY PREDICTED BY IDOCK:   -0.97 KCAL/MOL
REMARK 923 INTER-LIGAND FREE ENERGY PREDICTED BY IDOCK:   -0.97 KCAL/MOL
REMARK 924 INTRA-LIGAND FREE ENERGY PREDICTED BY IDOCK:    0.00 KCAL/MOL
REMARK 927      BINDING AFFINITY PREDICTED BY RF-SCORE:    0.00 PKD
ROOT
HETATM    1  N   UNL     1      -9.617   1.915  67.100  1.00  0.00    -0.382 N  
HETATM    2  H1  UNL     1      -9.933   1.304  67.854  1.00  0.00     0.000 HD 
HETATM    3  H2  UNL     1      -9.580   1.547  66.150  1.00  0.00     0.000 HD 
HETATM    4  C   UNL     1      -9.245   3.196  67.322  1.00  0.00    -0.189 C  
HETATM    5  O   UNL     1      -8.865   3.931  66.414  1.00  0.00    -0.115 OA 
ENDROOT
BRANCH   4   6
HETATM    6  N   UNL     1      -9.338   3.597  68.616  1.00  0.00    -0.161 N  
HETATM    7  H   UNL     1      -9.436   4.582  68.863  1.00  0.00     0.000 HD 
HETATM    8  O   UNL     1      -9.293   2.591  69.604  1.00  0.00    -0.123 OA 
HETATM    9  H   UNL     1      -9.359   2.872  70.509  1.00  0.00     0.000 HD 
ENDBRANCH   4   6
TORSDOF 1
ENDMDL
MODEL      166
REMARK 921   NORMALIZED FREE ENERGY PREDICTED BY IDOCK:   -0.81 KCAL/MOL
REMARK 922        TOTAL FREE ENERGY PREDICTED BY IDOCK:   -0.86 KCAL/MOL
REMARK 923 INTER-LIGAND FREE ENERGY PREDICTED BY IDOCK:   -0.86 KCAL/MOL
REMARK 924 INTRA-LIGAND FREE ENERGY PREDICTED BY IDOCK:    0.00 KCAL/MOL
REMARK 927      BINDING AFFINITY PREDICTED BY RF-SCORE:    0.00 PKD
ROOT
HETATM    1  N   UNL     1     -10.035   3.379  71.767  1.00  0.00    -0.157 N  
HETATM    2  H1  UNL     1     -10.578   2.703  71.228  1.00  0.00     0.000 HD 
HETATM    3  H2  UNL     1      -9.711   3.121  72.699  1.00  0.00     0.000 HD 
HETATM    4  C   UNL     1      -9.731   4.605  71.283  1.00  0.00    -0.182 C  
HETATM    5  O   UNL     1      -9.078   5.418  71.932  1.00  0.00    -0.137 OA 
ENDROOT
BRANCH   4   6
HETATM    6  N   UNL     1     -10.196   4.851  70.032  1.00  0.00    -0.268 N  
HETATM    7  H   UNL     1     -11.184   4.745  69.800  1.00  0.00     0.000 HD 
HETATM    8  O   UNL     1      -9.253   5.260  69.066  1.00  0.00    -0.111 OA 
HETATM    9  H   UNL     1      -9.578   5.433  68.190  1.00  0.00     0.000 HD 
ENDBRANCH   4   6
TORSDOF 1
ENDMDL
MODEL      167
REMARK 921   NORMALIZED FREE ENERGY PREDICTED BY IDOCK:   -0.80 KCAL/MOL
REMARK 922        TOTAL FREE ENERGY PREDICTED BY IDOCK:   -0.84 KCAL/MOL
REMARK 923 INTER-LIGAND FREE ENERGY PREDICTED BY IDOCK:   -0.84 KCAL/MOL
REMARK 924 INTRA-LIGAND FREE ENERGY PREDICTED BY IDOCK:    0.00 KCAL/MOL
REMARK 927      BINDING AFFINITY PREDICTED BY RF-SCORE:    0.00 PKD
ROOT
HETATM    1  N   UNL     1      -9.985   4.010  66.325  1.00  0.00    -0.387 N  
HETATM    2  H1  UNL     1      -9.474   4.223  67.182  1.00  0.00     0.000 HD 
HETATM    3  H2  UNL     1     -10.966   4.281  66.255  1.00  0.00     0.000 HD 
HETATM    4  C   UNL     1      -9.403   3.381  65.279  1.00  0.00    -0.155 C  
HETATM    5  O   UNL     1     -10.018   3.126  64.247  1.00  0.00    -0.161 OA 
ENDROOT
BRANCH   4   6
HETATM    6  N   UNL     1      -8.094   3.071  65.462  1.00  0.00    -0.086 N  
HETATM    7  H   UNL     1      -7.771   2.600  66.307  1.00  0.00     0.000 HD 
HETATM    8  O   UNL     1      -7.200   3.430  64.431  1.00  0.00    -0.056 OA 
HETATM    9  H   UNL     1      -6.283   3.213  64.559  1.00  0.00     0.000 HD 
ENDBRANCH   4   6
TORSDOF 1
ENDMDL
MODEL      168
REMARK 921   NORMALIZED FREE ENERGY PREDICTED BY IDOCK:   -0.78 KCAL/MOL
REMARK 922        TOTAL FREE ENERGY PREDICTED BY IDOCK:   -0.82 KCAL/MOL
REMARK 923 INTER-LIGAND FREE ENERGY PREDICTED BY IDOCK:   -0.82 KCAL/MOL
REMARK 924 INTRA-LIGAND FREE ENERGY PREDICTED BY IDOCK:    0.00 KCAL/MOL
REMARK 927      BINDING AFFINITY PREDICTED BY RF-SCORE:    0.00 PKD
ROOT
HETATM    1  N   UNL     1      -7.931   4.054  68.853  1.00  0.00    -0.067 N  
HETATM    2  H1  UNL     1      -7.457   4.195  67.961  1.00  0.00     0.000 HD 
HETATM    3  H2  UNL     1      -7.395   3.703  69.647  1.00  0.00     0.000 HD 
HETATM    4  C   UNL     1      -9.248   4.318  69.016  1.00  0.00    -0.145 C  
HETATM    5  O   UNL     1      -9.818   4.148  70.090  1.00  0.00    -0.209 OA 
ENDROOT
BRANCH   4   6
HETATM    6  N   UNL     1      -9.872   4.790  67.907  1.00  0.00    -0.153 N  
HETATM    7  H   UNL     1      -9.725   4.366  66.991  1.00  0.00     0.000 HD 
HETATM    8  O   UNL     1     -10.733   5.895  68.077  1.00  0.00    -0.250 OA 
HETATM    9  H   UNL     1     -11.170   6.225  67.301  1.00  0.00     0.000 HD 
ENDBRANCH   4   6
TORSDOF 1
ENDMDL
MODEL      169
REMARK 921   NORMALIZED FREE ENERGY PREDICTED BY IDOCK:   -0.78 KCAL/MOL
REMARK 922        TOTAL FREE ENERGY PREDICTED BY IDOCK:   -0.82 KCAL/MOL
REMARK 923 INTER-LIGAND FREE ENERGY PREDICTED BY IDOCK:   -0.82 KCAL/MOL
REMARK 924 INTRA-LIGAND FREE ENERGY PREDICTED BY IDOCK:    0.00 KCAL/MOL
REMARK 927      BINDING AFFINITY PREDICTED BY RF-SCORE:    0.00 PKD
ROOT
HETATM    1  N   UNL     1      -7.604  10.476  68.536  1.00  0.00    -0.092 N  
HETATM    2  H1  UNL     1      -7.754  10.611  67.536  1.00  0.00     0.000 HD 
HETATM    3  H2  UNL     1      -6.702  10.729  68.939  1.00  0.00     0.000 HD 
HETATM    4  C   UNL     1      -8.565   9.974  69.344  1.00  0.00    -0.175 C  
HETATM    5  O   UNL     1      -8.385   9.812  70.548  1.00  0.00    -0.194 OA 
ENDROOT
BRANCH   4   6
HETATM    6  N   UNL     1      -9.734   9.678  68.719  1.00  0.00    -0.159 N  
HETATM    7  H   UNL     1     -10.249  10.383  68.192  1.00  0.00     0.000 HD 
HETATM    8  O   UNL     1     -10.204   8.353  68.831  1.00  0.00    -0.202 OA 
HETATM    9  H   UNL     1     -11.022   8.146  68.393  1.00  0.00     0.000 HD 
ENDBRANCH   4   6
TORSDOF 1
ENDMDL
MODEL      170
REMARK 921   NORMALIZED FREE ENERGY PREDICTED BY IDOCK:   -0.75 KCAL/MOL
REMARK 922        TOTAL FREE ENERGY PREDICTED BY IDOCK:   -0.80 KCAL/MOL
REMARK 923 INTER-LIGAND FREE ENERGY PREDICTED BY IDOCK:   -0.80 KCAL/MOL
REMARK 924 INTRA-LIGAND FREE ENERGY PREDICTED BY IDOCK:    0.00 KCAL/MOL
REMARK 927      BINDING AFFINITY PREDICTED BY RF-SCORE:    0.00 PKD
ROOT
HETATM    1  N   UNL     1      -9.211  10.586  66.535  1.00  0.00    -0.159 N  
HETATM    2  H1  UNL     1      -8.416  10.275  65.977  1.00  0.00     0.000 HD 
HETATM    3  H2  UNL     1      -9.653  11.477  66.311  1.00  0.00     0.000 HD 
HETATM    4  C   UNL     1      -9.696   9.853  67.563  1.00  0.00    -0.160 C  
HETATM    5  O   UNL     1     -10.653  10.227  68.236  1.00  0.00    -0.193 OA 
ENDROOT
BRANCH   4   6
HETATM    6  N   UNL     1      -9.049   8.679  67.777  1.00  0.00    -0.135 N  
HETATM    7  H   UNL     1      -8.311   8.356  67.151  1.00  0.00     0.000 HD 
HETATM    8  O   UNL     1      -9.442   7.925  68.903  1.00  0.00    -0.150 OA 
HETATM    9  H   UNL     1      -8.989   7.104  69.052  1.00  0.00     0.000 HD 
ENDBRANCH   4   6
TORSDOF 1
ENDMDL
MODEL      171
REMARK 921   NORMALIZED FREE ENERGY PREDICTED BY IDOCK:   -0.74 KCAL/MOL
REMARK 922        TOTAL FREE ENERGY PREDICTED BY IDOCK:   -0.79 KCAL/MOL
REMARK 923 INTER-LIGAND FREE ENERGY PREDICTED BY IDOCK:   -0.79 KCAL/MOL
REMARK 924 INTRA-LIGAND FREE ENERGY PREDICTED BY IDOCK:    0.00 KCAL/MOL
REMARK 927      BINDING AFFINITY PREDICTED BY RF-SCORE:    0.00 PKD
ROOT
HETATM    1  N   UNL     1      -6.997   7.344  70.310  1.00  0.00    -0.058 N  
HETATM    2  H1  UNL     1      -6.530   8.219  70.071  1.00  0.00     0.000 HD 
HETATM    3  H2  UNL     1      -6.688   6.481  69.863  1.00  0.00     0.000 HD 
HETATM    4  C   UNL     1      -8.015   7.293  71.200  1.00  0.00    -0.101 C  
HETATM    5  O   UNL     1      -8.577   6.240  71.487  1.00  0.00    -0.130 OA 
ENDROOT
BRANCH   4   6
HETATM    6  N   UNL     1      -8.348   8.489  71.749  1.00  0.00    -0.159 N  
HETATM    7  H   UNL     1      -8.537   8.583  72.746  1.00  0.00     0.000 HD 
HETATM    8  O   UNL     1      -8.420   9.596  70.878  1.00  0.00    -0.339 OA 
HETATM    9  H   UNL     1      -8.653  10.434  71.263  1.00  0.00     0.000 HD 
ENDBRANCH   4   6
TORSDOF 1
ENDMDL
MODEL      172
REMARK 921   NORMALIZED FREE ENERGY PREDICTED BY IDOCK:   -0.73 KCAL/MOL
REMARK 922        TOTAL FREE ENERGY PREDICTED BY IDOCK:   -0.78 KCAL/MOL
REMARK 923 INTER-LIGAND FREE ENERGY PREDICTED BY IDOCK:   -0.78 KCAL/MOL
REMARK 924 INTRA-LIGAND FREE ENERGY PREDICTED BY IDOCK:    0.00 KCAL/MOL
REMARK 927      BINDING AFFINITY PREDICTED BY RF-SCORE:    0.00 PKD
ROOT
HETATM    1  N   UNL     1      -6.585  11.270  62.429  1.00  0.00    -0.344 N  
HETATM    2  H1  UNL     1      -7.279  11.171  61.688  1.00  0.00     0.000 HD 
HETATM    3  H2  UNL     1      -6.103  12.162  62.539  1.00  0.00     0.000 HD 
HETATM    4  C   UNL     1      -6.283  10.254  63.270  1.00  0.00    -0.136 C  
HETATM    5  O   UNL     1      -5.447  10.372  64.162  1.00  0.00    -0.126 OA 
ENDROOT
BRANCH   4   6
HETATM    6  N   UNL     1      -6.982   9.111  63.051  1.00  0.00    -0.093 N  
HETATM    7  H   UNL     1      -7.992   9.069  63.191  1.00  0.00     0.000 HD 
HETATM    8  O   UNL     1      -6.251   7.983  62.622  1.00  0.00    -0.079 OA 
HETATM    9  H   UNL     1      -6.741   7.184  62.469  1.00  0.00     0.000 HD 
ENDBRANCH   4   6
TORSDOF 1
ENDMDL
MODEL      173
REMARK 921   NORMALIZED FREE ENERGY PREDICTED BY IDOCK:   -0.73 KCAL/MOL
REMARK 922        TOTAL FREE ENERGY PREDICTED BY IDOCK:   -0.77 KCAL/MOL
REMARK 923 INTER-LIGAND FREE ENERGY PREDICTED BY IDOCK:   -0.77 KCAL/MOL
REMARK 924 INTRA-LIGAND FREE ENERGY PREDICTED BY IDOCK:    0.00 KCAL/MOL
REMARK 927      BINDING AFFINITY PREDICTED BY RF-SCORE:    0.00 PKD
ROOT
HETATM    1  N   UNL     1      -9.135   5.206  63.907  1.00  0.00    -0.351 N  
HETATM    2  H1  UNL     1      -8.958   5.117  62.906  1.00  0.00     0.000 HD 
HETATM    3  H2  UNL     1      -9.414   6.113  64.280  1.00  0.00     0.000 HD 
HETATM    4  C   UNL     1      -9.013   4.158  64.753  1.00  0.00    -0.140 C  
HETATM    5  O   UNL     1      -9.227   4.264  65.958  1.00  0.00    -0.129 OA 
ENDROOT
BRANCH   4   6
HETATM    6  N   UNL     1      -8.649   2.991  64.161  1.00  0.00    -0.089 N  
HETATM    7  H   UNL     1      -9.061   2.101  64.440  1.00  0.00     0.000 HD 
HETATM    8  O   UNL     1      -7.675   3.065  63.143  1.00  0.00    -0.064 OA 
HETATM    9  H   UNL     1      -7.420   2.249  62.729  1.00  0.00     0.000 HD 
ENDBRANCH   4   6
TORSDOF 1
ENDMDL
MODEL      174
REMARK 921   NORMALIZED FREE ENERGY PREDICTED BY IDOCK:   -0.72 KCAL/MOL
REMARK 922        TOTAL FREE ENERGY PREDICTED BY IDOCK:   -0.76 KCAL/MOL
REMARK 923 INTER-LIGAND FREE ENERGY PREDICTED BY IDOCK:   -0.76 KCAL/MOL
REMARK 924 INTRA-LIGAND FREE ENERGY PREDICTED BY IDOCK:    0.00 KCAL/MOL
REMARK 927      BINDING AFFINITY PREDICTED BY RF-SCORE:    0.00 PKD
ROOT
HETATM    1  N   UNL     1      -7.656   3.278  65.717  1.00  0.00    -0.076 N  
HETATM    2  H1  UNL     1      -7.797   2.564  65.002  1.00  0.00     0.000 HD 
HETATM    3  H2  UNL     1      -7.266   3.003  66.619  1.00  0.00     0.000 HD 
HETATM    4  C   UNL     1      -7.970   4.576  65.507  1.00  0.00    -0.095 C  
HETATM    5  O   UNL     1      -7.801   5.435  66.368  1.00  0.00    -0.098 OA 
ENDROOT
BRANCH   4   6
HETATM    6  N   UNL     1      -8.473   4.846  64.275  1.00  0.00    -0.134 N  
HETATM    7  H   UNL     1      -7.872   5.154  63.511  1.00  0.00     0.000 HD 
HETATM    8  O   UNL     1      -9.862   4.680  64.098  1.00  0.00    -0.358 OA 
HETATM    9  H   UNL     1     -10.213   4.868  63.236  1.00  0.00     0.000 HD 
ENDBRANCH   4   6
TORSDOF 1
ENDMDL
MODEL      175
REMARK 921   NORMALIZED FREE ENERGY PREDICTED BY IDOCK:   -0.72 KCAL/MOL
REMARK 922        TOTAL FREE ENERGY PREDICTED BY IDOCK:   -0.76 KCAL/MOL
REMARK 923 INTER-LIGAND FREE ENERGY PREDICTED BY IDOCK:   -0.76 KCAL/MOL
REMARK 924 INTRA-LIGAND FREE ENERGY PREDICTED BY IDOCK:    0.00 KCAL/MOL
REMARK 927      BINDING AFFINITY PREDICTED BY RF-SCORE:    0.00 PKD
ROOT
HETATM    1  N   UNL     1      -8.608   8.045  68.043  1.00  0.00    -0.129 N  
HETATM    2  H1  UNL     1      -9.363   8.652  68.365  1.00  0.00     0.000 HD 
HETATM    3  H2  UNL     1      -8.151   7.429  68.715  1.00  0.00     0.000 HD 
HETATM    4  C   UNL     1      -8.195   8.034  66.755  1.00  0.00    -0.111 C  
HETATM    5  O   UNL     1      -7.287   7.303  66.369  1.00  0.00    -0.076 OA 
ENDROOT
BRANCH   4   6
HETATM    6  N   UNL     1      -8.871   8.880  65.936  1.00  0.00    -0.167 N  
HETATM    7  H   UNL     1      -8.418   9.320  65.135  1.00  0.00     0.000 HD 
HETATM    8  O   UNL     1     -10.226   9.124  66.243  1.00  0.00    -0.276 OA 
HETATM    9  H   UNL     1     -10.698   9.716  65.669  1.00  0.00     0.000 HD 
ENDBRANCH   4   6
TORSDOF 1
ENDMDL
MODEL      176
REMARK 921   NORMALIZED FREE ENERGY PREDICTED BY IDOCK:   -0.70 KCAL/MOL
REMARK 922        TOTAL FREE ENERGY PREDICTED BY IDOCK:   -0.74 KCAL/MOL
REMARK 923 INTER-LIGAND FREE ENERGY PREDICTED BY IDOCK:   -0.74 KCAL/MOL
REMARK 924 INTRA-LIGAND FREE ENERGY PREDICTED BY IDOCK:    0.00 KCAL/MOL
REMARK 927      BINDING AFFINITY PREDICTED BY RF-SCORE:    0.00 PKD
ROOT
HETATM    1  N   UNL     1      -8.043   3.282  64.434  1.00  0.00    -0.086 N  
HETATM    2  H1  UNL     1      -8.756   2.563  64.309  1.00  0.00     0.000 HD 
HETATM    3  H2  UNL     1      -7.476   3.558  63.633  1.00  0.00     0.000 HD 
HETATM    4  C   UNL     1      -7.828   3.880  65.628  1.00  0.00    -0.090 C  
HETATM    5  O   UNL     1      -6.970   4.746  65.778  1.00  0.00    -0.060 OA 
ENDROOT
BRANCH   4   6
HETATM    6  N   UNL     1      -8.639   3.454  66.629  1.00  0.00    -0.109 N  
HETATM    7  H   UNL     1      -8.276   2.919  67.418  1.00  0.00     0.000 HD 
HETATM    8  O   UNL     1     -10.008   3.782  66.530  1.00  0.00    -0.398 OA 
HETATM    9  H   UNL     1     -10.575   3.484  67.232  1.00  0.00     0.000 HD 
ENDBRANCH   4   6
TORSDOF 1
ENDMDL
MODEL      177
REMARK 921   NORMALIZED FREE ENERGY PREDICTED BY IDOCK:   -0.70 KCAL/MOL
REMARK 922        TOTAL FREE ENERGY PREDICTED BY IDOCK:   -0.74 KCAL/MOL
REMARK 923 INTER-LIGAND FREE ENERGY PREDICTED BY IDOCK:   -0.74 KCAL/MOL
REMARK 924 INTRA-LIGAND FREE ENERGY PREDICTED BY IDOCK:    0.00 KCAL/MOL
REMARK 927      BINDING AFFINITY PREDICTED BY RF-SCORE:    0.00 PKD
ROOT
HETATM    1  N   UNL     1      -9.342   7.548  73.200  1.00  0.00    -0.183 N  
HETATM    2  H1  UNL     1     -10.315   7.855  73.184  1.00  0.00     0.000 HD 
HETATM    3  H2  UNL     1      -8.735   7.871  73.953  1.00  0.00     0.000 HD 
HETATM    4  C   UNL     1      -8.833   6.728  72.253  1.00  0.00    -0.131 C  
HETATM    5  O   UNL     1      -7.662   6.358  72.272  1.00  0.00    -0.097 OA 
ENDROOT
BRANCH   4   6
HETATM    6  N   UNL     1      -9.720   6.344  71.299  1.00  0.00    -0.174 N  
HETATM    7  H   UNL     1     -10.505   5.731  71.518  1.00  0.00     0.000 HD 
HETATM    8  O   UNL     1      -9.507   6.831  69.992  1.00  0.00    -0.158 OA 
HETATM    9  H   UNL     1     -10.129   6.562  69.325  1.00  0.00     0.000 HD 
ENDBRANCH   4   6
TORSDOF 1
ENDMDL
MODEL      178
REMARK 921   NORMALIZED FREE ENERGY PREDICTED BY IDOCK:   -0.67 KCAL/MOL
REMARK 922        TOTAL FREE ENERGY PREDICTED BY IDOCK:   -0.71 KCAL/MOL
REMARK 923 INTER-LIGAND FREE ENERGY PREDICTED BY IDOCK:   -0.71 KCAL/MOL
REMARK 924 INTRA-LIGAND FREE ENERGY PREDICTED BY IDOCK:    0.00 KCAL/MOL
REMARK 927      BINDING AFFINITY PREDICTED BY RF-SCORE:    0.00 PKD
ROOT
HETATM    1  N   UNL     1      -7.450   9.260  67.769  1.00  0.00    -0.087 N  
HETATM    2  H1  UNL     1      -8.181   9.867  68.140  1.00  0.00     0.000 HD 
HETATM    3  H2  UNL     1      -6.980   8.611  68.399  1.00  0.00     0.000 HD 
HETATM    4  C   UNL     1      -7.085   9.289  66.466  1.00  0.00    -0.085 C  
HETATM    5  O   UNL     1      -6.205   8.558  66.020  1.00  0.00    -0.051 OA 
ENDROOT
BRANCH   4   6
HETATM    6  N   UNL     1      -7.775  10.176  65.704  1.00  0.00    -0.137 N  
HETATM    7  H   UNL     1      -8.755  10.388  65.890  1.00  0.00     0.000 HD 
HETATM    8  O   UNL     1      -7.076  10.790  64.644  1.00  0.00    -0.353 OA 
HETATM    9  H   UNL     1      -7.559  11.412  64.112  1.00  0.00     0.000 HD 
ENDBRANCH   4   6
TORSDOF 1
ENDMDL
MODEL      179
REMARK 921   NORMALIZED FREE ENERGY PREDICTED BY IDOCK:   -0.53 KCAL/MOL
REMARK 922        TOTAL FREE ENERGY PREDICTED BY IDOCK:   -0.56 KCAL/MOL
REMARK 923 INTER-LIGAND FREE ENERGY PREDICTED BY IDOCK:   -0.56 KCAL/MOL
REMARK 924 INTRA-LIGAND FREE ENERGY PREDICTED BY IDOCK:    0.00 KCAL/MOL
REMARK 927      BINDING AFFINITY PREDICTED BY RF-SCORE:    0.00 PKD
ROOT
HETATM    1  N   UNL     1      -9.036   4.980  64.275  1.00  0.00    -0.346 N  
HETATM    2  H1  UNL     1      -9.210   5.984  64.235  1.00  0.00     0.000 HD 
HETATM    3  H2  UNL     1      -9.823   4.348  64.421  1.00  0.00     0.000 HD 
HETATM    4  C   UNL     1      -7.794   4.460  64.141  1.00  0.00    -0.085 C  
HETATM    5  O   UNL     1      -7.585   3.251  64.189  1.00  0.00    -0.073 OA 
ENDROOT
BRANCH   4   6
HETATM    6  N   UNL     1      -6.815   5.379  63.940  1.00  0.00    -0.045 N  
HETATM    7  H   UNL     1      -6.960   6.367  64.148  1.00  0.00     0.000 HD 
HETATM    8  O   UNL     1      -5.587   4.906  63.430  1.00  0.00    -0.015 OA 
HETATM    9  H   UNL     1      -4.902   5.550  63.290  1.00  0.00     0.000 HD 
ENDBRANCH   4   6
TORSDOF 1
ENDMDL
MODEL      180
REMARK 921   NORMALIZED FREE ENERGY PREDICTED BY IDOCK:   -0.51 KCAL/MOL
REMARK 922        TOTAL FREE ENERGY PREDICTED BY IDOCK:   -0.54 KCAL/MOL
REMARK 923 INTER-LIGAND FREE ENERGY PREDICTED BY IDOCK:   -0.54 KCAL/MOL
REMARK 924 INTRA-LIGAND FREE ENERGY PREDICTED BY IDOCK:    0.00 KCAL/MOL
REMARK 927      BINDING AFFINITY PREDICTED BY RF-SCORE:    0.00 PKD
ROOT
HETATM    1  N   UNL     1      -7.432   8.797  71.690  1.00  0.00    -0.097 N  
HETATM    2  H1  UNL     1      -6.414   8.761  71.736  1.00  0.00     0.000 HD 
HETATM    3  H2  UNL     1      -7.879   9.624  71.295  1.00  0.00     0.000 HD 
HETATM    4  C   UNL     1      -8.208   7.782  72.135  1.00  0.00    -0.113 C  
HETATM    5  O   UNL     1      -9.434   7.826  72.080  1.00  0.00    -0.151 OA 
ENDROOT
BRANCH   4   6
HETATM    6  N   UNL     1      -7.522   6.721  72.633  1.00  0.00    -0.090 N  
HETATM    7  H   UNL     1      -7.100   6.747  73.561  1.00  0.00     0.000 HD 
HETATM    8  O   UNL     1      -7.418   5.581  71.808  1.00  0.00    -0.088 OA 
HETATM    9  H   UNL     1      -6.938   4.839  72.157  1.00  0.00     0.000 HD 
ENDBRANCH   4   6
TORSDOF 1
ENDMDL
MODEL      181
REMARK 921   NORMALIZED FREE ENERGY PREDICTED BY IDOCK:   -0.31 KCAL/MOL
REMARK 922        TOTAL FREE ENERGY PREDICTED BY IDOCK:   -0.33 KCAL/MOL
REMARK 923 INTER-LIGAND FREE ENERGY PREDICTED BY IDOCK:   -0.33 KCAL/MOL
REMARK 924 INTRA-LIGAND FREE ENERGY PREDICTED BY IDOCK:    0.00 KCAL/MOL
REMARK 927      BINDING AFFINITY PREDICTED BY RF-SCORE:    0.00 PKD
ROOT
HETATM    1  N   UNL     1      -7.125   8.679  69.880  1.00  0.00    -0.049 N  
HETATM    2  H1  UNL     1      -7.745   9.483  69.783  1.00  0.00     0.000 HD 
HETATM    3  H2  UNL     1      -6.795   8.420  70.810  1.00  0.00     0.000 HD 
HETATM    4  C   UNL     1      -6.727   7.947  68.815  1.00  0.00    -0.057 C  
HETATM    5  O   UNL     1      -5.981   6.978  68.933  1.00  0.00    -0.021 OA 
ENDROOT
BRANCH   4   6
HETATM    6  N   UNL     1      -7.226   8.363  67.623  1.00  0.00    -0.087 N  
HETATM    7  H   UNL     1      -6.835   9.167  67.134  1.00  0.00     0.000 HD 
HETATM    8  O   UNL     1      -8.310   7.633  67.092  1.00  0.00    -0.118 OA 
HETATM    9  H   UNL     1      -8.659   7.924  66.257  1.00  0.00     0.000 HD 
ENDBRANCH   4   6
TORSDOF 1
ENDMDL
MODEL      182
REMARK 921   NORMALIZED FREE ENERGY PREDICTED BY IDOCK:    1.01 KCAL/MOL
REMARK 922        TOTAL FREE ENERGY PREDICTED BY IDOCK:    1.07 KCAL/MOL
REMARK 923 INTER-LIGAND FREE ENERGY PREDICTED BY IDOCK:    1.07 KCAL/MOL
REMARK 924 INTRA-LIGAND FREE ENERGY PREDICTED BY IDOCK:    0.00 KCAL/MOL
REMARK 927      BINDING AFFINITY PREDICTED BY RF-SCORE:    0.00 PKD
ROOT
HETATM    1  N   UNL     1      -9.615   3.359  64.730  1.00  0.00    -0.157 N  
HETATM    2  H1  UNL     1      -9.215   2.783  63.989  1.00  0.00     0.000 HD 
HETATM    3  H2  UNL     1      -9.316   3.204  65.692  1.00  0.00     0.000 HD 
HETATM    4  C   UNL     1     -10.531   4.322  64.475  1.00  0.00    -0.081 C  
HETATM    5  O   UNL     1     -11.012   5.015  65.366  1.00  0.00     0.000 OA 
ENDROOT
BRANCH   4   6
HETATM    6  N   UNL     1     -10.858   4.460  63.164  1.00  0.00    -0.362 N  
HETATM    7  H   UNL     1     -10.292   4.039  62.427  1.00  0.00     0.000 HD 
HETATM    8  O   UNL     1     -12.014   5.211  62.868  1.00  0.00     1.666 OA 
HETATM    9  H   UNL     1     -12.243   5.307  61.950  1.00  0.00     0.000 HD 
ENDBRANCH   4   6
TORSDOF 1
ENDMDL
